MODEL 1
REMARK VINA RESULT:    -8.423      0.000      0.000
REMARK INTER + INTRA:         -16.252
REMARK INTER:                 -13.839
REMARK INTRA:                  -2.413
REMARK UNBOUND:                -2.413
REMARK SMILES C[C@@H]1O[C@@H](OC[C@@H]2O[C@@H](Oc3c(-c4ccc(O)c(O)c4)oc4cc(O)cc(O)c4c3=O)[C@H](O)[C@@H](O)[C@@H]2O)[C@@H](O)[C@H](O)[C@@H]1O
REMARK SMILES IDX 7 1 36 2 34 3 32 4 9 5 8 6 6 7 5 8 4 9 1 10 2 11 42 12 3 13
REMARK SMILES IDX 40 14 38 15 43 16 41 18 39 20 37 22 35 24 10 26 11 27 12 28
REMARK SMILES IDX 30 29 21 30 29 31 31 32 22 33 27 34 23 35 26 36 24 37 13 38
REMARK SMILES IDX 20 39 14 40 18 41 15 42 16 43 19 44 17 46 28 48 25 50 33 52
REMARK H PARENT 43 17 41 19 39 21 37 23 35 25 19 45 17 47 28 49 25 51 33 53
REMARK Flexibility Score: inf
ROOT
ATOM      1  C   UNL     1     -12.527 -13.098  28.048  1.00  0.00     0.180 C 
ATOM      2  C   UNL     1     -12.510 -12.456  29.458  1.00  0.00     0.177 C 
ATOM      3  C   UNL     1     -12.679 -10.923  29.358  1.00  0.00     0.180 C 
ATOM      4  C   UNL     1     -11.777 -10.313  28.261  1.00  0.00     0.214 C 
ATOM      5  C   UNL     1     -11.795 -11.155  26.966  1.00  0.00     0.339 C 
ATOM      6  O   UNL     1     -11.525 -12.523  27.228  1.00  0.00    -0.332 OA
ENDROOT
BRANCH   1   7
ATOM      7  C   UNL     1     -12.304 -14.615  28.101  1.00  0.00     0.198 C 
BRANCH   7   8
ATOM      8  O   UNL     1     -11.502 -15.028  27.005  1.00  0.00    -0.347 OA
BRANCH   8   9
ATOM      9  C   UNL     1     -10.921 -16.301  27.240  1.00  0.00     0.281 C 
ATOM     10  C   UNL     1      -7.682 -15.210  28.620  1.00  0.00     0.041 C 
ATOM     11  C   UNL     1      -8.770 -15.413  27.564  1.00  0.00     0.150 C 
ATOM     12  C   UNL     1      -8.198 -16.073  26.293  1.00  0.00     0.174 C 
ATOM     13  O   UNL     1      -9.807 -16.205  28.121  1.00  0.00    -0.344 OA
ATOM     14  C   UNL     1      -9.331 -16.228  25.264  1.00  0.00     0.179 C 
ATOM     15  C   UNL     1     -10.525 -16.964  25.904  1.00  0.00     0.202 C 
BRANCH  12  16
ATOM     16  O   UNL     1      -7.651 -17.329  26.613  1.00  0.00    -0.388 OA
ATOM     17  H   UNL     1      -7.849 -17.495  27.572  1.00  0.00     0.211 HD
ENDBRANCH  12  16
BRANCH  14  18
ATOM     18  O   UNL     1      -8.858 -16.939  24.149  1.00  0.00    -0.387 OA
ATOM     19  H   UNL     1      -9.018 -17.903  24.329  1.00  0.00     0.211 HD
ENDBRANCH  14  18
BRANCH  15  20
ATOM     20  O   UNL     1     -11.629 -16.951  25.035  1.00  0.00    -0.385 OA
ATOM     21  H   UNL     1     -11.518 -17.717  24.414  1.00  0.00     0.211 HD
ENDBRANCH  15  20
ENDBRANCH   8   9
ENDBRANCH   7   8
ENDBRANCH   1   7
BRANCH   2  22
ATOM     22  O   UNL     1     -11.291 -12.737  30.103  1.00  0.00    -0.387 OA
ATOM     23  H   UNL     1     -11.184 -13.724  30.111  1.00  0.00     0.211 HD
ENDBRANCH   2  22
BRANCH   3  24
ATOM     24  O   UNL     1     -14.027 -10.556  29.180  1.00  0.00    -0.387 OA
ATOM     25  H   UNL     1     -14.390 -10.259  30.051  1.00  0.00     0.211 HD
ENDBRANCH   3  24
BRANCH   5  26
ATOM     26  O   UNL     1     -13.040 -11.000  26.273  1.00  0.00    -0.454 OA
BRANCH  26  27
ATOM     27  C   UNL     1     -13.244 -10.025  25.291  1.00  0.00     0.214 A 
ATOM     28  C   UNL     1     -12.748 -10.179  23.981  1.00  0.00     0.180 A 
ATOM     29  C   UNL     1     -13.953  -8.864  25.616  1.00  0.00     0.239 A 
ATOM     30  O   UNL     1     -12.894  -9.193  23.100  1.00  0.00    -0.452 OA
ATOM     31  C   UNL     1     -14.107  -7.848  24.650  1.00  0.00     0.111 A 
ATOM     32  O   UNL     1     -14.430  -8.739  26.776  1.00  0.00    -0.285 OA
ATOM     33  C   UNL     1     -13.532  -8.061  23.375  1.00  0.00     0.146 A 
ATOM     34  C   UNL     1     -14.795  -6.638  24.904  1.00  0.00     0.134 A 
ATOM     35  C   UNL     1     -13.638  -7.082  22.383  1.00  0.00     0.094 A 
ATOM     36  C   UNL     1     -14.892  -5.669  23.895  1.00  0.00     0.093 A 
ATOM     37  C   UNL     1     -14.316  -5.886  22.640  1.00  0.00     0.123 A 
BRANCH  28  38
ATOM     38  C   UNL     1     -12.071 -11.418  23.539  1.00  0.00     0.025 A 
ATOM     39  C   UNL     1     -12.746 -12.375  22.763  1.00  0.00     0.062 A 
ATOM     40  C   UNL     1     -10.724 -11.624  23.858  1.00  0.00     0.016 A 
ATOM     41  C   UNL     1     -12.099 -13.543  22.338  1.00  0.00     0.158 A 
ATOM     42  C   UNL     1     -10.071 -12.787  23.443  1.00  0.00     0.051 A 
ATOM     43  C   UNL     1     -10.746 -13.755  22.690  1.00  0.00     0.157 A 
BRANCH  41  44
ATOM     44  O   UNL     1     -12.832 -14.451  21.572  1.00  0.00    -0.504 OA
ATOM     45  H   UNL     1     -12.571 -15.418  21.440  1.00  0.00     0.293 HD
ENDBRANCH  41  44
BRANCH  43  46
ATOM     46  O   UNL     1     -10.039 -14.900  22.316  1.00  0.00    -0.504 OA
ATOM     47  H   UNL     1      -9.176 -15.198  22.750  1.00  0.00     0.293 HD
ENDBRANCH  43  46
ENDBRANCH  28  38
BRANCH  34  48
ATOM     48  O   UNL     1     -15.379  -6.390  26.147  1.00  0.00    -0.507 OA
ATOM     49  H   UNL     1     -15.387  -7.089  26.881  1.00  0.00     0.293 HD
ENDBRANCH  34  48
BRANCH  37  50
ATOM     50  O   UNL     1     -14.427  -4.907  21.656  1.00  0.00    -0.508 OA
ATOM     51  H   UNL     1     -15.137  -4.958  20.935  1.00  0.00     0.293 HD
ENDBRANCH  37  50
ENDBRANCH  26  27
ENDBRANCH   5  26
BRANCH   4  52
ATOM     52  O   UNL     1     -10.461 -10.235  28.746  1.00  0.00    -0.384 OA
ATOM     53  H   UNL     1      -9.859 -10.458  27.989  1.00  0.00     0.211 HD
ENDBRANCH   4  52
TORSDOF 16
ENDMDL
MODEL 2
REMARK VINA RESULT:    -8.247      1.471      1.765
REMARK INTER + INTRA:         -15.963
REMARK INTER:                 -13.064
REMARK INTRA:                  -2.899
REMARK UNBOUND:                -2.413
REMARK SMILES C[C@@H]1O[C@@H](OC[C@@H]2O[C@@H](Oc3c(-c4ccc(O)c(O)c4)oc4cc(O)cc(O)c4c3=O)[C@H](O)[C@@H](O)[C@@H]2O)[C@@H](O)[C@H](O)[C@@H]1O
REMARK SMILES IDX 7 1 36 2 34 3 32 4 9 5 8 6 6 7 5 8 4 9 1 10 2 11 42 12 3 13
REMARK SMILES IDX 40 14 38 15 43 16 41 18 39 20 37 22 35 24 10 26 11 27 12 28
REMARK SMILES IDX 30 29 21 30 29 31 31 32 22 33 27 34 23 35 26 36 24 37 13 38
REMARK SMILES IDX 20 39 14 40 18 41 15 42 16 43 19 44 17 46 28 48 25 50 33 52
REMARK H PARENT 43 17 41 19 39 21 37 23 35 25 19 45 17 47 28 49 25 51 33 53
REMARK Flexibility Score: inf
ROOT
ATOM      1  C   UNL     1     -12.557 -11.953  28.559  1.00  0.00     0.180 C 
ATOM      2  C   UNL     1     -11.677 -11.060  29.469  1.00  0.00     0.177 C 
ATOM      3  C   UNL     1     -11.491  -9.662  28.838  1.00  0.00     0.180 C 
ATOM      4  C   UNL     1     -11.142  -9.748  27.335  1.00  0.00     0.214 C 
ATOM      5  C   UNL     1     -12.015 -10.790  26.601  1.00  0.00     0.339 C 
ATOM      6  O   UNL     1     -11.996 -12.045  27.261  1.00  0.00    -0.332 OA
ENDROOT
BRANCH   1   7
ATOM      7  C   UNL     1     -12.718 -13.371  29.123  1.00  0.00     0.198 C 
BRANCH   7   8
ATOM      8  O   UNL     1     -11.773 -14.244  28.524  1.00  0.00    -0.347 OA
BRANCH   8   9
ATOM      9  C   UNL     1     -12.164 -15.602  28.660  1.00  0.00     0.281 C 
ATOM     10  C   UNL     1      -8.824 -17.154  28.776  1.00  0.00     0.041 C 
ATOM     11  C   UNL     1     -10.015 -16.415  28.167  1.00  0.00     0.150 C 
ATOM     12  C   UNL     1     -10.458 -17.064  26.840  1.00  0.00     0.174 C 
ATOM     13  O   UNL     1     -11.080 -16.409  29.105  1.00  0.00    -0.344 OA
ATOM     14  C   UNL     1     -11.640 -16.264  26.267  1.00  0.00     0.179 C 
ATOM     15  C   UNL     1     -12.747 -16.128  27.331  1.00  0.00     0.202 C 
BRANCH  12  16
ATOM     16  O   UNL     1     -10.834 -18.400  27.066  1.00  0.00    -0.388 OA
ATOM     17  H   UNL     1     -11.808 -18.397  27.261  1.00  0.00     0.211 HD
ENDBRANCH  12  16
BRANCH  14  18
ATOM     18  O   UNL     1     -12.136 -16.912  25.124  1.00  0.00    -0.387 OA
ATOM     19  H   UNL     1     -12.555 -16.215  24.554  1.00  0.00     0.211 HD
ENDBRANCH  14  18
BRANCH  15  20
ATOM     20  O   UNL     1     -13.748 -15.249  26.885  1.00  0.00    -0.385 OA
ATOM     21  H   UNL     1     -14.516 -15.807  26.597  1.00  0.00     0.211 HD
ENDBRANCH  15  20
ENDBRANCH   8   9
ENDBRANCH   7   8
ENDBRANCH   1   7
BRANCH   2  22
ATOM     22  O   UNL     1     -10.412 -11.650  29.648  1.00  0.00    -0.387 OA
ATOM     23  H   UNL     1     -10.382 -12.003  30.576  1.00  0.00     0.211 HD
ENDBRANCH   2  22
BRANCH   3  24
ATOM     24  O   UNL     1     -12.607  -8.834  29.063  1.00  0.00    -0.387 OA
ATOM     25  H   UNL     1     -12.460  -7.972  28.599  1.00  0.00     0.211 HD
ENDBRANCH   3  24
BRANCH   5  26
ATOM     26  O   UNL     1     -13.357 -10.313  26.441  1.00  0.00    -0.454 OA
BRANCH  26  27
ATOM     27  C   UNL     1     -13.765  -9.553  25.340  1.00  0.00     0.214 A 
ATOM     28  C   UNL     1     -13.631 -10.031  24.021  1.00  0.00     0.180 A 
ATOM     29  C   UNL     1     -14.313  -8.284  25.550  1.00  0.00     0.239 A 
ATOM     30  O   UNL     1     -13.957  -9.244  22.999  1.00  0.00    -0.452 OA
ATOM     31  C   UNL     1     -14.667  -7.485  24.443  1.00  0.00     0.111 A 
ATOM     32  O   UNL     1     -14.468  -7.868  26.730  1.00  0.00    -0.285 OA
ATOM     33  C   UNL     1     -14.451  -8.021  23.151  1.00  0.00     0.146 A 
ATOM     34  C   UNL     1     -15.211  -6.185  24.569  1.00  0.00     0.134 A 
ATOM     35  C   UNL     1     -14.767  -7.269  22.015  1.00  0.00     0.094 A 
ATOM     36  C   UNL     1     -15.523  -5.448  23.418  1.00  0.00     0.093 A 
ATOM     37  C   UNL     1     -15.302  -5.983  22.146  1.00  0.00     0.123 A 
BRANCH  28  38
ATOM     38  C   UNL     1     -13.148 -11.397  23.726  1.00  0.00     0.025 A 
ATOM     39  C   UNL     1     -13.910 -12.526  24.071  1.00  0.00     0.062 A 
ATOM     40  C   UNL     1     -11.933 -11.573  23.053  1.00  0.00     0.016 A 
ATOM     41  C   UNL     1     -13.452 -13.818  23.782  1.00  0.00     0.158 A 
ATOM     42  C   UNL     1     -11.467 -12.857  22.764  1.00  0.00     0.051 A 
ATOM     43  C   UNL     1     -12.210 -13.986  23.127  1.00  0.00     0.157 A 
BRANCH  41  44
ATOM     44  O   UNL     1     -14.260 -14.894  24.156  1.00  0.00    -0.504 OA
ATOM     45  H   UNL     1     -15.047 -14.817  24.785  1.00  0.00     0.293 HD
ENDBRANCH  41  44
BRANCH  43  46
ATOM     46  O   UNL     1     -11.682 -15.242  22.819  1.00  0.00    -0.504 OA
ATOM     47  H   UNL     1     -10.995 -15.403  22.097  1.00  0.00     0.293 HD
ENDBRANCH  43  46
ENDBRANCH  28  38
BRANCH  34  48
ATOM     48  O   UNL     1     -15.443  -5.622  25.825  1.00  0.00    -0.507 OA
ATOM     49  H   UNL     1     -14.800  -4.957  26.238  1.00  0.00     0.293 HD
ENDBRANCH  34  48
BRANCH  37  50
ATOM     50  O   UNL     1     -15.620  -5.229  21.019  1.00  0.00    -0.508 OA
ATOM     51  H   UNL     1     -15.982  -4.285  21.098  1.00  0.00     0.293 HD
ENDBRANCH  37  50
ENDBRANCH  26  27
ENDBRANCH   5  26
BRANCH   4  52
ATOM     52  O   UNL     1      -9.788 -10.097  27.201  1.00  0.00    -0.384 OA
ATOM     53  H   UNL     1      -9.454  -9.648  26.381  1.00  0.00     0.211 HD
ENDBRANCH   4  52
TORSDOF 16
ENDMDL
MODEL 3
REMARK VINA RESULT:    -8.199      1.204      1.910
REMARK INTER + INTRA:         -15.885
REMARK INTER:                 -13.285
REMARK INTRA:                  -2.600
REMARK UNBOUND:                -2.413
REMARK SMILES C[C@@H]1O[C@@H](OC[C@@H]2O[C@@H](Oc3c(-c4ccc(O)c(O)c4)oc4cc(O)cc(O)c4c3=O)[C@H](O)[C@@H](O)[C@@H]2O)[C@@H](O)[C@H](O)[C@@H]1O
REMARK SMILES IDX 7 1 36 2 34 3 32 4 9 5 8 6 6 7 5 8 4 9 1 10 2 11 42 12 3 13
REMARK SMILES IDX 40 14 38 15 43 16 41 18 39 20 37 22 35 24 10 26 11 27 12 28
REMARK SMILES IDX 30 29 21 30 29 31 31 32 22 33 27 34 23 35 26 36 24 37 13 38
REMARK SMILES IDX 20 39 14 40 18 41 15 42 16 43 19 44 17 46 28 48 25 50 33 52
REMARK H PARENT 43 17 41 19 39 21 37 23 35 25 19 45 17 47 28 49 25 51 33 53
REMARK Flexibility Score: inf
ROOT
ATOM      1  C   UNL     1     -12.819 -12.724  27.839  1.00  0.00     0.180 C 
ATOM      2  C   UNL     1     -12.492 -12.355  29.308  1.00  0.00     0.177 C 
ATOM      3  C   UNL     1     -12.576 -10.826  29.514  1.00  0.00     0.180 C 
ATOM      4  C   UNL     1     -11.862 -10.050  28.385  1.00  0.00     0.214 C 
ATOM      5  C   UNL     1     -12.182 -10.637  26.992  1.00  0.00     0.339 C 
ATOM      6  O   UNL     1     -11.957 -12.036  26.950  1.00  0.00    -0.332 OA
ENDROOT
BRANCH   1   7
ATOM      7  C   UNL     1     -12.690 -14.230  27.579  1.00  0.00     0.198 C 
BRANCH   7   8
ATOM      8  O   UNL     1     -11.411 -14.687  27.991  1.00  0.00    -0.347 OA
BRANCH   8   9
ATOM      9  C   UNL     1     -10.649 -15.157  26.889  1.00  0.00     0.281 C 
ATOM     10  C   UNL     1     -10.118 -18.632  27.995  1.00  0.00     0.041 C 
ATOM     11  C   UNL     1      -9.975 -17.110  28.009  1.00  0.00     0.150 C 
ATOM     12  C   UNL     1      -8.493 -16.688  28.059  1.00  0.00     0.174 C 
ATOM     13  O   UNL     1     -10.612 -16.579  26.857  1.00  0.00    -0.344 OA
ATOM     14  C   UNL     1      -8.417 -15.152  28.094  1.00  0.00     0.179 C 
ATOM     15  C   UNL     1      -9.227 -14.559  26.925  1.00  0.00     0.202 C 
BRANCH  12  16
ATOM     16  O   UNL     1      -7.817 -17.186  26.931  1.00  0.00    -0.388 OA
ATOM     17  H   UNL     1      -7.033 -16.595  26.778  1.00  0.00     0.211 HD
ENDBRANCH  12  16
BRANCH  14  18
ATOM     18  O   UNL     1      -7.075 -14.747  28.015  1.00  0.00    -0.387 OA
ATOM     19  H   UNL     1      -6.752 -14.985  27.106  1.00  0.00     0.211 HD
ENDBRANCH  14  18
BRANCH  15  20
ATOM     20  O   UNL     1      -9.316 -13.162  27.051  1.00  0.00    -0.385 OA
ATOM     21  H   UNL     1      -8.388 -12.819  27.130  1.00  0.00     0.211 HD
ENDBRANCH  15  20
ENDBRANCH   8   9
ENDBRANCH   7   8
ENDBRANCH   1   7
BRANCH   2  22
ATOM     22  O   UNL     1     -11.193 -12.786  29.637  1.00  0.00    -0.387 OA
ATOM     23  H   UNL     1     -10.564 -12.309  29.034  1.00  0.00     0.211 HD
ENDBRANCH   2  22
BRANCH   3  24
ATOM     24  O   UNL     1     -13.906 -10.393  29.676  1.00  0.00    -0.387 OA
ATOM     25  H   UNL     1     -14.018  -9.532  29.202  1.00  0.00     0.211 HD
ENDBRANCH   3  24
BRANCH   5  26
ATOM     26  O   UNL     1     -13.523 -10.320  26.599  1.00  0.00    -0.454 OA
BRANCH  26  27
ATOM     27  C   UNL     1     -13.820  -9.549  25.470  1.00  0.00     0.214 A 
ATOM     28  C   UNL     1     -13.560 -10.016  24.166  1.00  0.00     0.180 A 
ATOM     29  C   UNL     1     -14.381  -8.278  25.636  1.00  0.00     0.239 A 
ATOM     30  O   UNL     1     -13.782  -9.220  23.124  1.00  0.00    -0.452 OA
ATOM     31  C   UNL     1     -14.622  -7.469  24.507  1.00  0.00     0.111 A 
ATOM     32  O   UNL     1     -14.647  -7.871  26.799  1.00  0.00    -0.285 OA
ATOM     33  C   UNL     1     -14.285  -7.996  23.237  1.00  0.00     0.146 A 
ATOM     34  C   UNL     1     -15.171  -6.168  24.591  1.00  0.00     0.134 A 
ATOM     35  C   UNL     1     -14.485  -7.233  22.083  1.00  0.00     0.094 A 
ATOM     36  C   UNL     1     -15.367  -5.420  23.421  1.00  0.00     0.093 A 
ATOM     37  C   UNL     1     -15.026  -5.945  22.172  1.00  0.00     0.123 A 
BRANCH  28  38
ATOM     38  C   UNL     1     -13.056 -11.382  23.908  1.00  0.00     0.025 A 
ATOM     39  C   UNL     1     -11.708 -11.609  23.582  1.00  0.00     0.062 A 
ATOM     40  C   UNL     1     -13.922 -12.476  24.032  1.00  0.00     0.016 A 
ATOM     41  C   UNL     1     -11.233 -12.905  23.347  1.00  0.00     0.158 A 
ATOM     42  C   UNL     1     -13.458 -13.772  23.796  1.00  0.00     0.051 A 
ATOM     43  C   UNL     1     -12.122 -14.001  23.448  1.00  0.00     0.157 A 
BRANCH  41  44
ATOM     44  O   UNL     1      -9.883 -13.056  23.026  1.00  0.00    -0.504 OA
ATOM     45  H   UNL     1      -9.524 -13.058  22.082  1.00  0.00     0.293 HD
ENDBRANCH  41  44
BRANCH  43  46
ATOM     46  O   UNL     1     -11.725 -15.319  23.215  1.00  0.00    -0.504 OA
ATOM     47  H   UNL     1     -11.937 -16.090  23.833  1.00  0.00     0.293 HD
ENDBRANCH  43  46
ENDBRANCH  28  38
BRANCH  34  48
ATOM     48  O   UNL     1     -15.521  -5.614  25.823  1.00  0.00    -0.507 OA
ATOM     49  H   UNL     1     -15.936  -6.172  26.560  1.00  0.00     0.293 HD
ENDBRANCH  34  48
BRANCH  37  50
ATOM     50  O   UNL     1     -15.230  -5.181  21.027  1.00  0.00    -0.508 OA
ATOM     51  H   UNL     1     -15.782  -5.527  20.250  1.00  0.00     0.293 HD
ENDBRANCH  37  50
ENDBRANCH  26  27
ENDBRANCH   5  26
BRANCH   4  52
ATOM     52  O   UNL     1     -10.475 -10.102  28.604  1.00  0.00    -0.384 OA
ATOM     53  H   UNL     1     -10.151  -9.163  28.630  1.00  0.00     0.211 HD
ENDBRANCH   4  52
TORSDOF 16
ENDMDL
MODEL 4
REMARK VINA RESULT:    -8.180      1.684      5.971
REMARK INTER + INTRA:         -15.854
REMARK INTER:                 -14.051
REMARK INTRA:                  -1.803
REMARK UNBOUND:                -2.413
REMARK SMILES C[C@@H]1O[C@@H](OC[C@@H]2O[C@@H](Oc3c(-c4ccc(O)c(O)c4)oc4cc(O)cc(O)c4c3=O)[C@H](O)[C@@H](O)[C@@H]2O)[C@@H](O)[C@H](O)[C@@H]1O
REMARK SMILES IDX 7 1 36 2 34 3 32 4 9 5 8 6 6 7 5 8 4 9 1 10 2 11 42 12 3 13
REMARK SMILES IDX 40 14 38 15 43 16 41 18 39 20 37 22 35 24 10 26 11 27 12 28
REMARK SMILES IDX 30 29 21 30 29 31 31 32 22 33 27 34 23 35 26 36 24 37 13 38
REMARK SMILES IDX 20 39 14 40 18 41 15 42 16 43 19 44 17 46 28 48 25 50 33 52
REMARK H PARENT 43 17 41 19 39 21 37 23 35 25 19 45 17 47 28 49 25 51 33 53
REMARK Flexibility Score: inf
ROOT
ATOM      1  C   UNL     1     -12.074 -12.795  23.105  1.00  0.00     0.180 C 
ATOM      2  C   UNL     1     -12.652 -12.348  21.739  1.00  0.00     0.177 C 
ATOM      3  C   UNL     1     -13.199 -10.906  21.829  1.00  0.00     0.180 C 
ATOM      4  C   UNL     1     -14.057 -10.690  23.096  1.00  0.00     0.214 C 
ATOM      5  C   UNL     1     -13.406 -11.323  24.346  1.00  0.00     0.339 C 
ATOM      6  O   UNL     1     -13.054 -12.678  24.122  1.00  0.00    -0.332 OA
ENDROOT
BRANCH   1   7
ATOM      7  C   UNL     1     -11.573 -14.245  23.074  1.00  0.00     0.198 C 
BRANCH   7   8
ATOM      8  O   UNL     1     -10.908 -14.556  24.289  1.00  0.00    -0.347 OA
BRANCH   8   9
ATOM      9  C   UNL     1     -11.032 -15.933  24.609  1.00  0.00     0.281 C 
ATOM     10  C   UNL     1     -11.488 -15.640  28.254  1.00  0.00     0.041 C 
ATOM     11  C   UNL     1     -10.757 -15.566  26.913  1.00  0.00     0.150 C 
ATOM     12  C   UNL     1      -9.408 -16.310  26.971  1.00  0.00     0.174 C 
ATOM     13  O   UNL     1     -11.592 -16.114  25.904  1.00  0.00    -0.344 OA
ATOM     14  C   UNL     1      -8.712 -16.180  25.605  1.00  0.00     0.179 C 
ATOM     15  C   UNL     1      -9.665 -16.639  24.484  1.00  0.00     0.202 C 
BRANCH  12  16
ATOM     16  O   UNL     1      -9.622 -17.664  27.284  1.00  0.00    -0.388 OA
ATOM     17  H   UNL     1      -8.748 -18.036  27.575  1.00  0.00     0.211 HD
ENDBRANCH  12  16
BRANCH  14  18
ATOM     18  O   UNL     1      -7.540 -16.954  25.599  1.00  0.00    -0.387 OA
ATOM     19  H   UNL     1      -7.356 -17.194  24.653  1.00  0.00     0.211 HD
ENDBRANCH  14  18
BRANCH  15  20
ATOM     20  O   UNL     1      -9.111 -16.355  23.225  1.00  0.00    -0.385 OA
ATOM     21  H   UNL     1      -9.847 -16.419  22.563  1.00  0.00     0.211 HD
ENDBRANCH  15  20
ENDBRANCH   8   9
ENDBRANCH   7   8
ENDBRANCH   1   7
BRANCH   2  22
ATOM     22  O   UNL     1     -13.698 -13.207  21.353  1.00  0.00    -0.387 OA
ATOM     23  H   UNL     1     -13.500 -14.101  21.736  1.00  0.00     0.211 HD
ENDBRANCH   2  22
BRANCH   3  24
ATOM     24  O   UNL     1     -12.170  -9.950  21.733  1.00  0.00    -0.387 OA
ATOM     25  H   UNL     1     -12.565  -9.049  21.841  1.00  0.00     0.211 HD
ENDBRANCH   3  24
BRANCH   5  26
ATOM     26  O   UNL     1     -12.271 -10.560  24.773  1.00  0.00    -0.454 OA
BRANCH  26  27
ATOM     27  C   UNL     1     -12.165 -10.013  26.056  1.00  0.00     0.214 A 
ATOM     28  C   UNL     1     -12.528  -8.677  26.323  1.00  0.00     0.180 A 
ATOM     29  C   UNL     1     -11.680 -10.806  27.101  1.00  0.00     0.239 A 
ATOM     30  O   UNL     1     -12.336  -8.172  27.538  1.00  0.00    -0.452 OA
ATOM     31  C   UNL     1     -11.509 -10.242  28.382  1.00  0.00     0.111 A 
ATOM     32  O   UNL     1     -11.388 -12.011  26.875  1.00  0.00    -0.285 OA
ATOM     33  C   UNL     1     -11.850  -8.879  28.551  1.00  0.00     0.146 A 
ATOM     34  C   UNL     1     -11.009 -10.971  29.488  1.00  0.00     0.134 A 
ATOM     35  C   UNL     1     -11.685  -8.261  29.795  1.00  0.00     0.094 A 
ATOM     36  C   UNL     1     -10.854 -10.333  30.727  1.00  0.00     0.093 A 
ATOM     37  C   UNL     1     -11.188  -8.985  30.883  1.00  0.00     0.123 A 
BRANCH  28  38
ATOM     38  C   UNL     1     -13.134  -7.808  25.291  1.00  0.00     0.025 A 
ATOM     39  C   UNL     1     -12.531  -7.646  24.032  1.00  0.00     0.062 A 
ATOM     40  C   UNL     1     -14.353  -7.170  25.551  1.00  0.00     0.016 A 
ATOM     41  C   UNL     1     -13.114  -6.829  23.055  1.00  0.00     0.158 A 
ATOM     42  C   UNL     1     -14.940  -6.350  24.584  1.00  0.00     0.051 A 
ATOM     43  C   UNL     1     -14.331  -6.166  23.338  1.00  0.00     0.157 A 
BRANCH  41  44
ATOM     44  O   UNL     1     -12.458  -6.713  21.828  1.00  0.00    -0.504 OA
ATOM     45  H   UNL     1     -11.992  -5.873  21.515  1.00  0.00     0.293 HD
ENDBRANCH  41  44
BRANCH  43  46
ATOM     46  O   UNL     1     -14.964  -5.326  22.420  1.00  0.00    -0.504 OA
ATOM     47  H   UNL     1     -15.180  -5.589  21.469  1.00  0.00     0.293 HD
ENDBRANCH  43  46
ENDBRANCH  28  38
BRANCH  34  48
ATOM     48  O   UNL     1     -10.666 -12.317  29.364  1.00  0.00    -0.507 OA
ATOM     49  H   UNL     1      -9.853 -12.615  28.836  1.00  0.00     0.293 HD
ENDBRANCH  34  48
BRANCH  37  50
ATOM     50  O   UNL     1     -11.024  -8.377  32.125  1.00  0.00    -0.508 OA
ATOM     51  H   UNL     1     -11.819  -8.077  32.677  1.00  0.00     0.293 HD
ENDBRANCH  37  50
ENDBRANCH  26  27
ENDBRANCH   5  26
BRANCH   4  52
ATOM     52  O   UNL     1     -15.324 -11.262  22.891  1.00  0.00    -0.384 OA
ATOM     53  H   UNL     1     -15.996 -10.569  23.124  1.00  0.00     0.211 HD
ENDBRANCH   4  52
TORSDOF 16
ENDMDL
MODEL 5
REMARK VINA RESULT:    -8.051      2.335      3.527
REMARK INTER + INTRA:         -15.642
REMARK INTER:                 -12.582
REMARK INTRA:                  -3.060
REMARK UNBOUND:                -2.413
REMARK SMILES C[C@@H]1O[C@@H](OC[C@@H]2O[C@@H](Oc3c(-c4ccc(O)c(O)c4)oc4cc(O)cc(O)c4c3=O)[C@H](O)[C@@H](O)[C@@H]2O)[C@@H](O)[C@H](O)[C@@H]1O
REMARK SMILES IDX 7 1 36 2 34 3 32 4 9 5 8 6 6 7 5 8 4 9 1 10 2 11 42 12 3 13
REMARK SMILES IDX 40 14 38 15 43 16 41 18 39 20 37 22 35 24 10 26 11 27 12 28
REMARK SMILES IDX 30 29 21 30 29 31 31 32 22 33 27 34 23 35 26 36 24 37 13 38
REMARK SMILES IDX 20 39 14 40 18 41 15 42 16 43 19 44 17 46 28 48 25 50 33 52
REMARK H PARENT 43 17 41 19 39 21 37 23 35 25 19 45 17 47 28 49 25 51 33 53
REMARK Flexibility Score: inf
ROOT
ATOM      1  C   UNL     1     -12.667 -12.336  27.481  1.00  0.00     0.180 C 
ATOM      2  C   UNL     1     -12.366 -11.398  28.676  1.00  0.00     0.177 C 
ATOM      3  C   UNL     1     -12.308  -9.927  28.209  1.00  0.00     0.180 C 
ATOM      4  C   UNL     1     -11.475  -9.763  26.918  1.00  0.00     0.214 C 
ATOM      5  C   UNL     1     -11.794 -10.865  25.883  1.00  0.00     0.339 C 
ATOM      6  O   UNL     1     -11.706 -12.160  26.455  1.00  0.00    -0.332 OA
ENDROOT
BRANCH   1   7
ATOM      7  C   UNL     1     -12.676 -13.814  27.893  1.00  0.00     0.198 C 
BRANCH   7   8
ATOM      8  O   UNL     1     -11.363 -14.233  28.230  1.00  0.00    -0.347 OA
BRANCH   8   9
ATOM      9  C   UNL     1     -10.654 -14.684  27.086  1.00  0.00     0.281 C 
ATOM     10  C   UNL     1     -10.543 -18.286  27.857  1.00  0.00     0.041 C 
ATOM     11  C   UNL     1     -10.222 -16.799  28.014  1.00  0.00     0.150 C 
ATOM     12  C   UNL     1      -8.702 -16.561  28.098  1.00  0.00     0.174 C 
ATOM     13  O   UNL     1     -10.784 -16.091  26.919  1.00  0.00    -0.344 OA
ATOM     14  C   UNL     1      -8.445 -15.055  28.279  1.00  0.00     0.179 C 
ATOM     15  C   UNL     1      -9.171 -14.263  27.174  1.00  0.00     0.202 C 
BRANCH  12  16
ATOM     16  O   UNL     1      -8.080 -17.027  26.926  1.00  0.00    -0.388 OA
ATOM     17  H   UNL     1      -8.469 -16.514  26.169  1.00  0.00     0.211 HD
ENDBRANCH  12  16
BRANCH  14  18
ATOM     18  O   UNL     1      -7.064 -14.805  28.234  1.00  0.00    -0.387 OA
ATOM     19  H   UNL     1      -6.910 -13.942  28.699  1.00  0.00     0.211 HD
ENDBRANCH  14  18
BRANCH  15  20
ATOM     20  O   UNL     1      -9.096 -12.884  27.432  1.00  0.00    -0.385 OA
ATOM     21  H   UNL     1      -8.736 -12.455  26.613  1.00  0.00     0.211 HD
ENDBRANCH  15  20
ENDBRANCH   8   9
ENDBRANCH   7   8
ENDBRANCH   1   7
BRANCH   2  22
ATOM     22  O   UNL     1     -11.130 -11.739  29.258  1.00  0.00    -0.387 OA
ATOM     23  H   UNL     1     -10.940 -11.062  29.960  1.00  0.00     0.211 HD
ENDBRANCH   2  22
BRANCH   3  24
ATOM     24  O   UNL     1     -13.594  -9.372  28.067  1.00  0.00    -0.387 OA
ATOM     25  H   UNL     1     -14.132  -9.967  27.486  1.00  0.00     0.211 HD
ENDBRANCH   3  24
BRANCH   5  26
ATOM     26  O   UNL     1     -13.080 -10.652  25.288  1.00  0.00    -0.454 OA
BRANCH  26  27
ATOM     27  C   UNL     1     -13.288 -10.672  23.905  1.00  0.00     0.214 A 
ATOM     28  C   UNL     1     -13.740 -11.831  23.242  1.00  0.00     0.180 A 
ATOM     29  C   UNL     1     -13.036  -9.518  23.158  1.00  0.00     0.239 A 
ATOM     30  O   UNL     1     -13.847 -11.833  21.917  1.00  0.00    -0.452 OA
ATOM     31  C   UNL     1     -13.181  -9.550  21.755  1.00  0.00     0.111 A 
ATOM     32  O   UNL     1     -12.667  -8.468  23.752  1.00  0.00    -0.285 OA
ATOM     33  C   UNL     1     -13.589 -10.769  21.165  1.00  0.00     0.146 A 
ATOM     34  C   UNL     1     -12.930  -8.431  20.926  1.00  0.00     0.134 A 
ATOM     35  C   UNL     1     -13.733 -10.866  19.777  1.00  0.00     0.094 A 
ATOM     36  C   UNL     1     -13.083  -8.547  19.537  1.00  0.00     0.093 A 
ATOM     37  C   UNL     1     -13.481  -9.757  18.962  1.00  0.00     0.123 A 
BRANCH  28  38
ATOM     38  C   UNL     1     -14.116 -13.059  23.977  1.00  0.00     0.025 A 
ATOM     39  C   UNL     1     -13.208 -14.122  24.126  1.00  0.00     0.062 A 
ATOM     40  C   UNL     1     -15.379 -13.151  24.572  1.00  0.00     0.016 A 
ATOM     41  C   UNL     1     -13.565 -15.279  24.830  1.00  0.00     0.158 A 
ATOM     42  C   UNL     1     -15.746 -14.303  25.273  1.00  0.00     0.051 A 
ATOM     43  C   UNL     1     -14.855 -15.373  25.404  1.00  0.00     0.157 A 
BRANCH  41  44
ATOM     44  O   UNL     1     -12.615 -16.295  24.937  1.00  0.00    -0.504 OA
ATOM     45  H   UNL     1     -11.949 -16.369  25.694  1.00  0.00     0.293 HD
ENDBRANCH  41  44
BRANCH  43  46
ATOM     46  O   UNL     1     -15.287 -16.500  26.107  1.00  0.00    -0.504 OA
ATOM     47  H   UNL     1     -16.151 -16.542  26.629  1.00  0.00     0.293 HD
ENDBRANCH  43  46
ENDBRANCH  28  38
BRANCH  34  48
ATOM     48  O   UNL     1     -12.531  -7.209  21.469  1.00  0.00    -0.507 OA
ATOM     49  H   UNL     1     -12.718  -6.968  22.436  1.00  0.00     0.293 HD
ENDBRANCH  34  48
BRANCH  37  50
ATOM     50  O   UNL     1     -13.624  -9.846  17.580  1.00  0.00    -0.508 OA
ATOM     51  H   UNL     1     -14.422  -9.441  17.103  1.00  0.00     0.293 HD
ENDBRANCH  37  50
ENDBRANCH  26  27
ENDBRANCH   5  26
BRANCH   4  52
ATOM     52  O   UNL     1     -10.110  -9.814  27.247  1.00  0.00    -0.384 OA
ATOM     53  H   UNL     1      -9.814  -8.879  27.403  1.00  0.00     0.211 HD
ENDBRANCH   4  52
TORSDOF 16
ENDMDL
MODEL 6
REMARK VINA RESULT:    -8.047      1.942      9.336
REMARK INTER + INTRA:         -15.635
REMARK INTER:                 -12.940
REMARK INTRA:                  -2.695
REMARK UNBOUND:                -2.413
REMARK SMILES C[C@@H]1O[C@@H](OC[C@@H]2O[C@@H](Oc3c(-c4ccc(O)c(O)c4)oc4cc(O)cc(O)c4c3=O)[C@H](O)[C@@H](O)[C@@H]2O)[C@@H](O)[C@H](O)[C@@H]1O
REMARK SMILES IDX 7 1 36 2 34 3 32 4 9 5 8 6 6 7 5 8 4 9 1 10 2 11 42 12 3 13
REMARK SMILES IDX 40 14 38 15 43 16 41 18 39 20 37 22 35 24 10 26 11 27 12 28
REMARK SMILES IDX 30 29 21 30 29 31 31 32 22 33 27 34 23 35 26 36 24 37 13 38
REMARK SMILES IDX 20 39 14 40 18 41 15 42 16 43 19 44 17 46 28 48 25 50 33 52
REMARK H PARENT 43 17 41 19 39 21 37 23 35 25 19 45 17 47 28 49 25 51 33 53
REMARK Flexibility Score: inf
ROOT
ATOM      1  C   UNL     1     -12.758 -11.409  23.663  1.00  0.00     0.180 C 
ATOM      2  C   UNL     1     -13.356 -11.780  22.283  1.00  0.00     0.177 C 
ATOM      3  C   UNL     1     -13.521 -13.312  22.159  1.00  0.00     0.180 C 
ATOM      4  C   UNL     1     -12.264 -14.070  22.644  1.00  0.00     0.214 C 
ATOM      5  C   UNL     1     -11.709 -13.480  23.960  1.00  0.00     0.339 C 
ATOM      6  O   UNL     1     -11.525 -12.077  23.868  1.00  0.00    -0.332 OA
ENDROOT
BRANCH   1   7
ATOM      7  C   UNL     1     -12.525  -9.899  23.804  1.00  0.00     0.198 C 
BRANCH   7   8
ATOM      8  O   UNL     1     -13.430  -9.187  22.976  1.00  0.00    -0.347 OA
BRANCH   8   9
ATOM      9  C   UNL     1     -13.016  -7.842  22.791  1.00  0.00     0.281 C 
ATOM     10  C   UNL     1     -16.125  -6.136  23.794  1.00  0.00     0.041 C 
ATOM     11  C   UNL     1     -15.205  -7.001  22.931  1.00  0.00     0.150 C 
ATOM     12  C   UNL     1     -15.230  -6.545  21.458  1.00  0.00     0.174 C 
ATOM     13  O   UNL     1     -13.889  -6.937  23.457  1.00  0.00    -0.344 OA
ATOM     14  C   UNL     1     -14.307  -7.465  20.640  1.00  0.00     0.179 C 
ATOM     15  C   UNL     1     -12.909  -7.515  21.286  1.00  0.00     0.202 C 
BRANCH  12  16
ATOM     16  O   UNL     1     -14.798  -5.210  21.365  1.00  0.00    -0.388 OA
ATOM     17  H   UNL     1     -14.867  -4.819  22.276  1.00  0.00     0.211 HD
ENDBRANCH  12  16
BRANCH  14  18
ATOM     18  O   UNL     1     -14.221  -6.990  19.321  1.00  0.00    -0.387 OA
ATOM     19  H   UNL     1     -13.689  -7.653  18.808  1.00  0.00     0.211 HD
ENDBRANCH  14  18
BRANCH  15  20
ATOM     20  O   UNL     1     -12.115  -8.488  20.656  1.00  0.00    -0.385 OA
ATOM     21  H   UNL     1     -12.310  -8.437  19.685  1.00  0.00     0.211 HD
ENDBRANCH  15  20
ENDBRANCH   8   9
ENDBRANCH   7   8
ENDBRANCH   1   7
BRANCH   2  22
ATOM     22  O   UNL     1     -12.510 -11.330  21.253  1.00  0.00    -0.387 OA
ATOM     23  H   UNL     1     -12.098 -12.134  20.839  1.00  0.00     0.211 HD
ENDBRANCH   2  22
BRANCH   3  24
ATOM     24  O   UNL     1     -14.682 -13.767  22.812  1.00  0.00    -0.387 OA
ATOM     25  H   UNL     1     -14.499 -13.817  23.784  1.00  0.00     0.211 HD
ENDBRANCH   3  24
BRANCH   5  26
ATOM     26  O   UNL     1     -12.553 -13.817  25.068  1.00  0.00    -0.454 OA
BRANCH  26  27
ATOM     27  C   UNL     1     -12.053 -14.293  26.284  1.00  0.00     0.214 A 
ATOM     28  C   UNL     1     -11.895 -13.448  27.401  1.00  0.00     0.180 A 
ATOM     29  C   UNL     1     -11.692 -15.639  26.397  1.00  0.00     0.239 A 
ATOM     30  O   UNL     1     -11.341 -13.921  28.514  1.00  0.00    -0.452 OA
ATOM     31  C   UNL     1     -11.126 -16.112  27.599  1.00  0.00     0.111 A 
ATOM     32  O   UNL     1     -11.865 -16.407  25.411  1.00  0.00    -0.285 OA
ATOM     33  C   UNL     1     -10.955 -15.184  28.654  1.00  0.00     0.146 A 
ATOM     34  C   UNL     1     -10.720 -17.454  27.787  1.00  0.00     0.134 A 
ATOM     35  C   UNL     1     -10.384 -15.591  29.863  1.00  0.00     0.094 A 
ATOM     36  C   UNL     1     -10.151 -17.843  29.009  1.00  0.00     0.093 A 
ATOM     37  C   UNL     1      -9.981 -16.919  30.043  1.00  0.00     0.123 A 
BRANCH  28  38
ATOM     38  C   UNL     1     -12.341 -12.037  27.387  1.00  0.00     0.025 A 
ATOM     39  C   UNL     1     -11.413 -10.983  27.372  1.00  0.00     0.062 A 
ATOM     40  C   UNL     1     -13.709 -11.743  27.343  1.00  0.00     0.016 A 
ATOM     41  C   UNL     1     -11.839  -9.649  27.349  1.00  0.00     0.158 A 
ATOM     42  C   UNL     1     -14.145 -10.416  27.324  1.00  0.00     0.051 A 
ATOM     43  C   UNL     1     -13.225  -9.362  27.333  1.00  0.00     0.157 A 
BRANCH  41  44
ATOM     44  O   UNL     1     -10.862  -8.653  27.337  1.00  0.00    -0.504 OA
ATOM     45  H   UNL     1     -11.032  -7.691  27.597  1.00  0.00     0.293 HD
ENDBRANCH  41  44
BRANCH  43  46
ATOM     46  O   UNL     1     -13.725  -8.058  27.324  1.00  0.00    -0.504 OA
ATOM     47  H   UNL     1     -13.152  -7.233  27.424  1.00  0.00     0.293 HD
ENDBRANCH  43  46
ENDBRANCH  28  38
BRANCH  34  48
ATOM     48  O   UNL     1     -10.875 -18.401  26.774  1.00  0.00    -0.507 OA
ATOM     49  H   UNL     1     -10.762 -18.159  25.796  1.00  0.00     0.293 HD
ENDBRANCH  34  48
BRANCH  37  50
ATOM     50  O   UNL     1      -9.414 -17.331  31.246  1.00  0.00    -0.508 OA
ATOM     51  H   UNL     1      -9.511 -16.784  32.093  1.00  0.00     0.293 HD
ENDBRANCH  37  50
ENDBRANCH  26  27
ENDBRANCH   5  26
BRANCH   4  52
ATOM     52  O   UNL     1     -11.276 -13.997  21.648  1.00  0.00    -0.384 OA
ATOM     53  H   UNL     1     -10.876 -13.090  21.703  1.00  0.00     0.211 HD
ENDBRANCH   4  52
TORSDOF 16
ENDMDL
MODEL 7
REMARK VINA RESULT:    -8.001      2.514      3.911
REMARK INTER + INTRA:         -15.559
REMARK INTER:                 -12.503
REMARK INTRA:                  -3.055
REMARK UNBOUND:                -2.413
REMARK SMILES C[C@@H]1O[C@@H](OC[C@@H]2O[C@@H](Oc3c(-c4ccc(O)c(O)c4)oc4cc(O)cc(O)c4c3=O)[C@H](O)[C@@H](O)[C@@H]2O)[C@@H](O)[C@H](O)[C@@H]1O
REMARK SMILES IDX 7 1 36 2 34 3 32 4 9 5 8 6 6 7 5 8 4 9 1 10 2 11 42 12 3 13
REMARK SMILES IDX 40 14 38 15 43 16 41 18 39 20 37 22 35 24 10 26 11 27 12 28
REMARK SMILES IDX 30 29 21 30 29 31 31 32 22 33 27 34 23 35 26 36 24 37 13 38
REMARK SMILES IDX 20 39 14 40 18 41 15 42 16 43 19 44 17 46 28 48 25 50 33 52
REMARK H PARENT 43 17 41 19 39 21 37 23 35 25 19 45 17 47 28 49 25 51 33 53
REMARK Flexibility Score: inf
ROOT
ATOM      1  C   UNL     1     -13.324 -11.274  27.753  1.00  0.00     0.180 C 
ATOM      2  C   UNL     1     -12.794 -10.146  28.673  1.00  0.00     0.177 C 
ATOM      3  C   UNL     1     -12.280  -8.956  27.831  1.00  0.00     0.180 C 
ATOM      4  C   UNL     1     -11.393  -9.422  26.654  1.00  0.00     0.214 C 
ATOM      5  C   UNL     1     -11.994 -10.648  25.931  1.00  0.00     0.339 C 
ATOM      6  O   UNL     1     -12.320 -11.685  26.842  1.00  0.00    -0.332 OA
ENDROOT
BRANCH   1   7
ATOM      7  C   UNL     1     -13.791 -12.498  28.551  1.00  0.00     0.198 C 
BRANCH   7   8
ATOM      8  O   UNL     1     -12.772 -13.487  28.567  1.00  0.00    -0.347 OA
BRANCH   8   9
ATOM      9  C   UNL     1     -12.660 -14.094  29.844  1.00  0.00     0.281 C 
ATOM     10  C   UNL     1      -9.253 -12.990  30.711  1.00  0.00     0.041 C 
ATOM     11  C   UNL     1     -10.337 -13.758  29.955  1.00  0.00     0.150 C 
ATOM     12  C   UNL     1     -10.016 -15.264  29.894  1.00  0.00     0.174 C 
ATOM     13  O   UNL     1     -11.586 -13.533  30.590  1.00  0.00    -0.344 OA
ATOM     14  C   UNL     1     -11.127 -15.976  29.104  1.00  0.00     0.179 C 
ATOM     15  C   UNL     1     -12.504 -15.623  29.699  1.00  0.00     0.202 C 
BRANCH  12  16
ATOM     16  O   UNL     1      -9.931 -15.786  31.198  1.00  0.00    -0.388 OA
ATOM     17  H   UNL     1     -10.265 -16.721  31.157  1.00  0.00     0.211 HD
ENDBRANCH  12  16
BRANCH  14  18
ATOM     18  O   UNL     1     -10.917 -17.364  29.144  1.00  0.00    -0.387 OA
ATOM     19  H   UNL     1     -11.782 -17.781  29.395  1.00  0.00     0.211 HD
ENDBRANCH  14  18
BRANCH  15  20
ATOM     20  O   UNL     1     -13.532 -16.118  28.879  1.00  0.00    -0.385 OA
ATOM     21  H   UNL     1     -13.128 -16.316  27.996  1.00  0.00     0.211 HD
ENDBRANCH  15  20
ENDBRANCH   8   9
ENDBRANCH   7   8
ENDBRANCH   1   7
BRANCH   2  22
ATOM     22  O   UNL     1     -11.739 -10.627  29.470  1.00  0.00    -0.387 OA
ATOM     23  H   UNL     1     -10.895 -10.453  28.976  1.00  0.00     0.211 HD
ENDBRANCH   2  22
BRANCH   3  24
ATOM     24  O   UNL     1     -13.335  -8.135  27.389  1.00  0.00    -0.387 OA
ATOM     25  H   UNL     1     -13.136  -7.200  27.647  1.00  0.00     0.211 HD
ENDBRANCH   3  24
BRANCH   5  26
ATOM     26  O   UNL     1     -13.136 -10.273  25.150  1.00  0.00    -0.454 OA
BRANCH  26  27
ATOM     27  C   UNL     1     -13.187 -10.424  23.760  1.00  0.00     0.214 A 
ATOM     28  C   UNL     1     -13.456 -11.671  23.161  1.00  0.00     0.180 A 
ATOM     29  C   UNL     1     -12.958  -9.314  22.942  1.00  0.00     0.239 A 
ATOM     30  O   UNL     1     -13.416 -11.789  21.837  1.00  0.00    -0.452 OA
ATOM     31  C   UNL     1     -12.944  -9.472  21.540  1.00  0.00     0.111 A 
ATOM     32  O   UNL     1     -12.753  -8.189  23.473  1.00  0.00    -0.285 OA
ATOM     33  C   UNL     1     -13.172 -10.769  21.023  1.00  0.00     0.146 A 
ATOM     34  C   UNL     1     -12.704  -8.403  20.644  1.00  0.00     0.134 A 
ATOM     35  C   UNL     1     -13.152 -10.990  19.643  1.00  0.00     0.094 A 
ATOM     36  C   UNL     1     -12.691  -8.645  19.263  1.00  0.00     0.093 A 
ATOM     37  C   UNL     1     -12.912  -9.931  18.761  1.00  0.00     0.123 A 
BRANCH  28  38
ATOM     38  C   UNL     1     -13.800 -12.868  23.961  1.00  0.00     0.025 A 
ATOM     39  C   UNL     1     -12.880 -13.916  24.130  1.00  0.00     0.062 A 
ATOM     40  C   UNL     1     -15.044 -12.942  24.599  1.00  0.00     0.016 A 
ATOM     41  C   UNL     1     -13.205 -15.043  24.895  1.00  0.00     0.158 A 
ATOM     42  C   UNL     1     -15.379 -14.063  25.361  1.00  0.00     0.051 A 
ATOM     43  C   UNL     1     -14.476 -15.121  25.512  1.00  0.00     0.157 A 
BRANCH  41  44
ATOM     44  O   UNL     1     -12.244 -16.047  25.018  1.00  0.00    -0.504 OA
ATOM     45  H   UNL     1     -11.752 -16.257  25.875  1.00  0.00     0.293 HD
ENDBRANCH  41  44
BRANCH  43  46
ATOM     46  O   UNL     1     -14.877 -16.218  26.278  1.00  0.00    -0.504 OA
ATOM     47  H   UNL     1     -15.618 -16.851  26.012  1.00  0.00     0.293 HD
ENDBRANCH  43  46
ENDBRANCH  28  38
BRANCH  34  48
ATOM     48  O   UNL     1     -12.478  -7.109  21.113  1.00  0.00    -0.507 OA
ATOM     49  H   UNL     1     -12.977  -6.737  21.913  1.00  0.00     0.293 HD
ENDBRANCH  34  48
BRANCH  37  50
ATOM     50  O   UNL     1     -12.893 -10.143  17.385  1.00  0.00    -0.508 OA
ATOM     51  H   UNL     1     -13.746 -10.302  16.862  1.00  0.00     0.293 HD
ENDBRANCH  37  50
ENDBRANCH  26  27
ENDBRANCH   5  26
BRANCH   4  52
ATOM     52  O   UNL     1     -10.119  -9.751  27.146  1.00  0.00    -0.384 OA
ATOM     53  H   UNL     1      -9.931  -9.132  27.899  1.00  0.00     0.211 HD
ENDBRANCH   4  52
TORSDOF 16
ENDMDL
MODEL 8
REMARK VINA RESULT:    -7.997      3.077      7.911
REMARK INTER + INTRA:         -15.553
REMARK INTER:                 -13.354
REMARK INTRA:                  -2.198
REMARK UNBOUND:                -2.413
REMARK SMILES C[C@@H]1O[C@@H](OC[C@@H]2O[C@@H](Oc3c(-c4ccc(O)c(O)c4)oc4cc(O)cc(O)c4c3=O)[C@H](O)[C@@H](O)[C@@H]2O)[C@@H](O)[C@H](O)[C@@H]1O
REMARK SMILES IDX 7 1 36 2 34 3 32 4 9 5 8 6 6 7 5 8 4 9 1 10 2 11 42 12 3 13
REMARK SMILES IDX 40 14 38 15 43 16 41 18 39 20 37 22 35 24 10 26 11 27 12 28
REMARK SMILES IDX 30 29 21 30 29 31 31 32 22 33 27 34 23 35 26 36 24 37 13 38
REMARK SMILES IDX 20 39 14 40 18 41 15 42 16 43 19 44 17 46 28 48 25 50 33 52
REMARK H PARENT 43 17 41 19 39 21 37 23 35 25 19 45 17 47 28 49 25 51 33 53
REMARK Flexibility Score: inf
ROOT
ATOM      1  C   UNL     1     -13.748 -12.120  22.501  1.00  0.00     0.180 C 
ATOM      2  C   UNL     1     -12.923 -13.423  22.652  1.00  0.00     0.177 C 
ATOM      3  C   UNL     1     -12.040 -13.362  23.918  1.00  0.00     0.180 C 
ATOM      4  C   UNL     1     -11.305 -12.008  24.045  1.00  0.00     0.214 C 
ATOM      5  C   UNL     1     -12.234 -10.816  23.722  1.00  0.00     0.339 C 
ATOM      6  O   UNL     1     -12.893 -10.990  22.478  1.00  0.00    -0.332 OA
ENDROOT
BRANCH   1   7
ATOM      7  C   UNL     1     -14.596 -12.117  21.222  1.00  0.00     0.198 C 
BRANCH   7   8
ATOM      8  O   UNL     1     -13.757 -12.026  20.081  1.00  0.00    -0.347 OA
BRANCH   8   9
ATOM      9  C   UNL     1     -14.214 -11.031  19.180  1.00  0.00     0.281 C 
ATOM     10  C   UNL     1     -14.979 -13.181  16.286  1.00  0.00     0.041 C 
ATOM     11  C   UNL     1     -14.111 -12.466  17.323  1.00  0.00     0.150 C 
ATOM     12  C   UNL     1     -12.973 -11.675  16.649  1.00  0.00     0.174 C 
ATOM     13  O   UNL     1     -14.934 -11.607  18.096  1.00  0.00    -0.344 OA
ATOM     14  C   UNL     1     -12.124 -11.001  17.742  1.00  0.00     0.179 C 
ATOM     15  C   UNL     1     -13.031 -10.177  18.677  1.00  0.00     0.202 C 
BRANCH  12  16
ATOM     16  O   UNL     1     -13.512 -10.708  15.782  1.00  0.00    -0.388 OA
ATOM     17  H   UNL     1     -14.432 -10.512  16.103  1.00  0.00     0.211 HD
ENDBRANCH  12  16
BRANCH  14  18
ATOM     18  O   UNL     1     -11.158 -10.176  17.144  1.00  0.00    -0.387 OA
ATOM     19  H   UNL     1     -10.938 -10.578  16.263  1.00  0.00     0.211 HD
ENDBRANCH  14  18
BRANCH  15  20
ATOM     20  O   UNL     1     -12.297  -9.708  19.779  1.00  0.00    -0.385 OA
ATOM     21  H   UNL     1     -11.356  -9.613  19.482  1.00  0.00     0.211 HD
ENDBRANCH  15  20
ENDBRANCH   8   9
ENDBRANCH   7   8
ENDBRANCH   1   7
BRANCH   2  22
ATOM     22  O   UNL     1     -12.095 -13.603  21.529  1.00  0.00    -0.387 OA
ATOM     23  H   UNL     1     -11.306 -14.128  21.827  1.00  0.00     0.211 HD
ENDBRANCH   2  22
BRANCH   3  24
ATOM     24  O   UNL     1     -12.774 -13.662  25.082  1.00  0.00    -0.387 OA
ATOM     25  H   UNL     1     -13.561 -13.063  25.123  1.00  0.00     0.211 HD
ENDBRANCH   3  24
BRANCH   5  26
ATOM     26  O   UNL     1     -13.178 -10.601  24.778  1.00  0.00    -0.454 OA
BRANCH  26  27
ATOM     27  C   UNL     1     -12.863  -9.897  25.945  1.00  0.00     0.214 A 
ATOM     28  C   UNL     1     -12.890  -8.489  25.989  1.00  0.00     0.180 A 
ATOM     29  C   UNL     1     -12.505 -10.605  27.096  1.00  0.00     0.239 A 
ATOM     30  O   UNL     1     -12.506  -7.856  27.094  1.00  0.00    -0.452 OA
ATOM     31  C   UNL     1     -12.123  -9.901  28.257  1.00  0.00     0.111 A 
ATOM     32  O   UNL     1     -12.514 -11.866  27.071  1.00  0.00    -0.285 OA
ATOM     33  C   UNL     1     -12.128  -8.487  28.199  1.00  0.00     0.146 A 
ATOM     34  C   UNL     1     -11.731 -10.542  29.456  1.00  0.00     0.134 A 
ATOM     35  C   UNL     1     -11.742  -7.736  29.314  1.00  0.00     0.094 A 
ATOM     36  C   UNL     1     -11.350  -9.770  30.564  1.00  0.00     0.093 A 
ATOM     37  C   UNL     1     -11.353  -8.375  30.496  1.00  0.00     0.123 A 
BRANCH  28  38
ATOM     38  C   UNL     1     -13.349  -7.677  24.841  1.00  0.00     0.025 A 
ATOM     39  C   UNL     1     -12.689  -7.734  23.602  1.00  0.00     0.062 A 
ATOM     40  C   UNL     1     -14.485  -6.870  24.972  1.00  0.00     0.016 A 
ATOM     41  C   UNL     1     -13.132  -6.970  22.515  1.00  0.00     0.158 A 
ATOM     42  C   UNL     1     -14.933  -6.101  23.895  1.00  0.00     0.051 A 
ATOM     43  C   UNL     1     -14.265  -6.136  22.666  1.00  0.00     0.157 A 
BRANCH  41  44
ATOM     44  O   UNL     1     -12.427  -7.075  21.315  1.00  0.00    -0.504 OA
ATOM     45  H   UNL     1     -12.129  -7.951  20.910  1.00  0.00     0.293 HD
ENDBRANCH  41  44
BRANCH  43  46
ATOM     46  O   UNL     1     -14.756  -5.336  21.633  1.00  0.00    -0.504 OA
ATOM     47  H   UNL     1     -14.420  -4.405  21.431  1.00  0.00     0.293 HD
ENDBRANCH  43  46
ENDBRANCH  28  38
BRANCH  34  48
ATOM     48  O   UNL     1     -11.716 -11.934  29.555  1.00  0.00    -0.507 OA
ATOM     49  H   UNL     1     -12.521 -12.495  29.305  1.00  0.00     0.293 HD
ENDBRANCH  34  48
BRANCH  37  50
ATOM     50  O   UNL     1     -10.970  -7.633  31.610  1.00  0.00    -0.508 OA
ATOM     51  H   UNL     1      -9.994  -7.463  31.824  1.00  0.00     0.293 HD
ENDBRANCH  37  50
ENDBRANCH  26  27
ENDBRANCH   5  26
BRANCH   4  52
ATOM     52  O   UNL     1     -10.212 -11.999  23.164  1.00  0.00    -0.384 OA
ATOM     53  H   UNL     1     -10.293 -12.808  22.594  1.00  0.00     0.211 HD
ENDBRANCH   4  52
TORSDOF 16
ENDMDL
MODEL 9
REMARK VINA RESULT:    -7.962      2.229      5.131
REMARK INTER + INTRA:         -15.495
REMARK INTER:                 -13.001
REMARK INTRA:                  -2.494
REMARK UNBOUND:                -2.413
REMARK SMILES C[C@@H]1O[C@@H](OC[C@@H]2O[C@@H](Oc3c(-c4ccc(O)c(O)c4)oc4cc(O)cc(O)c4c3=O)[C@H](O)[C@@H](O)[C@@H]2O)[C@@H](O)[C@H](O)[C@@H]1O
REMARK SMILES IDX 7 1 36 2 34 3 32 4 9 5 8 6 6 7 5 8 4 9 1 10 2 11 42 12 3 13
REMARK SMILES IDX 40 14 38 15 43 16 41 18 39 20 37 22 35 24 10 26 11 27 12 28
REMARK SMILES IDX 30 29 21 30 29 31 31 32 22 33 27 34 23 35 26 36 24 37 13 38
REMARK SMILES IDX 20 39 14 40 18 41 15 42 16 43 19 44 17 46 28 48 25 50 33 52
REMARK H PARENT 43 17 41 19 39 21 37 23 35 25 19 45 17 47 28 49 25 51 33 53
REMARK Flexibility Score: inf
ROOT
ATOM      1  C   UNL     1     -11.364 -14.828  26.048  1.00  0.00     0.180 C 
ATOM      2  C   UNL     1     -12.044 -15.592  24.886  1.00  0.00     0.177 C 
ATOM      3  C   UNL     1     -13.113 -14.707  24.207  1.00  0.00     0.180 C 
ATOM      4  C   UNL     1     -14.011 -13.991  25.241  1.00  0.00     0.214 C 
ATOM      5  C   UNL     1     -13.189 -13.408  26.412  1.00  0.00     0.339 C 
ATOM      6  O   UNL     1     -12.330 -14.381  26.983  1.00  0.00    -0.332 OA
ENDROOT
BRANCH   1   7
ATOM      7  C   UNL     1     -10.334 -15.694  26.786  1.00  0.00     0.198 C 
BRANCH   7   8
ATOM      8  O   UNL     1     -10.991 -16.561  27.698  1.00  0.00    -0.347 OA
BRANCH   8   9
ATOM      9  C   UNL     1     -10.889 -16.085  29.030  1.00  0.00     0.281 C 
ATOM     10  C   UNL     1      -8.259 -18.357  30.256  1.00  0.00     0.041 C 
ATOM     11  C   UNL     1      -9.640 -17.941  29.747  1.00  0.00     0.150 C 
ATOM     12  C   UNL     1     -10.757 -18.460  30.674  1.00  0.00     0.174 C 
ATOM     13  O   UNL     1      -9.684 -16.526  29.646  1.00  0.00    -0.344 OA
ATOM     14  C   UNL     1     -12.117 -18.031  30.098  1.00  0.00     0.179 C 
ATOM     15  C   UNL     1     -12.126 -16.510  29.849  1.00  0.00     0.202 C 
BRANCH  12  16
ATOM     16  O   UNL     1     -10.585 -17.934  31.967  1.00  0.00    -0.388 OA
ATOM     17  H   UNL     1     -10.895 -16.991  31.940  1.00  0.00     0.211 HD
ENDBRANCH  12  16
BRANCH  14  18
ATOM     18  O   UNL     1     -13.139 -18.387  30.992  1.00  0.00    -0.387 OA
ATOM     19  H   UNL     1     -12.951 -19.314  31.294  1.00  0.00     0.211 HD
ENDBRANCH  14  18
BRANCH  15  20
ATOM     20  O   UNL     1     -13.290 -16.135  29.157  1.00  0.00    -0.385 OA
ATOM     21  H   UNL     1     -13.001 -15.622  28.359  1.00  0.00     0.211 HD
ENDBRANCH  15  20
ENDBRANCH   8   9
ENDBRANCH   7   8
ENDBRANCH   1   7
BRANCH   2  22
ATOM     22  O   UNL     1     -12.662 -16.760  25.371  1.00  0.00    -0.387 OA
ATOM     23  H   UNL     1     -13.339 -16.476  26.041  1.00  0.00     0.211 HD
ENDBRANCH   2  22
BRANCH   3  24
ATOM     24  O   UNL     1     -12.538 -13.794  23.303  1.00  0.00    -0.387 OA
ATOM     25  H   UNL     1     -13.088 -13.776  22.480  1.00  0.00     0.211 HD
ENDBRANCH   3  24
BRANCH   5  26
ATOM     26  O   UNL     1     -12.451 -12.253  25.994  1.00  0.00    -0.454 OA
BRANCH  26  27
ATOM     27  C   UNL     1     -12.969 -10.956  26.066  1.00  0.00     0.214 A 
ATOM     28  C   UNL     1     -12.995 -10.235  27.277  1.00  0.00     0.180 A 
ATOM     29  C   UNL     1     -13.481 -10.358  24.910  1.00  0.00     0.239 A 
ATOM     30  O   UNL     1     -13.569  -9.036  27.319  1.00  0.00    -0.452 OA
ATOM     31  C   UNL     1     -14.064  -9.076  24.988  1.00  0.00     0.111 A 
ATOM     32  O   UNL     1     -13.427 -10.985  23.817  1.00  0.00    -0.285 OA
ATOM     33  C   UNL     1     -14.096  -8.444  26.253  1.00  0.00     0.146 A 
ATOM     34  C   UNL     1     -14.619  -8.411  23.869  1.00  0.00     0.134 A 
ATOM     35  C   UNL     1     -14.677  -7.181  26.394  1.00  0.00     0.094 A 
ATOM     36  C   UNL     1     -15.195  -7.142  24.031  1.00  0.00     0.093 A 
ATOM     37  C   UNL     1     -15.227  -6.528  25.286  1.00  0.00     0.123 A 
BRANCH  28  38
ATOM     38  C   UNL     1     -12.387 -10.764  28.518  1.00  0.00     0.025 A 
ATOM     39  C   UNL     1     -11.001 -10.972  28.615  1.00  0.00     0.062 A 
ATOM     40  C   UNL     1     -13.197 -11.022  29.630  1.00  0.00     0.016 A 
ATOM     41  C   UNL     1     -10.429 -11.465  29.795  1.00  0.00     0.158 A 
ATOM     42  C   UNL     1     -12.636 -11.517  30.810  1.00  0.00     0.051 A 
ATOM     43  C   UNL     1     -11.259 -11.749  30.905  1.00  0.00     0.157 A 
BRANCH  41  44
ATOM     44  O   UNL     1      -9.046 -11.649  29.820  1.00  0.00    -0.504 OA
ATOM     45  H   UNL     1      -8.583 -12.383  30.337  1.00  0.00     0.293 HD
ENDBRANCH  41  44
BRANCH  43  46
ATOM     46  O   UNL     1     -10.764 -12.255  32.108  1.00  0.00    -0.504 OA
ATOM     47  H   UNL     1      -9.849 -12.037  32.478  1.00  0.00     0.293 HD
ENDBRANCH  43  46
ENDBRANCH  28  38
BRANCH  34  48
ATOM     48  O   UNL     1     -14.605  -8.997  22.603  1.00  0.00    -0.507 OA
ATOM     49  H   UNL     1     -13.838  -8.852  21.956  1.00  0.00     0.293 HD
ENDBRANCH  34  48
BRANCH  37  50
ATOM     50  O   UNL     1     -15.805  -5.268  25.419  1.00  0.00    -0.508 OA
ATOM     51  H   UNL     1     -15.675  -4.711  26.256  1.00  0.00     0.293 HD
ENDBRANCH  37  50
ENDBRANCH  26  27
ENDBRANCH   5  26
BRANCH   4  52
ATOM     52  O   UNL     1     -14.949 -14.909  25.743  1.00  0.00    -0.384 OA
ATOM     53  H   UNL     1     -15.573 -15.121  25.000  1.00  0.00     0.211 HD
ENDBRANCH   4  52
TORSDOF 16
ENDMDL
