MODEL 1
REMARK VINA RESULT:     0.387      0.000      0.000
REMARK INTER + INTRA:           0.139
REMARK INTER:                   0.455
REMARK INTRA:                  -0.316
REMARK UNBOUND:                -0.316
REMARK SMILES O=c1cc(-c2ccc(O)c(O)c2)oc2cc(O)cc(O)c12
REMARK SMILES IDX 4 1 3 2 2 3 1 4 21 5 19 6 18 7 16 8 15 9 14 10 13 11 5 12
REMARK SMILES IDX 6 13 7 14 8 15 12 16 10 17 9 18 11 20 20 22 17 24
REMARK H PARENT 9 19 11 21 20 23 17 25
REMARK Flexibility Score: inf
ROOT
ATOM      1  C   UNL     1      23.672  50.981  -5.119  1.00  0.00     0.138 A 
ATOM      2  C   UNL     1      24.481  51.683  -4.214  1.00  0.00     0.100 A 
ATOM      3  C   UNL     1      24.280  51.524  -2.842  1.00  0.00     0.197 A 
ATOM      4  O   UNL     1      25.057  52.124  -2.055  1.00  0.00    -0.289 OA
ATOM      5  C   UNL     1      23.240  50.684  -2.374  1.00  0.00     0.107 A 
ATOM      6  C   UNL     1      22.921  50.472  -1.000  1.00  0.00     0.134 A 
ATOM      7  C   UNL     1      21.932  49.540  -0.657  1.00  0.00     0.093 A 
ATOM      8  C   UNL     1      21.214  48.858  -1.638  1.00  0.00     0.123 A 
ATOM      9  C   UNL     1      21.484  49.094  -2.986  1.00  0.00     0.094 A 
ATOM     10  C   UNL     1      22.486  49.991  -3.360  1.00  0.00     0.146 A 
ATOM     11  O   UNL     1      22.724  50.174  -4.655  1.00  0.00    -0.456 OA
ENDROOT
BRANCH   1  12
ATOM     12  C   UNL     1      23.840  51.115  -6.588  1.00  0.00     0.021 A 
ATOM     13  C   UNL     1      24.991  51.696  -7.152  1.00  0.00     0.016 A 
ATOM     14  C   UNL     1      25.125  51.800  -8.540  1.00  0.00     0.051 A 
ATOM     15  C   UNL     1      24.121  51.321  -9.386  1.00  0.00     0.157 A 
ATOM     16  C   UNL     1      22.839  50.624  -7.445  1.00  0.00     0.062 A 
ATOM     17  C   UNL     1      22.972  50.728  -8.837  1.00  0.00     0.158 A 
BRANCH  15  18
ATOM     18  O   UNL     1      24.283  51.441 -10.766  1.00  0.00    -0.504 OA
ATOM     19  H   UNL     1      23.757  50.875 -11.421  1.00  0.00     0.293 HD
ENDBRANCH  15  18
BRANCH  17  20
ATOM     20  O   UNL     1      21.969  50.244  -9.676  1.00  0.00    -0.504 OA
ATOM     21  H   UNL     1      20.994  50.261  -9.400  1.00  0.00     0.293 HD
ENDBRANCH  17  20
ENDBRANCH   1  12
BRANCH   6  22
ATOM     22  O   UNL     1      23.521  51.158   0.060  1.00  0.00    -0.507 OA
ATOM     23  H   UNL     1      23.885  52.097   0.010  1.00  0.00     0.293 HD
ENDBRANCH   6  22
BRANCH   8  24
ATOM     24  O   UNL     1      20.227  47.949  -1.260  1.00  0.00    -0.508 OA
ATOM     25  H   UNL     1      20.264  47.466  -0.370  1.00  0.00     0.293 HD
ENDBRANCH   8  24
TORSDOF 5
ENDMDL
MODEL 2
REMARK VINA RESULT:     0.843     23.088     25.410
REMARK INTER + INTRA:           0.676
REMARK INTER:                   0.960
REMARK INTRA:                  -0.284
REMARK UNBOUND:                -0.316
REMARK SMILES O=c1cc(-c2ccc(O)c(O)c2)oc2cc(O)cc(O)c12
REMARK SMILES IDX 4 1 3 2 2 3 1 4 21 5 19 6 18 7 16 8 15 9 14 10 13 11 5 12
REMARK SMILES IDX 6 13 7 14 8 15 12 16 10 17 9 18 11 20 20 22 17 24
REMARK H PARENT 9 19 11 21 20 23 17 25
REMARK Flexibility Score: inf
ROOT
ATOM      1  C   UNL     1      10.484  32.326 -16.476  1.00  0.00     0.138 A 
ATOM      2  C   UNL     1      10.996  32.129 -17.766  1.00  0.00     0.100 A 
ATOM      3  C   UNL     1      12.377  32.109 -17.965  1.00  0.00     0.197 A 
ATOM      4  O   UNL     1      12.806  31.875 -19.124  1.00  0.00    -0.289 OA
ATOM      5  C   UNL     1      13.250  32.323 -16.870  1.00  0.00     0.107 A 
ATOM      6  C   UNL     1      14.674  32.357 -16.959  1.00  0.00     0.134 A 
ATOM      7  C   UNL     1      15.435  32.478 -15.790  1.00  0.00     0.093 A 
ATOM      8  C   UNL     1      14.826  32.624 -14.545  1.00  0.00     0.123 A 
ATOM      9  C   UNL     1      13.434  32.641 -14.451  1.00  0.00     0.094 A 
ATOM     10  C   UNL     1      12.647  32.488 -15.594  1.00  0.00     0.146 A 
ATOM     11  O   UNL     1      11.324  32.492 -15.460  1.00  0.00    -0.456 OA
ENDROOT
BRANCH   1  12
ATOM     12  C   UNL     1       9.024  32.359 -16.207  1.00  0.00     0.021 A 
ATOM     13  C   UNL     1       8.485  31.922 -14.983  1.00  0.00     0.016 A 
ATOM     14  C   UNL     1       7.107  31.974 -14.756  1.00  0.00     0.051 A 
ATOM     15  C   UNL     1       6.246  32.470 -15.739  1.00  0.00     0.157 A 
ATOM     16  C   UNL     1       8.153  32.868 -17.188  1.00  0.00     0.062 A 
ATOM     17  C   UNL     1       6.770  32.921 -16.961  1.00  0.00     0.158 A 
BRANCH  15  18
ATOM     18  O   UNL     1       4.875  32.507 -15.483  1.00  0.00    -0.504 OA
ATOM     19  H   UNL     1       4.199  32.089 -16.110  1.00  0.00     0.293 HD
ENDBRANCH  15  18
BRANCH  17  20
ATOM     20  O   UNL     1       5.917  33.419 -17.944  1.00  0.00    -0.504 OA
ATOM     21  H   UNL     1       6.059  34.335 -18.355  1.00  0.00     0.293 HD
ENDBRANCH  17  20
ENDBRANCH   1  12
BRANCH   6  22
ATOM     22  O   UNL     1      15.386  32.300 -18.161  1.00  0.00    -0.507 OA
ATOM     23  H   UNL     1      15.778  33.096 -18.641  1.00  0.00     0.293 HD
ENDBRANCH   6  22
BRANCH   8  24
ATOM     24  O   UNL     1      15.615  32.758 -13.405  1.00  0.00    -0.508 OA
ATOM     25  H   UNL     1      16.099  33.623 -13.192  1.00  0.00     0.293 HD
ENDBRANCH   8  24
TORSDOF 5
ENDMDL
MODEL 3
REMARK VINA RESULT:     1.255      1.534      2.997
REMARK INTER + INTRA:           1.159
REMARK INTER:                   1.454
REMARK INTRA:                  -0.294
REMARK UNBOUND:                -0.316
REMARK SMILES O=c1cc(-c2ccc(O)c(O)c2)oc2cc(O)cc(O)c12
REMARK SMILES IDX 4 1 3 2 2 3 1 4 21 5 19 6 18 7 16 8 15 9 14 10 13 11 5 12
REMARK SMILES IDX 6 13 7 14 8 15 12 16 10 17 9 18 11 20 20 22 17 24
REMARK H PARENT 9 19 11 21 20 23 17 25
REMARK Flexibility Score: inf
ROOT
ATOM      1  C   UNL     1      22.740  50.978  -6.735  1.00  0.00     0.138 A 
ATOM      2  C   UNL     1      21.385  50.718  -6.485  1.00  0.00     0.100 A 
ATOM      3  C   UNL     1      20.933  50.613  -5.169  1.00  0.00     0.197 A 
ATOM      4  O   UNL     1      19.703  50.435  -4.977  1.00  0.00    -0.289 OA
ATOM      5  C   UNL     1      21.851  50.734  -4.097  1.00  0.00     0.107 A 
ATOM      6  C   UNL     1      21.511  50.611  -2.717  1.00  0.00     0.134 A 
ATOM      7  C   UNL     1      22.488  50.849  -1.742  1.00  0.00     0.093 A 
ATOM      8  C   UNL     1      23.803  51.146  -2.097  1.00  0.00     0.123 A 
ATOM      9  C   UNL     1      24.158  51.220  -3.444  1.00  0.00     0.094 A 
ATOM     10  C   UNL     1      23.199  51.022  -4.440  1.00  0.00     0.146 A 
ATOM     11  O   UNL     1      23.575  51.119  -5.711  1.00  0.00    -0.456 OA
ENDROOT
BRANCH   1  12
ATOM     12  C   UNL     1      23.275  51.096  -8.115  1.00  0.00     0.021 A 
ATOM     13  C   UNL     1      24.650  51.265  -8.364  1.00  0.00     0.016 A 
ATOM     14  C   UNL     1      25.125  51.364  -9.675  1.00  0.00     0.051 A 
ATOM     15  C   UNL     1      24.242  51.288 -10.756  1.00  0.00     0.157 A 
ATOM     16  C   UNL     1      22.393  51.008  -9.207  1.00  0.00     0.062 A 
ATOM     17  C   UNL     1      22.869  51.108 -10.522  1.00  0.00     0.158 A 
BRANCH  15  18
ATOM     18  O   UNL     1      24.747  51.392 -12.052  1.00  0.00    -0.504 OA
ATOM     19  H   UNL     1      24.243  51.871 -12.789  1.00  0.00     0.293 HD
ENDBRANCH  15  18
BRANCH  17  20
ATOM     20  O   UNL     1      21.984  51.028 -11.596  1.00  0.00    -0.504 OA
ATOM     21  H   UNL     1      21.681  51.855 -12.097  1.00  0.00     0.293 HD
ENDBRANCH  17  20
ENDBRANCH   1  12
BRANCH   6  22
ATOM     22  O   UNL     1      20.246  50.240  -2.250  1.00  0.00    -0.507 OA
ATOM     23  H   UNL     1      20.069  49.522  -1.564  1.00  0.00     0.293 HD
ENDBRANCH   6  22
BRANCH   8  24
ATOM     24  O   UNL     1      24.752  51.361  -1.100  1.00  0.00    -0.508 OA
ATOM     25  H   UNL     1      24.953  50.658  -0.398  1.00  0.00     0.293 HD
ENDBRANCH   8  24
TORSDOF 5
ENDMDL
MODEL 4
REMARK VINA RESULT:     1.705      1.209      2.700
REMARK INTER + INTRA:           1.688
REMARK INTER:                   1.982
REMARK INTRA:                  -0.294
REMARK UNBOUND:                -0.316
REMARK SMILES O=c1cc(-c2ccc(O)c(O)c2)oc2cc(O)cc(O)c12
REMARK SMILES IDX 4 1 3 2 2 3 1 4 21 5 19 6 18 7 16 8 15 9 14 10 13 11 5 12
REMARK SMILES IDX 6 13 7 14 8 15 12 16 10 17 9 18 11 20 20 22 17 24
REMARK H PARENT 9 19 11 21 20 23 17 25
REMARK Flexibility Score: inf
ROOT
ATOM      1  C   UNL     1      23.032  50.616  -4.563  1.00  0.00     0.138 A 
ATOM      2  C   UNL     1      21.805  50.006  -4.267  1.00  0.00     0.100 A 
ATOM      3  C   UNL     1      21.451  49.776  -2.937  1.00  0.00     0.197 A 
ATOM      4  O   UNL     1      20.321  49.277  -2.702  1.00  0.00    -0.289 OA
ATOM      5  C   UNL     1      22.348  50.128  -1.898  1.00  0.00     0.107 A 
ATOM      6  C   UNL     1      22.109  49.912  -0.508  1.00  0.00     0.134 A 
ATOM      7  C   UNL     1      23.027  50.393   0.433  1.00  0.00     0.093 A 
ATOM      8  C   UNL     1      24.201  51.030   0.034  1.00  0.00     0.123 A 
ATOM      9  C   UNL     1      24.469  51.204  -1.324  1.00  0.00     0.094 A 
ATOM     10  C   UNL     1      23.557  50.766  -2.286  1.00  0.00     0.146 A 
ATOM     11  O   UNL     1      23.841  50.967  -3.569  1.00  0.00    -0.456 OA
ENDROOT
BRANCH   1  12
ATOM     12  C   UNL     1      23.460  50.881  -5.960  1.00  0.00     0.021 A 
ATOM     13  C   UNL     1      24.748  51.364  -6.261  1.00  0.00     0.016 A 
ATOM     14  C   UNL     1      25.125  51.595  -7.587  1.00  0.00     0.051 A 
ATOM     15  C   UNL     1      24.232  51.341  -8.632  1.00  0.00     0.157 A 
ATOM     16  C   UNL     1      22.571  50.617  -7.016  1.00  0.00     0.062 A 
ATOM     17  C   UNL     1      22.948  50.848  -8.347  1.00  0.00     0.158 A 
BRANCH  15  18
ATOM     18  O   UNL     1      24.638  51.584  -9.945  1.00  0.00    -0.504 OA
ATOM     19  H   UNL     1      24.835  50.832 -10.594  1.00  0.00     0.293 HD
ENDBRANCH  15  18
BRANCH  17  20
ATOM     20  O   UNL     1      22.054  50.590  -9.385  1.00  0.00    -0.504 OA
ATOM     21  H   UNL     1      22.283  50.806 -10.348  1.00  0.00     0.293 HD
ENDBRANCH  17  20
ENDBRANCH   1  12
BRANCH   6  22
ATOM     22  O   UNL     1      21.007  49.216  -0.001  1.00  0.00    -0.507 OA
ATOM     23  H   UNL     1      20.531  48.461  -0.472  1.00  0.00     0.293 HD
ENDBRANCH   6  22
BRANCH   8  24
ATOM     24  O   UNL     1      25.100  51.482   0.998  1.00  0.00    -0.508 OA
ATOM     25  H   UNL     1      24.813  51.641   1.958  1.00  0.00     0.293 HD
ENDBRANCH   8  24
TORSDOF 5
ENDMDL
MODEL 5
REMARK VINA RESULT:     1.718     21.418     23.712
REMARK INTER + INTRA:           1.704
REMARK INTER:                   2.003
REMARK INTRA:                  -0.300
REMARK UNBOUND:                -0.316
REMARK SMILES O=c1cc(-c2ccc(O)c(O)c2)oc2cc(O)cc(O)c12
REMARK SMILES IDX 4 1 3 2 2 3 1 4 21 5 19 6 18 7 16 8 15 9 14 10 13 11 5 12
REMARK SMILES IDX 6 13 7 14 8 15 12 16 10 17 9 18 11 20 20 22 17 24
REMARK H PARENT 9 19 11 21 20 23 17 25
REMARK Flexibility Score: inf
ROOT
ATOM      1  C   UNL     1      14.000  32.908 -15.878  1.00  0.00     0.138 A 
ATOM      2  C   UNL     1      13.948  32.661 -17.257  1.00  0.00     0.100 A 
ATOM      3  C   UNL     1      12.714  32.462 -17.877  1.00  0.00     0.197 A 
ATOM      4  O   UNL     1      12.697  32.298 -19.124  1.00  0.00    -0.289 OA
ATOM      5  C   UNL     1      11.527  32.476 -17.105  1.00  0.00     0.107 A 
ATOM      6  C   UNL     1      10.217  32.252 -17.623  1.00  0.00     0.134 A 
ATOM      7  C   UNL     1       9.108  32.389 -16.778  1.00  0.00     0.093 A 
ATOM      8  C   UNL     1       9.266  32.682 -15.424  1.00  0.00     0.123 A 
ATOM      9  C   UNL     1      10.546  32.854 -14.896  1.00  0.00     0.094 A 
ATOM     10  C   UNL     1      11.669  32.759 -15.720  1.00  0.00     0.146 A 
ATOM     11  O   UNL     1      12.869  32.947 -15.181  1.00  0.00    -0.456 OA
ENDROOT
BRANCH   1  12
ATOM     12  C   UNL     1      15.285  33.123 -15.166  1.00  0.00     0.021 A 
ATOM     13  C   UNL     1      16.337  33.858 -15.744  1.00  0.00     0.016 A 
ATOM     14  C   UNL     1      17.533  34.052 -15.045  1.00  0.00     0.051 A 
ATOM     15  C   UNL     1      17.696  33.526 -13.761  1.00  0.00     0.157 A 
ATOM     16  C   UNL     1      15.451  32.606 -13.869  1.00  0.00     0.062 A 
ATOM     17  C   UNL     1      16.650  32.800 -13.168  1.00  0.00     0.158 A 
BRANCH  15  18
ATOM     18  O   UNL     1      18.901  33.735 -13.091  1.00  0.00    -0.504 OA
ATOM     19  H   UNL     1      19.370  34.632 -13.094  1.00  0.00     0.293 HD
ENDBRANCH  15  18
BRANCH  17  20
ATOM     20  O   UNL     1      16.805  32.275 -11.885  1.00  0.00    -0.504 OA
ATOM     21  H   UNL     1      17.034  32.866 -11.095  1.00  0.00     0.293 HD
ENDBRANCH  17  20
ENDBRANCH   1  12
BRANCH   6  22
ATOM     22  O   UNL     1       9.948  31.875 -18.943  1.00  0.00    -0.507 OA
ATOM     23  H   UNL     1      10.067  32.467 -19.751  1.00  0.00     0.293 HD
ENDBRANCH   6  22
BRANCH   8  24
ATOM     24  O   UNL     1       8.141  32.795 -14.610  1.00  0.00    -0.508 OA
ATOM     25  H   UNL     1       7.705  33.692 -14.429  1.00  0.00     0.293 HD
ENDBRANCH   8  24
TORSDOF 5
ENDMDL
MODEL 6
REMARK VINA RESULT:     3.340     23.461     25.762
REMARK INTER + INTRA:           3.611
REMARK INTER:                   3.904
REMARK INTRA:                  -0.294
REMARK UNBOUND:                -0.316
REMARK SMILES O=c1cc(-c2ccc(O)c(O)c2)oc2cc(O)cc(O)c12
REMARK SMILES IDX 4 1 3 2 2 3 1 4 21 5 19 6 18 7 16 8 15 9 14 10 13 11 5 12
REMARK SMILES IDX 6 13 7 14 8 15 12 16 10 17 9 18 11 20 20 22 17 24
REMARK H PARENT 9 19 11 21 20 23 17 25
REMARK Flexibility Score: inf
ROOT
ATOM      1  C   UNL     1      10.334  32.372 -16.789  1.00  0.00     0.138 A 
ATOM      2  C   UNL     1      10.660  32.429 -15.426  1.00  0.00     0.100 A 
ATOM      3  C   UNL     1      11.996  32.346 -15.031  1.00  0.00     0.197 A 
ATOM      4  O   UNL     1      12.260  32.455 -13.806  1.00  0.00    -0.289 OA
ATOM      5  C   UNL     1      13.008  32.169 -16.005  1.00  0.00     0.107 A 
ATOM      6  C   UNL     1      14.400  32.038 -15.718  1.00  0.00     0.134 A 
ATOM      7  C   UNL     1      15.319  31.967 -16.773  1.00  0.00     0.093 A 
ATOM      8  C   UNL     1      14.893  31.963 -18.100  1.00  0.00     0.123 A 
ATOM      9  C   UNL     1      13.530  32.041 -18.392  1.00  0.00     0.094 A 
ATOM     10  C   UNL     1      12.593  32.148 -17.364  1.00  0.00     0.146 A 
ATOM     11  O   UNL     1      11.305  32.238 -17.685  1.00  0.00    -0.456 OA
ENDROOT
BRANCH   1  12
ATOM     12  C   UNL     1       8.930  32.452 -17.264  1.00  0.00     0.021 A 
ATOM     13  C   UNL     1       8.592  32.248 -18.615  1.00  0.00     0.016 A 
ATOM     14  C   UNL     1       7.259  32.321 -19.031  1.00  0.00     0.051 A 
ATOM     15  C   UNL     1       6.244  32.589 -18.109  1.00  0.00     0.157 A 
ATOM     16  C   UNL     1       7.901  32.709 -16.339  1.00  0.00     0.062 A 
ATOM     17  C   UNL     1       6.564  32.783 -16.756  1.00  0.00     0.158 A 
BRANCH  15  18
ATOM     18  O   UNL     1       4.924  32.657 -18.556  1.00  0.00    -0.504 OA
ATOM     19  H   UNL     1       4.181  32.123 -18.122  1.00  0.00     0.293 HD
ENDBRANCH  15  18
BRANCH  17  20
ATOM     20  O   UNL     1       5.555  33.047 -15.831  1.00  0.00    -0.504 OA
ATOM     21  H   UNL     1       4.642  32.616 -15.906  1.00  0.00     0.293 HD
ENDBRANCH  17  20
ENDBRANCH   1  12
BRANCH   6  22
ATOM     22  O   UNL     1      14.930  31.950 -14.427  1.00  0.00    -0.507 OA
ATOM     23  H   UNL     1      14.780  32.625 -13.692  1.00  0.00     0.293 HD
ENDBRANCH   6  22
BRANCH   8  24
ATOM     24  O   UNL     1      15.834  31.875 -19.124  1.00  0.00    -0.508 OA
ATOM     25  H   UNL     1      15.579  31.564 -20.054  1.00  0.00     0.293 HD
ENDBRANCH   8  24
TORSDOF 5
ENDMDL
