MODEL 1
REMARK VINA RESULT:    -3.482      0.000      0.000
REMARK INTER + INTRA:          -3.906
REMARK INTER:                  -3.889
REMARK INTRA:                  -0.017
REMARK UNBOUND:                -0.017
REMARK SMILES CCCC(=O)[O-]
REMARK SMILES IDX 3 1 4 2 5 3 6 4 2 5 1 6
REMARK H PARENT
REMARK Flexibility Score: inf
ROOT
ATOM      1  C   UNL     1       9.398 -12.582  28.169  1.00  0.00     0.052 C 
ENDROOT
BRANCH   1   2
ATOM      2  C   UNL     1       9.007 -12.561  26.723  1.00  0.00     0.041 C 
ATOM      3  O   UNL     1       8.023 -13.238  26.323  1.00  0.00    -0.550 OA
ATOM      4  O   UNL     1       9.750 -11.822  25.811  1.00  0.00    -0.550 OA
ENDBRANCH   1   2
BRANCH   1   5
ATOM      5  C   UNL     1       8.202 -12.894  29.077  1.00  0.00     0.003 C 
ATOM      6  C   UNL     1       8.013 -11.845  30.172  1.00  0.00     0.004 C 
ENDBRANCH   1   5
TORSDOF 2
ENDMDL
MODEL 2
REMARK VINA RESULT:    -3.459      2.178      3.397
REMARK INTER + INTRA:          -3.880
REMARK INTER:                  -3.864
REMARK INTRA:                  -0.016
REMARK UNBOUND:                -0.017
REMARK SMILES CCCC(=O)[O-]
REMARK SMILES IDX 3 1 4 2 5 3 6 4 2 5 1 6
REMARK H PARENT
REMARK Flexibility Score: inf
ROOT
ATOM      1  C   UNL     1       8.739 -12.819  27.071  1.00  0.00     0.052 C 
ENDROOT
BRANCH   1   2
ATOM      2  C   UNL     1       9.147 -12.496  28.477  1.00  0.00     0.041 C 
ATOM      3  O   UNL     1      10.267 -12.870  28.913  1.00  0.00    -0.550 OA
ATOM      4  O   UNL     1       8.276 -11.811  29.315  1.00  0.00    -0.550 OA
ENDBRANCH   1   2
BRANCH   1   5
ATOM      5  C   UNL     1       9.716 -12.231  26.046  1.00  0.00     0.003 C 
ATOM      6  C   UNL     1       9.088 -11.107  25.222  1.00  0.00     0.004 C 
ENDBRANCH   1   5
TORSDOF 2
ENDMDL
MODEL 3
REMARK VINA RESULT:    -3.451      1.955      2.386
REMARK INTER + INTRA:          -3.871
REMARK INTER:                  -3.831
REMARK INTRA:                  -0.040
REMARK UNBOUND:                -0.017
REMARK SMILES CCCC(=O)[O-]
REMARK SMILES IDX 3 1 4 2 5 3 6 4 2 5 1 6
REMARK H PARENT
REMARK Flexibility Score: inf
ROOT
ATOM      1  C   UNL     1       8.364 -12.869  29.223  1.00  0.00     0.052 C 
ENDROOT
BRANCH   1   2
ATOM      2  C   UNL     1       9.769 -12.872  28.702  1.00  0.00     0.041 C 
ATOM      3  O   UNL     1      10.007 -12.507  27.521  1.00  0.00    -0.550 OA
ATOM      4  O   UNL     1      10.811 -13.311  29.509  1.00  0.00    -0.550 OA
ENDBRANCH   1   2
BRANCH   1   5
ATOM      5  C   UNL     1       8.038 -11.570  29.970  1.00  0.00     0.003 C 
ATOM      6  C   UNL     1       8.267 -11.691  31.476  1.00  0.00     0.004 C 
ENDBRANCH   1   5
TORSDOF 2
ENDMDL
MODEL 4
REMARK VINA RESULT:    -3.450      2.160      3.283
REMARK INTER + INTRA:          -3.870
REMARK INTER:                  -3.852
REMARK INTRA:                  -0.019
REMARK UNBOUND:                -0.017
REMARK SMILES CCCC(=O)[O-]
REMARK SMILES IDX 3 1 4 2 5 3 6 4 2 5 1 6
REMARK H PARENT
REMARK Flexibility Score: inf
ROOT
ATOM      1  C   UNL     1       8.750 -12.838  27.028  1.00  0.00     0.052 C 
ENDROOT
BRANCH   1   2
ATOM      2  C   UNL     1       9.133 -12.524  28.443  1.00  0.00     0.041 C 
ATOM      3  O   UNL     1       8.349 -11.869  29.180  1.00  0.00    -0.550 OA
ATOM      4  O   UNL     1      10.368 -12.925  28.936  1.00  0.00    -0.550 OA
ENDBRANCH   1   2
BRANCH   1   5
ATOM      5  C   UNL     1       9.719 -12.202  26.023  1.00  0.00     0.003 C 
ATOM      6  C   UNL     1       9.065 -11.086  25.210  1.00  0.00     0.004 C 
ENDBRANCH   1   5
TORSDOF 2
ENDMDL
MODEL 5
REMARK VINA RESULT:    -3.411      1.223      1.526
REMARK INTER + INTRA:          -3.827
REMARK INTER:                  -3.808
REMARK INTRA:                  -0.019
REMARK UNBOUND:                -0.017
REMARK SMILES CCCC(=O)[O-]
REMARK SMILES IDX 3 1 4 2 5 3 6 4 2 5 1 6
REMARK H PARENT
REMARK Flexibility Score: inf
ROOT
ATOM      1  C   UNL     1       8.582 -12.965  26.886  1.00  0.00     0.052 C 
ENDROOT
BRANCH   1   2
ATOM      2  C   UNL     1       9.119 -12.294  25.658  1.00  0.00     0.041 C 
ATOM      3  O   UNL     1       9.754 -12.960  24.799  1.00  0.00    -0.550 OA
ATOM      4  O   UNL     1       8.947 -10.927  25.480  1.00  0.00    -0.550 OA
ENDBRANCH   1   2
BRANCH   1   5
ATOM      5  C   UNL     1       9.350 -12.545  28.146  1.00  0.00     0.003 C 
ATOM      6  C   UNL     1       8.418 -12.178  29.300  1.00  0.00     0.004 C 
ENDBRANCH   1   5
TORSDOF 2
ENDMDL
MODEL 6
REMARK VINA RESULT:    -3.390      1.444      1.780
REMARK INTER + INTRA:          -3.803
REMARK INTER:                  -3.763
REMARK INTRA:                  -0.040
REMARK UNBOUND:                -0.017
REMARK SMILES CCCC(=O)[O-]
REMARK SMILES IDX 3 1 4 2 5 3 6 4 2 5 1 6
REMARK H PARENT
REMARK Flexibility Score: inf
ROOT
ATOM      1  C   UNL     1       8.446 -13.084  27.064  1.00  0.00     0.052 C 
ENDROOT
BRANCH   1   2
ATOM      2  C   UNL     1       9.096 -12.415  25.891  1.00  0.00     0.041 C 
ATOM      3  O   UNL     1       8.948 -11.179  25.705  1.00  0.00    -0.550 OA
ATOM      4  O   UNL     1       9.837 -13.164  24.985  1.00  0.00    -0.550 OA
ENDBRANCH   1   2
BRANCH   1   5
ATOM      5  C   UNL     1       8.809 -12.395  28.385  1.00  0.00     0.003 C 
ATOM      6  C   UNL     1      10.069 -12.982  29.021  1.00  0.00     0.004 C 
ENDBRANCH   1   5
TORSDOF 2
ENDMDL
MODEL 7
REMARK VINA RESULT:    -3.165     11.081     11.782
REMARK INTER + INTRA:          -3.552
REMARK INTER:                  -3.537
REMARK INTRA:                  -0.016
REMARK UNBOUND:                -0.017
REMARK SMILES CCCC(=O)[O-]
REMARK SMILES IDX 3 1 4 2 5 3 6 4 2 5 1 6
REMARK H PARENT
REMARK Flexibility Score: inf
ROOT
ATOM      1  C   UNL     1      13.818  -5.487  34.732  1.00  0.00     0.052 C 
ENDROOT
BRANCH   1   2
ATOM      2  C   UNL     1      13.080  -6.172  35.842  1.00  0.00     0.041 C 
ATOM      3  O   UNL     1      13.028  -7.430  35.886  1.00  0.00    -0.550 OA
ATOM      4  O   UNL     1      12.423  -5.422  36.809  1.00  0.00    -0.550 OA
ENDBRANCH   1   2
BRANCH   1   5
ATOM      5  C   UNL     1      13.212  -4.115  34.409  1.00  0.00     0.003 C 
ATOM      6  C   UNL     1      14.263  -3.111  33.937  1.00  0.00     0.004 C 
ENDBRANCH   1   5
TORSDOF 2
ENDMDL
MODEL 8
REMARK VINA RESULT:    -3.128      2.089      2.732
REMARK INTER + INTRA:          -3.510
REMARK INTER:                  -3.480
REMARK INTRA:                  -0.031
REMARK UNBOUND:                -0.017
REMARK SMILES CCCC(=O)[O-]
REMARK SMILES IDX 3 1 4 2 5 3 6 4 2 5 1 6
REMARK H PARENT
REMARK Flexibility Score: inf
ROOT
ATOM      1  C   UNL     1       8.969 -11.456  25.645  1.00  0.00     0.052 C 
ENDROOT
BRANCH   1   2
ATOM      2  C   UNL     1       9.910 -11.685  24.502  1.00  0.00     0.041 C 
ATOM      3  O   UNL     1       9.467 -11.781  23.327  1.00  0.00    -0.550 OA
ATOM      4  O   UNL     1      11.272 -11.825  24.738  1.00  0.00    -0.550 OA
ENDBRANCH   1   2
BRANCH   1   5
ATOM      5  C   UNL     1       8.815 -12.710  26.515  1.00  0.00     0.003 C 
ATOM      6  C   UNL     1       9.253 -12.474  27.960  1.00  0.00     0.004 C 
ENDBRANCH   1   5
TORSDOF 2
ENDMDL
MODEL 9
REMARK VINA RESULT:    -3.018     19.048     19.760
REMARK INTER + INTRA:          -3.387
REMARK INTER:                  -3.352
REMARK INTRA:                  -0.035
REMARK UNBOUND:                -0.017
REMARK SMILES CCCC(=O)[O-]
REMARK SMILES IDX 3 1 4 2 5 3 6 4 2 5 1 6
REMARK H PARENT
REMARK Flexibility Score: inf
ROOT
ATOM      1  C   UNL     1      22.138  -1.681  38.034  1.00  0.00     0.052 C 
ENDROOT
BRANCH   1   2
ATOM      2  C   UNL     1      22.340  -0.555  37.066  1.00  0.00     0.041 C 
ATOM      3  O   UNL     1      21.352   0.104  36.647  1.00  0.00    -0.550 OA
ATOM      4  O   UNL     1      23.614  -0.255  36.601  1.00  0.00    -0.550 OA
ENDBRANCH   1   2
BRANCH   1   5
ATOM      5  C   UNL     1      20.664  -2.096  38.125  1.00  0.00     0.003 C 
ATOM      6  C   UNL     1      20.397  -3.445  37.460  1.00  0.00     0.004 C 
ENDBRANCH   1   5
TORSDOF 2
ENDMDL
