MODEL 1
REMARK VINA RESULT:    -6.784      0.000      0.000
REMARK INTER + INTRA:          -8.066
REMARK INTER:                  -7.775
REMARK INTRA:                  -0.290
REMARK UNBOUND:                -0.290
REMARK SMILES O=C1C[C@@H](c2ccc(O)cc2)Oc2cc(O)cc(O)c21
REMARK SMILES IDX 3 1 4 2 12 3 13 4 14 5 15 6 17 7 18 8 20 9 2 10 1 11 5 12
REMARK SMILES IDX 6 13 11 14 7 15 10 16 8 17 9 18 19 20 16 22
REMARK H PARENT 9 19 19 21 16 23
REMARK Flexibility Score: inf
ROOT
ATOM      1  C   UNL     1      -1.787  -7.106  15.357  1.00  0.00     0.131 C 
ATOM      2  C   UNL     1      -0.381  -7.644  15.659  1.00  0.00     0.211 C 
ATOM      3  O   UNL     1      -0.311  -9.048  15.390  1.00  0.00    -0.484 OA
ATOM      4  C   UNL     1      -0.947  -9.639  14.290  1.00  0.00     0.138 A 
ATOM      5  C   UNL     1      -0.611 -10.948  13.937  1.00  0.00     0.093 A 
ATOM      6  C   UNL     1      -1.215 -11.559  12.839  1.00  0.00     0.123 A 
ATOM      7  C   UNL     1      -2.184 -10.868  12.105  1.00  0.00     0.093 A 
ATOM      8  C   UNL     1      -2.566  -9.570  12.464  1.00  0.00     0.133 A 
ATOM      9  C   UNL     1      -1.918  -8.927  13.552  1.00  0.00     0.102 A 
ATOM     10  C   UNL     1      -2.190  -7.532  13.977  1.00  0.00     0.174 C 
ATOM     11  O   UNL     1      -2.699  -6.688  13.194  1.00  0.00    -0.294 OA
ENDROOT
BRANCH   2  12
ATOM     12  C   UNL     1      -0.002  -7.372  17.095  1.00  0.00    -0.007 A 
ATOM     13  C   UNL     1       1.312  -7.598  17.542  1.00  0.00     0.011 A 
ATOM     14  C   UNL     1      -0.974  -6.942  18.014  1.00  0.00     0.011 A 
ATOM     15  C   UNL     1       1.650  -7.374  18.880  1.00  0.00     0.046 A 
ATOM     16  C   UNL     1      -0.633  -6.720  19.351  1.00  0.00     0.046 A 
ATOM     17  C   UNL     1       0.678  -6.932  19.788  1.00  0.00     0.115 A 
BRANCH  17  18
ATOM     18  O   UNL     1       1.005  -6.705  21.123  1.00  0.00    -0.508 OA
ATOM     19  H   UNL     1       0.345  -6.285  21.766  1.00  0.00     0.293 HD
ENDBRANCH  17  18
ENDBRANCH   2  12
BRANCH   8  20
ATOM     20  O   UNL     1      -3.604  -8.981  11.739  1.00  0.00    -0.507 OA
ATOM     21  H   UNL     1      -3.480  -8.211  11.099  1.00  0.00     0.293 HD
ENDBRANCH   8  20
BRANCH   6  22
ATOM     22  O   UNL     1      -0.851 -12.859  12.489  1.00  0.00    -0.508 OA
ATOM     23  H   UNL     1       0.050 -13.063  12.074  1.00  0.00     0.293 HD
ENDBRANCH   6  22
TORSDOF 4
ENDMDL
MODEL 2
REMARK VINA RESULT:    -6.639      2.563      6.474
REMARK INTER + INTRA:          -7.900
REMARK INTER:                  -7.606
REMARK INTRA:                  -0.294
REMARK UNBOUND:                -0.290
REMARK SMILES O=C1C[C@@H](c2ccc(O)cc2)Oc2cc(O)cc(O)c21
REMARK SMILES IDX 3 1 4 2 12 3 13 4 14 5 15 6 17 7 18 8 20 9 2 10 1 11 5 12
REMARK SMILES IDX 6 13 11 14 7 15 10 16 8 17 9 18 19 20 16 22
REMARK H PARENT 9 19 19 21 16 23
REMARK Flexibility Score: inf
ROOT
ATOM      1  C   UNL     1       1.030  -7.051  14.189  1.00  0.00     0.131 C 
ATOM      2  C   UNL     1      -0.086  -7.504  15.142  1.00  0.00     0.211 C 
ATOM      3  O   UNL     1       0.394  -8.517  16.033  1.00  0.00    -0.484 OA
ATOM      4  C   UNL     1       1.676  -8.480  16.598  1.00  0.00     0.138 A 
ATOM      5  C   UNL     1       1.972  -9.337  17.660  1.00  0.00     0.093 A 
ATOM      6  C   UNL     1       3.233  -9.315  18.254  1.00  0.00     0.123 A 
ATOM      7  C   UNL     1       4.217  -8.450  17.763  1.00  0.00     0.093 A 
ATOM      8  C   UNL     1       3.955  -7.611  16.674  1.00  0.00     0.133 A 
ATOM      9  C   UNL     1       2.657  -7.596  16.099  1.00  0.00     0.102 A 
ATOM     10  C   UNL     1       2.247  -6.700  14.990  1.00  0.00     0.174 C 
ATOM     11  O   UNL     1       2.862  -5.629  14.742  1.00  0.00    -0.294 OA
ENDROOT
BRANCH   2  12
ATOM     12  C   UNL     1      -1.275  -8.018  14.367  1.00  0.00    -0.007 A 
ATOM     13  C   UNL     1      -1.185  -9.210  13.626  1.00  0.00     0.011 A 
ATOM     14  C   UNL     1      -2.470  -7.279  14.332  1.00  0.00     0.011 A 
ATOM     15  C   UNL     1      -2.279  -9.666  12.885  1.00  0.00     0.046 A 
ATOM     16  C   UNL     1      -3.562  -7.737  13.590  1.00  0.00     0.046 A 
ATOM     17  C   UNL     1      -3.472  -8.930  12.867  1.00  0.00     0.115 A 
BRANCH  17  18
ATOM     18  O   UNL     1      -4.569  -9.375  12.133  1.00  0.00    -0.508 OA
ATOM     19  H   UNL     1      -4.868  -8.902  11.289  1.00  0.00     0.293 HD
ENDBRANCH  17  18
ENDBRANCH   2  12
BRANCH   8  20
ATOM     20  O   UNL     1       5.015  -6.844  16.184  1.00  0.00    -0.507 OA
ATOM     21  H   UNL     1       5.956  -7.192  16.067  1.00  0.00     0.293 HD
ENDBRANCH   8  20
BRANCH   6  22
ATOM     22  O   UNL     1       3.503 -10.163  19.327  1.00  0.00    -0.508 OA
ATOM     23  H   UNL     1       3.622 -11.160  19.197  1.00  0.00     0.293 HD
ENDBRANCH   6  22
TORSDOF 4
ENDMDL
MODEL 3
REMARK VINA RESULT:    -6.573      3.585      5.928
REMARK INTER + INTRA:          -7.824
REMARK INTER:                  -7.523
REMARK INTRA:                  -0.302
REMARK UNBOUND:                -0.290
REMARK SMILES O=C1C[C@@H](c2ccc(O)cc2)Oc2cc(O)cc(O)c21
REMARK SMILES IDX 3 1 4 2 12 3 13 4 14 5 15 6 17 7 18 8 20 9 2 10 1 11 5 12
REMARK SMILES IDX 6 13 11 14 7 15 10 16 8 17 9 18 19 20 16 22
REMARK H PARENT 9 19 19 21 16 23
REMARK Flexibility Score: inf
ROOT
ATOM      1  C   UNL     1      -1.160  -6.861  13.830  1.00  0.00     0.131 C 
ATOM      2  C   UNL     1      -1.743  -8.269  13.639  1.00  0.00     0.211 C 
ATOM      3  O   UNL     1      -1.152  -8.909  12.503  1.00  0.00    -0.484 OA
ATOM      4  C   UNL     1       0.208  -8.785  12.190  1.00  0.00     0.138 A 
ATOM      5  C   UNL     1       0.766  -9.648  11.244  1.00  0.00     0.093 A 
ATOM      6  C   UNL     1       2.119  -9.560  10.920  1.00  0.00     0.123 A 
ATOM      7  C   UNL     1       2.916  -8.582  11.524  1.00  0.00     0.093 A 
ATOM      8  C   UNL     1       2.370  -7.680  12.446  1.00  0.00     0.133 A 
ATOM      9  C   UNL     1       1.003  -7.799  12.813  1.00  0.00     0.102 A 
ATOM     10  C   UNL     1       0.337  -6.946  13.828  1.00  0.00     0.174 C 
ATOM     11  O   UNL     1       0.991  -6.338  14.716  1.00  0.00    -0.294 OA
ENDROOT
BRANCH   2  12
ATOM     12  C   UNL     1      -3.243  -8.208  13.476  1.00  0.00    -0.007 A 
ATOM     13  C   UNL     1      -3.977  -9.369  13.176  1.00  0.00     0.011 A 
ATOM     14  C   UNL     1      -3.915  -6.977  13.569  1.00  0.00     0.011 A 
ATOM     15  C   UNL     1      -5.362  -9.302  12.997  1.00  0.00     0.046 A 
ATOM     16  C   UNL     1      -5.299  -6.914  13.388  1.00  0.00     0.046 A 
ATOM     17  C   UNL     1      -6.027  -8.073  13.104  1.00  0.00     0.115 A 
BRANCH  17  18
ATOM     18  O   UNL     1      -7.406  -7.995  12.927  1.00  0.00    -0.508 OA
ATOM     19  H   UNL     1      -7.822  -7.975  12.004  1.00  0.00     0.293 HD
ENDBRANCH  17  18
ENDBRANCH   2  12
BRANCH   8  20
ATOM     20  O   UNL     1       3.208  -6.676  12.935  1.00  0.00    -0.507 OA
ATOM     21  H   UNL     1       2.881  -5.865  13.440  1.00  0.00     0.293 HD
ENDBRANCH   8  20
BRANCH   6  22
ATOM     22  O   UNL     1       2.663 -10.444   9.990  1.00  0.00    -0.508 OA
ATOM     23  H   UNL     1       2.104 -10.837   9.242  1.00  0.00     0.293 HD
ENDBRANCH   6  22
TORSDOF 4
ENDMDL
MODEL 4
REMARK VINA RESULT:    -6.571      2.301      2.818
REMARK INTER + INTRA:          -7.821
REMARK INTER:                  -7.528
REMARK INTRA:                  -0.294
REMARK UNBOUND:                -0.290
REMARK SMILES O=C1C[C@@H](c2ccc(O)cc2)Oc2cc(O)cc(O)c21
REMARK SMILES IDX 3 1 4 2 12 3 13 4 14 5 15 6 17 7 18 8 20 9 2 10 1 11 5 12
REMARK SMILES IDX 6 13 11 14 7 15 10 16 8 17 9 18 19 20 16 22
REMARK H PARENT 9 19 19 21 16 23
REMARK Flexibility Score: inf
ROOT
ATOM      1  C   UNL     1      -2.852  -6.183  15.139  1.00  0.00     0.131 C 
ATOM      2  C   UNL     1      -2.073  -6.845  16.284  1.00  0.00     0.211 C 
ATOM      3  O   UNL     1      -2.504  -8.197  16.472  1.00  0.00    -0.484 OA
ATOM      4  C   UNL     1      -2.816  -9.045  15.401  1.00  0.00     0.138 A 
ATOM      5  C   UNL     1      -2.959 -10.414  15.642  1.00  0.00     0.093 A 
ATOM      6  C   UNL     1      -3.254 -11.287  14.596  1.00  0.00     0.123 A 
ATOM      7  C   UNL     1      -3.439 -10.785  13.303  1.00  0.00     0.093 A 
ATOM      8  C   UNL     1      -3.341  -9.412  13.046  1.00  0.00     0.133 A 
ATOM      9  C   UNL     1      -2.992  -8.527  14.100  1.00  0.00     0.102 A 
ATOM     10  C   UNL     1      -2.792  -7.067  13.929  1.00  0.00     0.174 C 
ATOM     11  O   UNL     1      -2.521  -6.562  12.808  1.00  0.00    -0.294 OA
ENDROOT
BRANCH   2  12
ATOM     12  C   UNL     1      -2.241  -6.065  17.565  1.00  0.00    -0.007 A 
ATOM     13  C   UNL     1      -3.020  -4.895  17.593  1.00  0.00     0.011 A 
ATOM     14  C   UNL     1      -1.575  -6.472  18.734  1.00  0.00     0.011 A 
ATOM     15  C   UNL     1      -3.148  -4.159  18.775  1.00  0.00     0.046 A 
ATOM     16  C   UNL     1      -1.705  -5.734  19.914  1.00  0.00     0.046 A 
ATOM     17  C   UNL     1      -2.491  -4.579  19.940  1.00  0.00     0.115 A 
BRANCH  17  18
ATOM     18  O   UNL     1      -2.612  -3.854  21.123  1.00  0.00    -0.508 OA
ATOM     19  H   UNL     1      -1.803  -3.469  21.594  1.00  0.00     0.293 HD
ENDBRANCH  17  18
ENDBRANCH   2  12
BRANCH   8  20
ATOM     20  O   UNL     1      -3.630  -8.980  11.750  1.00  0.00    -0.507 OA
ATOM     21  H   UNL     1      -3.066  -9.200  10.943  1.00  0.00     0.293 HD
ENDBRANCH   8  20
BRANCH   6  22
ATOM     22  O   UNL     1      -3.371 -12.652  14.851  1.00  0.00    -0.508 OA
ATOM     23  H   UNL     1      -4.270 -13.119  14.841  1.00  0.00     0.293 HD
ENDBRANCH   6  22
TORSDOF 4
ENDMDL
MODEL 5
REMARK VINA RESULT:    -6.554      4.403      6.347
REMARK INTER + INTRA:          -7.802
REMARK INTER:                  -7.499
REMARK INTRA:                  -0.303
REMARK UNBOUND:                -0.290
REMARK SMILES O=C1C[C@@H](c2ccc(O)cc2)Oc2cc(O)cc(O)c21
REMARK SMILES IDX 3 1 4 2 12 3 13 4 14 5 15 6 17 7 18 8 20 9 2 10 1 11 5 12
REMARK SMILES IDX 6 13 11 14 7 15 10 16 8 17 9 18 19 20 16 22
REMARK H PARENT 9 19 19 21 16 23
REMARK Flexibility Score: inf
ROOT
ATOM      1  C   UNL     1      -4.431  -7.623  13.175  1.00  0.00     0.131 C 
ATOM      2  C   UNL     1      -4.911  -8.705  14.153  1.00  0.00     0.211 C 
ATOM      3  O   UNL     1      -4.458  -9.997  13.735  1.00  0.00    -0.484 OA
ATOM      4  C   UNL     1      -3.183 -10.212  13.194  1.00  0.00     0.138 A 
ATOM      5  C   UNL     1      -2.713 -11.521  13.070  1.00  0.00     0.093 A 
ATOM      6  C   UNL     1      -1.443 -11.768  12.548  1.00  0.00     0.123 A 
ATOM      7  C   UNL     1      -0.649 -10.700  12.119  1.00  0.00     0.093 A 
ATOM      8  C   UNL     1      -1.116  -9.382  12.196  1.00  0.00     0.133 A 
ATOM      9  C   UNL     1      -2.388  -9.125  12.772  1.00  0.00     0.102 A 
ATOM     10  C   UNL     1      -2.953  -7.767  12.969  1.00  0.00     0.174 C 
ATOM     11  O   UNL     1      -2.220  -6.745  13.021  1.00  0.00    -0.294 OA
ENDROOT
BRANCH   2  12
ATOM     12  C   UNL     1      -6.416  -8.695  14.265  1.00  0.00    -0.007 A 
ATOM     13  C   UNL     1      -7.163  -7.612  13.769  1.00  0.00     0.011 A 
ATOM     14  C   UNL     1      -7.084  -9.747  14.916  1.00  0.00     0.011 A 
ATOM     15  C   UNL     1      -8.554  -7.593  13.903  1.00  0.00     0.046 A 
ATOM     16  C   UNL     1      -8.475  -9.725  15.048  1.00  0.00     0.046 A 
ATOM     17  C   UNL     1      -9.214  -8.652  14.541  1.00  0.00     0.115 A 
BRANCH  17  18
ATOM     18  O   UNL     1     -10.600  -8.644  14.679  1.00  0.00    -0.508 OA
ATOM     19  H   UNL     1     -11.174  -7.947  14.221  1.00  0.00     0.293 HD
ENDBRANCH  17  18
ENDBRANCH   2  12
BRANCH   8  20
ATOM     20  O   UNL     1      -0.302  -8.380  11.663  1.00  0.00    -0.507 OA
ATOM     21  H   UNL     1      -0.545  -7.827  10.854  1.00  0.00     0.293 HD
ENDBRANCH   8  20
BRANCH   6  22
ATOM     22  O   UNL     1      -0.982 -13.080  12.453  1.00  0.00    -0.508 OA
ATOM     23  H   UNL     1      -1.621 -13.862  12.370  1.00  0.00     0.293 HD
ENDBRANCH   6  22
TORSDOF 4
ENDMDL
MODEL 6
REMARK VINA RESULT:    -6.497      5.648      8.061
REMARK INTER + INTRA:          -7.737
REMARK INTER:                  -7.439
REMARK INTRA:                  -0.298
REMARK UNBOUND:                -0.290
REMARK SMILES O=C1C[C@@H](c2ccc(O)cc2)Oc2cc(O)cc(O)c21
REMARK SMILES IDX 3 1 4 2 12 3 13 4 14 5 15 6 17 7 18 8 20 9 2 10 1 11 5 12
REMARK SMILES IDX 6 13 11 14 7 15 10 16 8 17 9 18 19 20 16 22
REMARK H PARENT 9 19 19 21 16 23
REMARK Flexibility Score: inf
ROOT
ATOM      1  C   UNL     1      -6.658  -6.899  12.933  1.00  0.00     0.131 C 
ATOM      2  C   UNL     1      -7.392  -7.638  14.062  1.00  0.00     0.211 C 
ATOM      3  O   UNL     1      -7.125  -9.043  14.001  1.00  0.00    -0.484 OA
ATOM      4  C   UNL     1      -5.861  -9.558  13.679  1.00  0.00     0.138 A 
ATOM      5  C   UNL     1      -5.605 -10.912  13.908  1.00  0.00     0.093 A 
ATOM      6  C   UNL     1      -4.354 -11.452  13.614  1.00  0.00     0.123 A 
ATOM      7  C   UNL     1      -3.360 -10.641  13.058  1.00  0.00     0.093 A 
ATOM      8  C   UNL     1      -3.607  -9.290  12.782  1.00  0.00     0.133 A 
ATOM      9  C   UNL     1      -4.864  -8.726  13.127  1.00  0.00     0.102 A 
ATOM     10  C   UNL     1      -5.212  -7.295  12.946  1.00  0.00     0.174 C 
ATOM     11  O   UNL     1      -4.326  -6.403  12.859  1.00  0.00    -0.294 OA
ENDROOT
BRANCH   2  12
ATOM     12  C   UNL     1      -8.878  -7.389  13.984  1.00  0.00    -0.007 A 
ATOM     13  C   UNL     1      -9.401  -6.459  13.068  1.00  0.00     0.011 A 
ATOM     14  C   UNL     1      -9.752  -8.047  14.867  1.00  0.00     0.011 A 
ATOM     15  C   UNL     1     -10.776  -6.211  13.021  1.00  0.00     0.046 A 
ATOM     16  C   UNL     1     -11.126  -7.795  14.818  1.00  0.00     0.046 A 
ATOM     17  C   UNL     1     -11.643  -6.880  13.896  1.00  0.00     0.115 A 
BRANCH  17  18
ATOM     18  O   UNL     1     -13.014  -6.640  13.858  1.00  0.00    -0.508 OA
ATOM     19  H   UNL     1     -13.558  -6.808  13.020  1.00  0.00     0.293 HD
ENDBRANCH  17  18
ENDBRANCH   2  12
BRANCH   8  20
ATOM     20  O   UNL     1      -2.596  -8.569  12.143  1.00  0.00    -0.507 OA
ATOM     21  H   UNL     1      -2.707  -7.627  11.798  1.00  0.00     0.293 HD
ENDBRANCH   8  20
BRANCH   6  22
ATOM     22  O   UNL     1      -4.110 -12.801  13.869  1.00  0.00    -0.508 OA
ATOM     23  H   UNL     1      -4.847 -13.493  13.811  1.00  0.00     0.293 HD
ENDBRANCH   6  22
TORSDOF 4
ENDMDL
MODEL 7
REMARK VINA RESULT:    -6.484      4.938      7.367
REMARK INTER + INTRA:          -7.722
REMARK INTER:                  -7.437
REMARK INTRA:                  -0.285
REMARK UNBOUND:                -0.290
REMARK SMILES O=C1C[C@@H](c2ccc(O)cc2)Oc2cc(O)cc(O)c21
REMARK SMILES IDX 3 1 4 2 12 3 13 4 14 5 15 6 17 7 18 8 20 9 2 10 1 11 5 12
REMARK SMILES IDX 6 13 11 14 7 15 10 16 8 17 9 18 19 20 16 22
REMARK H PARENT 9 19 19 21 16 23
REMARK Flexibility Score: inf
ROOT
ATOM      1  C   UNL     1       2.062  -7.480  14.409  1.00  0.00     0.131 C 
ATOM      2  C   UNL     1       1.872  -8.406  13.199  1.00  0.00     0.211 C 
ATOM      3  O   UNL     1       2.445  -7.822  12.024  1.00  0.00    -0.484 OA
ATOM      4  C   UNL     1       3.656  -7.116  12.045  1.00  0.00     0.138 A 
ATOM      5  C   UNL     1       4.286  -6.820  10.834  1.00  0.00     0.093 A 
ATOM      6  C   UNL     1       5.499  -6.132  10.821  1.00  0.00     0.123 A 
ATOM      7  C   UNL     1       6.072  -5.711  12.025  1.00  0.00     0.093 A 
ATOM      8  C   UNL     1       5.437  -5.961  13.248  1.00  0.00     0.133 A 
ATOM      9  C   UNL     1       4.227  -6.704  13.268  1.00  0.00     0.102 A 
ATOM     10  C   UNL     1       3.506  -7.088  14.506  1.00  0.00     0.174 C 
ATOM     11  O   UNL     1       4.088  -7.146  15.621  1.00  0.00    -0.294 OA
ENDROOT
BRANCH   2  12
ATOM     12  C   UNL     1       0.408  -8.695  12.972  1.00  0.00    -0.007 A 
ATOM     13  C   UNL     1      -0.025  -9.998  12.667  1.00  0.00     0.011 A 
ATOM     14  C   UNL     1      -0.533  -7.652  13.010  1.00  0.00     0.011 A 
ATOM     15  C   UNL     1      -1.378 -10.254  12.427  1.00  0.00     0.046 A 
ATOM     16  C   UNL     1      -1.885  -7.912  12.769  1.00  0.00     0.046 A 
ATOM     17  C   UNL     1      -2.313  -9.211  12.480  1.00  0.00     0.115 A 
BRANCH  17  18
ATOM     18  O   UNL     1      -3.663  -9.456  12.243  1.00  0.00    -0.508 OA
ATOM     19  H   UNL     1      -4.240  -9.942  12.919  1.00  0.00     0.293 HD
ENDBRANCH  17  18
ENDBRANCH   2  12
BRANCH   8  20
ATOM     20  O   UNL     1       6.025  -5.429  14.398  1.00  0.00    -0.507 OA
ATOM     21  H   UNL     1       5.573  -4.760  15.004  1.00  0.00     0.293 HD
ENDBRANCH   8  20
BRANCH   6  22
ATOM     22  O   UNL     1       6.125  -5.864   9.605  1.00  0.00    -0.508 OA
ATOM     23  H   UNL     1       5.770  -6.238   8.733  1.00  0.00     0.293 HD
ENDBRANCH   6  22
TORSDOF 4
ENDMDL
MODEL 8
REMARK VINA RESULT:    -6.431      4.277      6.429
REMARK INTER + INTRA:          -7.661
REMARK INTER:                  -7.364
REMARK INTRA:                  -0.297
REMARK UNBOUND:                -0.290
REMARK SMILES O=C1C[C@@H](c2ccc(O)cc2)Oc2cc(O)cc(O)c21
REMARK SMILES IDX 3 1 4 2 12 3 13 4 14 5 15 6 17 7 18 8 20 9 2 10 1 11 5 12
REMARK SMILES IDX 6 13 11 14 7 15 10 16 8 17 9 18 19 20 16 22
REMARK H PARENT 9 19 19 21 16 23
REMARK Flexibility Score: inf
ROOT
ATOM      1  C   UNL     1      -3.341 -11.167  13.421  1.00  0.00     0.131 C 
ATOM      2  C   UNL     1      -4.037  -9.930  12.836  1.00  0.00     0.211 C 
ATOM      3  O   UNL     1      -3.184  -8.784  12.924  1.00  0.00    -0.484 OA
ATOM      4  C   UNL     1      -1.803  -8.851  12.693  1.00  0.00     0.138 A 
ATOM      5  C   UNL     1      -1.087  -7.664  12.524  1.00  0.00     0.093 A 
ATOM      6  C   UNL     1       0.285  -7.696  12.278  1.00  0.00     0.123 A 
ATOM      7  C   UNL     1       0.953  -8.924  12.230  1.00  0.00     0.093 A 
ATOM      8  C   UNL     1       0.263 -10.125  12.437  1.00  0.00     0.133 A 
ATOM      9  C   UNL     1      -1.142 -10.097  12.639  1.00  0.00     0.102 A 
ATOM     10  C   UNL     1      -1.984 -11.308  12.799  1.00  0.00     0.174 C 
ATOM     11  O   UNL     1      -1.612 -12.435  12.377  1.00  0.00    -0.294 OA
ENDROOT
BRANCH   2  12
ATOM     12  C   UNL     1      -5.339  -9.661  13.550  1.00  0.00    -0.007 A 
ATOM     13  C   UNL     1      -5.815 -10.553  14.529  1.00  0.00     0.011 A 
ATOM     14  C   UNL     1      -6.118  -8.544  13.205  1.00  0.00     0.011 A 
ATOM     15  C   UNL     1      -7.037 -10.316  15.165  1.00  0.00     0.046 A 
ATOM     16  C   UNL     1      -7.339  -8.310  13.843  1.00  0.00     0.046 A 
ATOM     17  C   UNL     1      -7.802  -9.191  14.825  1.00  0.00     0.115 A 
BRANCH  17  18
ATOM     18  O   UNL     1      -9.020  -8.946  15.453  1.00  0.00    -0.508 OA
ATOM     19  H   UNL     1      -9.897  -9.001  14.949  1.00  0.00     0.293 HD
ENDBRANCH  17  18
ENDBRANCH   2  12
BRANCH   8  20
ATOM     20  O   UNL     1       1.016 -11.301  12.466  1.00  0.00    -0.507 OA
ATOM     21  H   UNL     1       0.637 -12.218  12.277  1.00  0.00     0.293 HD
ENDBRANCH   8  20
BRANCH   6  22
ATOM     22  O   UNL     1       0.979  -6.502  12.090  1.00  0.00    -0.508 OA
ATOM     23  H   UNL     1       0.542  -5.603  12.254  1.00  0.00     0.293 HD
ENDBRANCH   6  22
TORSDOF 4
ENDMDL
MODEL 9
REMARK VINA RESULT:    -6.352      4.077      5.592
REMARK INTER + INTRA:          -7.570
REMARK INTER:                  -7.274
REMARK INTRA:                  -0.296
REMARK UNBOUND:                -0.290
REMARK SMILES O=C1C[C@@H](c2ccc(O)cc2)Oc2cc(O)cc(O)c21
REMARK SMILES IDX 3 1 4 2 12 3 13 4 14 5 15 6 17 7 18 8 20 9 2 10 1 11 5 12
REMARK SMILES IDX 6 13 11 14 7 15 10 16 8 17 9 18 19 20 16 22
REMARK H PARENT 9 19 19 21 16 23
REMARK Flexibility Score: inf
ROOT
ATOM      1  C   UNL     1      -4.115  -8.409  13.651  1.00  0.00     0.131 C 
ATOM      2  C   UNL     1      -3.852  -9.349  14.837  1.00  0.00     0.211 C 
ATOM      3  O   UNL     1      -2.884 -10.343  14.486  1.00  0.00    -0.484 OA
ATOM      4  C   UNL     1      -1.761 -10.058  13.697  1.00  0.00     0.138 A 
ATOM      5  C   UNL     1      -0.728 -10.996  13.628  1.00  0.00     0.093 A 
ATOM      6  C   UNL     1       0.409 -10.737  12.864  1.00  0.00     0.123 A 
ATOM      7  C   UNL     1       0.502  -9.545  12.138  1.00  0.00     0.093 A 
ATOM      8  C   UNL     1      -0.540  -8.609  12.160  1.00  0.00     0.133 A 
ATOM      9  C   UNL     1      -1.677  -8.848  12.976  1.00  0.00     0.102 A 
ATOM     10  C   UNL     1      -2.805  -7.897  13.131  1.00  0.00     0.174 C 
ATOM     11  O   UNL     1      -2.674  -6.668  12.889  1.00  0.00    -0.294 OA
ENDROOT
BRANCH   2  12
ATOM     12  C   UNL     1      -5.132 -10.009  15.288  1.00  0.00    -0.007 A 
ATOM     13  C   UNL     1      -6.360  -9.672  14.691  1.00  0.00     0.011 A 
ATOM     14  C   UNL     1      -5.117 -10.930  16.350  1.00  0.00     0.011 A 
ATOM     15  C   UNL     1      -7.547 -10.264  15.134  1.00  0.00     0.046 A 
ATOM     16  C   UNL     1      -6.305 -11.520  16.790  1.00  0.00     0.046 A 
ATOM     17  C   UNL     1      -7.521 -11.192  16.184  1.00  0.00     0.115 A 
BRANCH  17  18
ATOM     18  O   UNL     1      -8.698 -11.788  16.633  1.00  0.00    -0.508 OA
ATOM     19  H   UNL     1      -9.594 -11.571  16.215  1.00  0.00     0.293 HD
ENDBRANCH  17  18
ENDBRANCH   2  12
BRANCH   8  20
ATOM     20  O   UNL     1      -0.413  -7.487  11.337  1.00  0.00    -0.507 OA
ATOM     21  H   UNL     1       0.363  -6.843  11.378  1.00  0.00     0.293 HD
ENDBRANCH   8  20
BRANCH   6  22
ATOM     22  O   UNL     1       1.440 -11.674  12.825  1.00  0.00    -0.508 OA
ATOM     23  H   UNL     1       1.981 -11.832  11.983  1.00  0.00     0.293 HD
ENDBRANCH   6  22
TORSDOF 4
ENDMDL
