MODEL 1
REMARK VINA RESULT:    -3.346      0.000      0.000
REMARK INTER + INTRA:          -3.745
REMARK INTER:                  -3.738
REMARK INTRA:                  -0.008
REMARK UNBOUND:                -0.008
REMARK SMILES CCCC(=O)[O-]
REMARK SMILES IDX 3 1 4 2 5 3 6 4 2 5 1 6
REMARK H PARENT
REMARK Flexibility Score: inf
ROOT
ATOM      1  C   UNL     1     198.160 199.529 151.639  1.00  0.00     0.052 C 
ENDROOT
BRANCH   1   2
ATOM      2  C   UNL     1     197.440 199.193 152.909  1.00  0.00     0.041 C 
ATOM      3  O   UNL     1     196.241 199.542 153.069  1.00  0.00    -0.550 OA
ATOM      4  O   UNL     1     198.105 198.524 153.929  1.00  0.00    -0.550 OA
ENDBRANCH   1   2
BRANCH   1   5
ATOM      5  C   UNL     1     199.458 200.303 151.909  1.00  0.00     0.003 C 
ATOM      6  C   UNL     1     200.386 200.324 150.696  1.00  0.00     0.004 C 
ENDBRANCH   1   5
TORSDOF 2
ENDMDL
MODEL 2
REMARK VINA RESULT:    -2.816     12.050     12.645
REMARK INTER + INTRA:          -3.153
REMARK INTER:                  -3.146
REMARK INTRA:                  -0.007
REMARK UNBOUND:                -0.008
REMARK SMILES CCCC(=O)[O-]
REMARK SMILES IDX 3 1 4 2 5 3 6 4 2 5 1 6
REMARK H PARENT
REMARK Flexibility Score: inf
ROOT
ATOM      1  C   UNL     1     200.297 211.786 149.501  1.00  0.00     0.052 C 
ENDROOT
BRANCH   1   2
ATOM      2  C   UNL     1     200.722 210.663 150.397  1.00  0.00     0.041 C 
ATOM      3  O   UNL     1     200.222 210.548 151.547  1.00  0.00    -0.550 OA
ATOM      4  O   UNL     1     201.694 209.765 149.975  1.00  0.00    -0.550 OA
ENDBRANCH   1   2
BRANCH   1   5
ATOM      5  C   UNL     1     201.499 212.599 149.000  1.00  0.00     0.003 C 
ATOM      6  C   UNL     1     201.219 214.101 148.986  1.00  0.00     0.004 C 
ENDBRANCH   1   5
TORSDOF 2
ENDMDL
MODEL 3
REMARK VINA RESULT:    -2.730     13.520     14.171
REMARK INTER + INTRA:          -3.057
REMARK INTER:                  -3.018
REMARK INTRA:                  -0.039
REMARK UNBOUND:                -0.008
REMARK SMILES CCCC(=O)[O-]
REMARK SMILES IDX 3 1 4 2 5 3 6 4 2 5 1 6
REMARK H PARENT
REMARK Flexibility Score: inf
ROOT
ATOM      1  C   UNL     1     208.555 206.916 156.248  1.00  0.00     0.052 C 
ENDROOT
BRANCH   1   2
ATOM      2  C   UNL     1     208.451 207.908 157.366  1.00  0.00     0.041 C 
ATOM      3  O   UNL     1     209.315 207.923 158.281  1.00  0.00    -0.550 OA
ATOM      4  O   UNL     1     207.381 208.792 157.413  1.00  0.00    -0.550 OA
ENDBRANCH   1   2
BRANCH   1   5
ATOM      5  C   UNL     1     209.331 207.486 155.053  1.00  0.00     0.003 C 
ATOM      6  C   UNL     1     210.801 207.070 155.062  1.00  0.00     0.004 C 
ENDBRANCH   1   5
TORSDOF 2
ENDMDL
MODEL 4
REMARK VINA RESULT:    -2.713      9.872     10.504
REMARK INTER + INTRA:          -3.037
REMARK INTER:                  -3.007
REMARK INTRA:                  -0.030
REMARK UNBOUND:                -0.008
REMARK SMILES CCCC(=O)[O-]
REMARK SMILES IDX 3 1 4 2 5 3 6 4 2 5 1 6
REMARK H PARENT
REMARK Flexibility Score: inf
ROOT
ATOM      1  C   UNL     1     206.061 203.337 157.000  1.00  0.00     0.052 C 
ENDROOT
BRANCH   1   2
ATOM      2  C   UNL     1     206.768 202.114 156.500  1.00  0.00     0.041 C 
ATOM      3  O   UNL     1     206.659 201.022 157.117  1.00  0.00    -0.550 OA
ATOM      4  O   UNL     1     207.573 202.190 155.371  1.00  0.00    -0.550 OA
ENDBRANCH   1   2
BRANCH   1   5
ATOM      5  C   UNL     1     205.633 203.185 158.466  1.00  0.00     0.003 C 
ATOM      6  C   UNL     1     206.390 204.134 159.394  1.00  0.00     0.004 C 
ENDBRANCH   1   5
TORSDOF 2
ENDMDL
MODEL 5
REMARK VINA RESULT:    -2.704     13.983     14.538
REMARK INTER + INTRA:          -3.028
REMARK INTER:                  -3.018
REMARK INTRA:                  -0.010
REMARK UNBOUND:                -0.008
REMARK SMILES CCCC(=O)[O-]
REMARK SMILES IDX 3 1 4 2 5 3 6 4 2 5 1 6
REMARK H PARENT
REMARK Flexibility Score: inf
ROOT
ATOM      1  C   UNL     1     201.841 210.115 160.293  1.00  0.00     0.052 C 
ENDROOT
BRANCH   1   2
ATOM      2  C   UNL     1     203.196 210.018 159.661  1.00  0.00     0.041 C 
ATOM      3  O   UNL     1     203.820 208.925 159.667  1.00  0.00    -0.550 OA
ATOM      4  O   UNL     1     203.782 211.144 159.096  1.00  0.00    -0.550 OA
ENDBRANCH   1   2
BRANCH   1   5
ATOM      5  C   UNL     1     201.515 211.552 160.722  1.00  0.00     0.003 C 
ATOM      6  C   UNL     1     200.750 211.606 162.043  1.00  0.00     0.004 C 
ENDBRANCH   1   5
TORSDOF 2
ENDMDL
MODEL 6
REMARK VINA RESULT:    -2.672     19.681     20.192
REMARK INTER + INTRA:          -2.992
REMARK INTER:                  -2.976
REMARK INTRA:                  -0.017
REMARK UNBOUND:                -0.008
REMARK SMILES CCCC(=O)[O-]
REMARK SMILES IDX 3 1 4 2 5 3 6 4 2 5 1 6
REMARK H PARENT
REMARK Flexibility Score: inf
ROOT
ATOM      1  C   UNL     1     204.057 210.054 168.880  1.00  0.00     0.052 C 
ENDROOT
BRANCH   1   2
ATOM      2  C   UNL     1     204.835 211.063 168.093  1.00  0.00     0.041 C 
ATOM      3  O   UNL     1     205.621 210.687 167.183  1.00  0.00    -0.550 OA
ATOM      4  O   UNL     1     204.717 212.416 168.385  1.00  0.00    -0.550 OA
ENDBRANCH   1   2
BRANCH   1   5
ATOM      5  C   UNL     1     202.632 209.884 168.335  1.00  0.00     0.003 C 
ATOM      6  C   UNL     1     202.599 209.077 167.038  1.00  0.00     0.004 C 
ENDBRANCH   1   5
TORSDOF 2
ENDMDL
MODEL 7
REMARK VINA RESULT:    -2.660      9.574     10.338
REMARK INTER + INTRA:          -2.979
REMARK INTER:                  -2.945
REMARK INTRA:                  -0.035
REMARK UNBOUND:                -0.008
REMARK SMILES CCCC(=O)[O-]
REMARK SMILES IDX 3 1 4 2 5 3 6 4 2 5 1 6
REMARK H PARENT
REMARK Flexibility Score: inf
ROOT
ATOM      1  C   UNL     1     205.553 203.780 157.188  1.00  0.00     0.052 C 
ENDROOT
BRANCH   1   2
ATOM      2  C   UNL     1     205.891 203.258 158.551  1.00  0.00     0.041 C 
ATOM      3  O   UNL     1     205.868 202.020 158.778  1.00  0.00    -0.550 OA
ATOM      4  O   UNL     1     206.200 204.142 159.577  1.00  0.00    -0.550 OA
ENDBRANCH   1   2
BRANCH   1   5
ATOM      5  C   UNL     1     204.978 205.201 157.250  1.00  0.00     0.003 C 
ATOM      6  C   UNL     1     203.456 205.219 157.119  1.00  0.00     0.004 C 
ENDBRANCH   1   5
TORSDOF 2
ENDMDL
MODEL 8
REMARK VINA RESULT:    -2.646     12.175     13.022
REMARK INTER + INTRA:          -2.963
REMARK INTER:                  -2.928
REMARK INTRA:                  -0.035
REMARK UNBOUND:                -0.008
REMARK SMILES CCCC(=O)[O-]
REMARK SMILES IDX 3 1 4 2 5 3 6 4 2 5 1 6
REMARK H PARENT
REMARK Flexibility Score: inf
ROOT
ATOM      1  C   UNL     1     208.862 206.956 156.493  1.00  0.00     0.052 C 
ENDROOT
BRANCH   1   2
ATOM      2  C   UNL     1     208.199 205.613 156.469  1.00  0.00     0.041 C 
ATOM      3  O   UNL     1     206.944 205.528 156.421  1.00  0.00    -0.550 OA
ATOM      4  O   UNL     1     208.966 204.457 156.533  1.00  0.00    -0.550 OA
ENDBRANCH   1   2
BRANCH   1   5
ATOM      5  C   UNL     1     209.440 207.329 155.122  1.00  0.00     0.003 C 
ATOM      6  C   UNL     1     210.920 206.969 154.996  1.00  0.00     0.004 C 
ENDBRANCH   1   5
TORSDOF 2
ENDMDL
MODEL 9
REMARK VINA RESULT:    -2.572      9.782     10.447
REMARK INTER + INTRA:          -2.881
REMARK INTER:                  -2.837
REMARK INTRA:                  -0.044
REMARK UNBOUND:                -0.008
REMARK SMILES CCCC(=O)[O-]
REMARK SMILES IDX 3 1 4 2 5 3 6 4 2 5 1 6
REMARK H PARENT
REMARK Flexibility Score: inf
ROOT
ATOM      1  C   UNL     1     205.415 204.696 157.114  1.00  0.00     0.052 C 
ENDROOT
BRANCH   1   2
ATOM      2  C   UNL     1     204.295 205.671 157.309  1.00  0.00     0.041 C 
ATOM      3  O   UNL     1     204.540 206.851 157.675  1.00  0.00    -0.550 OA
ATOM      4  O   UNL     1     202.980 205.268 157.119  1.00  0.00    -0.550 OA
ENDBRANCH   1   2
BRANCH   1   5
ATOM      5  C   UNL     1     205.483 203.673 158.256  1.00  0.00     0.003 C 
ATOM      6  C   UNL     1     206.344 204.159 159.422  1.00  0.00     0.004 C 
ENDBRANCH   1   5
TORSDOF 2
ENDMDL
