MODEL 1
REMARK VINA RESULT:    -5.445      0.000      0.000
REMARK INTER + INTRA:          -5.445
REMARK INTER:                  -5.445
REMARK INTRA:                   0.000
REMARK UNBOUND:                 0.000
REMARK SMILES CC1=CC(=O)[C@H]2C[C@@H]1C2(C)C
REMARK SMILES IDX 1 1 2 2 3 3 4 4 5 5 6 6 7 7 8 8 9 9 10 10 11 11
REMARK H PARENT
REMARK Flexibility Score: inf
ROOT
ATOM      1  C   UNL     1      16.366  18.510  30.111  1.00  0.00     0.040 C 
ATOM      2  C   UNL     1      16.501  17.020  30.135  1.00  0.00    -0.066 C 
ATOM      3  C   UNL     1      15.766  16.210  29.321  1.00  0.00     0.047 C 
ATOM      4  C   UNL     1      16.009  14.738  29.459  1.00  0.00     0.159 C 
ATOM      5  O   UNL     1      15.364  13.885  28.796  1.00  0.00    -0.295 OA
ATOM      6  C   UNL     1      17.096  14.345  30.461  1.00  0.00     0.067 C 
ATOM      7  C   UNL     1      18.260  15.311  30.154  1.00  0.00     0.021 C 
ATOM      8  C   UNL     1      17.532  16.335  31.053  1.00  0.00     0.022 C 
ATOM      9  C   UNL     1      16.861  15.134  31.781  1.00  0.00    -0.019 C 
ATOM     10  C   UNL     1      15.402  15.306  32.289  1.00  0.00     0.012 C 
ATOM     11  C   UNL     1      17.723  14.596  32.951  1.00  0.00     0.012 C 
ENDROOT
TORSDOF 0
ENDMDL
MODEL 2
REMARK VINA RESULT:    -5.091      1.682      2.982
REMARK INTER + INTRA:          -5.091
REMARK INTER:                  -5.091
REMARK INTRA:                   0.000
REMARK UNBOUND:                 0.000
REMARK SMILES CC1=CC(=O)[C@H]2C[C@@H]1C2(C)C
REMARK SMILES IDX 1 1 2 2 3 3 4 4 5 5 6 6 7 7 8 8 9 9 10 10 11 11
REMARK H PARENT
REMARK Flexibility Score: inf
ROOT
ATOM      1  C   UNL     1      15.361  13.875  28.698  1.00  0.00     0.040 C 
ATOM      2  C   UNL     1      15.933  14.822  29.706  1.00  0.00    -0.066 C 
ATOM      3  C   UNL     1      16.201  16.125  29.409  1.00  0.00     0.047 C 
ATOM      4  C   UNL     1      16.773  16.953  30.520  1.00  0.00     0.159 C 
ATOM      5  O   UNL     1      17.102  18.156  30.361  1.00  0.00    -0.295 OA
ATOM      6  C   UNL     1      16.927  16.231  31.860  1.00  0.00     0.067 C 
ATOM      7  C   UNL     1      15.589  15.483  32.042  1.00  0.00     0.021 C 
ATOM      8  C   UNL     1      16.192  14.370  31.156  1.00  0.00     0.022 C 
ATOM      9  C   UNL     1      17.601  14.853  31.606  1.00  0.00    -0.019 C 
ATOM     10  C   UNL     1      18.766  14.779  30.578  1.00  0.00     0.012 C 
ATOM     11  C   UNL     1      18.068  14.173  32.918  1.00  0.00     0.012 C 
ENDROOT
TORSDOF 0
ENDMDL
MODEL 3
REMARK VINA RESULT:    -4.694     20.727     22.303
REMARK INTER + INTRA:          -4.694
REMARK INTER:                  -4.694
REMARK INTRA:                   0.000
REMARK UNBOUND:                 0.000
REMARK SMILES CC1=CC(=O)[C@H]2C[C@@H]1C2(C)C
REMARK SMILES IDX 1 1 2 2 3 3 4 4 5 5 6 6 7 7 8 8 9 9 10 10 11 11
REMARK H PARENT
REMARK Flexibility Score: inf
ROOT
ATOM      1  C   UNL     1      28.397  34.033  28.881  1.00  0.00     0.040 C 
ATOM      2  C   UNL     1      29.752  33.446  29.129  1.00  0.00    -0.066 C 
ATOM      3  C   UNL     1      30.624  33.177  28.117  1.00  0.00     0.047 C 
ATOM      4  C   UNL     1      31.943  32.589  28.519  1.00  0.00     0.159 C 
ATOM      5  O   UNL     1      32.816  32.258  27.677  1.00  0.00    -0.295 OA
ATOM      6  C   UNL     1      32.153  32.422  30.025  1.00  0.00     0.067 C 
ATOM      7  C   UNL     1      31.670  33.761  30.624  1.00  0.00     0.021 C 
ATOM      8  C   UNL     1      30.243  33.172  30.564  1.00  0.00     0.022 C 
ATOM      9  C   UNL     1      30.885  31.756  30.630  1.00  0.00    -0.019 C 
ATOM     10  C   UNL     1      30.206  30.604  29.838  1.00  0.00     0.012 C 
ATOM     11  C   UNL     1      31.109  31.277  32.088  1.00  0.00     0.012 C 
ENDROOT
TORSDOF 0
ENDMDL
MODEL 4
REMARK VINA RESULT:    -4.629     20.402     21.857
REMARK INTER + INTRA:          -4.629
REMARK INTER:                  -4.629
REMARK INTRA:                   0.000
REMARK UNBOUND:                 0.000
REMARK SMILES CC1=CC(=O)[C@H]2C[C@@H]1C2(C)C
REMARK SMILES IDX 1 1 2 2 3 3 4 4 5 5 6 6 7 7 8 8 9 9 10 10 11 11
REMARK H PARENT
REMARK Flexibility Score: inf
ROOT
ATOM      1  C   UNL     1      32.879  33.046  27.916  1.00  0.00     0.040 C 
ATOM      2  C   UNL     1      31.450  32.830  28.306  1.00  0.00    -0.066 C 
ATOM      3  C   UNL     1      30.467  33.718  27.985  1.00  0.00     0.047 C 
ATOM      4  C   UNL     1      29.084  33.368  28.445  1.00  0.00     0.159 C 
ATOM      5  O   UNL     1      28.098  34.125  28.249  1.00  0.00    -0.295 OA
ATOM      6  C   UNL     1      28.954  32.026  29.167  1.00  0.00     0.067 C 
ATOM      7  C   UNL     1      29.767  31.047  28.293  1.00  0.00     0.021 C 
ATOM      8  C   UNL     1      31.018  31.550  29.047  1.00  0.00     0.022 C 
ATOM      9  C   UNL     1      30.083  31.927  30.232  1.00  0.00    -0.019 C 
ATOM     10  C   UNL     1      30.427  33.194  31.065  1.00  0.00     0.012 C 
ATOM     11  C   UNL     1      29.867  30.745  31.212  1.00  0.00     0.012 C 
ENDROOT
TORSDOF 0
ENDMDL
MODEL 5
REMARK VINA RESULT:    -4.545     20.098     21.787
REMARK INTER + INTRA:          -4.545
REMARK INTER:                  -4.545
REMARK INTRA:                   0.000
REMARK UNBOUND:                 0.000
REMARK SMILES CC1=CC(=O)[C@H]2C[C@@H]1C2(C)C
REMARK SMILES IDX 1 1 2 2 3 3 4 4 5 5 6 6 7 7 8 8 9 9 10 10 11 11
REMARK H PARENT
REMARK Flexibility Score: inf
ROOT
ATOM      1  C   UNL     1      28.280  30.365  27.875  1.00  0.00     0.040 C 
ATOM      2  C   UNL     1      29.364  31.329  28.241  1.00  0.00    -0.066 C 
ATOM      3  C   UNL     1      30.603  31.281  27.675  1.00  0.00     0.047 C 
ATOM      4  C   UNL     1      31.586  32.310  28.143  1.00  0.00     0.159 C 
ATOM      5  O   UNL     1      32.773  32.345  27.729  1.00  0.00    -0.295 OA
ATOM      6  C   UNL     1      31.044  33.317  29.160  1.00  0.00     0.067 C 
ATOM      7  C   UNL     1      29.676  33.738  28.582  1.00  0.00     0.021 C 
ATOM      8  C   UNL     1      29.102  32.467  29.247  1.00  0.00     0.022 C 
ATOM      9  C   UNL     1      30.277  32.539  30.266  1.00  0.00    -0.019 C 
ATOM     10  C   UNL     1      30.882  31.205  30.785  1.00  0.00     0.012 C 
ATOM     11  C   UNL     1      29.943  33.430  31.490  1.00  0.00     0.012 C 
ENDROOT
TORSDOF 0
ENDMDL
MODEL 6
REMARK VINA RESULT:    -4.353     20.023     21.371
REMARK INTER + INTRA:          -4.353
REMARK INTER:                  -4.353
REMARK INTRA:                   0.000
REMARK UNBOUND:                 0.000
REMARK SMILES CC1=CC(=O)[C@H]2C[C@@H]1C2(C)C
REMARK SMILES IDX 1 1 2 2 3 3 4 4 5 5 6 6 7 7 8 8 9 9 10 10 11 11
REMARK H PARENT
REMARK Flexibility Score: inf
ROOT
ATOM      1  C   UNL     1      32.588  32.941  27.886  1.00  0.00     0.040 C 
ATOM      2  C   UNL     1      31.341  32.293  28.400  1.00  0.00    -0.066 C 
ATOM      3  C   UNL     1      30.592  31.449  27.635  1.00  0.00     0.047 C 
ATOM      4  C   UNL     1      29.368  30.878  28.285  1.00  0.00     0.159 C 
ATOM      5  O   UNL     1      28.572  30.120  27.672  1.00  0.00    -0.295 OA
ATOM      6  C   UNL     1      29.155  31.279  29.746  1.00  0.00     0.067 C 
ATOM      7  C   UNL     1      30.547  31.104  30.392  1.00  0.00     0.021 C 
ATOM      8  C   UNL     1      30.877  32.514  29.853  1.00  0.00     0.022 C 
ATOM      9  C   UNL     1      29.351  32.817  29.870  1.00  0.00    -0.019 C 
ATOM     10  C   UNL     1      28.770  33.728  28.753  1.00  0.00     0.012 C 
ATOM     11  C   UNL     1      28.873  33.363  31.240  1.00  0.00     0.012 C 
ENDROOT
TORSDOF 0
ENDMDL
MODEL 7
REMARK VINA RESULT:    -4.331     20.413     22.076
REMARK INTER + INTRA:          -4.331
REMARK INTER:                  -4.331
REMARK INTRA:                   0.000
REMARK UNBOUND:                 0.000
REMARK SMILES CC1=CC(=O)[C@H]2C[C@@H]1C2(C)C
REMARK SMILES IDX 1 1 2 2 3 3 4 4 5 5 6 6 7 7 8 8 9 9 10 10 11 11
REMARK H PARENT
REMARK Flexibility Score: inf
ROOT
ATOM      1  C   UNL     1      31.205  34.040  32.227  1.00  0.00     0.040 C 
ATOM      2  C   UNL     1      31.120  33.174  31.009  1.00  0.00    -0.066 C 
ATOM      3  C   UNL     1      32.035  33.245  30.001  1.00  0.00     0.047 C 
ATOM      4  C   UNL     1      31.820  32.316  28.845  1.00  0.00     0.159 C 
ATOM      5  O   UNL     1      32.569  32.315  27.835  1.00  0.00    -0.295 OA
ATOM      6  C   UNL     1      30.625  31.370  28.980  1.00  0.00     0.067 C 
ATOM      7  C   UNL     1      30.736  30.824  30.420  1.00  0.00     0.021 C 
ATOM      8  C   UNL     1      30.012  32.112  30.870  1.00  0.00     0.022 C 
ATOM      9  C   UNL     1      29.391  32.194  29.445  1.00  0.00    -0.019 C 
ATOM     10  C   UNL     1      29.164  33.600  28.822  1.00  0.00     0.012 C 
ATOM     11  C   UNL     1      28.070  31.393  29.330  1.00  0.00     0.012 C 
ENDROOT
TORSDOF 0
ENDMDL
MODEL 8
REMARK VINA RESULT:    -4.330     20.476     21.906
REMARK INTER + INTRA:          -4.330
REMARK INTER:                  -4.330
REMARK INTRA:                   0.000
REMARK UNBOUND:                 0.000
REMARK SMILES CC1=CC(=O)[C@H]2C[C@@H]1C2(C)C
REMARK SMILES IDX 1 1 2 2 3 3 4 4 5 5 6 6 7 7 8 8 9 9 10 10 11 11
REMARK H PARENT
REMARK Flexibility Score: inf
ROOT
ATOM      1  C   UNL     1      28.022  33.714  30.976  1.00  0.00     0.040 C 
ATOM      2  C   UNL     1      28.978  32.940  30.123  1.00  0.00    -0.066 C 
ATOM      3  C   UNL     1      29.267  31.629  30.360  1.00  0.00     0.047 C 
ATOM      4  C   UNL     1      30.244  30.987  29.422  1.00  0.00     0.159 C 
ATOM      5  O   UNL     1      30.625  29.797  29.560  1.00  0.00    -0.295 OA
ATOM      6  C   UNL     1      30.746  31.882  28.287  1.00  0.00     0.067 C 
ATOM      7  C   UNL     1      29.468  32.562  27.750  1.00  0.00     0.021 C 
ATOM      8  C   UNL     1      29.641  33.589  28.892  1.00  0.00     0.022 C 
ATOM      9  C   UNL     1      31.161  33.256  28.886  1.00  0.00    -0.019 C 
ATOM     10  C   UNL     1      31.922  33.271  30.241  1.00  0.00     0.012 C 
ATOM     11  C   UNL     1      31.951  34.125  27.875  1.00  0.00     0.012 C 
ENDROOT
TORSDOF 0
ENDMDL
MODEL 9
REMARK VINA RESULT:    -4.309     15.530     16.548
REMARK INTER + INTRA:          -4.309
REMARK INTER:                  -4.309
REMARK INTRA:                   0.000
REMARK UNBOUND:                 0.000
REMARK SMILES CC1=CC(=O)[C@H]2C[C@@H]1C2(C)C
REMARK SMILES IDX 1 1 2 2 3 3 4 4 5 5 6 6 7 7 8 8 9 9 10 10 11 11
REMARK H PARENT
REMARK Flexibility Score: inf
ROOT
ATOM      1  C   UNL     1      19.687  30.687  32.472  1.00  0.00     0.040 C 
ATOM      2  C   UNL     1      19.044  31.292  31.263  1.00  0.00    -0.066 C 
ATOM      3  C   UNL     1      19.402  32.517  30.786  1.00  0.00     0.047 C 
ATOM      4  C   UNL     1      18.669  32.993  29.568  1.00  0.00     0.159 C 
ATOM      5  O   UNL     1      18.877  34.123  29.056  1.00  0.00    -0.295 OA
ATOM      6  C   UNL     1      17.652  32.007  28.990  1.00  0.00     0.067 C 
ATOM      7  C   UNL     1      18.397  30.655  28.985  1.00  0.00     0.021 C 
ATOM      8  C   UNL     1      17.977  30.517  30.465  1.00  0.00     0.022 C 
ATOM      9  C   UNL     1      16.778  31.459  30.154  1.00  0.00    -0.019 C 
ATOM     10  C   UNL     1      16.315  32.449  31.259  1.00  0.00     0.012 C 
ATOM     11  C   UNL     1      15.536  30.684  29.644  1.00  0.00     0.012 C 
ENDROOT
TORSDOF 0
ENDMDL
