MODEL 1
REMARK VINA RESULT:    -5.539      0.000      0.000
REMARK INTER + INTRA:          -5.991
REMARK INTER:                  -5.863
REMARK INTRA:                  -0.128
REMARK UNBOUND:                -0.128
REMARK SMILES C=C(C)[C@@H]1CC=C(C)CC1
REMARK SMILES IDX 8 1 7 2 6 3 5 4 4 5 10 6 9 7 2 8 1 9 3 10
REMARK H PARENT
REMARK Flexibility Score: inf
ROOT
ATOM      1  C   UNL     1       2.539  -5.692 -21.889  1.00  0.00     0.039 C 
ATOM      2  C   UNL     1       3.288  -4.389 -21.915  1.00  0.00    -0.077 C 
ATOM      3  C   UNL     1       2.801  -3.338 -21.220  1.00  0.00    -0.027 C 
ATOM      4  C   UNL     1       3.507  -2.007 -21.139  1.00  0.00     0.035 C 
ATOM      5  C   UNL     1       4.477  -1.792 -22.315  1.00  0.00     0.018 C 
ATOM      6  C   UNL     1       5.361  -3.035 -22.496  1.00  0.00     0.013 C 
ATOM      7  C   UNL     1       4.494  -4.256 -22.825  1.00  0.00     0.031 C 
ENDROOT
BRANCH   5   8
ATOM      8  C   UNL     1       5.313  -0.534 -22.120  1.00  0.00    -0.077 C 
ATOM      9  C   UNL     1       6.136  -0.430 -21.063  1.00  0.00     0.008 C 
ATOM     10  C   UNL     1       5.252   0.611 -23.100  1.00  0.00     0.039 C 
ENDBRANCH   5   8
TORSDOF 1
ENDMDL
MODEL 2
REMARK VINA RESULT:    -5.528      1.355      4.359
REMARK INTER + INTRA:          -5.980
REMARK INTER:                  -5.848
REMARK INTRA:                  -0.132
REMARK UNBOUND:                -0.128
REMARK SMILES C=C(C)[C@@H]1CC=C(C)CC1
REMARK SMILES IDX 8 1 7 2 6 3 5 4 4 5 10 6 9 7 2 8 1 9 3 10
REMARK H PARENT
REMARK Flexibility Score: inf
ROOT
ATOM      1  C   UNL     1       4.747   2.177 -21.310  1.00  0.00     0.039 C 
ATOM      2  C   UNL     1       4.804   0.722 -21.686  1.00  0.00    -0.077 C 
ATOM      3  C   UNL     1       4.395  -0.204 -20.791  1.00  0.00    -0.027 C 
ATOM      4  C   UNL     1       4.363  -1.681 -21.094  1.00  0.00     0.035 C 
ATOM      5  C   UNL     1       5.320  -2.062 -22.238  1.00  0.00     0.018 C 
ATOM      6  C   UNL     1       5.119  -1.108 -23.424  1.00  0.00     0.013 C 
ATOM      7  C   UNL     1       5.441   0.332 -23.006  1.00  0.00     0.031 C 
ENDROOT
BRANCH   5   8
ATOM      8  C   UNL     1       5.139  -3.516 -22.652  1.00  0.00    -0.077 C 
ATOM      9  C   UNL     1       4.038  -4.189 -22.279  1.00  0.00     0.008 C 
ATOM     10  C   UNL     1       6.169  -4.229 -23.492  1.00  0.00     0.039 C 
ENDBRANCH   5   8
TORSDOF 1
ENDMDL
MODEL 3
REMARK VINA RESULT:    -5.486     10.626     13.307
REMARK INTER + INTRA:          -5.935
REMARK INTER:                  -5.810
REMARK INTRA:                  -0.125
REMARK UNBOUND:                -0.128
REMARK SMILES C=C(C)[C@@H]1CC=C(C)CC1
REMARK SMILES IDX 8 1 7 2 6 3 5 4 4 5 10 6 9 7 2 8 1 9 3 10
REMARK H PARENT
REMARK Flexibility Score: inf
ROOT
ATOM      1  C   UNL     1       4.745   7.848 -21.301  1.00  0.00     0.039 C 
ATOM      2  C   UNL     1       5.309   8.960 -22.142  1.00  0.00    -0.077 C 
ATOM      3  C   UNL     1       4.477   9.914 -22.611  1.00  0.00    -0.027 C 
ATOM      4  C   UNL     1       4.954  11.097 -23.417  1.00  0.00     0.035 C 
ATOM      5  C   UNL     1       6.309  10.828 -24.098  1.00  0.00     0.018 C 
ATOM      6  C   UNL     1       7.296  10.239 -23.081  1.00  0.00     0.013 C 
ATOM      7  C   UNL     1       6.770   8.902 -22.546  1.00  0.00     0.031 C 
ENDROOT
BRANCH   5   8
ATOM      8  C   UNL     1       6.861  12.089 -24.749  1.00  0.00    -0.077 C 
ATOM      9  C   UNL     1       7.668  11.996 -25.819  1.00  0.00     0.008 C 
ATOM     10  C   UNL     1       6.513  13.462 -24.228  1.00  0.00     0.039 C 
ENDBRANCH   5   8
TORSDOF 1
ENDMDL
MODEL 4
REMARK VINA RESULT:    -5.476     10.866     13.987
REMARK INTER + INTRA:          -5.924
REMARK INTER:                  -5.793
REMARK INTRA:                  -0.131
REMARK UNBOUND:                -0.128
REMARK SMILES C=C(C)[C@@H]1CC=C(C)CC1
REMARK SMILES IDX 8 1 7 2 6 3 5 4 4 5 10 6 9 7 2 8 1 9 3 10
REMARK H PARENT
REMARK Flexibility Score: inf
ROOT
ATOM      1  C   UNL     1       5.930  13.736 -25.316  1.00  0.00     0.039 C 
ATOM      2  C   UNL     1       5.966  12.487 -24.479  1.00  0.00    -0.077 C 
ATOM      3  C   UNL     1       7.162  11.949 -24.155  1.00  0.00    -0.027 C 
ATOM      4  C   UNL     1       7.304  10.731 -23.276  1.00  0.00     0.035 C 
ATOM      5  C   UNL     1       6.024   9.876 -23.257  1.00  0.00     0.018 C 
ATOM      6  C   UNL     1       4.802  10.772 -23.007  1.00  0.00     0.013 C 
ATOM      7  C   UNL     1       4.659  11.798 -24.137  1.00  0.00     0.031 C 
ENDROOT
BRANCH   5   8
ATOM      8  C   UNL     1       6.120   8.759 -22.226  1.00  0.00    -0.077 C 
ATOM      9  C   UNL     1       7.322   8.343 -21.795  1.00  0.00     0.008 C 
ATOM     10  C   UNL     1       4.884   8.105 -21.657  1.00  0.00     0.039 C 
ENDBRANCH   5   8
TORSDOF 1
ENDMDL
MODEL 5
REMARK VINA RESULT:    -5.456     10.885     13.641
REMARK INTER + INTRA:          -5.903
REMARK INTER:                  -5.771
REMARK INTRA:                  -0.132
REMARK UNBOUND:                -0.128
REMARK SMILES C=C(C)[C@@H]1CC=C(C)CC1
REMARK SMILES IDX 8 1 7 2 6 3 5 4 4 5 10 6 9 7 2 8 1 9 3 10
REMARK H PARENT
REMARK Flexibility Score: inf
ROOT
ATOM      1  C   UNL     1       4.737   8.121 -21.416  1.00  0.00     0.039 C 
ATOM      2  C   UNL     1       5.194   9.206 -22.353  1.00  0.00    -0.077 C 
ATOM      3  C   UNL     1       6.453   9.165 -22.839  1.00  0.00    -0.027 C 
ATOM      4  C   UNL     1       6.987  10.175 -23.825  1.00  0.00     0.035 C 
ATOM      5  C   UNL     1       6.200  11.498 -23.785  1.00  0.00     0.018 C 
ATOM      6  C   UNL     1       4.693  11.210 -23.836  1.00  0.00     0.013 C 
ATOM      7  C   UNL     1       4.272  10.381 -22.617  1.00  0.00     0.031 C 
ENDROOT
BRANCH   5   8
ATOM      8  C   UNL     1       6.630  12.431 -24.909  1.00  0.00    -0.077 C 
ATOM      9  C   UNL     1       7.720  12.146 -25.641  1.00  0.00     0.008 C 
ATOM     10  C   UNL     1       5.849  13.680 -25.236  1.00  0.00     0.039 C 
ENDBRANCH   5   8
TORSDOF 1
ENDMDL
MODEL 6
REMARK VINA RESULT:    -5.351      8.307     11.276
REMARK INTER + INTRA:          -5.792
REMARK INTER:                  -5.660
REMARK INTRA:                  -0.132
REMARK UNBOUND:                -0.128
REMARK SMILES C=C(C)[C@@H]1CC=C(C)CC1
REMARK SMILES IDX 8 1 7 2 6 3 5 4 4 5 10 6 9 7 2 8 1 9 3 10
REMARK H PARENT
REMARK Flexibility Score: inf
ROOT
ATOM      1  C   UNL     1       5.765   5.078 -21.917  1.00  0.00     0.039 C 
ATOM      2  C   UNL     1       5.368   6.499 -22.204  1.00  0.00    -0.077 C 
ATOM      3  C   UNL     1       6.252   7.490 -21.956  1.00  0.00    -0.027 C 
ATOM      4  C   UNL     1       5.968   8.940 -22.261  1.00  0.00     0.035 C 
ATOM      5  C   UNL     1       4.459   9.233 -22.342  1.00  0.00     0.018 C 
ATOM      6  C   UNL     1       3.773   8.190 -23.236  1.00  0.00     0.013 C 
ATOM      7  C   UNL     1       3.944   6.787 -22.639  1.00  0.00     0.031 C 
ENDROOT
BRANCH   5   8
ATOM      8  C   UNL     1       4.195  10.650 -22.832  1.00  0.00    -0.077 C 
ATOM      9  C   UNL     1       5.166  11.339 -23.455  1.00  0.00     0.008 C 
ATOM     10  C   UNL     1       2.851  11.310 -22.645  1.00  0.00     0.039 C 
ENDBRANCH   5   8
TORSDOF 1
ENDMDL
MODEL 7
REMARK VINA RESULT:    -5.190      1.320      4.519
REMARK INTER + INTRA:          -5.621
REMARK INTER:                  -5.494
REMARK INTRA:                  -0.128
REMARK UNBOUND:                -0.128
REMARK SMILES C=C(C)[C@@H]1CC=C(C)CC1
REMARK SMILES IDX 8 1 7 2 6 3 5 4 4 5 10 6 9 7 2 8 1 9 3 10
REMARK H PARENT
REMARK Flexibility Score: inf
ROOT
ATOM      1  C   UNL     1       5.135   2.019 -21.885  1.00  0.00     0.039 C 
ATOM      2  C   UNL     1       5.099   0.550 -22.204  1.00  0.00    -0.077 C 
ATOM      3  C   UNL     1       4.406   0.131 -23.284  1.00  0.00    -0.027 C 
ATOM      4  C   UNL     1       4.354  -1.314 -23.718  1.00  0.00     0.035 C 
ATOM      5  C   UNL     1       4.671  -2.279 -22.562  1.00  0.00     0.018 C 
ATOM      6  C   UNL     1       5.942  -1.820 -21.833  1.00  0.00     0.013 C 
ATOM      7  C   UNL     1       5.732  -0.425 -21.230  1.00  0.00     0.031 C 
ENDROOT
BRANCH   5   8
ATOM      8  C   UNL     1       4.798  -3.714 -23.057  1.00  0.00    -0.077 C 
ATOM      9  C   UNL     1       5.950  -4.139 -23.601  1.00  0.00     0.008 C 
ATOM     10  C   UNL     1       3.652  -4.690 -22.942  1.00  0.00     0.039 C 
ENDBRANCH   5   8
TORSDOF 1
ENDMDL
MODEL 8
REMARK VINA RESULT:    -5.166      1.644      2.880
REMARK INTER + INTRA:          -5.596
REMARK INTER:                  -5.467
REMARK INTRA:                  -0.128
REMARK UNBOUND:                -0.128
REMARK SMILES C=C(C)[C@@H]1CC=C(C)CC1
REMARK SMILES IDX 8 1 7 2 6 3 5 4 4 5 10 6 9 7 2 8 1 9 3 10
REMARK H PARENT
REMARK Flexibility Score: inf
ROOT
ATOM      1  C   UNL     1       4.510  -3.850 -23.103  1.00  0.00     0.039 C 
ATOM      2  C   UNL     1       4.689  -2.386 -22.811  1.00  0.00    -0.077 C 
ATOM      3  C   UNL     1       5.505  -2.013 -21.801  1.00  0.00    -0.027 C 
ATOM      4  C   UNL     1       5.791  -0.570 -21.465  1.00  0.00     0.035 C 
ATOM      5  C   UNL     1       4.690   0.376 -21.978  1.00  0.00     0.018 C 
ATOM      6  C   UNL     1       4.370   0.056 -23.445  1.00  0.00     0.013 C 
ATOM      7  C   UNL     1       3.847  -1.380 -23.572  1.00  0.00     0.031 C 
ENDROOT
BRANCH   5   8
ATOM      8  C   UNL     1       5.084   1.835 -21.795  1.00  0.00    -0.077 C 
ATOM      9  C   UNL     1       6.215   2.301 -22.350  1.00  0.00     0.008 C 
ATOM     10  C   UNL     1       4.222   2.790 -21.008  1.00  0.00     0.039 C 
ENDBRANCH   5   8
TORSDOF 1
ENDMDL
MODEL 9
REMARK VINA RESULT:    -5.147      2.090      3.833
REMARK INTER + INTRA:          -5.576
REMARK INTER:                  -5.448
REMARK INTRA:                  -0.129
REMARK UNBOUND:                -0.128
REMARK SMILES C=C(C)[C@@H]1CC=C(C)CC1
REMARK SMILES IDX 8 1 7 2 6 3 5 4 4 5 10 6 9 7 2 8 1 9 3 10
REMARK H PARENT
REMARK Flexibility Score: inf
ROOT
ATOM      1  C   UNL     1       5.101  -2.926 -22.334  1.00  0.00     0.039 C 
ATOM      2  C   UNL     1       5.026  -1.435 -22.150  1.00  0.00    -0.077 C 
ATOM      3  C   UNL     1       5.274  -0.631 -23.206  1.00  0.00    -0.027 C 
ATOM      4  C   UNL     1       5.170   0.873 -23.137  1.00  0.00     0.035 C 
ATOM      5  C   UNL     1       5.309   1.399 -21.697  1.00  0.00     0.018 C 
ATOM      6  C   UNL     1       4.394   0.598 -20.759  1.00  0.00     0.013 C 
ATOM      7  C   UNL     1       4.804  -0.880 -20.756  1.00  0.00     0.031 C 
ENDROOT
BRANCH   5   8
ATOM      8  C   UNL     1       5.018   2.892 -21.622  1.00  0.00    -0.077 C 
ATOM      9  C   UNL     1       3.834   3.324 -21.158  1.00  0.00     0.008 C 
ATOM     10  C   UNL     1       6.040   3.916 -22.050  1.00  0.00     0.039 C 
ENDBRANCH   5   8
TORSDOF 1
ENDMDL
