MODEL 1
REMARK VINA RESULT:    -4.447      0.000      0.000
REMARK INTER + INTRA:          -6.163
REMARK INTER:                  -6.007
REMARK INTRA:                  -0.156
REMARK UNBOUND:                -0.156
REMARK SMILES [NH3+]CCCC[C@@H]([NH3+])C(=O)[O-]
REMARK SMILES IDX 4 1 3 2 2 3 1 4 5 8 6 9 7 10 8 14 9 15 10 16
REMARK H PARENT 1 5 1 6 1 7 7 11 7 12 7 13
REMARK Flexibility Score: inf
ROOT
ATOM      1  C   UNL     1     117.255 -50.792  27.537  1.00  0.00     0.012 C 
ENDROOT
BRANCH   1   2
ATOM      2  C   UNL     1     115.868 -50.790  26.885  1.00  0.00     0.061 C 
BRANCH   2   3
ATOM      3  C   UNL     1     114.773 -50.489  27.915  1.00  0.00     0.258 C 
BRANCH   3   4
ATOM      4  N   UNL     1     113.515 -50.137  27.256  1.00  0.00    -0.358 N 
ATOM      5  H   UNL     1     113.691 -49.445  26.492  1.00  0.00     0.344 HD
ATOM      6  H   UNL     1     113.093 -51.000  26.841  1.00  0.00     0.344 HD
ATOM      7  H   UNL     1     112.846 -49.734  27.952  1.00  0.00     0.344 HD
ENDBRANCH   3   4
ENDBRANCH   2   3
ENDBRANCH   1   2
BRANCH   1   8
ATOM      8  C   UNL     1     117.261 -49.951  28.822  1.00  0.00     0.072 C 
BRANCH   8   9
ATOM      9  C   UNL     1     118.467 -48.987  28.898  1.00  0.00     0.227 C 
BRANCH   9  10
ATOM     10  N   UNL     1     119.181 -48.905  27.616  1.00  0.00    -0.350 N 
ATOM     11  H   UNL     1     120.202 -48.754  27.786  1.00  0.00     0.345 HD
ATOM     12  H   UNL     1     118.812 -48.117  27.034  1.00  0.00     0.345 HD
ATOM     13  H   UNL     1     119.080 -49.802  27.090  1.00  0.00     0.345 HD
ENDBRANCH   9  10
BRANCH   9  14
ATOM     14  C   UNL     1     117.997 -47.620  29.319  1.00  0.00     0.099 C 
ATOM     15  O   UNL     1     118.753 -46.620  29.200  1.00  0.00    -0.544 OA
ATOM     16  O   UNL     1     116.712 -47.451  29.822  1.00  0.00    -0.544 OA
ENDBRANCH   9  14
ENDBRANCH   8   9
ENDBRANCH   1   8
TORSDOF 7
ENDMDL
MODEL 2
REMARK VINA RESULT:    -4.357      1.432      1.730
REMARK INTER + INTRA:          -6.042
REMARK INTER:                  -5.937
REMARK INTRA:                  -0.105
REMARK UNBOUND:                -0.156
REMARK SMILES [NH3+]CCCC[C@@H]([NH3+])C(=O)[O-]
REMARK SMILES IDX 4 1 3 2 2 3 1 4 5 8 6 9 7 10 8 14 9 15 10 16
REMARK H PARENT 1 5 1 6 1 7 7 11 7 12 7 13
REMARK Flexibility Score: inf
ROOT
ATOM      1  C   UNL     1     115.728 -50.540  27.618  1.00  0.00     0.012 C 
ENDROOT
BRANCH   1   2
ATOM      2  C   UNL     1     114.251 -50.764  27.962  1.00  0.00     0.061 C 
BRANCH   2   3
ATOM      3  C   UNL     1     113.633 -49.509  28.591  1.00  0.00     0.258 C 
BRANCH   3   4
ATOM      4  N   UNL     1     112.616 -48.930  27.713  1.00  0.00    -0.358 N 
ATOM      5  H   UNL     1     113.065 -48.535  26.854  1.00  0.00     0.344 HD
ATOM      6  H   UNL     1     111.942 -49.678  27.430  1.00  0.00     0.344 HD
ATOM      7  H   UNL     1     112.094 -48.176  28.218  1.00  0.00     0.344 HD
ENDBRANCH   3   4
ENDBRANCH   2   3
ENDBRANCH   1   2
BRANCH   1   8
ATOM      8  C   UNL     1     116.447 -49.782  28.743  1.00  0.00     0.072 C 
BRANCH   8   9
ATOM      9  C   UNL     1     117.951 -50.128  28.828  1.00  0.00     0.227 C 
BRANCH   9  10
ATOM     10  N   UNL     1     118.396 -50.915  27.669  1.00  0.00    -0.350 N 
ATOM     11  H   UNL     1     118.847 -50.287  26.964  1.00  0.00     0.345 HD
ATOM     12  H   UNL     1     117.589 -51.408  27.221  1.00  0.00     0.345 HD
ATOM     13  H   UNL     1     119.110 -51.617  27.966  1.00  0.00     0.345 HD
ENDBRANCH   9  10
BRANCH   9  14
ATOM     14  C   UNL     1     118.756 -48.860  28.934  1.00  0.00     0.099 C 
ATOM     15  O   UNL     1     119.687 -48.624  28.118  1.00  0.00    -0.544 OA
ATOM     16  O   UNL     1     118.461 -47.929  29.923  1.00  0.00    -0.544 OA
ENDBRANCH   9  14
ENDBRANCH   8   9
ENDBRANCH   1   8
TORSDOF 7
ENDMDL
MODEL 3
REMARK VINA RESULT:    -4.226      7.370      9.002
REMARK INTER + INTRA:          -5.864
REMARK INTER:                  -5.417
REMARK INTRA:                  -0.447
REMARK UNBOUND:                -0.156
REMARK SMILES [NH3+]CCCC[C@@H]([NH3+])C(=O)[O-]
REMARK SMILES IDX 4 1 3 2 2 3 1 4 5 8 6 9 7 10 8 14 9 15 10 16
REMARK H PARENT 1 5 1 6 1 7 7 11 7 12 7 13
REMARK Flexibility Score: inf
ROOT
ATOM      1  C   UNL     1     110.258 -48.124  31.884  1.00  0.00     0.012 C 
ENDROOT
BRANCH   1   2
ATOM      2  C   UNL     1     110.828 -48.862  30.667  1.00  0.00     0.061 C 
BRANCH   2   3
ATOM      3  C   UNL     1     111.708 -50.043  31.100  1.00  0.00     0.258 C 
BRANCH   3   4
ATOM      4  N   UNL     1     111.023 -51.316  30.875  1.00  0.00    -0.358 N 
ATOM      5  H   UNL     1     110.740 -51.738  31.789  1.00  0.00     0.344 HD
ATOM      6  H   UNL     1     110.166 -51.147  30.299  1.00  0.00     0.344 HD
ATOM      7  H   UNL     1     111.652 -51.975  30.360  1.00  0.00     0.344 HD
ENDBRANCH   3   4
ENDBRANCH   2   3
ENDBRANCH   1   2
BRANCH   1   8
ATOM      8  C   UNL     1     110.807 -48.711  33.193  1.00  0.00     0.072 C 
BRANCH   8   9
ATOM      9  C   UNL     1     109.690 -49.077  34.196  1.00  0.00     0.227 C 
BRANCH   9  10
ATOM     10  N   UNL     1     108.477 -48.276  33.979  1.00  0.00    -0.350 N 
ATOM     11  H   UNL     1     108.548 -47.374  34.505  1.00  0.00     0.345 HD
ATOM     12  H   UNL     1     107.627 -48.793  34.301  1.00  0.00     0.345 HD
ATOM     13  H   UNL     1     108.378 -48.041  32.966  1.00  0.00     0.345 HD
ENDBRANCH   9  10
BRANCH   9  14
ATOM     14  C   UNL     1     109.369 -50.544  34.082  1.00  0.00     0.099 C 
ATOM     15  O   UNL     1     110.289 -51.388  33.914  1.00  0.00    -0.544 OA
ATOM     16  O   UNL     1     108.053 -50.978  34.184  1.00  0.00    -0.544 OA
ENDBRANCH   9  14
ENDBRANCH   8   9
ENDBRANCH   1   8
TORSDOF 7
ENDMDL
MODEL 4
REMARK VINA RESULT:    -4.223      3.153      4.701
REMARK INTER + INTRA:          -5.861
REMARK INTER:                  -5.702
REMARK INTRA:                  -0.159
REMARK UNBOUND:                -0.156
REMARK SMILES [NH3+]CCCC[C@@H]([NH3+])C(=O)[O-]
REMARK SMILES IDX 4 1 3 2 2 3 1 4 5 8 6 9 7 10 8 14 9 15 10 16
REMARK H PARENT 1 5 1 6 1 7 7 11 7 12 7 13
REMARK Flexibility Score: inf
ROOT
ATOM      1  C   UNL     1     112.468 -48.675  29.138  1.00  0.00     0.012 C 
ENDROOT
BRANCH   1   2
ATOM      2  C   UNL     1     111.437 -48.888  30.253  1.00  0.00     0.061 C 
BRANCH   2   3
ATOM      3  C   UNL     1     111.828 -50.070  31.149  1.00  0.00     0.258 C 
BRANCH   3   4
ATOM      4  N   UNL     1     111.008 -51.245  30.853  1.00  0.00    -0.358 N 
ATOM      5  H   UNL     1     111.543 -51.916  30.255  1.00  0.00     0.344 HD
ATOM      6  H   UNL     1     110.752 -51.718  31.749  1.00  0.00     0.344 HD
ATOM      7  H   UNL     1     110.131 -50.954  30.360  1.00  0.00     0.344 HD
ENDBRANCH   3   4
ENDBRANCH   2   3
ENDBRANCH   1   2
BRANCH   1   8
ATOM      8  C   UNL     1     113.777 -49.416  29.449  1.00  0.00     0.072 C 
BRANCH   8   9
ATOM      9  C   UNL     1     114.186 -50.398  28.328  1.00  0.00     0.227 C 
BRANCH   9  10
ATOM     10  N   UNL     1     113.421 -50.168  27.094  1.00  0.00    -0.350 N 
ATOM     11  H   UNL     1     113.405 -49.146  26.871  1.00  0.00     0.345 HD
ATOM     12  H   UNL     1     112.438 -50.511  27.196  1.00  0.00     0.345 HD
ATOM     13  H   UNL     1     113.878 -50.658  26.292  1.00  0.00     0.345 HD
ENDBRANCH   9  10
BRANCH   9  14
ATOM     14  C   UNL     1     115.661 -50.270  28.056  1.00  0.00     0.099 C 
ATOM     15  O   UNL     1     116.180 -50.843  27.061  1.00  0.00    -0.544 OA
ATOM     16  O   UNL     1     116.458 -49.497  28.893  1.00  0.00    -0.544 OA
ENDBRANCH   9  14
ENDBRANCH   8   9
ENDBRANCH   1   8
TORSDOF 7
ENDMDL
MODEL 5
REMARK VINA RESULT:    -4.216      2.738      4.525
REMARK INTER + INTRA:          -5.850
REMARK INTER:                  -5.607
REMARK INTRA:                  -0.243
REMARK UNBOUND:                -0.156
REMARK SMILES [NH3+]CCCC[C@@H]([NH3+])C(=O)[O-]
REMARK SMILES IDX 4 1 3 2 2 3 1 4 5 8 6 9 7 10 8 14 9 15 10 16
REMARK H PARENT 1 5 1 6 1 7 7 11 7 12 7 13
REMARK Flexibility Score: inf
ROOT
ATOM      1  C   UNL     1     117.792 -49.524  29.933  1.00  0.00     0.012 C 
ENDROOT
BRANCH   1   2
ATOM      2  C   UNL     1     118.678 -49.854  28.726  1.00  0.00     0.061 C 
BRANCH   2   3
ATOM      3  C   UNL     1     118.602 -48.748  27.666  1.00  0.00     0.258 C 
BRANCH   3   4
ATOM      4  N   UNL     1     119.941 -48.327  27.252  1.00  0.00    -0.358 N 
ATOM      5  H   UNL     1     120.042 -48.416  26.215  1.00  0.00     0.344 HD
ATOM      6  H   UNL     1     120.085 -47.327  27.523  1.00  0.00     0.344 HD
ATOM      7  H   UNL     1     120.664 -48.915  27.729  1.00  0.00     0.344 HD
ENDBRANCH   3   4
ENDBRANCH   2   3
ENDBRANCH   1   2
BRANCH   1   8
ATOM      8  C   UNL     1     116.398 -49.063  29.484  1.00  0.00     0.072 C 
BRANCH   8   9
ATOM      9  C   UNL     1     115.408 -50.237  29.313  1.00  0.00     0.227 C 
BRANCH   9  10
ATOM     10  N   UNL     1     114.284 -50.145  30.256  1.00  0.00    -0.350 N 
ATOM     11  H   UNL     1     114.133 -51.070  30.721  1.00  0.00     0.345 HD
ATOM     12  H   UNL     1     113.406 -49.864  29.762  1.00  0.00     0.345 HD
ATOM     13  H   UNL     1     114.500 -49.449  31.004  1.00  0.00     0.345 HD
ENDBRANCH   9  10
BRANCH   9  14
ATOM     14  C   UNL     1     114.896 -50.265  27.897  1.00  0.00     0.099 C 
ATOM     15  O   UNL     1     113.750 -49.820  27.623  1.00  0.00    -0.544 OA
ATOM     16  O   UNL     1     115.699 -50.764  26.878  1.00  0.00    -0.544 OA
ENDBRANCH   9  14
ENDBRANCH   8   9
ENDBRANCH   1   8
TORSDOF 7
ENDMDL
MODEL 6
REMARK VINA RESULT:    -4.174      2.190      4.321
REMARK INTER + INTRA:          -5.795
REMARK INTER:                  -5.724
REMARK INTRA:                  -0.071
REMARK UNBOUND:                -0.156
REMARK SMILES [NH3+]CCCC[C@@H]([NH3+])C(=O)[O-]
REMARK SMILES IDX 4 1 3 2 2 3 1 4 5 8 6 9 7 10 8 14 9 15 10 16
REMARK H PARENT 1 5 1 6 1 7 7 11 7 12 7 13
REMARK Flexibility Score: inf
ROOT
ATOM      1  C   UNL     1     116.849 -50.258  28.002  1.00  0.00     0.012 C 
ENDROOT
BRANCH   1   2
ATOM      2  C   UNL     1     118.312 -49.973  28.362  1.00  0.00     0.061 C 
BRANCH   2   3
ATOM      3  C   UNL     1     118.669 -48.504  28.102  1.00  0.00     0.258 C 
BRANCH   3   4
ATOM      4  N   UNL     1     119.826 -48.397  27.213  1.00  0.00    -0.358 N 
ATOM      5  H   UNL     1     120.066 -49.336  26.819  1.00  0.00     0.344 HD
ATOM      6  H   UNL     1     119.594 -47.748  26.426  1.00  0.00     0.344 HD
ATOM      7  H   UNL     1     120.646 -48.013  27.738  1.00  0.00     0.344 HD
ENDBRANCH   3   4
ENDBRANCH   2   3
ENDBRANCH   1   2
BRANCH   1   8
ATOM      8  C   UNL     1     115.901 -49.735  29.091  1.00  0.00     0.072 C 
BRANCH   8   9
ATOM      9  C   UNL     1     114.452 -49.558  28.585  1.00  0.00     0.227 C 
BRANCH   9  10
ATOM     10  N   UNL     1     113.743 -50.842  28.498  1.00  0.00    -0.350 N 
ATOM     11  H   UNL     1     113.235 -51.029  29.394  1.00  0.00     0.345 HD
ATOM     12  H   UNL     1     114.412 -51.625  28.315  1.00  0.00     0.345 HD
ATOM     13  H   UNL     1     113.031 -50.808  27.735  1.00  0.00     0.345 HD
ENDBRANCH   9  10
BRANCH   9  14
ATOM     14  C   UNL     1     113.710 -48.615  29.495  1.00  0.00     0.099 C 
ATOM     15  O   UNL     1     113.676 -47.380  29.246  1.00  0.00    -0.544 OA
ATOM     16  O   UNL     1     113.038 -49.108  30.607  1.00  0.00    -0.544 OA
ENDBRANCH   9  14
ENDBRANCH   8   9
ENDBRANCH   1   8
TORSDOF 7
ENDMDL
MODEL 7
REMARK VINA RESULT:    -4.061      6.412      8.039
REMARK INTER + INTRA:          -5.641
REMARK INTER:                  -5.562
REMARK INTRA:                  -0.080
REMARK UNBOUND:                -0.156
REMARK SMILES [NH3+]CCCC[C@@H]([NH3+])C(=O)[O-]
REMARK SMILES IDX 4 1 3 2 2 3 1 4 5 8 6 9 7 10 8 14 9 15 10 16
REMARK H PARENT 1 5 1 6 1 7 7 11 7 12 7 13
REMARK Flexibility Score: inf
ROOT
ATOM      1  C   UNL     1     110.962 -48.608  30.417  1.00  0.00     0.012 C 
ENDROOT
BRANCH   1   2
ATOM      2  C   UNL     1     112.403 -48.934  30.006  1.00  0.00     0.061 C 
BRANCH   2   3
ATOM      3  C   UNL     1     112.752 -48.292  28.658  1.00  0.00     0.258 C 
BRANCH   3   4
ATOM      4  N   UNL     1     112.858 -49.305  27.607  1.00  0.00    -0.358 N 
ATOM      5  H   UNL     1     111.905 -49.589  27.284  1.00  0.00     0.344 HD
ATOM      6  H   UNL     1     113.386 -48.905  26.798  1.00  0.00     0.344 HD
ATOM      7  H   UNL     1     113.374 -50.142  27.968  1.00  0.00     0.344 HD
ENDBRANCH   3   4
ENDBRANCH   2   3
ENDBRANCH   1   2
BRANCH   1   8
ATOM      8  C   UNL     1     110.602 -49.282  31.749  1.00  0.00     0.072 C 
BRANCH   8   9
ATOM      9  C   UNL     1     110.316 -48.262  32.874  1.00  0.00     0.227 C 
BRANCH   9  10
ATOM     10  N   UNL     1     109.508 -47.132  32.394  1.00  0.00    -0.350 N 
ATOM     11  H   UNL     1     109.296 -47.253  31.377  1.00  0.00     0.345 HD
ATOM     12  H   UNL     1     110.014 -46.227  32.533  1.00  0.00     0.345 HD
ATOM     13  H   UNL     1     108.596 -47.101  32.904  1.00  0.00     0.345 HD
ENDBRANCH   9  10
BRANCH   9  14
ATOM     14  C   UNL     1     109.617 -48.952  34.016  1.00  0.00     0.099 C 
ATOM     15  O   UNL     1     109.380 -50.188  33.967  1.00  0.00    -0.544 OA
ATOM     16  O   UNL     1     109.248 -48.228  35.144  1.00  0.00    -0.544 OA
ENDBRANCH   9  14
ENDBRANCH   8   9
ENDBRANCH   1   8
TORSDOF 7
ENDMDL
MODEL 8
REMARK VINA RESULT:    -4.024      2.548      4.280
REMARK INTER + INTRA:          -5.591
REMARK INTER:                  -5.441
REMARK INTRA:                  -0.150
REMARK UNBOUND:                -0.156
REMARK SMILES [NH3+]CCCC[C@@H]([NH3+])C(=O)[O-]
REMARK SMILES IDX 4 1 3 2 2 3 1 4 5 8 6 9 7 10 8 14 9 15 10 16
REMARK H PARENT 1 5 1 6 1 7 7 11 7 12 7 13
REMARK Flexibility Score: inf
ROOT
ATOM      1  C   UNL     1     114.659 -50.734  27.978  1.00  0.00     0.012 C 
ENDROOT
BRANCH   1   2
ATOM      2  C   UNL     1     115.969 -50.746  27.182  1.00  0.00     0.061 C 
BRANCH   2   3
ATOM      3  C   UNL     1     117.108 -50.102  27.983  1.00  0.00     0.258 C 
BRANCH   3   4
ATOM      4  N   UNL     1     118.360 -50.835  27.794  1.00  0.00    -0.358 N 
ATOM      5  H   UNL     1     118.354 -51.326  26.871  1.00  0.00     0.344 HD
ATOM      6  H   UNL     1     119.159 -50.159  27.813  1.00  0.00     0.344 HD
ATOM      7  H   UNL     1     118.488 -51.531  28.565  1.00  0.00     0.344 HD
ENDBRANCH   3   4
ENDBRANCH   2   3
ENDBRANCH   1   2
BRANCH   1   8
ATOM      8  C   UNL     1     114.694 -49.666  29.081  1.00  0.00     0.072 C 
BRANCH   8   9
ATOM      9  C   UNL     1     113.751 -48.477  28.790  1.00  0.00     0.227 C 
BRANCH   9  10
ATOM     10  N   UNL     1     112.632 -48.868  27.921  1.00  0.00    -0.350 N 
ATOM     11  H   UNL     1     112.846 -49.777  27.451  1.00  0.00     0.345 HD
ATOM     12  H   UNL     1     112.455 -48.139  27.191  1.00  0.00     0.345 HD
ATOM     13  H   UNL     1     111.767 -49.005  28.491  1.00  0.00     0.345 HD
ENDBRANCH   9  10
BRANCH   9  14
ATOM     14  C   UNL     1     113.231 -47.914  30.086  1.00  0.00     0.099 C 
ATOM     15  O   UNL     1     113.305 -46.679  30.322  1.00  0.00    -0.544 OA
ATOM     16  O   UNL     1     112.644 -48.756  31.023  1.00  0.00    -0.544 OA
ENDBRANCH   9  14
ENDBRANCH   8   9
ENDBRANCH   1   8
TORSDOF 7
ENDMDL
MODEL 9
REMARK VINA RESULT:    -3.987      4.479      6.364
REMARK INTER + INTRA:          -5.542
REMARK INTER:                  -5.334
REMARK INTRA:                  -0.208
REMARK UNBOUND:                -0.156
REMARK SMILES [NH3+]CCCC[C@@H]([NH3+])C(=O)[O-]
REMARK SMILES IDX 4 1 3 2 2 3 1 4 5 8 6 9 7 10 8 14 9 15 10 16
REMARK H PARENT 1 5 1 6 1 7 7 11 7 12 7 13
REMARK Flexibility Score: inf
ROOT
ATOM      1  C   UNL     1     112.264 -48.246  30.108  1.00  0.00     0.012 C 
ENDROOT
BRANCH   1   2
ATOM      2  C   UNL     1     112.758 -48.653  28.715  1.00  0.00     0.061 C 
BRANCH   2   3
ATOM      3  C   UNL     1     114.028 -49.508  28.807  1.00  0.00     0.258 C 
BRANCH   3   4
ATOM      4  N   UNL     1     113.779 -50.869  28.333  1.00  0.00    -0.358 N 
ATOM      5  H   UNL     1     113.610 -51.507  29.144  1.00  0.00     0.344 HD
ATOM      6  H   UNL     1     112.931 -50.868  27.719  1.00  0.00     0.344 HD
ATOM      7  H   UNL     1     114.598 -51.211  27.778  1.00  0.00     0.344 HD
ENDBRANCH   3   4
ENDBRANCH   2   3
ENDBRANCH   1   2
BRANCH   1   8
ATOM      8  C   UNL     1     110.856 -48.799  30.377  1.00  0.00     0.072 C 
BRANCH   8   9
ATOM      9  C   UNL     1     110.858 -49.969  31.385  1.00  0.00     0.227 C 
BRANCH   9  10
ATOM     10  N   UNL     1     111.216 -51.242  30.744  1.00  0.00    -0.350 N 
ATOM     11  H   UNL     1     110.370 -51.667  30.299  1.00  0.00     0.345 HD
ATOM     12  H   UNL     1     111.607 -51.915  31.444  1.00  0.00     0.345 HD
ATOM     13  H   UNL     1     111.920 -51.079  29.989  1.00  0.00     0.345 HD
ENDBRANCH   9  10
BRANCH   9  14
ATOM     14  C   UNL     1     111.815 -49.667  32.509  1.00  0.00     0.099 C 
ATOM     15  O   UNL     1     111.540 -48.781  33.361  1.00  0.00    -0.544 OA
ATOM     16  O   UNL     1     113.001 -50.383  32.623  1.00  0.00    -0.544 OA
ENDBRANCH   9  14
ENDBRANCH   8   9
ENDBRANCH   1   8
TORSDOF 7
ENDMDL
