MODEL 1
REMARK VINA RESULT:    -3.220      0.000      0.000
REMARK INTER + INTRA:          -4.504
REMARK INTER:                  -4.349
REMARK INTRA:                  -0.155
REMARK UNBOUND:                -0.155
REMARK SMILES CCCCCCCC(=O)[O-]
REMARK SMILES IDX 5 1 6 2 7 3 8 4 9 5 10 6 4 7 3 8 2 9 1 10
REMARK H PARENT
REMARK Flexibility Score: inf
ROOT
ATOM      1  C   UNL     1      52.796  18.786  84.872  1.00  0.00     0.000 C 
ENDROOT
BRANCH   1   2
ATOM      2  C   UNL     1      51.587  19.084  85.781  1.00  0.00     0.006 C 
BRANCH   2   3
ATOM      3  C   UNL     1      50.348  18.222  85.494  1.00  0.00     0.053 C 
BRANCH   3   4
ATOM      4  C   UNL     1      49.155  19.056  85.139  1.00  0.00     0.041 C 
ATOM      5  O   UNL     1      49.093  20.260  85.504  1.00  0.00    -0.550 OA
ATOM      6  O   UNL     1      48.128  18.514  84.378  1.00  0.00    -0.550 OA
ENDBRANCH   3   4
ENDBRANCH   2   3
ENDBRANCH   1   2
BRANCH   1   7
ATOM      7  C   UNL     1      54.021  18.182  85.587  1.00  0.00     0.000 C 
BRANCH   7   8
ATOM      8  C   UNL     1      55.309  18.136  84.747  1.00  0.00    -0.000 C 
BRANCH   8   9
ATOM      9  C   UNL     1      56.125  16.856  84.977  1.00  0.00    -0.003 C 
ATOM     10  C   UNL     1      55.810  16.241  86.337  1.00  0.00     0.004 C 
ENDBRANCH   8   9
ENDBRANCH   7   8
ENDBRANCH   1   7
TORSDOF 6
ENDMDL
MODEL 2
REMARK VINA RESULT:    -3.093      1.282      2.034
REMARK INTER + INTRA:          -4.332
REMARK INTER:                  -3.927
REMARK INTRA:                  -0.406
REMARK UNBOUND:                -0.155
REMARK SMILES CCCCCCCC(=O)[O-]
REMARK SMILES IDX 5 1 6 2 7 3 8 4 9 5 10 6 4 7 3 8 2 9 1 10
REMARK H PARENT
REMARK Flexibility Score: inf
ROOT
ATOM      1  C   UNL     1      53.694  19.146  87.075  1.00  0.00     0.000 C 
ENDROOT
BRANCH   1   2
ATOM      2  C   UNL     1      52.970  19.401  85.738  1.00  0.00     0.006 C 
BRANCH   2   3
ATOM      3  C   UNL     1      51.765  18.482  85.482  1.00  0.00     0.053 C 
BRANCH   3   4
ATOM      4  C   UNL     1      50.464  19.198  85.681  1.00  0.00     0.041 C 
ATOM      5  O   UNL     1      49.378  18.632  85.388  1.00  0.00    -0.550 OA
ATOM      6  O   UNL     1      50.450  20.478  86.221  1.00  0.00    -0.550 OA
ENDBRANCH   3   4
ENDBRANCH   2   3
ENDBRANCH   1   2
BRANCH   1   7
ATOM      7  C   UNL     1      55.086  18.494  86.952  1.00  0.00     0.000 C 
BRANCH   7   8
ATOM      8  C   UNL     1      55.075  16.982  86.668  1.00  0.00    -0.000 C 
BRANCH   8   9
ATOM      9  C   UNL     1      56.107  16.567  85.611  1.00  0.00    -0.003 C 
ATOM     10  C   UNL     1      56.125  17.551  84.444  1.00  0.00     0.004 C 
ENDBRANCH   8   9
ENDBRANCH   7   8
ENDBRANCH   1   7
TORSDOF 6
ENDMDL
MODEL 3
REMARK VINA RESULT:    -3.065     11.783     13.751
REMARK INTER + INTRA:          -4.295
REMARK INTER:                  -3.996
REMARK INTRA:                  -0.299
REMARK UNBOUND:                -0.155
REMARK SMILES CCCCCCCC(=O)[O-]
REMARK SMILES IDX 5 1 6 2 7 3 8 4 9 5 10 6 4 7 3 8 2 9 1 10
REMARK H PARENT
REMARK Flexibility Score: inf
ROOT
ATOM      1  C   UNL     1      39.717  21.653  78.925  1.00  0.00     0.000 C 
ENDROOT
BRANCH   1   2
ATOM      2  C   UNL     1      39.307  20.867  80.186  1.00  0.00     0.006 C 
BRANCH   2   3
ATOM      3  C   UNL     1      39.277  19.342  80.004  1.00  0.00     0.053 C 
BRANCH   3   4
ATOM      4  C   UNL     1      38.006  18.741  80.522  1.00  0.00     0.041 C 
ATOM      5  O   UNL     1      37.603  17.633  80.080  1.00  0.00    -0.550 OA
ATOM      6  O   UNL     1      37.284  19.390  81.515  1.00  0.00    -0.550 OA
ENDBRANCH   3   4
ENDBRANCH   2   3
ENDBRANCH   1   2
BRANCH   1   7
ATOM      7  C   UNL     1      40.765  20.958  78.032  1.00  0.00     0.000 C 
BRANCH   7   8
ATOM      8  C   UNL     1      42.204  21.482  78.189  1.00  0.00    -0.000 C 
BRANCH   8   9
ATOM      9  C   UNL     1      43.033  20.657  79.183  1.00  0.00    -0.003 C 
ATOM     10  C   UNL     1      44.194  19.957  78.481  1.00  0.00     0.004 C 
ENDBRANCH   8   9
ENDBRANCH   7   8
ENDBRANCH   1   7
TORSDOF 6
ENDMDL
MODEL 4
REMARK VINA RESULT:    -3.033     13.598     14.847
REMARK INTER + INTRA:          -4.252
REMARK INTER:                  -4.084
REMARK INTRA:                  -0.167
REMARK UNBOUND:                -0.155
REMARK SMILES CCCCCCCC(=O)[O-]
REMARK SMILES IDX 5 1 6 2 7 3 8 4 9 5 10 6 4 7 3 8 2 9 1 10
REMARK H PARENT
REMARK Flexibility Score: inf
ROOT
ATOM      1  C   UNL     1      41.132  20.255  79.127  1.00  0.00     0.000 C 
ENDROOT
BRANCH   1   2
ATOM      2  C   UNL     1      40.199  19.630  80.183  1.00  0.00     0.006 C 
BRANCH   2   3
ATOM      3  C   UNL     1      38.791  20.245  80.231  1.00  0.00     0.053 C 
BRANCH   3   4
ATOM      4  C   UNL     1      37.778  19.282  80.771  1.00  0.00     0.041 C 
ATOM      5  O   UNL     1      37.062  19.602  81.755  1.00  0.00    -0.550 OA
ATOM      6  O   UNL     1      37.604  18.044  80.165  1.00  0.00    -0.550 OA
ENDBRANCH   3   4
ENDBRANCH   2   3
ENDBRANCH   1   2
BRANCH   1   7
ATOM      7  C   UNL     1      40.418  20.970  77.962  1.00  0.00     0.000 C 
BRANCH   7   8
ATOM      8  C   UNL     1      41.350  21.545  76.881  1.00  0.00    -0.000 C 
BRANCH   8   9
ATOM      9  C   UNL     1      40.596  22.002  75.625  1.00  0.00    -0.003 C 
ATOM     10  C   UNL     1      40.375  20.838  74.663  1.00  0.00     0.004 C 
ENDBRANCH   8   9
ENDBRANCH   7   8
ENDBRANCH   1   7
TORSDOF 6
ENDMDL
MODEL 5
REMARK VINA RESULT:    -3.015     12.743     14.240
REMARK INTER + INTRA:          -4.227
REMARK INTER:                  -3.776
REMARK INTRA:                  -0.451
REMARK UNBOUND:                -0.155
REMARK SMILES CCCCCCCC(=O)[O-]
REMARK SMILES IDX 5 1 6 2 7 3 8 4 9 5 10 6 4 7 3 8 2 9 1 10
REMARK H PARENT
REMARK Flexibility Score: inf
ROOT
ATOM      1  C   UNL     1      41.175  19.857  80.253  1.00  0.00     0.000 C 
ENDROOT
BRANCH   1   2
ATOM      2  C   UNL     1      39.816  19.568  79.585  1.00  0.00     0.006 C 
BRANCH   2   3
ATOM      3  C   UNL     1      38.618  20.257  80.258  1.00  0.00     0.053 C 
BRANCH   3   4
ATOM      4  C   UNL     1      37.705  19.271  80.920  1.00  0.00     0.041 C 
ATOM      5  O   UNL     1      37.270  19.491  82.081  1.00  0.00    -0.550 OA
ATOM      6  O   UNL     1      37.308  18.127  80.241  1.00  0.00    -0.550 OA
ENDBRANCH   3   4
ENDBRANCH   2   3
ENDBRANCH   1   2
BRANCH   1   7
ATOM      7  C   UNL     1      42.234  20.497  79.333  1.00  0.00     0.000 C 
BRANCH   7   8
ATOM      8  C   UNL     1      41.682  21.119  78.038  1.00  0.00    -0.000 C 
BRANCH   8   9
ATOM      9  C   UNL     1      41.410  22.624  78.169  1.00  0.00    -0.003 C 
ATOM     10  C   UNL     1      39.979  22.962  77.761  1.00  0.00     0.004 C 
ENDBRANCH   8   9
ENDBRANCH   7   8
ENDBRANCH   1   7
TORSDOF 6
ENDMDL
MODEL 6
REMARK VINA RESULT:    -3.003     14.103     15.621
REMARK INTER + INTRA:          -4.211
REMARK INTER:                  -3.790
REMARK INTRA:                  -0.421
REMARK UNBOUND:                -0.155
REMARK SMILES CCCCCCCC(=O)[O-]
REMARK SMILES IDX 5 1 6 2 7 3 8 4 9 5 10 6 4 7 3 8 2 9 1 10
REMARK H PARENT
REMARK Flexibility Score: inf
ROOT
ATOM      1  C   UNL     1      44.270  31.246  90.775  1.00  0.00     0.000 C 
ENDROOT
BRANCH   1   2
ATOM      2  C   UNL     1      44.716  31.550  92.219  1.00  0.00     0.006 C 
BRANCH   2   3
ATOM      3  C   UNL     1      43.802  30.960  93.304  1.00  0.00     0.053 C 
BRANCH   3   4
ATOM      4  C   UNL     1      43.785  29.462  93.268  1.00  0.00     0.041 C 
ATOM      5  O   UNL     1      42.702  28.837  93.408  1.00  0.00    -0.550 OA
ATOM      6  O   UNL     1      44.962  28.759  93.046  1.00  0.00    -0.550 OA
ENDBRANCH   3   4
ENDBRANCH   2   3
ENDBRANCH   1   2
BRANCH   1   7
ATOM      7  C   UNL     1      45.394  30.786  89.825  1.00  0.00     0.000 C 
BRANCH   7   8
ATOM      8  C   UNL     1      46.640  31.689  89.805  1.00  0.00    -0.000 C 
BRANCH   8   9
ATOM      9  C   UNL     1      47.944  30.909  90.021  1.00  0.00    -0.003 C 
ATOM     10  C   UNL     1      47.764  29.816  91.071  1.00  0.00     0.004 C 
ENDBRANCH   8   9
ENDBRANCH   7   8
ENDBRANCH   1   7
TORSDOF 6
ENDMDL
MODEL 7
REMARK VINA RESULT:    -2.990     14.017     15.606
REMARK INTER + INTRA:          -4.194
REMARK INTER:                  -3.578
REMARK INTRA:                  -0.616
REMARK UNBOUND:                -0.155
REMARK SMILES CCCCCCCC(=O)[O-]
REMARK SMILES IDX 5 1 6 2 7 3 8 4 9 5 10 6 4 7 3 8 2 9 1 10
REMARK H PARENT
REMARK Flexibility Score: inf
ROOT
ATOM      1  C   UNL     1      43.790  30.854  93.345  1.00  0.00     0.000 C 
ENDROOT
BRANCH   1   2
ATOM      2  C   UNL     1      43.314  29.481  92.831  1.00  0.00     0.006 C 
BRANCH   2   3
ATOM      3  C   UNL     1      44.175  28.295  93.294  1.00  0.00     0.053 C 
BRANCH   3   4
ATOM      4  C   UNL     1      45.186  27.901  92.260  1.00  0.00     0.041 C 
ATOM      5  O   UNL     1      44.854  27.822  91.048  1.00  0.00    -0.550 OA
ATOM      6  O   UNL     1      46.501  27.655  92.633  1.00  0.00    -0.550 OA
ENDBRANCH   3   4
ENDBRANCH   2   3
ENDBRANCH   1   2
BRANCH   1   7
ATOM      7  C   UNL     1      44.611  31.683  92.336  1.00  0.00     0.000 C 
BRANCH   7   8
ATOM      8  C   UNL     1      44.417  31.290  90.860  1.00  0.00    -0.000 C 
BRANCH   8   9
ATOM      9  C   UNL     1      45.725  31.325  90.058  1.00  0.00    -0.003 C 
ATOM     10  C   UNL     1      46.918  30.954  90.936  1.00  0.00     0.004 C 
ENDBRANCH   8   9
ENDBRANCH   7   8
ENDBRANCH   1   7
TORSDOF 6
ENDMDL
MODEL 8
REMARK VINA RESULT:    -2.970     13.146     14.859
REMARK INTER + INTRA:          -4.167
REMARK INTER:                  -3.579
REMARK INTRA:                  -0.588
REMARK UNBOUND:                -0.155
REMARK SMILES CCCCCCCC(=O)[O-]
REMARK SMILES IDX 5 1 6 2 7 3 8 4 9 5 10 6 4 7 3 8 2 9 1 10
REMARK H PARENT
REMARK Flexibility Score: inf
ROOT
ATOM      1  C   UNL     1      38.497  22.714  79.465  1.00  0.00     0.000 C 
ENDROOT
BRANCH   1   2
ATOM      2  C   UNL     1      37.867  22.009  80.683  1.00  0.00     0.006 C 
BRANCH   2   3
ATOM      3  C   UNL     1      36.966  20.815  80.332  1.00  0.00     0.053 C 
BRANCH   3   4
ATOM      4  C   UNL     1      37.332  19.589  81.111  1.00  0.00     0.041 C 
ATOM      5  O   UNL     1      37.400  19.633  82.367  1.00  0.00    -0.550 OA
ATOM      6  O   UNL     1      37.567  18.390  80.450  1.00  0.00    -0.550 OA
ENDBRANCH   3   4
ENDBRANCH   2   3
ENDBRANCH   1   2
BRANCH   1   7
ATOM      7  C   UNL     1      39.999  22.437  79.252  1.00  0.00     0.000 C 
BRANCH   7   8
ATOM      8  C   UNL     1      40.319  21.310  78.256  1.00  0.00    -0.000 C 
BRANCH   8   9
ATOM      9  C   UNL     1      40.406  19.931  78.924  1.00  0.00    -0.003 C 
ATOM     10  C   UNL     1      41.062  20.028  80.299  1.00  0.00     0.004 C 
ENDBRANCH   8   9
ENDBRANCH   7   8
ENDBRANCH   1   7
TORSDOF 6
ENDMDL
MODEL 9
REMARK VINA RESULT:    -2.866     14.352     16.077
REMARK INTER + INTRA:          -4.027
REMARK INTER:                  -3.845
REMARK INTRA:                  -0.181
REMARK UNBOUND:                -0.155
REMARK SMILES CCCCCCCC(=O)[O-]
REMARK SMILES IDX 5 1 6 2 7 3 8 4 9 5 10 6 4 7 3 8 2 9 1 10
REMARK H PARENT
REMARK Flexibility Score: inf
ROOT
ATOM      1  C   UNL     1      47.213  30.679  91.121  1.00  0.00     0.000 C 
ENDROOT
BRANCH   1   2
ATOM      2  C   UNL     1      48.645  30.882  90.587  1.00  0.00     0.006 C 
BRANCH   2   3
ATOM      3  C   UNL     1      49.749  30.328  91.501  1.00  0.00     0.053 C 
BRANCH   3   4
ATOM      4  C   UNL     1      50.685  31.404  91.964  1.00  0.00     0.041 C 
ATOM      5  O   UNL     1      51.621  31.792  91.218  1.00  0.00    -0.550 OA
ATOM      6  O   UNL     1      50.500  32.000  93.204  1.00  0.00    -0.550 OA
ENDBRANCH   3   4
ENDBRANCH   2   3
ENDBRANCH   1   2
BRANCH   1   7
ATOM      7  C   UNL     1      46.126  31.517  90.418  1.00  0.00     0.000 C 
BRANCH   7   8
ATOM      8  C   UNL     1      44.688  31.250  90.895  1.00  0.00    -0.000 C 
BRANCH   8   9
ATOM      9  C   UNL     1      44.501  31.507  92.397  1.00  0.00    -0.003 C 
ATOM     10  C   UNL     1      43.765  30.349  93.065  1.00  0.00     0.004 C 
ENDBRANCH   8   9
ENDBRANCH   7   8
ENDBRANCH   1   7
TORSDOF 6
ENDMDL
