MODEL 1
REMARK VINA RESULT:    -5.634      0.000      0.000
REMARK INTER + INTRA:          -6.162
REMARK INTER:                  -6.128
REMARK INTRA:                  -0.034
REMARK UNBOUND:                -0.034
REMARK SMILES O=C([O-])c1ccc(O)cc1
REMARK SMILES IDX 4 1 5 2 10 3 6 4 9 5 7 6 2 7 1 8 3 9 8 10
REMARK H PARENT 8 11
REMARK Flexibility Score: inf
ROOT
ATOM      1  C   UNL     1     130.879 125.834 127.101  1.00  0.00    -0.003 A 
ATOM      2  C   UNL     1     130.892 124.459 126.801  1.00  0.00     0.014 A 
ATOM      3  C   UNL     1     129.764 126.377 127.766  1.00  0.00     0.014 A 
ATOM      4  C   UNL     1     129.812 123.647 127.160  1.00  0.00     0.047 A 
ATOM      5  C   UNL     1     128.686 125.560 128.123  1.00  0.00     0.047 A 
ATOM      6  C   UNL     1     128.706 124.196 127.822  1.00  0.00     0.115 A 
ENDROOT
BRANCH   1   7
ATOM      7  C   UNL     1     132.023 126.691 126.720  1.00  0.00     0.071 C 
ATOM      8  O   UNL     1     132.750 126.389 125.735  1.00  0.00    -0.545 OA
ATOM      9  O   UNL     1     132.312 127.843 127.443  1.00  0.00    -0.545 OA
ENDBRANCH   1   7
BRANCH   6  10
ATOM     10  O   UNL     1     127.625 123.395 128.183  1.00  0.00    -0.508 OA
ATOM     11  H   UNL     1     127.668 122.776 128.984  1.00  0.00     0.293 HD
ENDBRANCH   6  10
TORSDOF 2
ENDMDL
MODEL 2
REMARK VINA RESULT:    -5.618      0.035      1.532
REMARK INTER + INTRA:          -6.145
REMARK INTER:                  -6.111
REMARK INTRA:                  -0.034
REMARK UNBOUND:                -0.034
REMARK SMILES O=C([O-])c1ccc(O)cc1
REMARK SMILES IDX 4 1 5 2 10 3 6 4 9 5 7 6 2 7 1 8 3 9 8 10
REMARK H PARENT 8 11
REMARK Flexibility Score: inf
ROOT
ATOM      1  C   UNL     1     130.867 125.830 127.080  1.00  0.00    -0.003 A 
ATOM      2  C   UNL     1     129.762 126.379 127.755  1.00  0.00     0.014 A 
ATOM      3  C   UNL     1     130.875 124.452 126.792  1.00  0.00     0.014 A 
ATOM      4  C   UNL     1     128.689 125.567 128.134  1.00  0.00     0.047 A 
ATOM      5  C   UNL     1     129.799 123.643 127.173  1.00  0.00     0.047 A 
ATOM      6  C   UNL     1     128.705 124.196 127.844  1.00  0.00     0.115 A 
ENDROOT
BRANCH   1   7
ATOM      7  C   UNL     1     132.001 126.691 126.680  1.00  0.00     0.071 C 
ATOM      8  O   UNL     1     132.722 126.383 125.693  1.00  0.00    -0.545 OA
ATOM      9  O   UNL     1     132.288 127.853 127.387  1.00  0.00    -0.545 OA
ENDBRANCH   1   7
BRANCH   6  10
ATOM     10  O   UNL     1     127.641 123.378 128.218  1.00  0.00    -0.508 OA
ATOM     11  H   UNL     1     126.732 123.457 127.778  1.00  0.00     0.293 HD
ENDBRANCH   6  10
TORSDOF 2
ENDMDL
MODEL 3
REMARK VINA RESULT:    -5.579      1.212      4.103
REMARK INTER + INTRA:          -6.102
REMARK INTER:                  -6.068
REMARK INTRA:                  -0.034
REMARK UNBOUND:                -0.034
REMARK SMILES O=C([O-])c1ccc(O)cc1
REMARK SMILES IDX 4 1 5 2 10 3 6 4 9 5 7 6 2 7 1 8 3 9 8 10
REMARK H PARENT 8 11
REMARK Flexibility Score: inf
ROOT
ATOM      1  C   UNL     1     130.024 125.381 127.349  1.00  0.00    -0.003 A 
ATOM      2  C   UNL     1     131.333 125.019 126.983  1.00  0.00     0.014 A 
ATOM      3  C   UNL     1     129.771 126.705 127.755  1.00  0.00     0.014 A 
ATOM      4  C   UNL     1     132.365 125.962 127.021  1.00  0.00     0.047 A 
ATOM      5  C   UNL     1     130.806 127.644 127.792  1.00  0.00     0.047 A 
ATOM      6  C   UNL     1     132.104 127.277 127.427  1.00  0.00     0.115 A 
ENDROOT
BRANCH   1   7
ATOM      7  C   UNL     1     128.934 124.382 127.307  1.00  0.00     0.071 C 
ATOM      8  O   UNL     1     128.997 123.398 126.522  1.00  0.00    -0.545 OA
ATOM      9  O   UNL     1     127.824 124.515 128.134  1.00  0.00    -0.545 OA
ENDBRANCH   1   7
BRANCH   6  10
ATOM     10  O   UNL     1     133.125 128.223 127.469  1.00  0.00    -0.508 OA
ATOM     11  H   UNL     1     133.328 128.746 128.313  1.00  0.00     0.293 HD
ENDBRANCH   6  10
TORSDOF 2
ENDMDL
MODEL 4
REMARK VINA RESULT:    -5.098      3.367      4.439
REMARK INTER + INTRA:          -5.579
REMARK INTER:                  -5.550
REMARK INTRA:                  -0.029
REMARK UNBOUND:                -0.034
REMARK SMILES O=C([O-])c1ccc(O)cc1
REMARK SMILES IDX 4 1 5 2 10 3 6 4 9 5 7 6 2 7 1 8 3 9 8 10
REMARK H PARENT 8 11
REMARK Flexibility Score: inf
ROOT
ATOM      1  C   UNL     1     129.719 127.103 124.510  1.00  0.00    -0.003 A 
ATOM      2  C   UNL     1     130.755 126.247 124.095  1.00  0.00     0.014 A 
ATOM      3  C   UNL     1     129.801 127.711 125.777  1.00  0.00     0.014 A 
ATOM      4  C   UNL     1     131.850 126.006 124.931  1.00  0.00     0.047 A 
ATOM      5  C   UNL     1     130.899 127.467 126.609  1.00  0.00     0.047 A 
ATOM      6  C   UNL     1     131.925 126.615 126.190  1.00  0.00     0.115 A 
ENDROOT
BRANCH   1   7
ATOM      7  C   UNL     1     128.561 127.357 123.624  1.00  0.00     0.071 C 
ATOM      8  O   UNL     1     127.826 126.407 123.243  1.00  0.00    -0.545 OA
ATOM      9  O   UNL     1     128.267 128.648 123.201  1.00  0.00    -0.545 OA
ENDBRANCH   1   7
BRANCH   6  10
ATOM     10  O   UNL     1     133.011 126.381 127.029  1.00  0.00    -0.508 OA
ATOM     11  H   UNL     1     133.759 127.057 127.130  1.00  0.00     0.293 HD
ENDBRANCH   6  10
TORSDOF 2
ENDMDL
MODEL 5
REMARK VINA RESULT:    -5.065      2.426      4.148
REMARK INTER + INTRA:          -5.543
REMARK INTER:                  -5.510
REMARK INTRA:                  -0.032
REMARK UNBOUND:                -0.034
REMARK SMILES O=C([O-])c1ccc(O)cc1
REMARK SMILES IDX 4 1 5 2 10 3 6 4 9 5 7 6 2 7 1 8 3 9 8 10
REMARK H PARENT 8 11
REMARK Flexibility Score: inf
ROOT
ATOM      1  C   UNL     1     129.294 125.575 126.535  1.00  0.00    -0.003 A 
ATOM      2  C   UNL     1     129.724 125.677 125.200  1.00  0.00     0.014 A 
ATOM      3  C   UNL     1     128.911 126.744 127.220  1.00  0.00     0.014 A 
ATOM      4  C   UNL     1     129.769 126.921 124.565  1.00  0.00     0.047 A 
ATOM      5  C   UNL     1     128.959 127.987 126.580  1.00  0.00     0.047 A 
ATOM      6  C   UNL     1     129.387 128.080 125.253  1.00  0.00     0.115 A 
ENDROOT
BRANCH   1   7
ATOM      7  C   UNL     1     129.246 124.257 127.206  1.00  0.00     0.071 C 
ATOM      8  O   UNL     1     130.145 123.399 126.995  1.00  0.00    -0.545 OA
ATOM      9  O   UNL     1     128.210 123.947 128.079  1.00  0.00    -0.545 OA
ENDBRANCH   1   7
BRANCH   6  10
ATOM     10  O   UNL     1     129.429 129.324 124.630  1.00  0.00    -0.508 OA
ATOM     11  H   UNL     1     129.833 130.133 125.087  1.00  0.00     0.293 HD
ENDBRANCH   6  10
TORSDOF 2
ENDMDL
MODEL 6
REMARK VINA RESULT:    -4.986      1.699      4.586
REMARK INTER + INTRA:          -5.458
REMARK INTER:                  -5.422
REMARK INTRA:                  -0.036
REMARK UNBOUND:                -0.034
REMARK SMILES O=C([O-])c1ccc(O)cc1
REMARK SMILES IDX 4 1 5 2 10 3 6 4 9 5 7 6 2 7 1 8 3 9 8 10
REMARK H PARENT 8 11
REMARK Flexibility Score: inf
ROOT
ATOM      1  C   UNL     1     128.292 124.851 127.926  1.00  0.00    -0.003 A 
ATOM      2  C   UNL     1     128.569 126.143 127.445  1.00  0.00     0.014 A 
ATOM      3  C   UNL     1     129.054 123.767 127.451  1.00  0.00     0.014 A 
ATOM      4  C   UNL     1     129.589 126.345 126.509  1.00  0.00     0.047 A 
ATOM      5  C   UNL     1     130.073 123.974 126.515  1.00  0.00     0.047 A 
ATOM      6  C   UNL     1     130.343 125.261 126.041  1.00  0.00     0.115 A 
ENDROOT
BRANCH   1   7
ATOM      7  C   UNL     1     127.213 124.638 128.916  1.00  0.00     0.071 C 
ATOM      8  O   UNL     1     126.393 125.560 129.177  1.00  0.00    -0.545 OA
ATOM      9  O   UNL     1     127.088 123.419 129.572  1.00  0.00    -0.545 OA
ENDBRANCH   1   7
BRANCH   6  10
ATOM     10  O   UNL     1     131.359 125.452 125.109  1.00  0.00    -0.508 OA
ATOM     11  H   UNL     1     131.963 126.266 125.142  1.00  0.00     0.293 HD
ENDBRANCH   6  10
TORSDOF 2
ENDMDL
MODEL 7
REMARK VINA RESULT:    -4.921      2.947      3.713
REMARK INTER + INTRA:          -5.387
REMARK INTER:                  -5.358
REMARK INTRA:                  -0.029
REMARK UNBOUND:                -0.034
REMARK SMILES O=C([O-])c1ccc(O)cc1
REMARK SMILES IDX 4 1 5 2 10 3 6 4 9 5 7 6 2 7 1 8 3 9 8 10
REMARK H PARENT 8 11
REMARK Flexibility Score: inf
ROOT
ATOM      1  C   UNL     1     130.820 127.282 126.464  1.00  0.00    -0.003 A 
ATOM      2  C   UNL     1     129.573 127.869 126.184  1.00  0.00     0.014 A 
ATOM      3  C   UNL     1     131.374 126.380 125.536  1.00  0.00     0.014 A 
ATOM      4  C   UNL     1     128.896 127.561 125.001  1.00  0.00     0.047 A 
ATOM      5  C   UNL     1     130.692 126.074 124.353  1.00  0.00     0.047 A 
ATOM      6  C   UNL     1     129.454 126.662 124.082  1.00  0.00     0.115 A 
ENDROOT
BRANCH   1   7
ATOM      7  C   UNL     1     131.535 127.610 127.717  1.00  0.00     0.071 C 
ATOM      8  O   UNL     1     131.007 127.373 128.837  1.00  0.00    -0.545 OA
ATOM      9  O   UNL     1     132.801 128.185 127.677  1.00  0.00    -0.545 OA
ENDBRANCH   1   7
BRANCH   6  10
ATOM     10  O   UNL     1     128.787 126.347 122.901  1.00  0.00    -0.508 OA
ATOM     11  H   UNL     1     128.910 125.451 122.445  1.00  0.00     0.293 HD
ENDBRANCH   6  10
TORSDOF 2
ENDMDL
MODEL 8
REMARK VINA RESULT:    -4.843      5.850      6.651
REMARK INTER + INTRA:          -5.302
REMARK INTER:                  -5.266
REMARK INTRA:                  -0.036
REMARK UNBOUND:                -0.034
REMARK SMILES O=C([O-])c1ccc(O)cc1
REMARK SMILES IDX 4 1 5 2 10 3 6 4 9 5 7 6 2 7 1 8 3 9 8 10
REMARK H PARENT 8 11
REMARK Flexibility Score: inf
ROOT
ATOM      1  C   UNL     1     127.347 128.135 122.688  1.00  0.00    -0.003 A 
ATOM      2  C   UNL     1     128.451 128.997 122.815  1.00  0.00     0.014 A 
ATOM      3  C   UNL     1     127.472 126.798 123.110  1.00  0.00     0.014 A 
ATOM      4  C   UNL     1     129.655 128.530 123.353  1.00  0.00     0.047 A 
ATOM      5  C   UNL     1     128.678 126.335 123.647  1.00  0.00     0.047 A 
ATOM      6  C   UNL     1     129.771 127.197 123.770  1.00  0.00     0.115 A 
ENDROOT
BRANCH   1   7
ATOM      7  C   UNL     1     126.074 128.632 122.120  1.00  0.00     0.071 C 
ATOM      8  O   UNL     1     125.096 127.853 121.964  1.00  0.00    -0.545 OA
ATOM      9  O   UNL     1     125.940 129.965 121.748  1.00  0.00    -0.545 OA
ENDBRANCH   1   7
BRANCH   6  10
ATOM     10  O   UNL     1     130.966 126.723 124.306  1.00  0.00    -0.508 OA
ATOM     11  H   UNL     1     131.411 125.886 123.948  1.00  0.00     0.293 HD
ENDBRANCH   6  10
TORSDOF 2
ENDMDL
MODEL 9
REMARK VINA RESULT:    -4.817      3.201      4.242
REMARK INTER + INTRA:          -5.273
REMARK INTER:                  -5.245
REMARK INTRA:                  -0.027
REMARK UNBOUND:                -0.034
REMARK SMILES O=C([O-])c1ccc(O)cc1
REMARK SMILES IDX 4 1 5 2 10 3 6 4 9 5 7 6 2 7 1 8 3 9 8 10
REMARK H PARENT 8 11
REMARK Flexibility Score: inf
ROOT
ATOM      1  C   UNL     1     130.590 126.599 125.775  1.00  0.00    -0.003 A 
ATOM      2  C   UNL     1     130.046 127.813 126.234  1.00  0.00     0.014 A 
ATOM      3  C   UNL     1     130.346 126.200 124.448  1.00  0.00     0.014 A 
ATOM      4  C   UNL     1     129.275 128.609 125.381  1.00  0.00     0.047 A 
ATOM      5  C   UNL     1     129.574 127.000 123.599  1.00  0.00     0.047 A 
ATOM      6  C   UNL     1     129.037 128.204 124.061  1.00  0.00     0.115 A 
ENDROOT
BRANCH   1   7
ATOM      7  C   UNL     1     131.406 125.758 126.679  1.00  0.00     0.071 C 
ATOM      8  O   UNL     1     132.581 126.098 126.983  1.00  0.00    -0.545 OA
ATOM      9  O   UNL     1     130.887 124.581 127.206  1.00  0.00    -0.545 OA
ENDBRANCH   1   7
BRANCH   6  10
ATOM     10  O   UNL     1     128.270 128.990 123.205  1.00  0.00    -0.508 OA
ATOM     11  H   UNL     1     127.470 128.610 122.710  1.00  0.00     0.293 HD
ENDBRANCH   6  10
TORSDOF 2
ENDMDL
