MODEL 1
REMARK VINA RESULT:    -3.772      0.000      0.000
REMARK INTER + INTRA:          -4.276
REMARK INTER:                  -4.213
REMARK INTRA:                  -0.063
REMARK UNBOUND:                -0.063
REMARK SMILES COc1ccc(C(=O)[O-])cc1
REMARK SMILES IDX 6 1 5 2 10 3 4 4 11 5 3 6 7 7 8 8 9 9 2 10 1 11
REMARK H PARENT
REMARK Flexibility Score: inf
ROOT
ATOM      1  C   UNL     1      40.872 180.723 173.710  1.00  0.00    -0.003 A 
ATOM      2  C   UNL     1      40.698 181.973 174.327  1.00  0.00     0.014 A 
ATOM      3  C   UNL     1      39.864 180.235 172.860  1.00  0.00     0.014 A 
ATOM      4  C   UNL     1      39.538 182.721 174.099  1.00  0.00     0.047 A 
ATOM      5  C   UNL     1      38.706 180.985 172.633  1.00  0.00     0.047 A 
ATOM      6  C   UNL     1      38.532 182.230 173.247  1.00  0.00     0.118 A 
ENDROOT
BRANCH   1   7
ATOM      7  C   UNL     1      42.100 179.934 173.954  1.00  0.00     0.071 C 
ATOM      8  O   UNL     1      42.413 179.579 175.122  1.00  0.00    -0.545 OA
ATOM      9  O   UNL     1      42.927 179.572 172.895  1.00  0.00    -0.545 OA
ENDBRANCH   1   7
BRANCH   6  10
ATOM     10  O   UNL     1      37.352 182.943 172.987  1.00  0.00    -0.497 OA
ATOM     11  C   UNL     1      36.477 182.679 171.895  1.00  0.00     0.278 C 
ENDBRANCH   6  10
TORSDOF 2
ENDMDL
MODEL 2
REMARK VINA RESULT:    -3.645      0.943      4.742
REMARK INTER + INTRA:          -4.134
REMARK INTER:                  -4.070
REMARK INTRA:                  -0.065
REMARK UNBOUND:                -0.063
REMARK SMILES COc1ccc(C(=O)[O-])cc1
REMARK SMILES IDX 6 1 5 2 10 3 4 4 11 5 3 6 7 7 8 8 9 9 2 10 1 11
REMARK H PARENT
REMARK Flexibility Score: inf
ROOT
ATOM      1  C   UNL     1      38.466 182.345 173.252  1.00  0.00    -0.003 A 
ATOM      2  C   UNL     1      39.449 183.013 174.001  1.00  0.00     0.014 A 
ATOM      3  C   UNL     1      38.683 181.004 172.887  1.00  0.00     0.014 A 
ATOM      4  C   UNL     1      40.625 182.356 174.378  1.00  0.00     0.047 A 
ATOM      5  C   UNL     1      39.858 180.348 173.265  1.00  0.00     0.047 A 
ATOM      6  C   UNL     1      40.836 181.014 174.011  1.00  0.00     0.118 A 
ENDROOT
BRANCH   1   7
ATOM      7  C   UNL     1      37.225 183.043 172.855  1.00  0.00     0.071 C 
ATOM      8  O   UNL     1      36.858 184.090 173.453  1.00  0.00    -0.545 OA
ATOM      9  O   UNL     1      36.441 182.553 171.815  1.00  0.00    -0.545 OA
ENDBRANCH   1   7
BRANCH   6  10
ATOM     10  O   UNL     1      41.998 180.311 174.365  1.00  0.00    -0.497 OA
ATOM     11  C   UNL     1      42.753 179.502 173.469  1.00  0.00     0.278 C 
ENDBRANCH   6  10
TORSDOF 2
ENDMDL
MODEL 3
REMARK VINA RESULT:    -3.618      1.855      5.126
REMARK INTER + INTRA:          -4.104
REMARK INTER:                  -4.039
REMARK INTRA:                  -0.065
REMARK UNBOUND:                -0.063
REMARK SMILES COc1ccc(C(=O)[O-])cc1
REMARK SMILES IDX 6 1 5 2 10 3 4 4 11 5 3 6 7 7 8 8 9 9 2 10 1 11
REMARK H PARENT
REMARK Flexibility Score: inf
ROOT
ATOM      1  C   UNL     1      37.239 181.435 172.199  1.00  0.00    -0.003 A 
ATOM      2  C   UNL     1      36.967 180.962 173.493  1.00  0.00     0.014 A 
ATOM      3  C   UNL     1      38.556 181.370 171.712  1.00  0.00     0.014 A 
ATOM      4  C   UNL     1      37.992 180.433 174.285  1.00  0.00     0.047 A 
ATOM      5  C   UNL     1      39.579 180.841 172.504  1.00  0.00     0.047 A 
ATOM      6  C   UNL     1      39.309 180.368 173.793  1.00  0.00     0.118 A 
ENDROOT
BRANCH   1   7
ATOM      7  C   UNL     1      36.153 181.995 171.365  1.00  0.00     0.071 C 
ATOM      8  O   UNL     1      34.991 181.509 171.413  1.00  0.00    -0.545 OA
ATOM      9  O   UNL     1      36.400 183.066 170.512  1.00  0.00    -0.545 OA
ENDBRANCH   1   7
BRANCH   6  10
ATOM     10  O   UNL     1      40.370 179.846 174.549  1.00  0.00    -0.497 OA
ATOM     11  C   UNL     1      41.718 180.294 174.456  1.00  0.00     0.278 C 
ENDBRANCH   6  10
TORSDOF 2
ENDMDL
MODEL 4
REMARK VINA RESULT:    -3.525      1.856      2.500
REMARK INTER + INTRA:          -4.000
REMARK INTER:                  -3.945
REMARK INTRA:                  -0.055
REMARK UNBOUND:                -0.063
REMARK SMILES COc1ccc(C(=O)[O-])cc1
REMARK SMILES IDX 6 1 5 2 10 3 4 4 11 5 3 6 7 7 8 8 9 9 2 10 1 11
REMARK H PARENT
REMARK Flexibility Score: inf
ROOT
ATOM      1  C   UNL     1      39.130 180.627 173.235  1.00  0.00    -0.003 A 
ATOM      2  C   UNL     1      38.972 181.263 171.992  1.00  0.00     0.014 A 
ATOM      3  C   UNL     1      37.994 180.392 174.029  1.00  0.00     0.014 A 
ATOM      4  C   UNL     1      37.704 181.655 171.552  1.00  0.00     0.047 A 
ATOM      5  C   UNL     1      36.727 180.784 173.587  1.00  0.00     0.047 A 
ATOM      6  C   UNL     1      36.569 181.417 172.349  1.00  0.00     0.118 A 
ENDROOT
BRANCH   1   7
ATOM      7  C   UNL     1      40.472 180.214 173.698  1.00  0.00     0.071 C 
ATOM      8  O   UNL     1      40.892 179.045 173.487  1.00  0.00    -0.545 OA
ATOM      9  O   UNL     1      41.292 181.112 174.375  1.00  0.00    -0.545 OA
ENDBRANCH   1   7
BRANCH   6  10
ATOM     10  O   UNL     1      35.277 181.791 171.951  1.00  0.00    -0.497 OA
ATOM     11  C   UNL     1      34.170 180.900 171.873  1.00  0.00     0.278 C 
ENDBRANCH   6  10
TORSDOF 2
ENDMDL
MODEL 5
REMARK VINA RESULT:    -3.374     22.773     23.449
REMARK INTER + INTRA:          -3.832
REMARK INTER:                  -3.773
REMARK INTRA:                  -0.058
REMARK UNBOUND:                -0.063
REMARK SMILES COc1ccc(C(=O)[O-])cc1
REMARK SMILES IDX 6 1 5 2 10 3 4 4 11 5 3 6 7 7 8 8 9 9 2 10 1 11
REMARK H PARENT
REMARK Flexibility Score: inf
ROOT
ATOM      1  C   UNL     1      31.954 166.476 157.482  1.00  0.00    -0.003 A 
ATOM      2  C   UNL     1      32.542 167.152 156.400  1.00  0.00     0.014 A 
ATOM      3  C   UNL     1      30.565 166.577 157.674  1.00  0.00     0.014 A 
ATOM      4  C   UNL     1      31.758 167.914 155.528  1.00  0.00     0.047 A 
ATOM      5  C   UNL     1      29.783 167.338 156.801  1.00  0.00     0.047 A 
ATOM      6  C   UNL     1      30.368 168.011 155.723  1.00  0.00     0.118 A 
ENDROOT
BRANCH   1   7
ATOM      7  C   UNL     1      32.787 165.672 158.403  1.00  0.00     0.071 C 
ATOM      8  O   UNL     1      33.869 165.161 158.009  1.00  0.00    -0.545 OA
ATOM      9  O   UNL     1      32.386 165.468 159.719  1.00  0.00    -0.545 OA
ENDBRANCH   1   7
BRANCH   6  10
ATOM     10  O   UNL     1      29.539 168.762 154.876  1.00  0.00    -0.497 OA
ATOM     11  C   UNL     1      29.448 170.182 154.892  1.00  0.00     0.278 C 
ENDBRANCH   6  10
TORSDOF 2
ENDMDL
MODEL 6
REMARK VINA RESULT:    -3.370     23.471     23.979
REMARK INTER + INTRA:          -3.827
REMARK INTER:                  -3.763
REMARK INTRA:                  -0.064
REMARK UNBOUND:                -0.063
REMARK SMILES COc1ccc(C(=O)[O-])cc1
REMARK SMILES IDX 6 1 5 2 10 3 4 4 11 5 3 6 7 7 8 8 9 9 2 10 1 11
REMARK H PARENT
REMARK Flexibility Score: inf
ROOT
ATOM      1  C   UNL     1      30.688 167.799 156.207  1.00  0.00    -0.003 A 
ATOM      2  C   UNL     1      30.716 168.831 155.254  1.00  0.00     0.014 A 
ATOM      3  C   UNL     1      29.464 167.464 156.813  1.00  0.00     0.014 A 
ATOM      4  C   UNL     1      29.544 169.514 154.912  1.00  0.00     0.047 A 
ATOM      5  C   UNL     1      28.294 168.148 156.470  1.00  0.00     0.047 A 
ATOM      6  C   UNL     1      28.321 169.175 155.520  1.00  0.00     0.118 A 
ENDROOT
BRANCH   1   7
ATOM      7  C   UNL     1      31.929 167.079 156.566  1.00  0.00     0.071 C 
ATOM      8  O   UNL     1      33.050 167.499 156.175  1.00  0.00    -0.545 OA
ATOM      9  O   UNL     1      31.876 165.926 157.342  1.00  0.00    -0.545 OA
ENDBRANCH   1   7
BRANCH   6  10
ATOM     10  O   UNL     1      27.120 169.830 155.211  1.00  0.00    -0.497 OA
ATOM     11  C   UNL     1      27.020 171.210 154.877  1.00  0.00     0.278 C 
ENDBRANCH   6  10
TORSDOF 2
ENDMDL
MODEL 7
REMARK VINA RESULT:    -3.342      1.884      4.988
REMARK INTER + INTRA:          -3.796
REMARK INTER:                  -3.740
REMARK INTRA:                  -0.056
REMARK UNBOUND:                -0.063
REMARK SMILES COc1ccc(C(=O)[O-])cc1
REMARK SMILES IDX 6 1 5 2 10 3 4 4 11 5 3 6 7 7 8 8 9 9 2 10 1 11
REMARK H PARENT
REMARK Flexibility Score: inf
ROOT
ATOM      1  C   UNL     1      37.373 180.866 173.195  1.00  0.00    -0.003 A 
ATOM      2  C   UNL     1      38.283 181.422 172.281  1.00  0.00     0.014 A 
ATOM      3  C   UNL     1      37.865 180.262 174.366  1.00  0.00     0.014 A 
ATOM      4  C   UNL     1      39.659 181.376 172.532  1.00  0.00     0.047 A 
ATOM      5  C   UNL     1      39.240 180.218 174.615  1.00  0.00     0.047 A 
ATOM      6  C   UNL     1      40.147 180.772 173.705  1.00  0.00     0.118 A 
ENDROOT
BRANCH   1   7
ATOM      7  C   UNL     1      35.919 180.916 172.927  1.00  0.00     0.071 C 
ATOM      8  O   UNL     1      35.186 179.923 173.179  1.00  0.00    -0.545 OA
ATOM      9  O   UNL     1      35.340 182.061 172.389  1.00  0.00    -0.545 OA
ENDBRANCH   1   7
BRANCH   6  10
ATOM     10  O   UNL     1      41.517 180.701 174.001  1.00  0.00    -0.497 OA
ATOM     11  C   UNL     1      42.382 179.660 173.560  1.00  0.00     0.278 C 
ENDBRANCH   6  10
TORSDOF 2
ENDMDL
MODEL 8
REMARK VINA RESULT:    -3.212      2.701      4.043
REMARK INTER + INTRA:          -3.650
REMARK INTER:                  -3.599
REMARK INTRA:                  -0.052
REMARK UNBOUND:                -0.063
REMARK SMILES COc1ccc(C(=O)[O-])cc1
REMARK SMILES IDX 6 1 5 2 10 3 4 4 11 5 3 6 7 7 8 8 9 9 2 10 1 11
REMARK H PARENT
REMARK Flexibility Score: inf
ROOT
ATOM      1  C   UNL     1      37.507 181.405 172.905  1.00  0.00    -0.003 A 
ATOM      2  C   UNL     1      36.619 180.671 173.709  1.00  0.00     0.014 A 
ATOM      3  C   UNL     1      37.033 181.973 171.709  1.00  0.00     0.014 A 
ATOM      4  C   UNL     1      35.284 180.507 173.325  1.00  0.00     0.047 A 
ATOM      5  C   UNL     1      35.698 181.809 171.328  1.00  0.00     0.047 A 
ATOM      6  C   UNL     1      34.814 181.078 172.128  1.00  0.00     0.118 A 
ENDROOT
BRANCH   1   7
ATOM      7  C   UNL     1      38.918 181.576 173.313  1.00  0.00     0.071 C 
ATOM      8  O   UNL     1      39.276 182.585 173.979  1.00  0.00    -0.545 OA
ATOM      9  O   UNL     1      39.873 180.625 172.968  1.00  0.00    -0.545 OA
ENDBRANCH   1   7
BRANCH   6  10
ATOM     10  O   UNL     1      33.484 180.941 171.701  1.00  0.00    -0.497 OA
ATOM     11  C   UNL     1      33.041 179.982 170.747  1.00  0.00     0.278 C 
ENDBRANCH   6  10
TORSDOF 2
ENDMDL
MODEL 9
REMARK VINA RESULT:    -2.764      0.096      1.463
REMARK INTER + INTRA:          -3.150
REMARK INTER:                  -3.091
REMARK INTRA:                  -0.059
REMARK UNBOUND:                -0.063
REMARK SMILES COc1ccc(C(=O)[O-])cc1
REMARK SMILES IDX 6 1 5 2 10 3 4 4 11 5 3 6 7 7 8 8 9 9 2 10 1 11
REMARK H PARENT
REMARK Flexibility Score: inf
ROOT
ATOM      1  C   UNL     1      40.859 180.717 173.710  1.00  0.00    -0.003 A 
ATOM      2  C   UNL     1      39.838 180.236 172.873  1.00  0.00     0.014 A 
ATOM      3  C   UNL     1      40.711 181.981 174.308  1.00  0.00     0.014 A 
ATOM      4  C   UNL     1      38.692 181.003 172.639  1.00  0.00     0.047 A 
ATOM      5  C   UNL     1      39.564 182.745 174.073  1.00  0.00     0.047 A 
ATOM      6  C   UNL     1      38.547 182.266 173.240  1.00  0.00     0.118 A 
ENDROOT
BRANCH   1   7
ATOM      7  C   UNL     1      42.070 179.904 173.955  1.00  0.00     0.071 C 
ATOM      8  O   UNL     1      42.385 179.559 175.125  1.00  0.00    -0.545 OA
ATOM      9  O   UNL     1      42.880 179.508 172.895  1.00  0.00    -0.545 OA
ENDBRANCH   1   7
BRANCH   6  10
ATOM     10  O   UNL     1      37.417 183.073 173.036  1.00  0.00    -0.497 OA
ATOM     11  C   UNL     1      36.505 182.919 171.954  1.00  0.00     0.278 C 
ENDBRANCH   6  10
TORSDOF 2
ENDMDL
