MODEL 1
REMARK VINA RESULT:    -4.634      0.000      0.000
REMARK INTER + INTRA:         -11.157
REMARK INTER:                  -8.969
REMARK INTRA:                  -2.188
REMARK UNBOUND:                -2.188
REMARK SMILES CCCCCCCCCCCCCCCCCC(=O)[O-]
REMARK SMILES IDX 10 1 11 2 12 3 13 4 14 5 15 6 16 7 17 8 18 9 19 10 20 11
REMARK SMILES IDX 9 12 8 13 7 14 6 15 5 16 4 17 3 18 2 19 1 20
REMARK H PARENT
REMARK Flexibility Score: inf
ROOT
ATOM      1  C   UNL     1       1.570  51.566  22.310  1.00  0.00     0.000 C 
ENDROOT
BRANCH   1   2
ATOM      2  C   UNL     1       2.813  52.038  23.082  1.00  0.00     0.000 C 
BRANCH   2   3
ATOM      3  C   UNL     1       2.631  51.945  24.607  1.00  0.00     0.000 C 
BRANCH   3   4
ATOM      4  C   UNL     1       1.209  51.514  25.013  1.00  0.00     0.000 C 
BRANCH   4   5
ATOM      5  C   UNL     1       1.114  50.137  25.697  1.00  0.00     0.000 C 
BRANCH   5   6
ATOM      6  C   UNL     1       2.371  49.256  25.569  1.00  0.00     0.000 C 
BRANCH   6   7
ATOM      7  C   UNL     1       2.700  48.452  26.844  1.00  0.00     0.006 C 
BRANCH   7   8
ATOM      8  C   UNL     1       3.809  49.104  27.680  1.00  0.00     0.053 C 
BRANCH   8   9
ATOM      9  C   UNL     1       3.230  49.767  28.890  1.00  0.00     0.041 C 
ATOM     10  O   UNL     1       3.941  50.528  29.597  1.00  0.00    -0.550 OA
ATOM     11  O   UNL     1       1.891  49.583  29.209  1.00  0.00    -0.550 OA
ENDBRANCH   8   9
ENDBRANCH   7   8
ENDBRANCH   6   7
ENDBRANCH   5   6
ENDBRANCH   4   5
ENDBRANCH   3   4
ENDBRANCH   2   3
ENDBRANCH   1   2
BRANCH   1  12
ATOM     12  C   UNL     1       1.895  50.460  21.290  1.00  0.00     0.000 C 
BRANCH  12  13
ATOM     13  C   UNL     1       2.119  49.092  21.954  1.00  0.00    -0.000 C 
BRANCH  13  14
ATOM     14  C   UNL     1       0.969  48.107  21.688  1.00  0.00    -0.000 C 
BRANCH  14  15
ATOM     15  C   UNL     1       0.024  48.029  22.896  1.00  0.00    -0.000 C 
BRANCH  15  16
ATOM     16  C   UNL     1      -0.464  46.599  23.175  1.00  0.00    -0.000 C 
BRANCH  16  17
ATOM     17  C   UNL     1      -0.504  46.266  24.677  1.00  0.00    -0.000 C 
BRANCH  17  18
ATOM     18  C   UNL     1      -1.239  47.350  25.493  1.00  0.00    -0.000 C 
BRANCH  18  19
ATOM     19  C   UNL     1      -2.667  46.951  25.902  1.00  0.00    -0.003 C 
ATOM     20  C   UNL     1      -3.020  47.369  27.327  1.00  0.00     0.004 C 
ENDBRANCH  18  19
ENDBRANCH  17  18
ENDBRANCH  16  17
ENDBRANCH  15  16
ENDBRANCH  14  15
ENDBRANCH  13  14
ENDBRANCH  12  13
ENDBRANCH   1  12
TORSDOF 16
ENDMDL
MODEL 2
REMARK VINA RESULT:    -4.431      4.613      7.729
REMARK INTER + INTRA:         -10.763
REMARK INTER:                  -9.319
REMARK INTRA:                  -1.444
REMARK UNBOUND:                -2.188
REMARK SMILES CCCCCCCCCCCCCCCCCC(=O)[O-]
REMARK SMILES IDX 10 1 11 2 12 3 13 4 14 5 15 6 16 7 17 8 18 9 19 10 20 11
REMARK SMILES IDX 9 12 8 13 7 14 6 15 5 16 4 17 3 18 2 19 1 20
REMARK H PARENT
REMARK Flexibility Score: inf
ROOT
ATOM      1  C   UNL     1       0.170  48.043  22.857  1.00  0.00     0.000 C 
ENDROOT
BRANCH   1   2
ATOM      2  C   UNL     1      -0.492  46.677  23.098  1.00  0.00     0.000 C 
BRANCH   2   3
ATOM      3  C   UNL     1      -0.720  46.388  24.592  1.00  0.00     0.000 C 
BRANCH   3   4
ATOM      4  C   UNL     1      -2.212  46.255  24.954  1.00  0.00     0.000 C 
BRANCH   4   5
ATOM      5  C   UNL     1      -2.944  45.078  24.283  1.00  0.00     0.000 C 
BRANCH   5   6
ATOM      6  C   UNL     1      -4.470  45.053  24.494  1.00  0.00     0.000 C 
BRANCH   6   7
ATOM      7  C   UNL     1      -5.194  43.967  23.671  1.00  0.00     0.006 C 
BRANCH   7   8
ATOM      8  C   UNL     1      -5.862  42.907  24.555  1.00  0.00     0.053 C 
BRANCH   8   9
ATOM      9  C   UNL     1      -7.335  43.153  24.645  1.00  0.00     0.041 C 
ATOM     10  O   UNL     1      -7.966  43.594  23.649  1.00  0.00    -0.550 OA
ATOM     11  O   UNL     1      -8.021  42.849  25.814  1.00  0.00    -0.550 OA
ENDBRANCH   8   9
ENDBRANCH   7   8
ENDBRANCH   6   7
ENDBRANCH   5   6
ENDBRANCH   4   5
ENDBRANCH   3   4
ENDBRANCH   2   3
ENDBRANCH   1   2
BRANCH   1  12
ATOM     12  C   UNL     1       1.116  48.033  21.643  1.00  0.00     0.000 C 
BRANCH  12  13
ATOM     13  C   UNL     1       2.139  49.179  21.681  1.00  0.00    -0.000 C 
BRANCH  13  14
ATOM     14  C   UNL     1       1.535  50.529  21.262  1.00  0.00    -0.000 C 
BRANCH  14  15
ATOM     15  C   UNL     1       1.386  51.462  22.473  1.00  0.00    -0.000 C 
BRANCH  15  16
ATOM     16  C   UNL     1       2.709  51.672  23.226  1.00  0.00    -0.000 C 
BRANCH  16  17
ATOM     17  C   UNL     1       2.570  51.463  24.744  1.00  0.00    -0.000 C 
BRANCH  17  18
ATOM     18  C   UNL     1       2.356  49.979  25.109  1.00  0.00    -0.000 C 
BRANCH  18  19
ATOM     19  C   UNL     1       1.338  49.764  26.241  1.00  0.00    -0.003 C 
ATOM     20  C   UNL     1      -0.101  50.051  25.816  1.00  0.00     0.004 C 
ENDBRANCH  18  19
ENDBRANCH  17  18
ENDBRANCH  16  17
ENDBRANCH  15  16
ENDBRANCH  14  15
ENDBRANCH  13  14
ENDBRANCH  12  13
ENDBRANCH   1  12
TORSDOF 16
ENDMDL
MODEL 3
REMARK VINA RESULT:    -4.331      4.171      7.517
REMARK INTER + INTRA:         -10.570
REMARK INTER:                  -9.236
REMARK INTRA:                  -1.334
REMARK UNBOUND:                -2.188
REMARK SMILES CCCCCCCCCCCCCCCCCC(=O)[O-]
REMARK SMILES IDX 10 1 11 2 12 3 13 4 14 5 15 6 16 7 17 8 18 9 19 10 20 11
REMARK SMILES IDX 9 12 8 13 7 14 6 15 5 16 4 17 3 18 2 19 1 20
REMARK H PARENT
REMARK Flexibility Score: inf
ROOT
ATOM      1  C   UNL     1      -0.505  46.736  23.074  1.00  0.00     0.000 C 
ENDROOT
BRANCH   1   2
ATOM      2  C   UNL     1      -0.530  46.279  24.542  1.00  0.00     0.000 C 
BRANCH   2   3
ATOM      3  C   UNL     1      -1.521  47.089  25.395  1.00  0.00     0.000 C 
BRANCH   3   4
ATOM      4  C   UNL     1      -2.915  47.200  24.748  1.00  0.00     0.000 C 
BRANCH   4   5
ATOM      5  C   UNL     1      -3.985  46.263  25.337  1.00  0.00     0.000 C 
BRANCH   5   6
ATOM      6  C   UNL     1      -4.365  45.064  24.446  1.00  0.00     0.000 C 
BRANCH   6   7
ATOM      7  C   UNL     1      -5.726  44.430  24.805  1.00  0.00     0.006 C 
BRANCH   7   8
ATOM      8  C   UNL     1      -6.557  45.314  25.743  1.00  0.00     0.053 C 
BRANCH   8   9
ATOM      9  C   UNL     1      -7.496  44.478  26.554  1.00  0.00     0.041 C 
ATOM     10  O   UNL     1      -7.854  44.857  27.700  1.00  0.00    -0.550 OA
ATOM     11  O   UNL     1      -8.014  43.303  26.025  1.00  0.00    -0.550 OA
ENDBRANCH   8   9
ENDBRANCH   7   8
ENDBRANCH   6   7
ENDBRANCH   5   6
ENDBRANCH   4   5
ENDBRANCH   3   4
ENDBRANCH   2   3
ENDBRANCH   1   2
BRANCH   1  12
ATOM     12  C   UNL     1       0.274  48.050  22.880  1.00  0.00     0.000 C 
BRANCH  12  13
ATOM     13  C   UNL     1       1.118  48.052  21.596  1.00  0.00    -0.000 C 
BRANCH  13  14
ATOM     14  C   UNL     1       2.201  49.142  21.598  1.00  0.00    -0.000 C 
BRANCH  14  15
ATOM     15  C   UNL     1       1.572  50.540  21.681  1.00  0.00    -0.000 C 
BRANCH  15  16
ATOM     16  C   UNL     1       2.263  51.441  22.716  1.00  0.00    -0.000 C 
BRANCH  16  17
ATOM     17  C   UNL     1       1.616  51.351  24.109  1.00  0.00    -0.000 C 
BRANCH  17  18
ATOM     18  C   UNL     1       2.588  50.787  25.167  1.00  0.00    -0.000 C 
BRANCH  18  19
ATOM     19  C   UNL     1       2.326  49.314  25.522  1.00  0.00    -0.003 C 
ATOM     20  C   UNL     1       3.099  48.849  26.754  1.00  0.00     0.004 C 
ENDBRANCH  18  19
ENDBRANCH  17  18
ENDBRANCH  16  17
ENDBRANCH  15  16
ENDBRANCH  14  15
ENDBRANCH  13  14
ENDBRANCH  12  13
ENDBRANCH   1  12
TORSDOF 16
ENDMDL
MODEL 4
REMARK VINA RESULT:    -4.326      3.244      5.988
REMARK INTER + INTRA:         -10.560
REMARK INTER:                  -8.822
REMARK INTRA:                  -1.739
REMARK UNBOUND:                -2.188
REMARK SMILES CCCCCCCCCCCCCCCCCC(=O)[O-]
REMARK SMILES IDX 10 1 11 2 12 3 13 4 14 5 15 6 16 7 17 8 18 9 19 10 20 11
REMARK SMILES IDX 9 12 8 13 7 14 6 15 5 16 4 17 3 18 2 19 1 20
REMARK H PARENT
REMARK Flexibility Score: inf
ROOT
ATOM      1  C   UNL     1       1.041  50.687  22.012  1.00  0.00     0.000 C 
ENDROOT
BRANCH   1   2
ATOM      2  C   UNL     1       1.641  49.501  21.238  1.00  0.00     0.000 C 
BRANCH   2   3
ATOM      3  C   UNL     1       1.030  48.153  21.658  1.00  0.00     0.000 C 
BRANCH   3   4
ATOM      4  C   UNL     1       0.247  48.238  22.983  1.00  0.00     0.000 C 
BRANCH   4   5
ATOM      5  C   UNL     1      -0.510  46.956  23.378  1.00  0.00     0.000 C 
BRANCH   5   6
ATOM      6  C   UNL     1      -0.498  46.629  24.883  1.00  0.00     0.000 C 
BRANCH   6   7
ATOM      7  C   UNL     1      -1.882  46.748  25.555  1.00  0.00     0.006 C 
BRANCH   7   8
ATOM      8  C   UNL     1      -3.028  46.803  24.536  1.00  0.00     0.053 C 
BRANCH   8   9
ATOM      9  C   UNL     1      -3.743  45.491  24.483  1.00  0.00     0.041 C 
ATOM     10  O   UNL     1      -3.110  44.433  24.226  1.00  0.00    -0.550 OA
ATOM     11  O   UNL     1      -5.102  45.428  24.764  1.00  0.00    -0.550 OA
ENDBRANCH   8   9
ENDBRANCH   7   8
ENDBRANCH   6   7
ENDBRANCH   5   6
ENDBRANCH   4   5
ENDBRANCH   3   4
ENDBRANCH   2   3
ENDBRANCH   1   2
BRANCH   1  12
ATOM     12  C   UNL     1       1.396  52.044  21.378  1.00  0.00     0.000 C 
BRANCH  12  13
ATOM     13  C   UNL     1       1.842  53.083  22.418  1.00  0.00    -0.000 C 
BRANCH  13  14
ATOM     14  C   UNL     1       3.183  52.726  23.079  1.00  0.00    -0.000 C 
BRANCH  14  15
ATOM     15  C   UNL     1       3.083  52.824  24.609  1.00  0.00    -0.000 C 
BRANCH  15  16
ATOM     16  C   UNL     1       1.714  52.378  25.143  1.00  0.00    -0.000 C 
BRANCH  16  17
ATOM     17  C   UNL     1       1.813  51.189  26.115  1.00  0.00    -0.000 C 
BRANCH  17  18
ATOM     18  C   UNL     1       2.402  49.933  25.438  1.00  0.00    -0.000 C 
BRANCH  18  19
ATOM     19  C   UNL     1       2.550  48.733  26.389  1.00  0.00    -0.003 C 
ATOM     20  C   UNL     1       3.706  48.889  27.374  1.00  0.00     0.004 C 
ENDBRANCH  18  19
ENDBRANCH  17  18
ENDBRANCH  16  17
ENDBRANCH  15  16
ENDBRANCH  14  15
ENDBRANCH  13  14
ENDBRANCH  12  13
ENDBRANCH   1  12
TORSDOF 16
ENDMDL
MODEL 5
REMARK VINA RESULT:    -4.308      2.570      5.471
REMARK INTER + INTRA:         -10.526
REMARK INTER:                  -8.450
REMARK INTRA:                  -2.076
REMARK UNBOUND:                -2.188
REMARK SMILES CCCCCCCCCCCCCCCCCC(=O)[O-]
REMARK SMILES IDX 10 1 11 2 12 3 13 4 14 5 15 6 16 7 17 8 18 9 19 10 20 11
REMARK SMILES IDX 9 12 8 13 7 14 6 15 5 16 4 17 3 18 2 19 1 20
REMARK H PARENT
REMARK Flexibility Score: inf
ROOT
ATOM      1  C   UNL     1       0.349  52.813  22.087  1.00  0.00     0.000 C 
ENDROOT
BRANCH   1   2
ATOM      2  C   UNL     1       0.240  51.279  22.083  1.00  0.00     0.000 C 
BRANCH   2   3
ATOM      3  C   UNL     1       1.395  50.608  21.321  1.00  0.00     0.000 C 
BRANCH   3   4
ATOM      4  C   UNL     1       1.396  49.075  21.466  1.00  0.00     0.000 C 
BRANCH   4   5
ATOM      5  C   UNL     1       0.920  48.548  22.833  1.00  0.00     0.000 C 
BRANCH   5   6
ATOM      6  C   UNL     1      -0.016  47.326  22.772  1.00  0.00     0.000 C 
BRANCH   6   7
ATOM      7  C   UNL     1      -0.561  46.891  24.149  1.00  0.00     0.006 C 
BRANCH   7   8
ATOM      8  C   UNL     1      -1.676  45.843  24.035  1.00  0.00     0.053 C 
BRANCH   8   9
ATOM      9  C   UNL     1      -2.777  46.144  25.002  1.00  0.00     0.041 C 
ATOM     10  O   UNL     1      -2.558  46.871  26.006  1.00  0.00    -0.550 OA
ATOM     11  O   UNL     1      -4.058  45.660  24.768  1.00  0.00    -0.550 OA
ENDBRANCH   8   9
ENDBRANCH   7   8
ENDBRANCH   6   7
ENDBRANCH   5   6
ENDBRANCH   4   5
ENDBRANCH   3   4
ENDBRANCH   2   3
ENDBRANCH   1   2
BRANCH   1  12
ATOM     12  C   UNL     1       1.662  53.312  21.455  1.00  0.00     0.000 C 
BRANCH  12  13
ATOM     13  C   UNL     1       2.604  53.958  22.483  1.00  0.00    -0.000 C 
BRANCH  13  14
ATOM     14  C   UNL     1       3.464  52.927  23.231  1.00  0.00    -0.000 C 
BRANCH  14  15
ATOM     15  C   UNL     1       2.851  52.591  24.599  1.00  0.00    -0.000 C 
BRANCH  15  16
ATOM     16  C   UNL     1       2.659  51.081  24.807  1.00  0.00    -0.000 C 
BRANCH  16  17
ATOM     17  C   UNL     1       1.379  50.747  25.593  1.00  0.00    -0.000 C 
BRANCH  17  18
ATOM     18  C   UNL     1       1.523  49.450  26.417  1.00  0.00    -0.000 C 
BRANCH  18  19
ATOM     19  C   UNL     1       2.954  48.889  26.437  1.00  0.00    -0.003 C 
ATOM     20  C   UNL     1       3.652  49.076  27.782  1.00  0.00     0.004 C 
ENDBRANCH  18  19
ENDBRANCH  17  18
ENDBRANCH  16  17
ENDBRANCH  15  16
ENDBRANCH  14  15
ENDBRANCH  13  14
ENDBRANCH  12  13
ENDBRANCH   1  12
TORSDOF 16
ENDMDL
MODEL 6
REMARK VINA RESULT:    -4.302      1.758      3.289
REMARK INTER + INTRA:         -10.514
REMARK INTER:                  -8.746
REMARK INTRA:                  -1.768
REMARK UNBOUND:                -2.188
REMARK SMILES CCCCCCCCCCCCCCCCCC(=O)[O-]
REMARK SMILES IDX 10 1 11 2 12 3 13 4 14 5 15 6 16 7 17 8 18 9 19 10 20 11
REMARK SMILES IDX 9 12 8 13 7 14 6 15 5 16 4 17 3 18 2 19 1 20
REMARK H PARENT
REMARK Flexibility Score: inf
ROOT
ATOM      1  C   UNL     1       1.131  48.042  21.659  1.00  0.00     0.000 C 
ENDROOT
BRANCH   1   2
ATOM      2  C   UNL     1       2.098  49.238  21.629  1.00  0.00     0.000 C 
BRANCH   2   3
ATOM      3  C   UNL     1       1.365  50.589  21.672  1.00  0.00     0.000 C 
BRANCH   3   4
ATOM      4  C   UNL     1       1.881  51.513  22.792  1.00  0.00     0.000 C 
BRANCH   4   5
ATOM      5  C   UNL     1       1.101  51.432  24.117  1.00  0.00     0.000 C 
BRANCH   5   6
ATOM      6  C   UNL     1       1.947  51.067  25.352  1.00  0.00     0.000 C 
BRANCH   6   7
ATOM      7  C   UNL     1       2.454  49.609  25.350  1.00  0.00     0.006 C 
BRANCH   7   8
ATOM      8  C   UNL     1       1.656  48.709  26.303  1.00  0.00     0.053 C 
BRANCH   8   9
ATOM      9  C   UNL     1       2.100  48.920  27.716  1.00  0.00     0.041 C 
ATOM     10  O   UNL     1       3.319  48.832  28.017  1.00  0.00    -0.550 OA
ATOM     11  O   UNL     1       1.173  49.263  28.692  1.00  0.00    -0.550 OA
ENDBRANCH   8   9
ENDBRANCH   7   8
ENDBRANCH   6   7
ENDBRANCH   5   6
ENDBRANCH   4   5
ENDBRANCH   3   4
ENDBRANCH   2   3
ENDBRANCH   1   2
BRANCH   1  12
ATOM     12  C   UNL     1       0.174  48.090  22.863  1.00  0.00     0.000 C 
BRANCH  12  13
ATOM     13  C   UNL     1      -0.537  46.749  23.106  1.00  0.00    -0.000 C 
BRANCH  13  14
ATOM     14  C   UNL     1      -1.075  46.612  24.539  1.00  0.00    -0.000 C 
BRANCH  14  15
ATOM     15  C   UNL     1      -2.570  46.960  24.600  1.00  0.00    -0.000 C 
BRANCH  15  16
ATOM     16  C   UNL     1      -3.223  46.540  25.926  1.00  0.00    -0.000 C 
BRANCH  16  17
ATOM     17  C   UNL     1      -4.675  46.064  25.749  1.00  0.00    -0.000 C 
BRANCH  17  18
ATOM     18  C   UNL     1      -4.989  45.684  24.286  1.00  0.00    -0.000 C 
BRANCH  18  19
ATOM     19  C   UNL     1      -5.045  44.167  24.043  1.00  0.00    -0.003 C 
ATOM     20  C   UNL     1      -3.686  43.567  23.687  1.00  0.00     0.004 C 
ENDBRANCH  18  19
ENDBRANCH  17  18
ENDBRANCH  16  17
ENDBRANCH  15  16
ENDBRANCH  14  15
ENDBRANCH  13  14
ENDBRANCH  12  13
ENDBRANCH   1  12
TORSDOF 16
ENDMDL
MODEL 7
REMARK VINA RESULT:    -4.277      2.477      5.795
REMARK INTER + INTRA:         -10.465
REMARK INTER:                  -8.911
REMARK INTRA:                  -1.554
REMARK UNBOUND:                -2.188
REMARK SMILES CCCCCCCCCCCCCCCCCC(=O)[O-]
REMARK SMILES IDX 10 1 11 2 12 3 13 4 14 5 15 6 16 7 17 8 18 9 19 10 20 11
REMARK SMILES IDX 9 12 8 13 7 14 6 15 5 16 4 17 3 18 2 19 1 20
REMARK H PARENT
REMARK Flexibility Score: inf
ROOT
ATOM      1  C   UNL     1       1.354  51.636  23.004  1.00  0.00     0.000 C 
ENDROOT
BRANCH   1   2
ATOM      2  C   UNL     1       1.634  50.897  21.685  1.00  0.00     0.000 C 
BRANCH   2   3
ATOM      3  C   UNL     1       2.111  49.452  21.908  1.00  0.00     0.000 C 
BRANCH   3   4
ATOM      4  C   UNL     1       0.987  48.416  21.716  1.00  0.00     0.000 C 
BRANCH   4   5
ATOM      5  C   UNL     1       0.176  48.089  22.984  1.00  0.00     0.000 C 
BRANCH   5   6
ATOM      6  C   UNL     1      -0.484  46.697  22.996  1.00  0.00     0.000 C 
BRANCH   6   7
ATOM      7  C   UNL     1      -0.820  46.180  24.411  1.00  0.00     0.006 C 
BRANCH   7   8
ATOM      8  C   UNL     1      -2.201  45.514  24.481  1.00  0.00     0.053 C 
BRANCH   8   9
ATOM      9  C   UNL     1      -3.182  46.416  25.160  1.00  0.00     0.041 C 
ATOM     10  O   UNL     1      -4.259  46.726  24.587  1.00  0.00    -0.550 OA
ATOM     11  O   UNL     1      -2.930  46.875  26.446  1.00  0.00    -0.550 OA
ENDBRANCH   8   9
ENDBRANCH   7   8
ENDBRANCH   6   7
ENDBRANCH   5   6
ENDBRANCH   4   5
ENDBRANCH   3   4
ENDBRANCH   2   3
ENDBRANCH   1   2
BRANCH   1  12
ATOM     12  C   UNL     1       2.623  51.824  23.854  1.00  0.00     0.000 C 
BRANCH  12  13
ATOM     13  C   UNL     1       2.346  51.714  25.362  1.00  0.00    -0.000 C 
BRANCH  13  14
ATOM     14  C   UNL     1       1.562  50.444  25.730  1.00  0.00    -0.000 C 
BRANCH  14  15
ATOM     15  C   UNL     1       2.419  49.188  25.514  1.00  0.00    -0.000 C 
BRANCH  15  16
ATOM     16  C   UNL     1       2.695  48.427  26.819  1.00  0.00    -0.000 C 
BRANCH  16  17
ATOM     17  C   UNL     1       3.750  49.120  27.700  1.00  0.00    -0.000 C 
BRANCH  17  18
ATOM     18  C   UNL     1       3.186  49.515  29.081  1.00  0.00    -0.000 C 
BRANCH  18  19
ATOM     19  C   UNL     1       3.736  50.850  29.612  1.00  0.00    -0.003 C 
ATOM     20  C   UNL     1       3.638  50.976  31.130  1.00  0.00     0.004 C 
ENDBRANCH  18  19
ENDBRANCH  17  18
ENDBRANCH  16  17
ENDBRANCH  15  16
ENDBRANCH  14  15
ENDBRANCH  13  14
ENDBRANCH  12  13
ENDBRANCH   1  12
TORSDOF 16
ENDMDL
MODEL 8
REMARK VINA RESULT:    -4.266      1.162      2.417
REMARK INTER + INTRA:         -10.444
REMARK INTER:                  -8.352
REMARK INTRA:                  -2.093
REMARK UNBOUND:                -2.188
REMARK SMILES CCCCCCCCCCCCCCCCCC(=O)[O-]
REMARK SMILES IDX 10 1 11 2 12 3 13 4 14 5 15 6 16 7 17 8 18 9 19 10 20 11
REMARK SMILES IDX 9 12 8 13 7 14 6 15 5 16 4 17 3 18 2 19 1 20
REMARK H PARENT
REMARK Flexibility Score: inf
ROOT
ATOM      1  C   UNL     1       1.751  49.551  21.625  1.00  0.00     0.000 C 
ENDROOT
BRANCH   1   2
ATOM      2  C   UNL     1       0.688  50.643  21.839  1.00  0.00     0.000 C 
BRANCH   2   3
ATOM      3  C   UNL     1       1.297  51.974  22.311  1.00  0.00     0.000 C 
BRANCH   3   4
ATOM      4  C   UNL     1       2.708  51.808  22.906  1.00  0.00     0.000 C 
BRANCH   4   5
ATOM      5  C   UNL     1       2.798  51.988  24.433  1.00  0.00     0.000 C 
BRANCH   5   6
ATOM      6  C   UNL     1       1.934  51.015  25.257  1.00  0.00     0.000 C 
BRANCH   6   7
ATOM      7  C   UNL     1       2.481  49.572  25.290  1.00  0.00     0.006 C 
BRANCH   7   8
ATOM      8  C   UNL     1       1.779  48.701  26.340  1.00  0.00     0.053 C 
BRANCH   8   9
ATOM      9  C   UNL     1       2.456  48.834  27.667  1.00  0.00     0.041 C 
ATOM     10  O   UNL     1       1.780  48.812  28.729  1.00  0.00    -0.550 OA
ATOM     11  O   UNL     1       3.840  48.934  27.735  1.00  0.00    -0.550 OA
ENDBRANCH   8   9
ENDBRANCH   7   8
ENDBRANCH   6   7
ENDBRANCH   5   6
ENDBRANCH   4   5
ENDBRANCH   3   4
ENDBRANCH   2   3
ENDBRANCH   1   2
BRANCH   1  12
ATOM     12  C   UNL     1       1.165  48.131  21.728  1.00  0.00     0.000 C 
BRANCH  12  13
ATOM     13  C   UNL     1       0.106  48.008  22.835  1.00  0.00    -0.000 C 
BRANCH  13  14
ATOM     14  C   UNL     1      -0.407  46.570  23.009  1.00  0.00    -0.000 C 
BRANCH  14  15
ATOM     15  C   UNL     1      -0.906  46.335  24.442  1.00  0.00    -0.000 C 
BRANCH  15  16
ATOM     16  C   UNL     1      -2.284  45.656  24.487  1.00  0.00    -0.000 C 
BRANCH  16  17
ATOM     17  C   UNL     1      -3.350  46.518  25.186  1.00  0.00    -0.000 C 
BRANCH  17  18
ATOM     18  C   UNL     1      -2.795  47.224  26.442  1.00  0.00    -0.000 C 
BRANCH  18  19
ATOM     19  C   UNL     1      -2.899  48.757  26.383  1.00  0.00    -0.003 C 
ATOM     20  C   UNL     1      -1.712  49.462  27.036  1.00  0.00     0.004 C 
ENDBRANCH  18  19
ENDBRANCH  17  18
ENDBRANCH  16  17
ENDBRANCH  15  16
ENDBRANCH  14  15
ENDBRANCH  13  14
ENDBRANCH  12  13
ENDBRANCH   1  12
TORSDOF 16
ENDMDL
MODEL 9
REMARK VINA RESULT:    -4.263      1.184      2.254
REMARK INTER + INTRA:         -10.438
REMARK INTER:                  -8.170
REMARK INTRA:                  -2.268
REMARK UNBOUND:                -2.188
REMARK SMILES CCCCCCCCCCCCCCCCCC(=O)[O-]
REMARK SMILES IDX 10 1 11 2 12 3 13 4 14 5 15 6 16 7 17 8 18 9 19 10 20 11
REMARK SMILES IDX 9 12 8 13 7 14 6 15 5 16 4 17 3 18 2 19 1 20
REMARK H PARENT
REMARK Flexibility Score: inf
ROOT
ATOM      1  C   UNL     1       1.308  53.722  22.733  1.00  0.00     0.000 C 
ENDROOT
BRANCH   1   2
ATOM      2  C   UNL     1       2.830  53.913  22.621  1.00  0.00     0.000 C 
BRANCH   2   3
ATOM      3  C   UNL     1       3.615  52.930  23.506  1.00  0.00     0.000 C 
BRANCH   3   4
ATOM      4  C   UNL     1       2.828  52.493  24.757  1.00  0.00     0.000 C 
BRANCH   4   5
ATOM      5  C   UNL     1       2.685  50.970  24.939  1.00  0.00     0.000 C 
BRANCH   5   6
ATOM      6  C   UNL     1       1.321  50.504  25.485  1.00  0.00     0.000 C 
BRANCH   6   7
ATOM      7  C   UNL     1       1.388  49.177  26.271  1.00  0.00     0.006 C 
BRANCH   7   8
ATOM      8  C   UNL     1       0.836  49.312  27.697  1.00  0.00     0.053 C 
BRANCH   8   9
ATOM      9  C   UNL     1       1.944  49.209  28.697  1.00  0.00     0.041 C 
ATOM     10  O   UNL     1       3.137  49.095  28.312  1.00  0.00    -0.550 OA
ATOM     11  O   UNL     1       1.663  49.290  30.055  1.00  0.00    -0.550 OA
ENDBRANCH   8   9
ENDBRANCH   7   8
ENDBRANCH   6   7
ENDBRANCH   5   6
ENDBRANCH   4   5
ENDBRANCH   3   4
ENDBRANCH   2   3
ENDBRANCH   1   2
BRANCH   1  12
ATOM     12  C   UNL     1       0.732  52.893  21.571  1.00  0.00     0.000 C 
BRANCH  12  13
ATOM     13  C   UNL     1       0.667  51.391  21.892  1.00  0.00    -0.000 C 
BRANCH  13  14
ATOM     14  C   UNL     1       1.770  50.585  21.187  1.00  0.00    -0.000 C 
BRANCH  14  15
ATOM     15  C   UNL     1       2.094  49.302  21.967  1.00  0.00    -0.000 C 
BRANCH  15  16
ATOM     16  C   UNL     1       1.040  48.202  21.762  1.00  0.00    -0.000 C 
BRANCH  16  17
ATOM     17  C   UNL     1       0.062  48.088  22.945  1.00  0.00    -0.000 C 
BRANCH  17  18
ATOM     18  C   UNL     1      -0.484  46.654  23.111  1.00  0.00    -0.000 C 
BRANCH  18  19
ATOM     19  C   UNL     1      -0.630  46.217  24.578  1.00  0.00    -0.003 C 
ATOM     20  C   UNL     1      -1.573  47.113  25.379  1.00  0.00     0.004 C 
ENDBRANCH  18  19
ENDBRANCH  17  18
ENDBRANCH  16  17
ENDBRANCH  15  16
ENDBRANCH  14  15
ENDBRANCH  13  14
ENDBRANCH  12  13
ENDBRANCH   1  12
TORSDOF 16
ENDMDL
