MODEL 1
REMARK VINA RESULT:    -3.550      0.000      0.000
REMARK INTER + INTRA:          -4.438
REMARK INTER:                  -4.380
REMARK INTRA:                  -0.057
REMARK UNBOUND:                -0.057
REMARK SMILES CCCCCC(=O)[O-]
REMARK SMILES IDX 4 1 5 2 6 3 7 4 8 5 3 6 2 7 1 8
REMARK H PARENT
REMARK Flexibility Score: inf
ROOT
ATOM      1  C   UNL     1       0.637   2.482   6.404  1.00  0.00     0.006 C 
ENDROOT
BRANCH   1   2
ATOM      2  C   UNL     1      -0.848   2.752   6.680  1.00  0.00     0.053 C 
BRANCH   2   3
ATOM      3  C   UNL     1      -1.672   2.656   5.433  1.00  0.00     0.041 C 
ATOM      4  O   UNL     1      -2.799   2.097   5.458  1.00  0.00    -0.550 OA
ATOM      5  O   UNL     1      -1.206   3.211   4.248  1.00  0.00    -0.550 OA
ENDBRANCH   2   3
ENDBRANCH   1   2
BRANCH   1   6
ATOM      6  C   UNL     1       1.194   1.348   7.282  1.00  0.00     0.000 C 
BRANCH   6   7
ATOM      7  C   UNL     1       2.420   0.667   6.656  1.00  0.00    -0.003 C 
ATOM      8  C   UNL     1       2.144  -0.776   6.232  1.00  0.00     0.004 C 
ENDBRANCH   6   7
ENDBRANCH   1   6
TORSDOF 4
ENDMDL
MODEL 2
REMARK VINA RESULT:    -3.443      2.769      5.323
REMARK INTER + INTRA:          -4.306
REMARK INTER:                  -4.147
REMARK INTRA:                  -0.159
REMARK UNBOUND:                -0.057
REMARK SMILES CCCCCC(=O)[O-]
REMARK SMILES IDX 4 1 5 2 6 3 7 4 8 5 3 6 2 7 1 8
REMARK H PARENT
REMARK Flexibility Score: inf
ROOT
ATOM      1  C   UNL     1      -3.534   2.460   6.122  1.00  0.00     0.006 C 
ENDROOT
BRANCH   1   2
ATOM      2  C   UNL     1      -2.176   3.022   6.564  1.00  0.00     0.053 C 
BRANCH   2   3
ATOM      3  C   UNL     1      -1.101   2.732   5.561  1.00  0.00     0.041 C 
ATOM      4  O   UNL     1      -1.252   3.061   4.356  1.00  0.00    -0.550 OA
ATOM      5  O   UNL     1       0.080   2.122   5.966  1.00  0.00    -0.550 OA
ENDBRANCH   2   3
ENDBRANCH   1   2
BRANCH   1   6
ATOM      6  C   UNL     1      -4.606   3.557   6.005  1.00  0.00     0.000 C 
BRANCH   6   7
ATOM      7  C   UNL     1      -4.005   4.970   5.986  1.00  0.00    -0.003 C 
ATOM      8  C   UNL     1      -4.901   5.985   5.277  1.00  0.00     0.004 C 
ENDBRANCH   6   7
ENDBRANCH   1   6
TORSDOF 4
ENDMDL
MODEL 3
REMARK VINA RESULT:    -3.425      3.002      4.462
REMARK INTER + INTRA:          -4.283
REMARK INTER:                  -4.144
REMARK INTRA:                  -0.139
REMARK UNBOUND:                -0.057
REMARK SMILES CCCCCC(=O)[O-]
REMARK SMILES IDX 4 1 5 2 6 3 7 4 8 5 3 6 2 7 1 8
REMARK H PARENT
REMARK Flexibility Score: inf
ROOT
ATOM      1  C   UNL     1       1.776   2.460   7.319  1.00  0.00     0.006 C 
ENDROOT
BRANCH   1   2
ATOM      2  C   UNL     1       1.521   0.958   7.137  1.00  0.00     0.053 C 
BRANCH   2   3
ATOM      3  C   UNL     1       2.613   0.299   6.351  1.00  0.00     0.041 C 
ATOM      4  O   UNL     1       3.756   0.823   6.291  1.00  0.00    -0.550 OA
ATOM      5  O   UNL     1       2.375  -0.909   5.708  1.00  0.00    -0.550 OA
ENDBRANCH   2   3
ENDBRANCH   1   2
BRANCH   1   6
ATOM      6  C   UNL     1       0.854   3.317   6.434  1.00  0.00     0.000 C 
BRANCH   6   7
ATOM      7  C   UNL     1      -0.410   2.562   5.997  1.00  0.00    -0.003 C 
ATOM      8  C   UNL     1      -1.180   3.287   4.892  1.00  0.00     0.004 C 
ENDBRANCH   6   7
ENDBRANCH   1   6
TORSDOF 4
ENDMDL
MODEL 4
REMARK VINA RESULT:    -3.347      1.298      2.056
REMARK INTER + INTRA:          -4.186
REMARK INTER:                  -4.133
REMARK INTRA:                  -0.054
REMARK UNBOUND:                -0.057
REMARK SMILES CCCCCC(=O)[O-]
REMARK SMILES IDX 4 1 5 2 6 3 7 4 8 5 3 6 2 7 1 8
REMARK H PARENT
REMARK Flexibility Score: inf
ROOT
ATOM      1  C   UNL     1       0.595   2.031   6.442  1.00  0.00     0.006 C 
ENDROOT
BRANCH   1   2
ATOM      2  C   UNL     1      -0.621   2.965   6.481  1.00  0.00     0.053 C 
BRANCH   2   3
ATOM      3  C   UNL     1      -1.498   2.787   5.280  1.00  0.00     0.041 C 
ATOM      4  O   UNL     1      -1.157   3.267   4.168  1.00  0.00    -0.550 OA
ATOM      5  O   UNL     1      -2.680   2.064   5.383  1.00  0.00    -0.550 OA
ENDBRANCH   2   3
ENDBRANCH   1   2
BRANCH   1   6
ATOM      6  C   UNL     1       1.801   2.614   7.199  1.00  0.00     0.000 C 
BRANCH   6   7
ATOM      7  C   UNL     1       3.133   1.995   6.752  1.00  0.00    -0.003 C 
ATOM      8  C   UNL     1       4.152   3.043   6.306  1.00  0.00     0.004 C 
ENDBRANCH   6   7
ENDBRANCH   1   6
TORSDOF 4
ENDMDL
MODEL 5
REMARK VINA RESULT:    -3.267     12.726     13.307
REMARK INTER + INTRA:          -4.088
REMARK INTER:                  -4.030
REMARK INTRA:                  -0.058
REMARK UNBOUND:                -0.057
REMARK SMILES CCCCCC(=O)[O-]
REMARK SMILES IDX 4 1 5 2 6 3 7 4 8 5 3 6 2 7 1 8
REMARK H PARENT
REMARK Flexibility Score: inf
ROOT
ATOM      1  C   UNL     1      -3.830  -3.524  -5.661  1.00  0.00     0.006 C 
ENDROOT
BRANCH   1   2
ATOM      2  C   UNL     1      -4.780  -4.134  -4.622  1.00  0.00     0.053 C 
BRANCH   2   3
ATOM      3  C   UNL     1      -4.082  -5.130  -3.748  1.00  0.00     0.041 C 
ATOM      4  O   UNL     1      -2.825  -5.194  -3.737  1.00  0.00    -0.550 OA
ATOM      5  O   UNL     1      -4.821  -5.967  -2.921  1.00  0.00    -0.550 OA
ENDBRANCH   2   3
ENDBRANCH   1   2
BRANCH   1   6
ATOM      6  C   UNL     1      -4.191  -2.065  -5.992  1.00  0.00     0.000 C 
BRANCH   6   7
ATOM      7  C   UNL     1      -3.025  -1.098  -5.736  1.00  0.00    -0.003 C 
ATOM      8  C   UNL     1      -3.359   0.345  -6.116  1.00  0.00     0.004 C 
ENDBRANCH   6   7
ENDBRANCH   1   6
TORSDOF 4
ENDMDL
MODEL 6
REMARK VINA RESULT:    -3.262      3.028      3.838
REMARK INTER + INTRA:          -4.082
REMARK INTER:                  -3.956
REMARK INTRA:                  -0.125
REMARK UNBOUND:                -0.057
REMARK SMILES CCCCCC(=O)[O-]
REMARK SMILES IDX 4 1 5 2 6 3 7 4 8 5 3 6 2 7 1 8
REMARK H PARENT
REMARK Flexibility Score: inf
ROOT
ATOM      1  C   UNL     1      -1.637   2.762   6.490  1.00  0.00     0.006 C 
ENDROOT
BRANCH   1   2
ATOM      2  C   UNL     1      -2.767   3.769   6.740  1.00  0.00     0.053 C 
BRANCH   2   3
ATOM      3  C   UNL     1      -4.062   3.313   6.139  1.00  0.00     0.041 C 
ATOM      4  O   UNL     1      -4.149   2.176   5.606  1.00  0.00    -0.550 OA
ATOM      5  O   UNL     1      -5.181   4.135   6.193  1.00  0.00    -0.550 OA
ENDBRANCH   2   3
ENDBRANCH   1   2
BRANCH   1   6
ATOM      6  C   UNL     1      -0.882   3.049   5.180  1.00  0.00     0.000 C 
BRANCH   6   7
ATOM      7  C   UNL     1      -0.770   4.551   4.882  1.00  0.00    -0.003 C 
ATOM      8  C   UNL     1       0.468   5.189   5.512  1.00  0.00     0.004 C 
ENDBRANCH   6   7
ENDBRANCH   1   6
TORSDOF 4
ENDMDL
MODEL 7
REMARK VINA RESULT:    -3.259     12.621     13.420
REMARK INTER + INTRA:          -4.079
REMARK INTER:                  -3.879
REMARK INTRA:                  -0.200
REMARK UNBOUND:                -0.057
REMARK SMILES CCCCCC(=O)[O-]
REMARK SMILES IDX 4 1 5 2 6 3 7 4 8 5 3 6 2 7 1 8
REMARK H PARENT
REMARK Flexibility Score: inf
ROOT
ATOM      1  C   UNL     1      -3.119  -2.349  -6.287  1.00  0.00     0.006 C 
ENDROOT
BRANCH   1   2
ATOM      2  C   UNL     1      -3.257  -3.477  -5.256  1.00  0.00     0.053 C 
BRANCH   2   3
ATOM      3  C   UNL     1      -4.682  -3.686  -4.846  1.00  0.00     0.041 C 
ATOM      4  O   UNL     1      -5.618  -3.206  -5.538  1.00  0.00    -0.550 OA
ATOM      5  O   UNL     1      -4.978  -4.436  -3.715  1.00  0.00    -0.550 OA
ENDBRANCH   2   3
ENDBRANCH   1   2
BRANCH   1   6
ATOM      6  C   UNL     1      -2.618  -1.040  -5.652  1.00  0.00     0.000 C 
BRANCH   6   7
ATOM      7  C   UNL     1      -3.428   0.183  -6.107  1.00  0.00    -0.003 C 
ATOM      8  C   UNL     1      -4.554  -0.180  -7.075  1.00  0.00     0.004 C 
ENDBRANCH   6   7
ENDBRANCH   1   6
TORSDOF 4
ENDMDL
MODEL 8
REMARK VINA RESULT:    -3.236      1.778      2.637
REMARK INTER + INTRA:          -4.051
REMARK INTER:                  -3.986
REMARK INTRA:                  -0.065
REMARK UNBOUND:                -0.057
REMARK SMILES CCCCCC(=O)[O-]
REMARK SMILES IDX 4 1 5 2 6 3 7 4 8 5 3 6 2 7 1 8
REMARK H PARENT
REMARK Flexibility Score: inf
ROOT
ATOM      1  C   UNL     1      -1.310   2.949   5.226  1.00  0.00     0.006 C 
ENDROOT
BRANCH   1   2
ATOM      2  C   UNL     1      -2.467   3.851   5.676  1.00  0.00     0.053 C 
BRANCH   2   3
ATOM      3  C   UNL     1      -3.720   3.067   5.924  1.00  0.00     0.041 C 
ATOM      4  O   UNL     1      -3.777   1.848   5.616  1.00  0.00    -0.550 OA
ATOM      5  O   UNL     1      -4.814   3.678   6.524  1.00  0.00    -0.550 OA
ENDBRANCH   2   3
ENDBRANCH   1   2
BRANCH   1   6
ATOM      6  C   UNL     1      -0.001   3.270   5.966  1.00  0.00     0.000 C 
BRANCH   6   7
ATOM      7  C   UNL     1       0.456   2.123   6.880  1.00  0.00    -0.003 C 
ATOM      8  C   UNL     1       1.977   2.025   6.991  1.00  0.00     0.004 C 
ENDBRANCH   6   7
ENDBRANCH   1   6
TORSDOF 4
ENDMDL
MODEL 9
REMARK VINA RESULT:    -3.230     12.394     13.019
REMARK INTER + INTRA:          -4.043
REMARK INTER:                  -3.817
REMARK INTRA:                  -0.225
REMARK UNBOUND:                -0.057
REMARK SMILES CCCCCC(=O)[O-]
REMARK SMILES IDX 4 1 5 2 6 3 7 4 8 5 3 6 2 7 1 8
REMARK H PARENT
REMARK Flexibility Score: inf
ROOT
ATOM      1  C   UNL     1      -3.926  -3.481  -6.248  1.00  0.00     0.006 C 
ENDROOT
BRANCH   1   2
ATOM      2  C   UNL     1      -3.527  -2.080  -6.729  1.00  0.00     0.053 C 
BRANCH   2   3
ATOM      3  C   UNL     1      -2.816  -1.307  -5.660  1.00  0.00     0.041 C 
ATOM      4  O   UNL     1      -3.263  -0.194  -5.278  1.00  0.00    -0.550 OA
ATOM      5  O   UNL     1      -1.676  -1.832  -5.065  1.00  0.00    -0.550 OA
ENDBRANCH   2   3
ENDBRANCH   1   2
BRANCH   1   6
ATOM      6  C   UNL     1      -4.844  -3.433  -5.014  1.00  0.00     0.000 C 
BRANCH   6   7
ATOM      7  C   UNL     1      -4.658  -4.649  -4.095  1.00  0.00    -0.003 C 
ATOM      8  C   UNL     1      -3.199  -5.089  -3.984  1.00  0.00     0.004 C 
ENDBRANCH   6   7
ENDBRANCH   1   6
TORSDOF 4
ENDMDL
