MODEL 1
REMARK VINA RESULT:    -4.568      0.000      0.000
REMARK INTER + INTRA:          -5.943
REMARK INTER:                  -6.437
REMARK INTRA:                   0.494
REMARK UNBOUND:                 0.494
REMARK SMILES CC1=CCC(=C(C)C)C(=O)CC(C)=CCC1
REMARK SMILES IDX 12 1 14 2 13 3 15 4 16 5 2 6 1 7 3 8 11 10 9 11 10 12 5 13
REMARK SMILES IDX 6 14 7 15 8 16 4 17
REMARK H PARENT
REMARK Flexibility Score: 60.00
ROOT
ATOM      1  C   UNL     1      53.804  31.495  31.962  1.00  0.00    -0.070 C 
ATOM      2  C   UNL     1      52.797  30.841  31.336  1.00  0.00    -0.027 C 
ATOM      3  C   UNL     1      55.192  30.916  31.838  1.00  0.00     0.039 C 
ENDROOT
BRANCH   2   4
ATOM      4  C   UNL     1      51.360  31.296  31.239  1.00  0.00     0.032 C 
BRANCH   4   5
ATOM      5  C   UNL     1      51.169  32.443  30.229  1.00  0.00     0.034 C 
BRANCH   5   6
ATOM      6  C   UNL     1      50.498  33.651  30.854  1.00  0.00    -0.077 C 
ATOM      7  C   UNL     1      49.074  33.510  31.333  1.00  0.00     0.039 C 
ATOM      8  C   UNL     1      51.094  34.857  30.983  1.00  0.00    -0.023 CG0
ATOM      9  G   UNL     1      52.493  35.203  30.535  1.00  0.00     0.000 G0
ENDBRANCH   5   6
ENDBRANCH   4   5
ENDBRANCH   2   4
BRANCH   1  10
ATOM     10  C   UNL     1      53.622  32.802  32.718  1.00  0.00     0.111 C 
BRANCH  10  11
ATOM     11  C   UNL     1      54.225  33.964  31.969  1.00  0.00     0.163 C 
ATOM     12  O   UNL     1      55.429  33.874  31.602  1.00  0.00    -0.294 OA
BRANCH  11  13
ATOM     13  C   UNL     1      53.457  35.220  31.705  1.00  0.00    -0.002 C 
ATOM     14  C   UNL     1      53.649  36.350  32.451  1.00  0.00    -0.069 C 
ATOM     15  C   UNL     1      54.700  36.415  33.537  1.00  0.00     0.039 C 
ATOM     16  C   UNL     1      52.841  37.606  32.201  1.00  0.00     0.039 C 
BRANCH  13  17
ATOM     17  C   UNL     1      52.508  35.213  30.520  1.00  0.00     0.066 CG0
ATOM     18  G   UNL     1      51.116  34.856  30.982  1.00  0.00     0.000 G0
ENDBRANCH  13  17
ENDBRANCH  11  13
ENDBRANCH  10  11
ENDBRANCH   1  10
TORSDOF 0
ENDMDL
MODEL 2
REMARK VINA RESULT:    -4.503      1.843      3.253
REMARK INTER + INTRA:          -5.852
REMARK INTER:                  -6.383
REMARK INTRA:                   0.531
REMARK UNBOUND:                 0.494
REMARK SMILES CC1=CCC(=C(C)C)C(=O)CC(C)=CCC1
REMARK SMILES IDX 12 1 14 2 13 3 15 4 16 5 2 6 1 7 3 8 11 10 9 11 10 12 5 13
REMARK SMILES IDX 6 14 7 15 8 16 4 17
REMARK H PARENT
REMARK Flexibility Score: 60.00
ROOT
ATOM      1  C   UNL     1      54.780  33.750  31.989  1.00  0.00    -0.070 C 
ATOM      2  C   UNL     1      55.005  32.419  32.103  1.00  0.00    -0.027 C 
ATOM      3  C   UNL     1      55.824  34.682  32.556  1.00  0.00     0.039 C 
ENDROOT
BRANCH   2   4
ATOM      4  C   UNL     1      54.154  31.316  31.520  1.00  0.00     0.032 C 
BRANCH   4   5
ATOM      5  C   UNL     1      52.802  31.166  32.243  1.00  0.00     0.034 C 
BRANCH   5   6
ATOM      6  C   UNL     1      51.626  31.344  31.300  1.00  0.00    -0.077 C 
ATOM      7  C   UNL     1      51.542  30.454  30.086  1.00  0.00     0.039 C 
ATOM      8  C   UNL     1      50.662  32.276  31.473  1.00  0.00    -0.023 CG0
ATOM      9  G   UNL     1      50.592  33.276  32.600  1.00  0.00     0.000 G0
ENDBRANCH   5   6
ENDBRANCH   4   5
ENDBRANCH   2   4
BRANCH   1  10
ATOM     10  C   UNL     1      53.581  34.346  31.270  1.00  0.00     0.111 C 
BRANCH  10  11
ATOM     11  C   UNL     1      52.569  34.898  32.243  1.00  0.00     0.163 C 
ATOM     12  O   UNL     1      52.993  35.567  33.224  1.00  0.00    -0.294 OA
BRANCH  11  13
ATOM     13  C   UNL     1      51.105  34.628  32.101  1.00  0.00    -0.002 C 
ATOM     14  C   UNL     1      50.264  35.522  31.498  1.00  0.00    -0.069 C 
ATOM     15  C   UNL     1      50.780  36.800  30.875  1.00  0.00     0.039 C 
ATOM     16  C   UNL     1      48.777  35.258  31.391  1.00  0.00     0.039 C 
BRANCH  13  17
ATOM     17  C   UNL     1      50.600  33.281  32.588  1.00  0.00     0.066 CG0
ATOM     18  G   UNL     1      50.640  32.280  31.459  1.00  0.00     0.000 G0
ENDBRANCH  13  17
ENDBRANCH  11  13
ENDBRANCH  10  11
ENDBRANCH   1  10
TORSDOF 0
ENDMDL
MODEL 3
REMARK VINA RESULT:    -4.463      1.883      3.646
REMARK INTER + INTRA:          -5.796
REMARK INTER:                  -6.359
REMARK INTRA:                   0.563
REMARK UNBOUND:                 0.494
REMARK SMILES CC1=CCC(=C(C)C)C(=O)CC(C)=CCC1
REMARK SMILES IDX 12 1 14 2 13 3 15 4 16 5 2 6 1 7 3 8 11 10 9 11 10 12 5 13
REMARK SMILES IDX 6 14 7 15 8 16 4 17
REMARK H PARENT
REMARK Flexibility Score: 60.00
ROOT
ATOM      1  C   UNL     1      51.455  31.528  31.495  1.00  0.00    -0.070 C 
ATOM      2  C   UNL     1      52.751  31.151  31.606  1.00  0.00    -0.027 C 
ATOM      3  C   UNL     1      50.553  30.672  30.639  1.00  0.00     0.039 C 
ENDROOT
BRANCH   2   4
ATOM      4  C   UNL     1      53.797  31.793  32.487  1.00  0.00     0.032 C 
BRANCH   4   5
ATOM      5  C   UNL     1      54.611  32.872  31.748  1.00  0.00     0.034 C 
BRANCH   5   6
ATOM      6  C   UNL     1      54.404  34.252  32.341  1.00  0.00    -0.077 C 
ATOM      7  C   UNL     1      55.200  34.633  33.563  1.00  0.00     0.039 C 
ATOM      8  C   UNL     1      53.524  35.154  31.851  1.00  0.00    -0.023 CG0
ATOM      9  G   UNL     1      52.617  34.947  30.663  1.00  0.00     0.000 G0
ENDBRANCH   5   6
ENDBRANCH   4   5
ENDBRANCH   2   4
BRANCH   1  10
ATOM     10  C   UNL     1      50.854  32.714  32.232  1.00  0.00     0.111 C 
BRANCH  10  11
ATOM     11  C   UNL     1      50.396  33.787  31.276  1.00  0.00     0.163 C 
ATOM     12  O   UNL     1      49.369  33.562  30.579  1.00  0.00    -0.294 OA
BRANCH  11  13
ATOM     13  C   UNL     1      51.151  35.067  31.101  1.00  0.00    -0.002 C 
ATOM     14  C   UNL     1      50.587  36.279  31.387  1.00  0.00    -0.069 C 
ATOM     15  C   UNL     1      49.194  36.389  31.967  1.00  0.00     0.039 C 
ATOM     16  C   UNL     1      51.344  37.572  31.172  1.00  0.00     0.039 C 
BRANCH  13  17
ATOM     17  C   UNL     1      52.601  34.959  30.663  1.00  0.00     0.066 CG0
ATOM     18  G   UNL     1      53.510  35.145  31.853  1.00  0.00     0.000 G0
ENDBRANCH  13  17
ENDBRANCH  11  13
ENDBRANCH  10  11
ENDBRANCH   1  10
TORSDOF 0
ENDMDL
MODEL 4
REMARK VINA RESULT:    -4.428      1.831      4.718
REMARK INTER + INTRA:          -5.746
REMARK INTER:                  -6.206
REMARK INTRA:                   0.459
REMARK UNBOUND:                 0.494
REMARK SMILES CC1=CCC(=C(C)C)C(=O)CC(C)=CCC1
REMARK SMILES IDX 12 1 14 2 13 3 15 4 16 5 2 6 1 7 3 8 11 10 9 11 10 12 5 13
REMARK SMILES IDX 6 14 7 15 8 16 4 17
REMARK H PARENT
REMARK Flexibility Score: 60.00
ROOT
ATOM      1  C   UNL     1      49.794  34.244  32.328  1.00  0.00    -0.070 C 
ATOM      2  C   UNL     1      49.946  35.589  32.388  1.00  0.00    -0.027 C 
ATOM      3  C   UNL     1      48.623  33.712  31.539  1.00  0.00     0.039 C 
ENDROOT
BRANCH   2   4
ATOM      4  C   UNL     1      51.096  36.331  33.027  1.00  0.00     0.032 C 
BRANCH   4   5
ATOM      5  C   UNL     1      52.279  36.533  32.061  1.00  0.00     0.034 C 
BRANCH   5   6
ATOM      6  C   UNL     1      53.579  35.992  32.627  1.00  0.00    -0.077 C 
ATOM      7  C   UNL     1      54.300  36.808  33.670  1.00  0.00     0.039 C 
ATOM      8  C   UNL     1      54.143  34.829  32.229  1.00  0.00    -0.023 CG0
ATOM      9  G   UNL     1      53.594  33.896  31.179  1.00  0.00     0.000 G0
ENDBRANCH   5   6
ENDBRANCH   4   5
ENDBRANCH   2   4
BRANCH   1  10
ATOM     10  C   UNL     1      50.768  33.255  32.949  1.00  0.00     0.111 C 
BRANCH  10  11
ATOM     11  C   UNL     1      51.551  32.512  31.896  1.00  0.00     0.163 C 
ATOM     12  O   UNL     1      50.920  31.753  31.112  1.00  0.00    -0.294 OA
BRANCH  11  13
ATOM     13  C   UNL     1      53.040  32.614  31.799  1.00  0.00    -0.002 C 
ATOM     14  C   UNL     1      53.858  31.590  32.192  1.00  0.00    -0.069 C 
ATOM     15  C   UNL     1      53.300  30.271  32.678  1.00  0.00     0.039 C 
ATOM     16  C   UNL     1      55.365  31.714  32.124  1.00  0.00     0.039 C 
BRANCH  13  17
ATOM     17  C   UNL     1      53.607  33.874  31.171  1.00  0.00     0.066 CG0
ATOM     18  G   UNL     1      54.123  34.796  32.250  1.00  0.00     0.000 G0
ENDBRANCH  13  17
ENDBRANCH  11  13
ENDBRANCH  10  11
ENDBRANCH   1  10
TORSDOF 0
ENDMDL
MODEL 5
REMARK VINA RESULT:    -4.265      1.818      3.741
REMARK INTER + INTRA:          -5.517
REMARK INTER:                  -6.108
REMARK INTRA:                   0.591
REMARK UNBOUND:                 0.494
REMARK SMILES CC1=CCC(=C(C)C)C(=O)CC(C)=CCC1
REMARK SMILES IDX 12 1 14 2 13 3 15 4 16 5 2 6 1 7 3 8 11 10 9 11 10 12 5 13
REMARK SMILES IDX 6 14 7 15 8 16 4 17
REMARK H PARENT
REMARK Flexibility Score: 60.00
ROOT
ATOM      1  C   UNL     1      50.505  32.177  30.468  1.00  0.00    -0.070 C 
ATOM      2  C   UNL     1      50.932  30.940  30.818  1.00  0.00    -0.027 C 
ATOM      3  C   UNL     1      49.020  32.441  30.524  1.00  0.00     0.039 C 
ENDROOT
BRANCH   2   4
ATOM      4  C   UNL     1      52.369  30.492  30.935  1.00  0.00     0.032 C 
BRANCH   4   5
ATOM      5  C   UNL     1      52.987  30.838  32.303  1.00  0.00     0.034 C 
BRANCH   5   6
ATOM      6  C   UNL     1      54.225  31.705  32.170  1.00  0.00    -0.077 C 
ATOM      7  C   UNL     1      55.508  31.055  31.718  1.00  0.00     0.039 C 
ATOM      8  C   UNL     1      54.250  33.026  32.459  1.00  0.00    -0.023 CG0
ATOM      9  G   UNL     1      53.082  33.843  32.956  1.00  0.00     0.000 G0
ENDBRANCH   5   6
ENDBRANCH   4   5
ENDBRANCH   2   4
BRANCH   1  10
ATOM     10  C   UNL     1      51.436  33.318  30.093  1.00  0.00     0.111 C 
BRANCH  10  11
ATOM     11  C   UNL     1      51.397  34.426  31.116  1.00  0.00     0.163 C 
ATOM     12  O   UNL     1      50.316  35.058  31.266  1.00  0.00    -0.294 OA
BRANCH  11  13
ATOM     13  C   UNL     1      52.606  34.819  31.905  1.00  0.00    -0.002 C 
ATOM     14  C   UNL     1      53.217  36.030  31.729  1.00  0.00    -0.069 C 
ATOM     15  C   UNL     1      52.660  37.069  30.781  1.00  0.00     0.039 C 
ATOM     16  C   UNL     1      54.462  36.405  32.504  1.00  0.00     0.039 C 
BRANCH  13  17
ATOM     17  C   UNL     1      53.085  33.845  32.967  1.00  0.00     0.066 CG0
ATOM     18  G   UNL     1      54.240  33.033  32.434  1.00  0.00     0.000 G0
ENDBRANCH  13  17
ENDBRANCH  11  13
ENDBRANCH  10  11
ENDBRANCH   1  10
TORSDOF 0
ENDMDL
MODEL 6
REMARK VINA RESULT:    -4.178      1.538      2.035
REMARK INTER + INTRA:          -5.394
REMARK INTER:                  -5.788
REMARK INTRA:                   0.394
REMARK UNBOUND:                 0.494
REMARK SMILES CC1=CCC(=C(C)C)C(=O)CC(C)=CCC1
REMARK SMILES IDX 12 1 14 2 13 3 15 4 16 5 2 6 1 7 3 8 11 10 9 11 10 12 5 13
REMARK SMILES IDX 6 14 7 15 8 16 4 17
REMARK H PARENT
REMARK Flexibility Score: 60.00
ROOT
ATOM      1  C   UNL     1      53.813  32.930  32.081  1.00  0.00    -0.070 C 
ATOM      2  C   UNL     1      52.913  31.943  32.303  1.00  0.00    -0.027 C 
ATOM      3  C   UNL     1      55.242  32.675  32.495  1.00  0.00     0.039 C 
ENDROOT
BRANCH   2   4
ATOM      4  C   UNL     1      51.465  31.941  31.876  1.00  0.00     0.032 C 
BRANCH   4   5
ATOM      5  C   UNL     1      50.598  32.895  32.719  1.00  0.00     0.034 C 
BRANCH   5   6
ATOM      6  C   UNL     1      49.879  33.922  31.864  1.00  0.00    -0.077 C 
ATOM      7  C   UNL     1      48.951  33.428  30.782  1.00  0.00     0.039 C 
ATOM      8  C   UNL     1      50.043  35.257  31.998  1.00  0.00    -0.023 CG0
ATOM      9  G   UNL     1      50.950  35.939  32.994  1.00  0.00     0.000 G0
ENDBRANCH   5   6
ENDBRANCH   4   5
ENDBRANCH   2   4
BRANCH   1  10
ATOM     10  C   UNL     1      53.476  34.239  31.384  1.00  0.00     0.111 C 
BRANCH  10  11
ATOM     11  C   UNL     1      53.379  35.380  32.365  1.00  0.00     0.163 C 
ATOM     12  O   UNL     1      54.254  35.464  33.269  1.00  0.00    -0.294 OA
BRANCH  11  13
ATOM     13  C   UNL     1      52.255  36.367  32.322  1.00  0.00    -0.002 C 
ATOM     14  C   UNL     1      52.365  37.554  31.651  1.00  0.00    -0.069 C 
ATOM     15  C   UNL     1      53.602  37.902  30.853  1.00  0.00     0.039 C 
ATOM     16  C   UNL     1      51.237  38.563  31.644  1.00  0.00     0.039 C 
BRANCH  13  17
ATOM     17  C   UNL     1      50.955  35.963  32.994  1.00  0.00     0.066 CG0
ATOM     18  G   UNL     1      50.054  35.279  31.995  1.00  0.00     0.000 G0
ENDBRANCH  13  17
ENDBRANCH  11  13
ENDBRANCH  10  11
ENDBRANCH   1  10
TORSDOF 0
ENDMDL
MODEL 7
REMARK VINA RESULT:    -4.086      1.990      3.856
REMARK INTER + INTRA:          -5.264
REMARK INTER:                  -5.613
REMARK INTRA:                   0.349
REMARK UNBOUND:                 0.494
REMARK SMILES CC1=CCC(=C(C)C)C(=O)CC(C)=CCC1
REMARK SMILES IDX 12 1 14 2 13 3 15 4 16 5 2 6 1 7 3 8 11 10 9 11 10 12 5 13
REMARK SMILES IDX 6 14 7 15 8 16 4 17
REMARK H PARENT
REMARK Flexibility Score: 60.00
ROOT
ATOM      1  C   UNL     1      49.668  36.297  32.359  1.00  0.00    -0.070 C 
ATOM      2  C   UNL     1      48.909  35.415  31.666  1.00  0.00    -0.027 C 
ATOM      3  C   UNL     1      49.177  37.721  32.445  1.00  0.00     0.039 C 
ENDROOT
BRANCH   2   4
ATOM      4  C   UNL     1      49.153  33.930  31.542  1.00  0.00     0.032 C 
BRANCH   4   5
ATOM      5  C   UNL     1      50.256  33.595  30.520  1.00  0.00     0.034 C 
BRANCH   5   6
ATOM      6  C   UNL     1      51.347  32.728  31.119  1.00  0.00    -0.077 C 
ATOM      7  C   UNL     1      50.980  31.346  31.600  1.00  0.00     0.039 C 
ATOM      8  C   UNL     1      52.628  33.133  31.271  1.00  0.00    -0.023 CG0
ATOM      9  G   UNL     1      53.178  34.484  30.885  1.00  0.00     0.000 G0
ENDBRANCH   5   6
ENDBRANCH   4   5
ENDBRANCH   2   4
BRANCH   1  10
ATOM     10  C   UNL     1      50.939  35.916  33.102  1.00  0.00     0.111 C 
BRANCH  10  11
ATOM     11  C   UNL     1      52.172  36.338  32.344  1.00  0.00     0.163 C 
ATOM     12  O   UNL     1      52.215  37.513  31.886  1.00  0.00    -0.294 OA
BRANCH  11  13
ATOM     13  C   UNL     1      53.303  35.395  32.082  1.00  0.00    -0.002 C 
ATOM     14  C   UNL     1      54.373  35.302  32.929  1.00  0.00    -0.069 C 
ATOM     15  C   UNL     1      54.438  36.095  34.215  1.00  0.00     0.039 C 
ATOM     16  C   UNL     1      55.531  34.371  32.638  1.00  0.00     0.039 C 
BRANCH  13  17
ATOM     17  C   UNL     1      53.178  34.485  30.873  1.00  0.00     0.066 CG0
ATOM     18  G   UNL     1      52.614  33.150  31.293  1.00  0.00     0.000 G0
ENDBRANCH  13  17
ENDBRANCH  11  13
ENDBRANCH  10  11
ENDBRANCH   1  10
TORSDOF 0
ENDMDL
MODEL 8
REMARK VINA RESULT:    -4.047      1.744      4.243
REMARK INTER + INTRA:          -5.209
REMARK INTER:                  -5.611
REMARK INTRA:                   0.402
REMARK UNBOUND:                 0.494
REMARK SMILES CC1=CCC(=C(C)C)C(=O)CC(C)=CCC1
REMARK SMILES IDX 12 1 14 2 13 3 15 4 16 5 2 6 1 7 3 8 11 10 9 11 10 12 5 13
REMARK SMILES IDX 6 14 7 15 8 16 4 17
REMARK H PARENT
REMARK Flexibility Score: 60.00
ROOT
ATOM      1  C   UNL     1      51.901  37.045  31.363  1.00  0.00    -0.070 C 
ATOM      2  C   UNL     1      50.571  37.267  31.236  1.00  0.00    -0.027 C 
ATOM      3  C   UNL     1      52.725  38.122  32.025  1.00  0.00     0.039 C 
ENDROOT
BRANCH   2   4
ATOM      4  C   UNL     1      49.548  36.290  30.707  1.00  0.00     0.032 C 
BRANCH   4   5
ATOM      5  C   UNL     1      49.136  35.239  31.754  1.00  0.00     0.034 C 
BRANCH   5   6
ATOM      6  C   UNL     1      49.231  33.824  31.214  1.00  0.00    -0.077 C 
ATOM      7  C   UNL     1      48.262  33.402  30.139  1.00  0.00     0.039 C 
ATOM      8  C   UNL     1      50.120  32.909  31.662  1.00  0.00    -0.023 CG0
ATOM      9  G   UNL     1      51.142  33.130  32.750  1.00  0.00     0.000 G0
ENDBRANCH   5   6
ENDBRANCH   4   5
ENDBRANCH   2   4
BRANCH   1  10
ATOM     10  C   UNL     1      52.587  35.756  30.939  1.00  0.00     0.111 C 
BRANCH  10  11
ATOM     11  C   UNL     1      52.912  34.885  32.126  1.00  0.00     0.163 C 
ATOM     12  O   UNL     1      53.588  35.388  33.065  1.00  0.00    -0.294 OA
BRANCH  11  13
ATOM     13  C   UNL     1      52.504  33.447  32.188  1.00  0.00    -0.002 C 
ATOM     14  C   UNL     1      53.349  32.442  31.804  1.00  0.00    -0.069 C 
ATOM     15  C   UNL     1      54.768  32.724  31.365  1.00  0.00     0.039 C 
ATOM     16  C   UNL     1      52.915  30.993  31.835  1.00  0.00     0.039 C 
BRANCH  13  17
ATOM     17  C   UNL     1      51.135  33.142  32.770  1.00  0.00     0.066 CG0
ATOM     18  G   UNL     1      50.145  32.908  31.656  1.00  0.00     0.000 G0
ENDBRANCH  13  17
ENDBRANCH  11  13
ENDBRANCH  10  11
ENDBRANCH   1  10
TORSDOF 0
ENDMDL
MODEL 9
REMARK VINA RESULT:    -4.041      6.976      9.208
REMARK INTER + INTRA:          -5.201
REMARK INTER:                  -5.700
REMARK INTRA:                   0.499
REMARK UNBOUND:                 0.494
REMARK SMILES CC1=CCC(=C(C)C)C(=O)CC(C)=CCC1
REMARK SMILES IDX 12 1 14 2 13 3 15 4 16 5 2 6 1 7 3 8 11 10 9 11 10 12 5 13
REMARK SMILES IDX 6 14 7 15 8 16 4 17
REMARK H PARENT
REMARK Flexibility Score: 60.00
ROOT
ATOM      1  C   UNL     1      42.609  33.646  31.206  1.00  0.00    -0.070 C 
ATOM      2  C   UNL     1      43.097  34.413  32.210  1.00  0.00    -0.027 C 
ATOM      3  C   UNL     1      41.453  32.732  31.528  1.00  0.00     0.039 C 
ENDROOT
BRANCH   2   4
ATOM      4  C   UNL     1      44.171  35.468  32.089  1.00  0.00     0.032 C 
BRANCH   4   5
ATOM      5  C   UNL     1      45.558  34.867  31.791  1.00  0.00     0.034 C 
BRANCH   5   6
ATOM      6  C   UNL     1      46.230  35.538  30.608  1.00  0.00    -0.077 C 
ATOM      7  C   UNL     1      46.343  37.041  30.606  1.00  0.00     0.039 C 
ATOM      8  C   UNL     1      46.711  34.864  29.538  1.00  0.00    -0.023 CG0
ATOM      9  G   UNL     1      46.661  33.369  29.341  1.00  0.00     0.000 G0
ENDBRANCH   5   6
ENDBRANCH   4   5
ENDBRANCH   2   4
BRANCH   1  10
ATOM     10  C   UNL     1      43.116  33.707  29.774  1.00  0.00     0.111 C 
BRANCH  10  11
ATOM     11  C   UNL     1      44.187  32.675  29.520  1.00  0.00     0.163 C 
ATOM     12  O   UNL     1      44.087  31.561  30.102  1.00  0.00    -0.294 OA
BRANCH  11  13
ATOM     13  C   UNL     1      45.371  32.960  28.651  1.00  0.00    -0.002 C 
ATOM     14  C   UNL     1      45.284  32.936  27.286  1.00  0.00    -0.069 C 
ATOM     15  C   UNL     1      43.968  32.693  26.580  1.00  0.00     0.039 C 
ATOM     16  C   UNL     1      46.495  33.188  26.414  1.00  0.00     0.039 C 
BRANCH  13  17
ATOM     17  C   UNL     1      46.661  33.353  29.348  1.00  0.00     0.066 CG0
ATOM     18  G   UNL     1      46.708  34.850  29.533  1.00  0.00     0.000 G0
ENDBRANCH  13  17
ENDBRANCH  11  13
ENDBRANCH  10  11
ENDBRANCH   1  10
TORSDOF 0
ENDMDL
