MODEL 1
REMARK VINA RESULT:     7.056      0.000      0.000
REMARK INTER + INTRA:          16.771
REMARK INTER:                  16.130
REMARK INTRA:                   0.641
REMARK UNBOUND:                 0.641
REMARK SMILES CCCCCCCCCCCCCCCCCCCCCCCC(=O)[O-]
REMARK SMILES IDX 13 1 14 2 15 3 16 4 17 5 18 6 19 7 20 8 21 9 22 10 23 11
REMARK SMILES IDX 24 12 25 13 26 14 12 15 11 16 10 17 9 18 8 19 7 20 6 21 5 22
REMARK SMILES IDX 4 23 3 24 2 25 1 26
REMARK H PARENT
REMARK Flexibility Score: inf
ROOT
ATOM      1  C   UNL     1     -12.779  61.896  -6.507  1.00  0.00     0.000 C 
ENDROOT
BRANCH   1   2
ATOM      2  C   UNL     1     -12.297  62.170  -5.071  1.00  0.00     0.000 C 
BRANCH   2   3
ATOM      3  C   UNL     1     -13.199  61.519  -4.000  1.00  0.00     0.000 C 
BRANCH   3   4
ATOM      4  C   UNL     1     -12.739  61.769  -2.551  1.00  0.00     0.000 C 
BRANCH   4   5
ATOM      5  C   UNL     1     -13.427  60.894  -1.488  1.00  0.00     0.000 C 
BRANCH   5   6
ATOM      6  C   UNL     1     -14.808  60.339  -1.896  1.00  0.00     0.000 C 
BRANCH   6   7
ATOM      7  C   UNL     1     -15.711  61.333  -2.650  1.00  0.00     0.000 C 
BRANCH   7   8
ATOM      8  C   UNL     1     -17.090  61.574  -2.011  1.00  0.00     0.000 C 
BRANCH   8   9
ATOM      9  C   UNL     1     -18.250  61.276  -2.978  1.00  0.00     0.000 C 
BRANCH   9  10
ATOM     10  C   UNL     1     -19.481  62.153  -2.708  1.00  0.00     0.006 C 
BRANCH  10  11
ATOM     11  C   UNL     1     -19.879  62.171  -1.225  1.00  0.00     0.053 C 
BRANCH  11  12
ATOM     12  C   UNL     1     -19.408  63.435  -0.579  1.00  0.00     0.041 C 
ATOM     13  O   UNL     1     -19.954  64.534  -0.864  1.00  0.00    -0.550 OA
ATOM     14  O   UNL     1     -18.406  63.393   0.381  1.00  0.00    -0.550 OA
ENDBRANCH  11  12
ENDBRANCH  10  11
ENDBRANCH   9  10
ENDBRANCH   8   9
ENDBRANCH   7   8
ENDBRANCH   6   7
ENDBRANCH   5   6
ENDBRANCH   4   5
ENDBRANCH   3   4
ENDBRANCH   2   3
ENDBRANCH   1   2
BRANCH   1  15
ATOM     15  C   UNL     1     -11.892  62.564  -7.572  1.00  0.00     0.000 C 
BRANCH  15  16
ATOM     16  C   UNL     1     -12.529  63.759  -8.303  1.00  0.00     0.000 C 
BRANCH  16  17
ATOM     17  C   UNL     1     -13.408  63.332  -9.488  1.00  0.00     0.000 C 
BRANCH  17  18
ATOM     18  C   UNL     1     -14.806  62.867  -9.053  1.00  0.00    -0.000 C 
BRANCH  18  19
ATOM     19  C   UNL     1     -14.961  61.336  -9.077  1.00  0.00    -0.000 C 
BRANCH  19  20
ATOM     20  C   UNL     1     -14.052  60.666 -10.123  1.00  0.00    -0.000 C 
BRANCH  20  21
ATOM     21  C   UNL     1     -12.603  60.431  -9.655  1.00  0.00    -0.000 C 
BRANCH  21  22
ATOM     22  C   UNL     1     -11.985  59.085 -10.088  1.00  0.00    -0.000 C 
BRANCH  22  23
ATOM     23  C   UNL     1     -12.959  57.889 -10.099  1.00  0.00    -0.000 C 
BRANCH  23  24
ATOM     24  C   UNL     1     -12.744  56.935  -8.910  1.00  0.00    -0.000 C 
BRANCH  24  25
ATOM     25  C   UNL     1     -12.226  55.557  -9.348  1.00  0.00    -0.003 C 
ATOM     26  C   UNL     1     -11.879  54.645  -8.171  1.00  0.00     0.004 C 
ENDBRANCH  24  25
ENDBRANCH  23  24
ENDBRANCH  22  23
ENDBRANCH  21  22
ENDBRANCH  20  21
ENDBRANCH  19  20
ENDBRANCH  18  19
ENDBRANCH  17  18
ENDBRANCH  16  17
ENDBRANCH  15  16
ENDBRANCH   1  15
TORSDOF 22
ENDMDL
MODEL 2
REMARK VINA RESULT:     8.742      3.502      9.389
REMARK INTER + INTRA:          20.627
REMARK INTER:                  21.786
REMARK INTRA:                  -1.159
REMARK UNBOUND:                 0.641
REMARK SMILES CCCCCCCCCCCCCCCCCCCCCCCC(=O)[O-]
REMARK SMILES IDX 13 1 14 2 15 3 16 4 17 5 18 6 19 7 20 8 21 9 22 10 23 11
REMARK SMILES IDX 24 12 25 13 26 14 12 15 11 16 10 17 9 18 8 19 7 20 6 21 5 22
REMARK SMILES IDX 4 23 3 24 2 25 1 26
REMARK H PARENT
REMARK Flexibility Score: inf
ROOT
ATOM      1  C   UNL     1     -12.796  61.703  -2.487  1.00  0.00     0.000 C 
ENDROOT
BRANCH   1   2
ATOM      2  C   UNL     1     -12.428  61.102  -3.855  1.00  0.00     0.000 C 
BRANCH   2   3
ATOM      3  C   UNL     1     -12.348  62.162  -4.974  1.00  0.00     0.000 C 
BRANCH   3   4
ATOM      4  C   UNL     1     -12.605  61.608  -6.389  1.00  0.00     0.000 C 
BRANCH   4   5
ATOM      5  C   UNL     1     -11.882  62.355  -7.524  1.00  0.00     0.000 C 
BRANCH   5   6
ATOM      6  C   UNL     1     -12.766  63.333  -8.325  1.00  0.00     0.000 C 
BRANCH   6   7
ATOM      7  C   UNL     1     -14.213  63.470  -7.815  1.00  0.00     0.000 C 
BRANCH   7   8
ATOM      8  C   UNL     1     -15.294  63.454  -8.910  1.00  0.00     0.000 C 
BRANCH   8   9
ATOM      9  C   UNL     1     -14.894  62.597 -10.124  1.00  0.00     0.000 C 
BRANCH   9  10
ATOM     10  C   UNL     1     -14.909  61.093  -9.814  1.00  0.00     0.006 C 
BRANCH  10  11
ATOM     11  C   UNL     1     -13.556  60.421 -10.088  1.00  0.00     0.053 C 
BRANCH  11  12
ATOM     12  C   UNL     1     -13.474  59.112  -9.368  1.00  0.00     0.041 C 
ATOM     13  O   UNL     1     -12.357  58.656  -9.007  1.00  0.00    -0.550 OA
ATOM     14  O   UNL     1     -14.636  58.424  -9.045  1.00  0.00    -0.550 OA
ENDBRANCH  11  12
ENDBRANCH  10  11
ENDBRANCH   9  10
ENDBRANCH   8   9
ENDBRANCH   7   8
ENDBRANCH   6   7
ENDBRANCH   5   6
ENDBRANCH   4   5
ENDBRANCH   3   4
ENDBRANCH   2   3
ENDBRANCH   1   2
BRANCH   1  15
ATOM     15  C   UNL     1     -13.698  60.776  -1.652  1.00  0.00     0.000 C 
BRANCH  15  16
ATOM     16  C   UNL     1     -15.074  61.358  -1.280  1.00  0.00     0.000 C 
BRANCH  16  17
ATOM     17  C   UNL     1     -15.971  61.595  -2.504  1.00  0.00     0.000 C 
BRANCH  17  18
ATOM     18  C   UNL     1     -17.467  61.488  -2.174  1.00  0.00    -0.000 C 
BRANCH  18  19
ATOM     19  C   UNL     1     -18.354  61.437  -3.431  1.00  0.00    -0.000 C 
BRANCH  19  20
ATOM     20  C   UNL     1     -19.774  61.976  -3.176  1.00  0.00    -0.000 C 
BRANCH  20  21
ATOM     21  C   UNL     1     -20.517  61.295  -2.010  1.00  0.00    -0.000 C 
BRANCH  21  22
ATOM     22  C   UNL     1     -19.852  61.458  -0.628  1.00  0.00    -0.000 C 
BRANCH  22  23
ATOM     23  C   UNL     1     -20.476  62.537   0.279  1.00  0.00    -0.000 C 
BRANCH  23  24
ATOM     24  C   UNL     1     -20.070  63.965  -0.127  1.00  0.00    -0.000 C 
BRANCH  24  25
ATOM     25  C   UNL     1     -18.559  64.102  -0.365  1.00  0.00    -0.003 C 
ATOM     26  C   UNL     1     -18.119  65.546  -0.611  1.00  0.00     0.004 C 
ENDBRANCH  24  25
ENDBRANCH  23  24
ENDBRANCH  22  23
ENDBRANCH  21  22
ENDBRANCH  20  21
ENDBRANCH  19  20
ENDBRANCH  18  19
ENDBRANCH  17  18
ENDBRANCH  16  17
ENDBRANCH  15  16
ENDBRANCH   1  15
TORSDOF 22
ENDMDL
MODEL 3
REMARK VINA RESULT:     9.274      3.538      9.218
REMARK INTER + INTRA:          21.843
REMARK INTER:                  23.042
REMARK INTRA:                  -1.198
REMARK UNBOUND:                 0.641
REMARK SMILES CCCCCCCCCCCCCCCCCCCCCCCC(=O)[O-]
REMARK SMILES IDX 13 1 14 2 15 3 16 4 17 5 18 6 19 7 20 8 21 9 22 10 23 11
REMARK SMILES IDX 24 12 25 13 26 14 12 15 11 16 10 17 9 18 8 19 7 20 6 21 5 22
REMARK SMILES IDX 4 23 3 24 2 25 1 26
REMARK H PARENT
REMARK Flexibility Score: inf
ROOT
ATOM      1  C   UNL     1     -13.384  61.193  -1.652  1.00  0.00     0.000 C 
ENDROOT
BRANCH   1   2
ATOM      2  C   UNL     1     -12.665  60.986  -2.997  1.00  0.00     0.000 C 
BRANCH   2   3
ATOM      3  C   UNL     1     -12.795  62.201  -3.940  1.00  0.00     0.000 C 
BRANCH   3   4
ATOM      4  C   UNL     1     -13.183  61.839  -5.387  1.00  0.00     0.000 C 
BRANCH   4   5
ATOM      5  C   UNL     1     -12.019  61.836  -6.393  1.00  0.00     0.000 C 
BRANCH   5   6
ATOM      6  C   UNL     1     -12.321  62.523  -7.741  1.00  0.00     0.000 C 
BRANCH   6   7
ATOM      7  C   UNL     1     -13.603  63.377  -7.762  1.00  0.00     0.000 C 
BRANCH   7   8
ATOM      8  C   UNL     1     -14.291  63.486  -9.134  1.00  0.00     0.000 C 
BRANCH   8   9
ATOM      9  C   UNL     1     -13.809  62.411 -10.125  1.00  0.00     0.000 C 
BRANCH   9  10
ATOM     10  C   UNL     1     -14.428  61.034  -9.847  1.00  0.00     0.006 C 
BRANCH  10  11
ATOM     11  C   UNL     1     -13.450  59.882 -10.120  1.00  0.00     0.053 C 
BRANCH  11  12
ATOM     12  C   UNL     1     -13.701  58.755  -9.169  1.00  0.00     0.041 C 
ATOM     13  O   UNL     1     -14.807  58.153  -9.177  1.00  0.00    -0.550 OA
ATOM     14  O   UNL     1     -12.693  58.330  -8.315  1.00  0.00    -0.550 OA
ENDBRANCH  11  12
ENDBRANCH  10  11
ENDBRANCH   9  10
ENDBRANCH   8   9
ENDBRANCH   7   8
ENDBRANCH   6   7
ENDBRANCH   5   6
ENDBRANCH   4   5
ENDBRANCH   3   4
ENDBRANCH   2   3
ENDBRANCH   1   2
BRANCH   1  15
ATOM     15  C   UNL     1     -14.768  60.519  -1.606  1.00  0.00     0.000 C 
BRANCH  15  16
ATOM     16  C   UNL     1     -15.831  61.139  -2.531  1.00  0.00     0.000 C 
BRANCH  16  17
ATOM     17  C   UNL     1     -16.928  61.886  -1.758  1.00  0.00     0.000 C 
BRANCH  17  18
ATOM     18  C   UNL     1     -16.366  62.783  -0.645  1.00  0.00    -0.000 C 
BRANCH  18  19
ATOM     19  C   UNL     1     -17.467  63.444   0.203  1.00  0.00    -0.000 C 
BRANCH  19  20
ATOM     20  C   UNL     1     -18.564  64.098  -0.657  1.00  0.00    -0.000 C 
BRANCH  20  21
ATOM     21  C   UNL     1     -19.998  63.886  -0.136  1.00  0.00    -0.000 C 
BRANCH  21  22
ATOM     22  C   UNL     1     -20.920  63.076  -1.070  1.00  0.00    -0.000 C 
BRANCH  22  23
ATOM     23  C   UNL     1     -20.569  61.580  -1.204  1.00  0.00    -0.000 C 
BRANCH  23  24
ATOM     24  C   UNL     1     -19.729  61.275  -2.457  1.00  0.00    -0.000 C 
BRANCH  24  25
ATOM     25  C   UNL     1     -20.591  61.100  -3.716  1.00  0.00    -0.003 C 
ATOM     26  C   UNL     1     -21.348  59.771  -3.746  1.00  0.00     0.004 C 
ENDBRANCH  24  25
ENDBRANCH  23  24
ENDBRANCH  22  23
ENDBRANCH  21  22
ENDBRANCH  20  21
ENDBRANCH  19  20
ENDBRANCH  18  19
ENDBRANCH  17  18
ENDBRANCH  16  17
ENDBRANCH  15  16
ENDBRANCH   1  15
TORSDOF 22
ENDMDL
MODEL 4
REMARK VINA RESULT:     9.411      1.699      2.118
REMARK INTER + INTRA:          22.156
REMARK INTER:                  21.202
REMARK INTRA:                   0.954
REMARK UNBOUND:                 0.641
REMARK SMILES CCCCCCCCCCCCCCCCCCCCCCCC(=O)[O-]
REMARK SMILES IDX 13 1 14 2 15 3 16 4 17 5 18 6 19 7 20 8 21 9 22 10 23 11
REMARK SMILES IDX 24 12 25 13 26 14 12 15 11 16 10 17 9 18 8 19 7 20 6 21 5 22
REMARK SMILES IDX 4 23 3 24 2 25 1 26
REMARK H PARENT
REMARK Flexibility Score: inf
ROOT
ATOM      1  C   UNL     1     -12.552  61.938  -6.725  1.00  0.00     0.000 C 
ENDROOT
BRANCH   1   2
ATOM      2  C   UNL     1     -12.663  62.453  -5.278  1.00  0.00     0.000 C 
BRANCH   2   3
ATOM      3  C   UNL     1     -13.619  61.606  -4.411  1.00  0.00     0.000 C 
BRANCH   3   4
ATOM      4  C   UNL     1     -13.486  61.855  -2.896  1.00  0.00     0.000 C 
BRANCH   4   5
ATOM      5  C   UNL     1     -14.122  60.779  -2.000  1.00  0.00     0.000 C 
BRANCH   5   6
ATOM      6  C   UNL     1     -15.662  60.711  -2.056  1.00  0.00     0.000 C 
BRANCH   6   7
ATOM      7  C   UNL     1     -16.377  62.073  -1.970  1.00  0.00     0.000 C 
BRANCH   7   8
ATOM      8  C   UNL     1     -17.584  62.116  -1.016  1.00  0.00     0.000 C 
BRANCH   8   9
ATOM      9  C   UNL     1     -18.929  62.035  -1.760  1.00  0.00     0.000 C 
BRANCH   9  10
ATOM     10  C   UNL     1     -20.084  62.646  -0.953  1.00  0.00     0.006 C 
BRANCH  10  11
ATOM     11  C   UNL     1     -21.386  61.844  -1.090  1.00  0.00     0.053 C 
BRANCH  11  12
ATOM     12  C   UNL     1     -21.202  60.720  -2.060  1.00  0.00     0.041 C 
ATOM     13  O   UNL     1     -22.176  59.984  -2.370  1.00  0.00    -0.550 OA
ATOM     14  O   UNL     1     -19.969  60.522  -2.666  1.00  0.00    -0.550 OA
ENDBRANCH  11  12
ENDBRANCH  10  11
ENDBRANCH   9  10
ENDBRANCH   8   9
ENDBRANCH   7   8
ENDBRANCH   6   7
ENDBRANCH   5   6
ENDBRANCH   4   5
ENDBRANCH   3   4
ENDBRANCH   2   3
ENDBRANCH   1   2
BRANCH   1  15
ATOM     15  C   UNL     1     -11.922  62.969  -7.678  1.00  0.00     0.000 C 
BRANCH  15  16
ATOM     16  C   UNL     1     -12.414  62.903  -9.136  1.00  0.00     0.000 C 
BRANCH  16  17
ATOM     17  C   UNL     1     -12.792  61.480  -9.572  1.00  0.00     0.000 C 
BRANCH  17  18
ATOM     18  C   UNL     1     -14.312  61.265  -9.645  1.00  0.00    -0.000 C 
BRANCH  18  19
ATOM     19  C   UNL     1     -14.711  59.783  -9.534  1.00  0.00    -0.000 C 
BRANCH  19  20
ATOM     20  C   UNL     1     -13.529  58.831  -9.793  1.00  0.00    -0.000 C 
BRANCH  20  21
ATOM     21  C   UNL     1     -12.850  58.292  -8.519  1.00  0.00    -0.000 C 
BRANCH  21  22
ATOM     22  C   UNL     1     -11.916  57.084  -8.738  1.00  0.00    -0.000 C 
BRANCH  22  23
ATOM     23  C   UNL     1     -12.136  56.312 -10.054  1.00  0.00    -0.000 C 
BRANCH  23  24
ATOM     24  C   UNL     1     -12.162  54.787  -9.855  1.00  0.00    -0.000 C 
BRANCH  24  25
ATOM     25  C   UNL     1     -12.030  54.383  -8.379  1.00  0.00    -0.003 C 
ATOM     26  C   UNL     1     -12.284  52.895  -8.139  1.00  0.00     0.004 C 
ENDBRANCH  24  25
ENDBRANCH  23  24
ENDBRANCH  22  23
ENDBRANCH  21  22
ENDBRANCH  20  21
ENDBRANCH  19  20
ENDBRANCH  18  19
ENDBRANCH  17  18
ENDBRANCH  16  17
ENDBRANCH  15  16
ENDBRANCH   1  15
TORSDOF 22
ENDMDL
