MODEL 1
REMARK VINA RESULT:    -2.935      0.000      0.000
REMARK INTER + INTRA:          -3.536
REMARK INTER:                  -3.364
REMARK INTRA:                  -0.172
REMARK UNBOUND:                -0.172
REMARK SMILES CC=Cc1ccc(O)c(OC)c1
REMARK SMILES IDX 4 1 12 2 9 3 7 4 6 5 5 6 3 7 1 8 2 9 10 10 11 11 8 12
REMARK H PARENT 8 13
REMARK Flexibility Score: inf
ROOT
ATOM      1  C   UNL     1     119.004 108.769 108.568  1.00  0.00    -0.022 A 
ATOM      2  C   UNL     1     117.889 108.120 107.998  1.00  0.00     0.058 A 
ATOM      3  C   UNL     1     116.636 108.764 107.942  1.00  0.00     0.161 A 
ATOM      4  C   UNL     1     116.503 110.056 108.467  1.00  0.00     0.157 A 
ATOM      5  C   UNL     1     117.603 110.696 109.048  1.00  0.00     0.051 A 
ATOM      6  C   UNL     1     118.841 110.056 109.102  1.00  0.00     0.012 A 
ENDROOT
BRANCH   1   7
ATOM      7  C   UNL     1     120.340 108.128 108.657  1.00  0.00     0.003 C 
ATOM      8  C   UNL     1     122.408 107.410 109.789  1.00  0.00     0.035 C 
ATOM      9  C   UNL     1     121.075 108.089 109.775  1.00  0.00    -0.030 C 
ENDBRANCH   1   7
BRANCH   3  10
ATOM     10  O   UNL     1     115.506 108.153 107.377  1.00  0.00    -0.493 OA
ATOM     11  C   UNL     1     114.611 107.299 108.084  1.00  0.00     0.278 C 
ENDBRANCH   3  10
BRANCH   4  12
ATOM     12  O   UNL     1     115.266 110.698 108.411  1.00  0.00    -0.504 OA
ATOM     13  H   UNL     1     114.973 111.349 109.130  1.00  0.00     0.293 HD
ENDBRANCH   4  12
TORSDOF 3
ENDMDL
MODEL 2
REMARK VINA RESULT:    -2.930     13.256     15.723
REMARK INTER + INTRA:          -3.531
REMARK INTER:                  -3.352
REMARK INTRA:                  -0.178
REMARK UNBOUND:                -0.172
REMARK SMILES CC=Cc1ccc(O)c(OC)c1
REMARK SMILES IDX 4 1 12 2 9 3 7 4 6 5 5 6 3 7 1 8 2 9 10 10 11 11 8 12
REMARK H PARENT 8 13
REMARK Flexibility Score: inf
ROOT
ATOM      1  C   UNL     1     113.020 123.252 108.548  1.00  0.00    -0.022 A 
ATOM      2  C   UNL     1     114.131 123.875 107.945  1.00  0.00     0.058 A 
ATOM      3  C   UNL     1     115.380 123.221 107.894  1.00  0.00     0.161 A 
ATOM      4  C   UNL     1     115.512 121.945 108.458  1.00  0.00     0.157 A 
ATOM      5  C   UNL     1     114.414 121.331 109.073  1.00  0.00     0.051 A 
ATOM      6  C   UNL     1     113.181 121.982 109.121  1.00  0.00     0.012 A 
ENDROOT
BRANCH   1   7
ATOM      7  C   UNL     1     111.689 123.904 108.634  1.00  0.00     0.003 C 
ATOM      8  C   UNL     1     109.613 124.619 109.752  1.00  0.00     0.035 C 
ATOM      9  C   UNL     1     110.939 123.927 109.742  1.00  0.00    -0.030 C 
ENDBRANCH   1   7
BRANCH   3  10
ATOM     10  O   UNL     1     116.507 123.807 107.297  1.00  0.00    -0.493 OA
ATOM     11  C   UNL     1     117.400 124.699 107.957  1.00  0.00     0.278 C 
ENDBRANCH   3  10
BRANCH   4  12
ATOM     12  O   UNL     1     116.744 121.294 108.408  1.00  0.00    -0.504 OA
ATOM     13  H   UNL     1     116.843 120.379 107.984  1.00  0.00     0.293 HD
ENDBRANCH   4  12
TORSDOF 3
ENDMDL
MODEL 3
REMARK VINA RESULT:    -2.924     16.167     18.492
REMARK INTER + INTRA:          -3.523
REMARK INTER:                  -3.333
REMARK INTRA:                  -0.190
REMARK UNBOUND:                -0.172
REMARK SMILES CC=Cc1ccc(O)c(OC)c1
REMARK SMILES IDX 4 1 12 2 9 3 7 4 6 5 5 6 3 7 1 8 2 9 10 10 11 11 8 12
REMARK H PARENT 8 13
REMARK Flexibility Score: inf
ROOT
ATOM      1  C   UNL     1     109.626 125.221 107.921  1.00  0.00    -0.022 A 
ATOM      2  C   UNL     1     110.783 124.455 108.170  1.00  0.00     0.058 A 
ATOM      3  C   UNL     1     111.395 124.474 109.440  1.00  0.00     0.161 A 
ATOM      4  C   UNL     1     110.850 125.270 110.455  1.00  0.00     0.157 A 
ATOM      5  C   UNL     1     109.711 126.044 110.206  1.00  0.00     0.051 A 
ATOM      6  C   UNL     1     109.107 126.023 108.948  1.00  0.00     0.012 A 
ENDROOT
BRANCH   1   7
ATOM      7  C   UNL     1     108.951 125.240 106.598  1.00  0.00     0.003 C 
ATOM      8  C   UNL     1     107.047 125.516 105.060  1.00  0.00     0.035 C 
ATOM      9  C   UNL     1     107.650 125.501 106.429  1.00  0.00    -0.030 C 
ENDBRANCH   1   7
BRANCH   3  10
ATOM     10  O   UNL     1     112.545 123.721 109.728  1.00  0.00    -0.493 OA
ATOM     11  C   UNL     1     112.617 122.300 109.665  1.00  0.00     0.278 C 
ENDBRANCH   3  10
BRANCH   4  12
ATOM     12  O   UNL     1     111.451 125.290 111.714  1.00  0.00    -0.504 OA
ATOM     13  H   UNL     1     110.949 125.003 112.546  1.00  0.00     0.293 HD
ENDBRANCH   4  12
TORSDOF 3
ENDMDL
MODEL 4
REMARK VINA RESULT:    -2.923     12.032     14.361
REMARK INTER + INTRA:          -3.523
REMARK INTER:                  -3.336
REMARK INTRA:                  -0.187
REMARK UNBOUND:                -0.172
REMARK SMILES CC=Cc1ccc(O)c(OC)c1
REMARK SMILES IDX 4 1 12 2 9 3 7 4 6 5 5 6 3 7 1 8 2 9 10 10 11 11 8 12
REMARK H PARENT 8 13
REMARK Flexibility Score: inf
ROOT
ATOM      1  C   UNL     1     112.568 122.248 107.476  1.00  0.00    -0.022 A 
ATOM      2  C   UNL     1     113.007 120.933 107.220  1.00  0.00     0.058 A 
ATOM      3  C   UNL     1     113.397 120.088 108.279  1.00  0.00     0.161 A 
ATOM      4  C   UNL     1     113.353 120.568 109.594  1.00  0.00     0.157 A 
ATOM      5  C   UNL     1     112.934 121.878 109.850  1.00  0.00     0.051 A 
ATOM      6  C   UNL     1     112.550 122.712 108.800  1.00  0.00     0.012 A 
ENDROOT
BRANCH   1   7
ATOM      7  C   UNL     1     112.157 123.178 106.394  1.00  0.00     0.003 C 
ATOM      8  C   UNL     1     110.806 124.967 105.373  1.00  0.00     0.035 C 
ATOM      9  C   UNL     1     111.150 124.052 106.505  1.00  0.00    -0.030 C 
ENDBRANCH   1   7
BRANCH   3  10
ATOM     10  O   UNL     1     113.834 118.771 108.062  1.00  0.00    -0.493 OA
ATOM     11  C   UNL     1     115.101 118.420 107.514  1.00  0.00     0.278 C 
ENDBRANCH   3  10
BRANCH   4  12
ATOM     12  O   UNL     1     113.736 119.734 110.645  1.00  0.00    -0.504 OA
ATOM     13  H   UNL     1     113.086 119.082 111.067  1.00  0.00     0.293 HD
ENDBRANCH   4  12
TORSDOF 3
ENDMDL
MODEL 5
REMARK VINA RESULT:    -2.918      7.942      9.788
REMARK INTER + INTRA:          -3.516
REMARK INTER:                  -3.330
REMARK INTRA:                  -0.186
REMARK UNBOUND:                -0.172
REMARK SMILES CC=Cc1ccc(O)c(OC)c1
REMARK SMILES IDX 4 1 12 2 9 3 7 4 6 5 5 6 3 7 1 8 2 9 10 10 11 11 8 12
REMARK H PARENT 8 13
REMARK Flexibility Score: inf
ROOT
ATOM      1  C   UNL     1     109.753 112.556 107.478  1.00  0.00    -0.022 A 
ATOM      2  C   UNL     1     111.059 113.020 107.222  1.00  0.00     0.058 A 
ATOM      3  C   UNL     1     111.902 113.411 108.283  1.00  0.00     0.161 A 
ATOM      4  C   UNL     1     111.429 113.343 109.599  1.00  0.00     0.157 A 
ATOM      5  C   UNL     1     110.127 112.898 109.855  1.00  0.00     0.051 A 
ATOM      6  C   UNL     1     109.295 112.513 108.804  1.00  0.00     0.012 A 
ENDROOT
BRANCH   1   7
ATOM      7  C   UNL     1     108.826 112.142 106.395  1.00  0.00     0.003 C 
ATOM      8  C   UNL     1     107.055 110.774 105.364  1.00  0.00     0.035 C 
ATOM      9  C   UNL     1     107.969 111.120 106.497  1.00  0.00    -0.030 C 
ENDBRANCH   1   7
BRANCH   3  10
ATOM     10  O   UNL     1     113.210 113.873 108.067  1.00  0.00    -0.493 OA
ATOM     11  C   UNL     1     113.537 115.136 107.495  1.00  0.00     0.278 C 
ENDBRANCH   3  10
BRANCH   4  12
ATOM     12  O   UNL     1     112.260 113.726 110.651  1.00  0.00    -0.504 OA
ATOM     13  H   UNL     1     111.988 113.592 111.618  1.00  0.00     0.293 HD
ENDBRANCH   4  12
TORSDOF 3
ENDMDL
MODEL 6
REMARK VINA RESULT:    -2.912      9.870     11.214
REMARK INTER + INTRA:          -3.510
REMARK INTER:                  -3.327
REMARK INTRA:                  -0.184
REMARK UNBOUND:                -0.172
REMARK SMILES CC=Cc1ccc(O)c(OC)c1
REMARK SMILES IDX 4 1 12 2 9 3 7 4 6 5 5 6 3 7 1 8 2 9 10 10 11 11 8 12
REMARK H PARENT 8 13
REMARK Flexibility Score: inf
ROOT
ATOM      1  C   UNL     1     122.341 119.455 107.509  1.00  0.00    -0.022 A 
ATOM      2  C   UNL     1     121.033 119.021 107.214  1.00  0.00     0.058 A 
ATOM      3  C   UNL     1     120.159 118.624 108.246  1.00  0.00     0.161 A 
ATOM      4  C   UNL     1     120.604 118.655 109.574  1.00  0.00     0.157 A 
ATOM      5  C   UNL     1     121.907 119.069 109.869  1.00  0.00     0.051 A 
ATOM      6  C   UNL     1     122.770 119.461 108.845  1.00  0.00     0.012 A 
ENDROOT
BRANCH   1   7
ATOM      7  C   UNL     1     123.300 119.874 106.456  1.00  0.00     0.003 C 
ATOM      8  C   UNL     1     125.014 121.320 105.435  1.00  0.00     0.035 C 
ATOM      9  C   UNL     1     124.059 120.973 106.532  1.00  0.00    -0.030 C 
ENDBRANCH   1   7
BRANCH   3  10
ATOM     10  O   UNL     1     118.848 118.191 107.991  1.00  0.00    -0.493 OA
ATOM     11  C   UNL     1     118.504 116.899 107.502  1.00  0.00     0.278 C 
ENDBRANCH   3  10
BRANCH   4  12
ATOM     12  O   UNL     1     119.742 118.265 110.599  1.00  0.00    -0.504 OA
ATOM     13  H   UNL     1     119.560 117.288 110.797  1.00  0.00     0.293 HD
ENDBRANCH   4  12
TORSDOF 3
ENDMDL
MODEL 7
REMARK VINA RESULT:    -2.909      9.684     11.106
REMARK INTER + INTRA:          -3.506
REMARK INTER:                  -3.326
REMARK INTRA:                  -0.180
REMARK UNBOUND:                -0.172
REMARK SMILES CC=Cc1ccc(O)c(OC)c1
REMARK SMILES IDX 4 1 12 2 9 3 7 4 6 5 5 6 3 7 1 8 2 9 10 10 11 11 8 12
REMARK H PARENT 8 13
REMARK Flexibility Score: inf
ROOT
ATOM      1  C   UNL     1     123.264 118.972 108.533  1.00  0.00    -0.022 A 
ATOM      2  C   UNL     1     123.876 117.880 107.885  1.00  0.00     0.058 A 
ATOM      3  C   UNL     1     123.232 116.627 107.829  1.00  0.00     0.161 A 
ATOM      4  C   UNL     1     121.977 116.471 108.433  1.00  0.00     0.157 A 
ATOM      5  C   UNL     1     121.375 117.549 109.091  1.00  0.00     0.051 A 
ATOM      6  C   UNL     1     122.016 118.787 109.145  1.00  0.00     0.012 A 
ENDROOT
BRANCH   1   7
ATOM      7  C   UNL     1     123.907 120.307 108.625  1.00  0.00     0.003 C 
ATOM      8  C   UNL     1     124.620 122.376 109.757  1.00  0.00     0.035 C 
ATOM      9  C   UNL     1     123.938 121.045 109.741  1.00  0.00    -0.030 C 
ENDBRANCH   1   7
BRANCH   3  10
ATOM     10  O   UNL     1     123.807 115.518 107.188  1.00  0.00    -0.493 OA
ATOM     11  C   UNL     1     124.736 114.625 107.796  1.00  0.00     0.278 C 
ENDBRANCH   3  10
BRANCH   4  12
ATOM     12  O   UNL     1     121.335 115.234 108.378  1.00  0.00    -0.504 OA
ATOM     13  H   UNL     1     121.783 114.421 107.970  1.00  0.00     0.293 HD
ENDBRANCH   4  12
TORSDOF 3
ENDMDL
MODEL 8
REMARK VINA RESULT:    -2.888      3.121      3.682
REMARK INTER + INTRA:          -3.482
REMARK INTER:                  -3.298
REMARK INTRA:                  -0.184
REMARK UNBOUND:                -0.172
REMARK SMILES CC=Cc1ccc(O)c(OC)c1
REMARK SMILES IDX 4 1 12 2 9 3 7 4 6 5 5 6 3 7 1 8 2 9 10 10 11 11 8 12
REMARK H PARENT 8 13
REMARK Flexibility Score: inf
ROOT
ATOM      1  C   UNL     1     119.392 109.684 107.561  1.00  0.00    -0.022 A 
ATOM      2  C   UNL     1     118.883 110.963 107.254  1.00  0.00     0.058 A 
ATOM      3  C   UNL     1     118.499 111.847 108.283  1.00  0.00     0.161 A 
ATOM      4  C   UNL     1     118.618 111.442 109.619  1.00  0.00     0.157 A 
ATOM      5  C   UNL     1     119.107 110.168 109.926  1.00  0.00     0.051 A 
ATOM      6  C   UNL     1     119.486 109.295 108.905  1.00  0.00     0.012 A 
ENDROOT
BRANCH   1   7
ATOM      7  C   UNL     1     119.801 108.716 106.513  1.00  0.00     0.003 C 
ATOM      8  C   UNL     1     121.244 107.001 105.489  1.00  0.00     0.035 C 
ATOM      9  C   UNL     1     120.908 107.967 106.581  1.00  0.00    -0.030 C 
ENDBRANCH   1   7
BRANCH   3  10
ATOM     10  O   UNL     1     117.993 113.130 108.016  1.00  0.00    -0.493 OA
ATOM     11  C   UNL     1     116.804 113.392 107.278  1.00  0.00     0.278 C 
ENDBRANCH   3  10
BRANCH   4  12
ATOM     12  O   UNL     1     118.241 112.315 110.639  1.00  0.00    -0.504 OA
ATOM     13  H   UNL     1     118.590 113.266 110.680  1.00  0.00     0.293 HD
ENDBRANCH   4  12
TORSDOF 3
ENDMDL
MODEL 9
REMARK VINA RESULT:    -2.886      9.768     11.817
REMARK INTER + INTRA:          -3.479
REMARK INTER:                  -3.287
REMARK INTRA:                  -0.193
REMARK UNBOUND:                -0.172
REMARK SMILES CC=Cc1ccc(O)c(OC)c1
REMARK SMILES IDX 4 1 12 2 9 3 7 4 6 5 5 6 3 7 1 8 2 9 10 10 11 11 8 12
REMARK H PARENT 8 13
REMARK Flexibility Score: inf
ROOT
ATOM      1  C   UNL     1     106.771 109.452 107.759  1.00  0.00    -0.022 A 
ATOM      2  C   UNL     1     107.499 110.648 107.927  1.00  0.00     0.058 A 
ATOM      3  C   UNL     1     107.483 111.330 109.161  1.00  0.00     0.161 A 
ATOM      4  C   UNL     1     106.728 110.814 110.222  1.00  0.00     0.157 A 
ATOM      5  C   UNL     1     105.991 109.636 110.054  1.00  0.00     0.051 A 
ATOM      6  C   UNL     1     106.009 108.964 108.831  1.00  0.00     0.012 A 
ENDROOT
BRANCH   1   7
ATOM      7  C   UNL     1     106.751 108.704 106.477  1.00  0.00     0.003 C 
ATOM      8  C   UNL     1     106.317 106.761 105.025  1.00  0.00     0.035 C 
ATOM      9  C   UNL     1     106.320 107.443 106.357  1.00  0.00    -0.030 C 
ENDBRANCH   1   7
BRANCH   3  10
ATOM     10  O   UNL     1     108.199 112.520 109.367  1.00  0.00    -0.493 OA
ATOM     11  C   UNL     1     109.591 112.585 109.661  1.00  0.00     0.278 C 
ENDBRANCH   3  10
BRANCH   4  12
ATOM     12  O   UNL     1     106.711 111.484 111.445  1.00  0.00    -0.504 OA
ATOM     13  H   UNL     1     106.352 112.428 111.528  1.00  0.00     0.293 HD
ENDBRANCH   4  12
TORSDOF 3
ENDMDL
