MODEL 1
REMARK VINA RESULT:    -4.112      0.000      0.000
REMARK INTER + INTRA:          -5.739
REMARK INTER:                  -5.554
REMARK INTRA:                  -0.186
REMARK UNBOUND:                -0.186
REMARK SMILES CCCCCCCC(=O)[O-]
REMARK SMILES IDX 5 1 6 2 7 3 8 4 9 5 10 6 4 7 3 8 2 9 1 10
REMARK H PARENT
REMARK Flexibility Score: inf
ROOT
ATOM      1  C   UNL     1       7.778   9.008  80.200  1.00  0.00     0.000 C 
ENDROOT
BRANCH   1   2
ATOM      2  C   UNL     1       9.060   8.206  79.893  1.00  0.00     0.006 C 
BRANCH   2   3
ATOM      3  C   UNL     1       8.878   7.082  78.861  1.00  0.00     0.053 C 
BRANCH   3   4
ATOM      4  C   UNL     1       8.705   5.744  79.511  1.00  0.00     0.041 C 
ATOM      5  O   UNL     1       7.555   5.332  79.817  1.00  0.00    -0.550 OA
ATOM      6  O   UNL     1       9.816   4.967  79.813  1.00  0.00    -0.550 OA
ENDBRANCH   3   4
ENDBRANCH   2   3
ENDBRANCH   1   2
BRANCH   1   7
ATOM      7  C   UNL     1       6.926   8.459  81.360  1.00  0.00     0.000 C 
BRANCH   7   8
ATOM      8  C   UNL     1       5.696   9.310  81.726  1.00  0.00    -0.000 C 
BRANCH   8   9
ATOM      9  C   UNL     1       4.546   8.501  82.361  1.00  0.00    -0.003 C 
ATOM     10  C   UNL     1       3.446   9.391  82.937  1.00  0.00     0.004 C 
ENDBRANCH   8   9
ENDBRANCH   7   8
ENDBRANCH   1   7
TORSDOF 6
ENDMDL
MODEL 2
REMARK VINA RESULT:    -4.106      3.406      5.757
REMARK INTER + INTRA:          -5.732
REMARK INTER:                  -5.547
REMARK INTRA:                  -0.185
REMARK UNBOUND:                -0.186
REMARK SMILES CCCCCCCC(=O)[O-]
REMARK SMILES IDX 5 1 6 2 7 3 8 4 9 5 10 6 4 7 3 8 2 9 1 10
REMARK H PARENT
REMARK Flexibility Score: inf
ROOT
ATOM      1  C   UNL     1       6.818   7.637  80.634  1.00  0.00     0.000 C 
ENDROOT
BRANCH   1   2
ATOM      2  C   UNL     1       6.439   8.726  81.660  1.00  0.00     0.006 C 
BRANCH   2   3
ATOM      3  C   UNL     1       4.992   8.645  82.170  1.00  0.00     0.053 C 
BRANCH   3   4
ATOM      4  C   UNL     1       4.386  10.001  82.363  1.00  0.00     0.041 C 
ATOM      5  O   UNL     1       3.697  10.247  83.389  1.00  0.00    -0.550 OA
ATOM      6  O   UNL     1       4.553  10.984  81.396  1.00  0.00    -0.550 OA
ENDBRANCH   3   4
ENDBRANCH   2   3
ENDBRANCH   1   2
BRANCH   1   7
ATOM      7  C   UNL     1       7.985   8.001  79.698  1.00  0.00     0.000 C 
BRANCH   7   8
ATOM      8  C   UNL     1       8.846   6.809  79.236  1.00  0.00    -0.000 C 
BRANCH   8   9
ATOM      9  C   UNL     1       8.318   5.440  79.710  1.00  0.00    -0.003 C 
ATOM     10  C   UNL     1       9.436   4.425  79.947  1.00  0.00     0.004 C 
ENDBRANCH   8   9
ENDBRANCH   7   8
ENDBRANCH   1   7
TORSDOF 6
ENDMDL
MODEL 3
REMARK VINA RESULT:    -4.070      1.596      2.087
REMARK INTER + INTRA:          -5.683
REMARK INTER:                  -5.484
REMARK INTRA:                  -0.199
REMARK UNBOUND:                -0.186
REMARK SMILES CCCCCCCC(=O)[O-]
REMARK SMILES IDX 5 1 6 2 7 3 8 4 9 5 10 6 4 7 3 8 2 9 1 10
REMARK H PARENT
REMARK Flexibility Score: inf
ROOT
ATOM      1  C   UNL     1       6.803   8.635  81.448  1.00  0.00     0.000 C 
ENDROOT
BRANCH   1   2
ATOM      2  C   UNL     1       6.969   7.495  80.421  1.00  0.00     0.006 C 
BRANCH   2   3
ATOM      3  C   UNL     1       8.024   7.763  79.336  1.00  0.00     0.053 C 
BRANCH   3   4
ATOM      4  C   UNL     1       9.014   6.645  79.225  1.00  0.00     0.041 C 
ATOM      5  O   UNL     1       8.629   5.448  79.312  1.00  0.00    -0.550 OA
ATOM      6  O   UNL     1      10.364   6.923  79.060  1.00  0.00    -0.550 OA
ENDBRANCH   3   4
ENDBRANCH   2   3
ENDBRANCH   1   2
BRANCH   1   7
ATOM      7  C   UNL     1       5.370   8.835  81.975  1.00  0.00     0.000 C 
BRANCH   7   8
ATOM      8  C   UNL     1       5.075  10.235  82.547  1.00  0.00    -0.000 C 
BRANCH   8   9
ATOM      9  C   UNL     1       4.287  11.146  81.582  1.00  0.00    -0.003 C 
ATOM     10  C   UNL     1       5.188  11.849  80.567  1.00  0.00     0.004 C 
ENDBRANCH   8   9
ENDBRANCH   7   8
ENDBRANCH   1   7
TORSDOF 6
ENDMDL
MODEL 4
REMARK VINA RESULT:    -3.986      3.606      5.744
REMARK INTER + INTRA:          -5.569
REMARK INTER:                  -5.310
REMARK INTRA:                  -0.259
REMARK UNBOUND:                -0.186
REMARK SMILES CCCCCCCC(=O)[O-]
REMARK SMILES IDX 5 1 6 2 7 3 8 4 9 5 10 6 4 7 3 8 2 9 1 10
REMARK H PARENT
REMARK Flexibility Score: inf
ROOT
ATOM      1  C   UNL     1       6.612   7.500  80.623  1.00  0.00     0.000 C 
ENDROOT
BRANCH   1   2
ATOM      2  C   UNL     1       6.495   8.787  81.467  1.00  0.00     0.006 C 
BRANCH   2   3
ATOM      3  C   UNL     1       5.132   8.983  82.147  1.00  0.00     0.053 C 
BRANCH   3   4
ATOM      4  C   UNL     1       4.834  10.428  82.407  1.00  0.00     0.041 C 
ATOM      5  O   UNL     1       5.166  10.955  83.501  1.00  0.00    -0.550 OA
ATOM      6  O   UNL     1       4.160  11.183  81.456  1.00  0.00    -0.550 OA
ENDBRANCH   3   4
ENDBRANCH   2   3
ENDBRANCH   1   2
BRANCH   1   7
ATOM      7  C   UNL     1       7.479   7.625  79.357  1.00  0.00     0.000 C 
BRANCH   7   8
ATOM      8  C   UNL     1       8.788   6.813  79.381  1.00  0.00    -0.000 C 
BRANCH   8   9
ATOM      9  C   UNL     1      10.057   7.676  79.219  1.00  0.00    -0.003 C 
ATOM     10  C   UNL     1       9.961   9.011  79.957  1.00  0.00     0.004 C 
ENDBRANCH   8   9
ENDBRANCH   7   8
ENDBRANCH   1   7
TORSDOF 6
ENDMDL
MODEL 5
REMARK VINA RESULT:    -3.933      3.553      5.796
REMARK INTER + INTRA:          -5.498
REMARK INTER:                  -5.262
REMARK INTRA:                  -0.236
REMARK UNBOUND:                -0.186
REMARK SMILES CCCCCCCC(=O)[O-]
REMARK SMILES IDX 5 1 6 2 7 3 8 4 9 5 10 6 4 7 3 8 2 9 1 10
REMARK H PARENT
REMARK Flexibility Score: inf
ROOT
ATOM      1  C   UNL     1       6.682   8.842  81.781  1.00  0.00     0.000 C 
ENDROOT
BRANCH   1   2
ATOM      2  C   UNL     1       5.206   8.399  81.876  1.00  0.00     0.006 C 
BRANCH   2   3
ATOM      3  C   UNL     1       4.298   9.368  82.648  1.00  0.00     0.053 C 
BRANCH   3   4
ATOM      4  C   UNL     1       4.635  10.800  82.366  1.00  0.00     0.041 C 
ATOM      5  O   UNL     1       5.099  11.533  83.280  1.00  0.00    -0.550 OA
ATOM      6  O   UNL     1       4.406  11.335  81.105  1.00  0.00    -0.550 OA
ENDBRANCH   3   4
ENDBRANCH   2   3
ENDBRANCH   1   2
BRANCH   1   7
ATOM      7  C   UNL     1       7.440   8.324  80.545  1.00  0.00     0.000 C 
BRANCH   7   8
ATOM      8  C   UNL     1       7.007   6.931  80.051  1.00  0.00    -0.000 C 
BRANCH   8   9
ATOM      9  C   UNL     1       8.186   6.021  79.645  1.00  0.00    -0.003 C 
ATOM     10  C   UNL     1       9.367   6.806  79.075  1.00  0.00     0.004 C 
ENDBRANCH   8   9
ENDBRANCH   7   8
ENDBRANCH   1   7
TORSDOF 6
ENDMDL
MODEL 6
REMARK VINA RESULT:    -3.923      3.530      5.229
REMARK INTER + INTRA:          -5.484
REMARK INTER:                  -5.083
REMARK INTRA:                  -0.401
REMARK UNBOUND:                -0.186
REMARK SMILES CCCCCCCC(=O)[O-]
REMARK SMILES IDX 5 1 6 2 7 3 8 4 9 5 10 6 4 7 3 8 2 9 1 10
REMARK H PARENT
REMARK Flexibility Score: inf
ROOT
ATOM      1  C   UNL     1       6.403   7.623  80.796  1.00  0.00     0.000 C 
ENDROOT
BRANCH   1   2
ATOM      2  C   UNL     1       7.313   8.854  80.999  1.00  0.00     0.006 C 
BRANCH   2   3
ATOM      3  C   UNL     1       7.437   9.764  79.768  1.00  0.00     0.053 C 
BRANCH   3   4
ATOM      4  C   UNL     1       6.463  10.901  79.807  1.00  0.00     0.041 C 
ATOM      5  O   UNL     1       6.474  11.776  78.902  1.00  0.00    -0.550 OA
ATOM      6  O   UNL     1       5.566  11.013  80.862  1.00  0.00    -0.550 OA
ENDBRANCH   3   4
ENDBRANCH   2   3
ENDBRANCH   1   2
BRANCH   1   7
ATOM      7  C   UNL     1       6.782   6.721  79.607  1.00  0.00     0.000 C 
BRANCH   7   8
ATOM      8  C   UNL     1       7.557   5.443  79.979  1.00  0.00    -0.000 C 
BRANCH   8   9
ATOM      9  C   UNL     1       9.058   5.502  79.626  1.00  0.00    -0.003 C 
ATOM     10  C   UNL     1       9.441   6.785  78.889  1.00  0.00     0.004 C 
ENDBRANCH   8   9
ENDBRANCH   7   8
ENDBRANCH   1   7
TORSDOF 6
ENDMDL
MODEL 7
REMARK VINA RESULT:    -3.789      8.402      9.567
REMARK INTER + INTRA:          -5.303
REMARK INTER:                  -5.163
REMARK INTRA:                  -0.140
REMARK UNBOUND:                -0.186
REMARK SMILES CCCCCCCC(=O)[O-]
REMARK SMILES IDX 5 1 6 2 7 3 8 4 9 5 10 6 4 7 3 8 2 9 1 10
REMARK H PARENT
REMARK Flexibility Score: inf
ROOT
ATOM      1  C   UNL     1       1.538   6.507  85.629  1.00  0.00     0.000 C 
ENDROOT
BRANCH   1   2
ATOM      2  C   UNL     1       1.611   7.485  86.822  1.00  0.00     0.006 C 
BRANCH   2   3
ATOM      3  C   UNL     1       2.648   8.607  86.663  1.00  0.00     0.053 C 
BRANCH   3   4
ATOM      4  C   UNL     1       2.530   9.640  87.741  1.00  0.00     0.041 C 
ATOM      5  O   UNL     1       2.680   9.315  88.949  1.00  0.00    -0.550 OA
ATOM      6  O   UNL     1       2.219  10.954  87.416  1.00  0.00    -0.550 OA
ENDBRANCH   3   4
ENDBRANCH   2   3
ENDBRANCH   1   2
BRANCH   1   7
ATOM      7  C   UNL     1       2.532   5.333  85.685  1.00  0.00     0.000 C 
BRANCH   7   8
ATOM      8  C   UNL     1       2.213   4.258  86.741  1.00  0.00    -0.000 C 
BRANCH   8   9
ATOM      9  C   UNL     1       3.258   3.124  86.809  1.00  0.00    -0.003 C 
ATOM     10  C   UNL     1       2.918   2.072  87.864  1.00  0.00     0.004 C 
ENDBRANCH   8   9
ENDBRANCH   7   8
ENDBRANCH   1   7
TORSDOF 6
ENDMDL
MODEL 8
REMARK VINA RESULT:    -3.783      1.440      2.217
REMARK INTER + INTRA:          -5.295
REMARK INTER:                  -5.099
REMARK INTRA:                  -0.196
REMARK UNBOUND:                -0.186
REMARK SMILES CCCCCCCC(=O)[O-]
REMARK SMILES IDX 5 1 6 2 7 3 8 4 9 5 10 6 4 7 3 8 2 9 1 10
REMARK H PARENT
REMARK Flexibility Score: inf
ROOT
ATOM      1  C   UNL     1       5.746   8.838  81.906  1.00  0.00     0.000 C 
ENDROOT
BRANCH   1   2
ATOM      2  C   UNL     1       7.041   8.557  81.115  1.00  0.00     0.006 C 
BRANCH   2   3
ATOM      3  C   UNL     1       7.009   7.270  80.277  1.00  0.00     0.053 C 
BRANCH   3   4
ATOM      4  C   UNL     1       8.310   7.020  79.579  1.00  0.00     0.041 C 
ATOM      5  O   UNL     1       9.065   7.984  79.283  1.00  0.00    -0.550 OA
ATOM      6  O   UNL     1       8.674   5.727  79.223  1.00  0.00    -0.550 OA
ENDBRANCH   3   4
ENDBRANCH   2   3
ENDBRANCH   1   2
BRANCH   1   7
ATOM      7  C   UNL     1       5.222  10.283  81.809  1.00  0.00     0.000 C 
BRANCH   7   8
ATOM      8  C   UNL     1       3.803  10.502  82.368  1.00  0.00    -0.000 C 
BRANCH   8   9
ATOM      9  C   UNL     1       3.141   9.214  82.902  1.00  0.00    -0.003 C 
ATOM     10  C   UNL     1       2.637   9.361  84.337  1.00  0.00     0.004 C 
ENDBRANCH   8   9
ENDBRANCH   7   8
ENDBRANCH   1   7
TORSDOF 6
ENDMDL
MODEL 9
REMARK VINA RESULT:    -3.715      4.167      6.120
REMARK INTER + INTRA:          -5.204
REMARK INTER:                  -4.998
REMARK INTRA:                  -0.205
REMARK UNBOUND:                -0.186
REMARK SMILES CCCCCCCC(=O)[O-]
REMARK SMILES IDX 5 1 6 2 7 3 8 4 9 5 10 6 4 7 3 8 2 9 1 10
REMARK H PARENT
REMARK Flexibility Score: inf
ROOT
ATOM      1  C   UNL     1       5.527   8.727  81.882  1.00  0.00     0.000 C 
ENDROOT
BRANCH   1   2
ATOM      2  C   UNL     1       5.163  10.133  82.407  1.00  0.00     0.006 C 
BRANCH   2   3
ATOM      3  C   UNL     1       5.065  11.213  81.319  1.00  0.00     0.053 C 
BRANCH   3   4
ATOM      4  C   UNL     1       3.655  11.678  81.113  1.00  0.00     0.041 C 
ATOM      5  O   UNL     1       3.358  12.370  80.103  1.00  0.00    -0.550 OA
ATOM      6  O   UNL     1       2.678  11.377  82.053  1.00  0.00    -0.550 OA
ENDBRANCH   3   4
ENDBRANCH   2   3
ENDBRANCH   1   2
BRANCH   1   7
ATOM      7  C   UNL     1       6.927   8.608  81.252  1.00  0.00     0.000 C 
BRANCH   7   8
ATOM      8  C   UNL     1       7.102   7.435  80.269  1.00  0.00    -0.000 C 
BRANCH   8   9
ATOM      9  C   UNL     1       8.389   7.520  79.422  1.00  0.00    -0.003 C 
ATOM     10  C   UNL     1       9.270   8.709  79.805  1.00  0.00     0.004 C 
ENDBRANCH   8   9
ENDBRANCH   7   8
ENDBRANCH   1   7
TORSDOF 6
ENDMDL
