MODEL 1
REMARK VINA RESULT:    -3.878      0.000      0.000
REMARK INTER + INTRA:          -9.499
REMARK INTER:                  -7.505
REMARK INTRA:                  -1.995
REMARK UNBOUND:                -1.995
REMARK SMILES CCCCCCCCCCCCCCCCCC(=O)[O-]
REMARK SMILES IDX 10 1 11 2 12 3 13 4 14 5 15 6 16 7 17 8 18 9 19 10 20 11
REMARK SMILES IDX 9 12 8 13 7 14 6 15 5 16 4 17 3 18 2 19 1 20
REMARK H PARENT
REMARK Flexibility Score: inf
ROOT
ATOM      1  C   UNL     1      15.930 129.100  59.344  1.00  0.00     0.000 C 
ENDROOT
BRANCH   1   2
ATOM      2  C   UNL     1      15.875 128.307  58.022  1.00  0.00     0.000 C 
BRANCH   2   3
ATOM      3  C   UNL     1      15.162 129.021  56.857  1.00  0.00     0.000 C 
BRANCH   3   4
ATOM      4  C   UNL     1      15.581 128.551  55.453  1.00  0.00     0.000 C 
BRANCH   4   5
ATOM      5  C   UNL     1      16.909 127.780  55.453  1.00  0.00     0.000 C 
BRANCH   5   6
ATOM      6  C   UNL     1      18.063 128.676  54.984  1.00  0.00     0.000 C 
BRANCH   6   7
ATOM      7  C   UNL     1      18.835 129.249  56.177  1.00  0.00     0.006 C 
BRANCH   7   8
ATOM      8  C   UNL     1      18.753 130.778  56.201  1.00  0.00     0.053 C 
BRANCH   8   9
ATOM      9  C   UNL     1      19.592 131.366  55.110  1.00  0.00     0.041 C 
ATOM     10  O   UNL     1      20.841 131.212  55.120  1.00  0.00    -0.550 OA
ATOM     11  O   UNL     1      18.988 132.043  54.058  1.00  0.00    -0.550 OA
ENDBRANCH   8   9
ENDBRANCH   7   8
ENDBRANCH   6   7
ENDBRANCH   5   6
ENDBRANCH   4   5
ENDBRANCH   3   4
ENDBRANCH   2   3
ENDBRANCH   1   2
BRANCH   1  12
ATOM     12  C   UNL     1      16.556 130.502  59.234  1.00  0.00     0.000 C 
BRANCH  12  13
ATOM     13  C   UNL     1      17.541 130.807  60.372  1.00  0.00    -0.000 C 
BRANCH  13  14
ATOM     14  C   UNL     1      18.894 130.126  60.123  1.00  0.00    -0.000 C 
BRANCH  14  15
ATOM     15  C   UNL     1      19.219 129.050  61.172  1.00  0.00    -0.000 C 
BRANCH  15  16
ATOM     16  C   UNL     1      18.303 129.138  62.406  1.00  0.00    -0.000 C 
BRANCH  16  17
ATOM     17  C   UNL     1      17.519 127.840  62.654  1.00  0.00    -0.000 C 
BRANCH  17  18
ATOM     18  C   UNL     1      18.359 126.765  63.367  1.00  0.00    -0.000 C 
BRANCH  18  19
ATOM     19  C   UNL     1      18.125 125.359  62.792  1.00  0.00    -0.003 C 
ATOM     20  C   UNL     1      19.408 124.534  62.707  1.00  0.00     0.004 C 
ENDBRANCH  18  19
ENDBRANCH  17  18
ENDBRANCH  16  17
ENDBRANCH  15  16
ENDBRANCH  14  15
ENDBRANCH  13  14
ENDBRANCH  12  13
ENDBRANCH   1  12
TORSDOF 16
ENDMDL
MODEL 2
REMARK VINA RESULT:    -3.874      3.441      7.482
REMARK INTER + INTRA:          -9.491
REMARK INTER:                  -7.016
REMARK INTRA:                  -2.476
REMARK UNBOUND:                -1.995
REMARK SMILES CCCCCCCCCCCCCCCCCC(=O)[O-]
REMARK SMILES IDX 10 1 11 2 12 3 13 4 14 5 15 6 16 7 17 8 18 9 19 10 20 11
REMARK SMILES IDX 9 12 8 13 7 14 6 15 5 16 4 17 3 18 2 19 1 20
REMARK H PARENT
REMARK Flexibility Score: inf
ROOT
ATOM      1  C   UNL     1      15.308 128.936  56.879  1.00  0.00     0.000 C 
ENDROOT
BRANCH   1   2
ATOM      2  C   UNL     1      16.691 128.727  57.528  1.00  0.00     0.000 C 
BRANCH   2   3
ATOM      3  C   UNL     1      17.158 129.864  58.458  1.00  0.00     0.000 C 
BRANCH   3   4
ATOM      4  C   UNL     1      18.685 130.014  58.587  1.00  0.00     0.000 C 
BRANCH   4   5
ATOM      5  C   UNL     1      19.173 129.925  60.040  1.00  0.00     0.000 C 
BRANCH   5   6
ATOM      6  C   UNL     1      18.137 130.517  61.003  1.00  0.00     0.000 C 
BRANCH   6   7
ATOM      7  C   UNL     1      18.117 129.751  62.331  1.00  0.00     0.006 C 
BRANCH   7   8
ATOM      8  C   UNL     1      18.933 128.460  62.232  1.00  0.00     0.053 C 
BRANCH   8   9
ATOM      9  C   UNL     1      18.388 127.422  63.162  1.00  0.00     0.041 C 
ATOM     10  O   UNL     1      18.574 126.200  62.926  1.00  0.00    -0.550 OA
ATOM     11  O   UNL     1      17.717 127.808  64.316  1.00  0.00    -0.550 OA
ENDBRANCH   8   9
ENDBRANCH   7   8
ENDBRANCH   6   7
ENDBRANCH   5   6
ENDBRANCH   4   5
ENDBRANCH   3   4
ENDBRANCH   2   3
ENDBRANCH   1   2
BRANCH   1  12
ATOM     12  C   UNL     1      15.211 128.507  55.404  1.00  0.00     0.000 C 
BRANCH  12  13
ATOM     13  C   UNL     1      16.295 127.495  55.004  1.00  0.00    -0.000 C 
BRANCH  13  14
ATOM     14  C   UNL     1      16.659 127.642  53.520  1.00  0.00    -0.000 C 
BRANCH  14  15
ATOM     15  C   UNL     1      17.526 128.881  53.241  1.00  0.00    -0.000 C 
BRANCH  15  16
ATOM     16  C   UNL     1      18.625 129.078  54.301  1.00  0.00    -0.000 C 
BRANCH  16  17
ATOM     17  C   UNL     1      18.657 130.510  54.859  1.00  0.00    -0.000 C 
BRANCH  17  18
ATOM     18  C   UNL     1      17.488 131.372  54.351  1.00  0.00    -0.000 C 
BRANCH  18  19
ATOM     19  C   UNL     1      16.746 132.087  55.491  1.00  0.00    -0.003 C 
ATOM     20  C   UNL     1      17.677 132.917  56.374  1.00  0.00     0.004 C 
ENDBRANCH  18  19
ENDBRANCH  17  18
ENDBRANCH  16  17
ENDBRANCH  15  16
ENDBRANCH  14  15
ENDBRANCH  13  14
ENDBRANCH  12  13
ENDBRANCH   1  12
TORSDOF 16
ENDMDL
MODEL 3
REMARK VINA RESULT:    -3.825      4.262      6.649
REMARK INTER + INTRA:          -9.398
REMARK INTER:                  -6.466
REMARK INTRA:                  -2.932
REMARK UNBOUND:                -1.995
REMARK SMILES CCCCCCCCCCCCCCCCCC(=O)[O-]
REMARK SMILES IDX 10 1 11 2 12 3 13 4 14 5 15 6 16 7 17 8 18 9 19 10 20 11
REMARK SMILES IDX 9 12 8 13 7 14 6 15 5 16 4 17 3 18 2 19 1 20
REMARK H PARENT
REMARK Flexibility Score: inf
ROOT
ATOM      1  C   UNL     1      19.746 130.428  55.832  1.00  0.00     0.000 C 
ENDROOT
BRANCH   1   2
ATOM      2  C   UNL     1      18.865 129.563  56.757  1.00  0.00     0.000 C 
BRANCH   2   3
ATOM      3  C   UNL     1      17.359 129.576  56.429  1.00  0.00     0.000 C 
BRANCH   3   4
ATOM      4  C   UNL     1      16.619 128.257  56.718  1.00  0.00     0.000 C 
BRANCH   4   5
ATOM      5  C   UNL     1      16.328 127.446  55.447  1.00  0.00     0.000 C 
BRANCH   5   6
ATOM      6  C   UNL     1      15.910 128.365  54.293  1.00  0.00     0.000 C 
BRANCH   6   7
ATOM      7  C   UNL     1      16.315 127.771  52.940  1.00  0.00     0.006 C 
BRANCH   7   8
ATOM      8  C   UNL     1      17.390 128.626  52.263  1.00  0.00     0.053 C 
BRANCH   8   9
ATOM      9  C   UNL     1      16.902 129.135  50.944  1.00  0.00     0.041 C 
ATOM     10  O   UNL     1      16.100 130.104  50.896  1.00  0.00    -0.550 OA
ATOM     11  O   UNL     1      17.370 128.568  49.764  1.00  0.00    -0.550 OA
ENDBRANCH   8   9
ENDBRANCH   7   8
ENDBRANCH   6   7
ENDBRANCH   5   6
ENDBRANCH   4   5
ENDBRANCH   3   4
ENDBRANCH   2   3
ENDBRANCH   1   2
BRANCH   1  12
ATOM     12  C   UNL     1      19.170 130.669  54.426  1.00  0.00     0.000 C 
BRANCH  12  13
ATOM     13  C   UNL     1      19.307 132.128  53.966  1.00  0.00    -0.000 C 
BRANCH  13  14
ATOM     14  C   UNL     1      18.072 132.569  53.168  1.00  0.00    -0.000 C 
BRANCH  14  15
ATOM     15  C   UNL     1      16.758 132.052  53.776  1.00  0.00    -0.000 C 
BRANCH  15  16
ATOM     16  C   UNL     1      15.899 133.184  54.367  1.00  0.00    -0.000 C 
BRANCH  16  17
ATOM     17  C   UNL     1      16.646 133.996  55.437  1.00  0.00    -0.000 C 
BRANCH  17  18
ATOM     18  C   UNL     1      16.601 133.333  56.825  1.00  0.00    -0.000 C 
BRANCH  18  19
ATOM     19  C   UNL     1      17.998 133.174  57.446  1.00  0.00    -0.003 C 
ATOM     20  C   UNL     1      18.977 134.251  56.980  1.00  0.00     0.004 C 
ENDBRANCH  18  19
ENDBRANCH  17  18
ENDBRANCH  16  17
ENDBRANCH  15  16
ENDBRANCH  14  15
ENDBRANCH  13  14
ENDBRANCH  12  13
ENDBRANCH   1  12
TORSDOF 16
ENDMDL
MODEL 4
REMARK VINA RESULT:    -3.812      3.376      6.730
REMARK INTER + INTRA:          -9.373
REMARK INTER:                  -6.714
REMARK INTRA:                  -2.659
REMARK UNBOUND:                -1.995
REMARK SMILES CCCCCCCCCCCCCCCCCC(=O)[O-]
REMARK SMILES IDX 10 1 11 2 12 3 13 4 14 5 15 6 16 7 17 8 18 9 19 10 20 11
REMARK SMILES IDX 9 12 8 13 7 14 6 15 5 16 4 17 3 18 2 19 1 20
REMARK H PARENT
REMARK Flexibility Score: inf
ROOT
ATOM      1  C   UNL     1      15.144 129.364  56.778  1.00  0.00     0.000 C 
ENDROOT
BRANCH   1   2
ATOM      2  C   UNL     1      15.777 128.557  57.931  1.00  0.00     0.000 C 
BRANCH   2   3
ATOM      3  C   UNL     1      14.879 128.369  59.170  1.00  0.00     0.000 C 
BRANCH   3   4
ATOM      4  C   UNL     1      15.579 128.600  60.521  1.00  0.00     0.000 C 
BRANCH   4   5
ATOM      5  C   UNL     1      15.777 130.088  60.844  1.00  0.00     0.000 C 
BRANCH   5   6
ATOM      6  C   UNL     1      17.239 130.381  61.203  1.00  0.00     0.000 C 
BRANCH   6   7
ATOM      7  C   UNL     1      18.158 129.244  60.744  1.00  0.00     0.006 C 
BRANCH   7   8
ATOM      8  C   UNL     1      19.210 128.924  61.810  1.00  0.00     0.053 C 
BRANCH   8   9
ATOM      9  C   UNL     1      18.585 128.214  62.969  1.00  0.00     0.041 C 
ATOM     10  O   UNL     1      17.984 127.122  62.792  1.00  0.00    -0.550 OA
ATOM     11  O   UNL     1      18.706 128.735  64.251  1.00  0.00    -0.550 OA
ENDBRANCH   8   9
ENDBRANCH   7   8
ENDBRANCH   6   7
ENDBRANCH   5   6
ENDBRANCH   4   5
ENDBRANCH   3   4
ENDBRANCH   2   3
ENDBRANCH   1   2
BRANCH   1  12
ATOM     12  C   UNL     1      15.258 128.710  55.390  1.00  0.00     0.000 C 
BRANCH  12  13
ATOM     13  C   UNL     1      16.176 127.479  55.383  1.00  0.00    -0.000 C 
BRANCH  13  14
ATOM     14  C   UNL     1      17.524 127.805  54.724  1.00  0.00    -0.000 C 
BRANCH  14  15
ATOM     15  C   UNL     1      17.532 129.183  54.042  1.00  0.00    -0.000 C 
BRANCH  15  16
ATOM     16  C   UNL     1      18.523 130.158  54.702  1.00  0.00    -0.000 C 
BRANCH  16  17
ATOM     17  C   UNL     1      19.344 129.499  55.822  1.00  0.00    -0.000 C 
BRANCH  17  18
ATOM     18  C   UNL     1      18.978 130.031  57.219  1.00  0.00    -0.000 C 
BRANCH  18  19
ATOM     19  C   UNL     1      18.735 131.548  57.226  1.00  0.00    -0.003 C 
ATOM     20  C   UNL     1      17.420 131.934  57.901  1.00  0.00     0.004 C 
ENDBRANCH  18  19
ENDBRANCH  17  18
ENDBRANCH  16  17
ENDBRANCH  15  16
ENDBRANCH  14  15
ENDBRANCH  13  14
ENDBRANCH  12  13
ENDBRANCH   1  12
TORSDOF 16
ENDMDL
MODEL 5
REMARK VINA RESULT:    -3.786      3.913      6.372
REMARK INTER + INTRA:          -9.322
REMARK INTER:                  -6.642
REMARK INTRA:                  -2.680
REMARK UNBOUND:                -1.995
REMARK SMILES CCCCCCCCCCCCCCCCCC(=O)[O-]
REMARK SMILES IDX 10 1 11 2 12 3 13 4 14 5 15 6 16 7 17 8 18 9 19 10 20 11
REMARK SMILES IDX 9 12 8 13 7 14 6 15 5 16 4 17 3 18 2 19 1 20
REMARK H PARENT
REMARK Flexibility Score: inf
ROOT
ATOM      1  C   UNL     1      14.369 128.982  53.625  1.00  0.00     0.000 C 
ENDROOT
BRANCH   1   2
ATOM      2  C   UNL     1      14.224 130.517  53.607  1.00  0.00     0.000 C 
BRANCH   2   3
ATOM      3  C   UNL     1      15.319 131.289  54.370  1.00  0.00     0.000 C 
BRANCH   3   4
ATOM      4  C   UNL     1      16.269 132.114  53.485  1.00  0.00     0.000 C 
BRANCH   4   5
ATOM      5  C   UNL     1      15.876 132.087  52.000  1.00  0.00     0.000 C 
BRANCH   5   6
ATOM      6  C   UNL     1      16.884 131.274  51.181  1.00  0.00     0.000 C 
BRANCH   6   7
ATOM      7  C   UNL     1      16.173 130.238  50.302  1.00  0.00     0.006 C 
BRANCH   7   8
ATOM      8  C   UNL     1      17.091 129.050  50.001  1.00  0.00     0.053 C 
BRANCH   8   9
ATOM      9  C   UNL     1      16.859 128.547  48.611  1.00  0.00     0.041 C 
ATOM     10  O   UNL     1      17.723 127.826  48.047  1.00  0.00    -0.550 OA
ATOM     11  O   UNL     1      15.667 128.836  47.957  1.00  0.00    -0.550 OA
ENDBRANCH   8   9
ENDBRANCH   7   8
ENDBRANCH   6   7
ENDBRANCH   5   6
ENDBRANCH   4   5
ENDBRANCH   3   4
ENDBRANCH   2   3
ENDBRANCH   1   2
BRANCH   1  12
ATOM     12  C   UNL     1      15.482 128.445  54.542  1.00  0.00     0.000 C 
BRANCH  12  13
ATOM     13  C   UNL     1      16.600 127.730  53.768  1.00  0.00    -0.000 C 
BRANCH  13  14
ATOM     14  C   UNL     1      17.799 128.664  53.550  1.00  0.00    -0.000 C 
BRANCH  14  15
ATOM     15  C   UNL     1      18.691 128.783  54.796  1.00  0.00    -0.000 C 
BRANCH  15  16
ATOM     16  C   UNL     1      19.024 130.246  55.143  1.00  0.00    -0.000 C 
BRANCH  16  17
ATOM     17  C   UNL     1      18.638 130.614  56.584  1.00  0.00    -0.000 C 
BRANCH  17  18
ATOM     18  C   UNL     1      17.734 129.559  57.246  1.00  0.00    -0.000 C 
BRANCH  18  19
ATOM     19  C   UNL     1      17.546 129.807  58.751  1.00  0.00    -0.003 C 
ATOM     20  C   UNL     1      18.861 130.098  59.471  1.00  0.00     0.004 C 
ENDBRANCH  18  19
ENDBRANCH  17  18
ENDBRANCH  16  17
ENDBRANCH  15  16
ENDBRANCH  14  15
ENDBRANCH  13  14
ENDBRANCH  12  13
ENDBRANCH   1  12
TORSDOF 16
ENDMDL
MODEL 6
REMARK VINA RESULT:    -3.783      3.389      7.227
REMARK INTER + INTRA:          -9.317
REMARK INTER:                  -6.881
REMARK INTRA:                  -2.436
REMARK UNBOUND:                -1.995
REMARK SMILES CCCCCCCCCCCCCCCCCC(=O)[O-]
REMARK SMILES IDX 10 1 11 2 12 3 13 4 14 5 15 6 16 7 17 8 18 9 19 10 20 11
REMARK SMILES IDX 9 12 8 13 7 14 6 15 5 16 4 17 3 18 2 19 1 20
REMARK H PARENT
REMARK Flexibility Score: inf
ROOT
ATOM      1  C   UNL     1      15.608 128.436  55.880  1.00  0.00     0.000 C 
ENDROOT
BRANCH   1   2
ATOM      2  C   UNL     1      15.748 128.651  57.401  1.00  0.00     0.000 C 
BRANCH   2   3
ATOM      3  C   UNL     1      15.555 130.103  57.879  1.00  0.00     0.000 C 
BRANCH   3   4
ATOM      4  C   UNL     1      16.538 130.564  58.970  1.00  0.00     0.000 C 
BRANCH   4   5
ATOM      5  C   UNL     1      16.877 129.454  59.976  1.00  0.00     0.000 C 
BRANCH   5   6
ATOM      6  C   UNL     1      18.252 129.692  60.612  1.00  0.00     0.000 C 
BRANCH   6   7
ATOM      7  C   UNL     1      18.138 129.830  62.134  1.00  0.00     0.006 C 
BRANCH   7   8
ATOM      8  C   UNL     1      18.880 128.695  62.846  1.00  0.00     0.053 C 
BRANCH   8   9
ATOM      9  C   UNL     1      17.988 127.504  63.005  1.00  0.00     0.041 C 
ATOM     10  O   UNL     1      16.752 127.658  63.184  1.00  0.00    -0.550 OA
ATOM     11  O   UNL     1      18.516 126.222  62.908  1.00  0.00    -0.550 OA
ENDBRANCH   8   9
ENDBRANCH   7   8
ENDBRANCH   6   7
ENDBRANCH   5   6
ENDBRANCH   4   5
ENDBRANCH   3   4
ENDBRANCH   2   3
ENDBRANCH   1   2
BRANCH   1  12
ATOM     12  C   UNL     1      16.599 127.428  55.272  1.00  0.00     0.000 C 
BRANCH  12  13
ATOM     13  C   UNL     1      16.622 127.465  53.737  1.00  0.00    -0.000 C 
BRANCH  13  14
ATOM     14  C   UNL     1      15.963 128.747  53.210  1.00  0.00    -0.000 C 
BRANCH  14  15
ATOM     15  C   UNL     1      16.985 129.759  52.666  1.00  0.00    -0.000 C 
BRANCH  15  16
ATOM     16  C   UNL     1      17.223 130.932  53.634  1.00  0.00    -0.000 C 
BRANCH  16  17
ATOM     17  C   UNL     1      18.610 130.880  54.296  1.00  0.00    -0.000 C 
BRANCH  17  18
ATOM     18  C   UNL     1      18.539 130.950  55.831  1.00  0.00    -0.000 C 
BRANCH  18  19
ATOM     19  C   UNL     1      19.227 129.754  56.507  1.00  0.00    -0.003 C 
ATOM     20  C   UNL     1      20.014 128.891  55.521  1.00  0.00     0.004 C 
ENDBRANCH  18  19
ENDBRANCH  17  18
ENDBRANCH  16  17
ENDBRANCH  15  16
ENDBRANCH  14  15
ENDBRANCH  13  14
ENDBRANCH  12  13
ENDBRANCH   1  12
TORSDOF 16
ENDMDL
MODEL 7
REMARK VINA RESULT:    -3.774      4.347      6.891
REMARK INTER + INTRA:          -9.299
REMARK INTER:                  -6.627
REMARK INTRA:                  -2.672
REMARK UNBOUND:                -1.995
REMARK SMILES CCCCCCCCCCCCCCCCCC(=O)[O-]
REMARK SMILES IDX 10 1 11 2 12 3 13 4 14 5 15 6 16 7 17 8 18 9 19 10 20 11
REMARK SMILES IDX 9 12 8 13 7 14 6 15 5 16 4 17 3 18 2 19 1 20
REMARK H PARENT
REMARK Flexibility Score: inf
ROOT
ATOM      1  C   UNL     1      16.304 127.684  55.813  1.00  0.00     0.000 C 
ENDROOT
BRANCH   1   2
ATOM      2  C   UNL     1      17.104 127.543  54.502  1.00  0.00     0.000 C 
BRANCH   2   3
ATOM      3  C   UNL     1      16.320 127.876  53.217  1.00  0.00     0.000 C 
BRANCH   3   4
ATOM      4  C   UNL     1      15.076 128.757  53.424  1.00  0.00     0.000 C 
BRANCH   4   5
ATOM      5  C   UNL     1      15.183 130.117  52.718  1.00  0.00     0.000 C 
BRANCH   5   6
ATOM      6  C   UNL     1      16.623 130.387  52.264  1.00  0.00     0.000 C 
BRANCH   6   7
ATOM      7  C   UNL     1      16.649 131.234  50.987  1.00  0.00     0.006 C 
BRANCH   7   8
ATOM      8  C   UNL     1      16.101 130.446  49.794  1.00  0.00     0.053 C 
BRANCH   8   9
ATOM      9  C   UNL     1      17.208 129.736  49.080  1.00  0.00     0.041 C 
ATOM     10  O   UNL     1      17.601 128.610  49.483  1.00  0.00    -0.550 OA
ATOM     11  O   UNL     1      17.773 130.297  47.942  1.00  0.00    -0.550 OA
ENDBRANCH   8   9
ENDBRANCH   7   8
ENDBRANCH   6   7
ENDBRANCH   5   6
ENDBRANCH   4   5
ENDBRANCH   3   4
ENDBRANCH   2   3
ENDBRANCH   1   2
BRANCH   1  12
ATOM     12  C   UNL     1      16.914 128.648  56.846  1.00  0.00     0.000 C 
BRANCH  12  13
ATOM     13  C   UNL     1      16.824 130.120  56.415  1.00  0.00    -0.000 C 
BRANCH  13  14
ATOM     14  C   UNL     1      17.992 130.932  56.991  1.00  0.00    -0.000 C 
BRANCH  14  15
ATOM     15  C   UNL     1      19.313 130.682  56.244  1.00  0.00    -0.000 C 
BRANCH  15  16
ATOM     16  C   UNL     1      19.144 130.746  54.716  1.00  0.00    -0.000 C 
BRANCH  16  17
ATOM     17  C   UNL     1      19.752 132.019  54.107  1.00  0.00    -0.000 C 
BRANCH  17  18
ATOM     18  C   UNL     1      19.028 133.299  54.559  1.00  0.00    -0.000 C 
BRANCH  18  19
ATOM     19  C   UNL     1      17.830 133.645  53.661  1.00  0.00    -0.003 C 
ATOM     20  C   UNL     1      16.487 133.446  54.364  1.00  0.00     0.004 C 
ENDBRANCH  18  19
ENDBRANCH  17  18
ENDBRANCH  16  17
ENDBRANCH  15  16
ENDBRANCH  14  15
ENDBRANCH  13  14
ENDBRANCH  12  13
ENDBRANCH   1  12
TORSDOF 16
ENDMDL
MODEL 8
REMARK VINA RESULT:    -3.770      3.576      6.036
REMARK INTER + INTRA:          -9.291
REMARK INTER:                  -6.112
REMARK INTRA:                  -3.179
REMARK UNBOUND:                -1.995
REMARK SMILES CCCCCCCCCCCCCCCCCC(=O)[O-]
REMARK SMILES IDX 10 1 11 2 12 3 13 4 14 5 15 6 16 7 17 8 18 9 19 10 20 11
REMARK SMILES IDX 9 12 8 13 7 14 6 15 5 16 4 17 3 18 2 19 1 20
REMARK H PARENT
REMARK Flexibility Score: inf
ROOT
ATOM      1  C   UNL     1      16.304 130.421  57.725  1.00  0.00     0.000 C 
ENDROOT
BRANCH   1   2
ATOM      2  C   UNL     1      15.627 129.704  56.538  1.00  0.00     0.000 C 
BRANCH   2   3
ATOM      3  C   UNL     1      15.724 128.166  56.558  1.00  0.00     0.000 C 
BRANCH   3   4
ATOM      4  C   UNL     1      16.158 127.524  55.228  1.00  0.00     0.000 C 
BRANCH   4   5
ATOM      5  C   UNL     1      15.966 128.458  54.025  1.00  0.00     0.000 C 
BRANCH   5   6
ATOM      6  C   UNL     1      16.506 127.817  52.741  1.00  0.00     0.000 C 
BRANCH   6   7
ATOM      7  C   UNL     1      17.463 128.766  52.011  1.00  0.00     0.006 C 
BRANCH   7   8
ATOM      8  C   UNL     1      16.861 129.239  50.684  1.00  0.00     0.053 C 
BRANCH   8   9
ATOM      9  C   UNL     1      16.202 130.572  50.853  1.00  0.00     0.041 C 
ATOM     10  O   UNL     1      16.899 131.604  51.036  1.00  0.00    -0.550 OA
ATOM     11  O   UNL     1      14.820 130.680  50.760  1.00  0.00    -0.550 OA
ENDBRANCH   8   9
ENDBRANCH   7   8
ENDBRANCH   6   7
ENDBRANCH   5   6
ENDBRANCH   4   5
ENDBRANCH   3   4
ENDBRANCH   2   3
ENDBRANCH   1   2
BRANCH   1  12
ATOM     12  C   UNL     1      17.608 129.770  58.218  1.00  0.00     0.000 C 
BRANCH  12  13
ATOM     13  C   UNL     1      18.859 130.363  57.554  1.00  0.00    -0.000 C 
BRANCH  13  14
ATOM     14  C   UNL     1      19.449 129.386  56.527  1.00  0.00    -0.000 C 
BRANCH  14  15
ATOM     15  C   UNL     1      19.207 129.834  55.076  1.00  0.00    -0.000 C 
BRANCH  15  16
ATOM     16  C   UNL     1      19.042 131.359  54.952  1.00  0.00    -0.000 C 
BRANCH  16  17
ATOM     17  C   UNL     1      17.722 131.757  54.273  1.00  0.00    -0.000 C 
BRANCH  17  18
ATOM     18  C   UNL     1      16.984 132.882  55.020  1.00  0.00    -0.000 C 
BRANCH  18  19
ATOM     19  C   UNL     1      17.850 133.528  56.113  1.00  0.00    -0.003 C 
ATOM     20  C   UNL     1      17.024 134.065  57.281  1.00  0.00     0.004 C 
ENDBRANCH  18  19
ENDBRANCH  17  18
ENDBRANCH  16  17
ENDBRANCH  15  16
ENDBRANCH  14  15
ENDBRANCH  13  14
ENDBRANCH  12  13
ENDBRANCH   1  12
TORSDOF 16
ENDMDL
MODEL 9
REMARK VINA RESULT:    -3.767      2.071      2.876
REMARK INTER + INTRA:          -9.284
REMARK INTER:                  -6.657
REMARK INTRA:                  -2.627
REMARK UNBOUND:                -1.995
REMARK SMILES CCCCCCCCCCCCCCCCCC(=O)[O-]
REMARK SMILES IDX 10 1 11 2 12 3 13 4 14 5 15 6 16 7 17 8 18 9 19 10 20 11
REMARK SMILES IDX 9 12 8 13 7 14 6 15 5 16 4 17 3 18 2 19 1 20
REMARK H PARENT
REMARK Flexibility Score: inf
ROOT
ATOM      1  C   UNL     1      16.481 128.621  57.303  1.00  0.00     0.000 C 
ENDROOT
BRANCH   1   2
ATOM      2  C   UNL     1      16.406 127.807  55.995  1.00  0.00     0.000 C 
BRANCH   2   3
ATOM      3  C   UNL     1      15.390 128.324  54.957  1.00  0.00     0.000 C 
BRANCH   3   4
ATOM      4  C   UNL     1      15.846 128.216  53.491  1.00  0.00     0.000 C 
BRANCH   4   5
ATOM      5  C   UNL     1      17.345 128.499  53.310  1.00  0.00     0.000 C 
BRANCH   5   6
ATOM      6  C   UNL     1      17.619 130.007  53.285  1.00  0.00     0.000 C 
BRANCH   6   7
ATOM      7  C   UNL     1      18.713 130.385  54.290  1.00  0.00     0.006 C 
BRANCH   7   8
ATOM      8  C   UNL     1      18.808 131.905  54.453  1.00  0.00     0.053 C 
BRANCH   8   9
ATOM      9  C   UNL     1      20.033 132.274  55.229  1.00  0.00     0.041 C 
ATOM     10  O   UNL     1      19.940 133.007  56.248  1.00  0.00    -0.550 OA
ATOM     11  O   UNL     1      21.272 131.769  54.853  1.00  0.00    -0.550 OA
ENDBRANCH   8   9
ENDBRANCH   7   8
ENDBRANCH   6   7
ENDBRANCH   5   6
ENDBRANCH   4   5
ENDBRANCH   3   4
ENDBRANCH   2   3
ENDBRANCH   1   2
BRANCH   1  12
ATOM     12  C   UNL     1      16.399 130.147  57.123  1.00  0.00     0.000 C 
BRANCH  12  13
ATOM     13  C   UNL     1      17.444 130.903  57.957  1.00  0.00    -0.000 C 
BRANCH  13  14
ATOM     14  C   UNL     1      18.731 130.078  58.102  1.00  0.00    -0.000 C 
BRANCH  14  15
ATOM     15  C   UNL     1      19.312 130.130  59.524  1.00  0.00    -0.000 C 
BRANCH  15  16
ATOM     16  C   UNL     1      18.230 130.371  60.592  1.00  0.00    -0.000 C 
BRANCH  16  17
ATOM     17  C   UNL     1      17.956 129.124  61.448  1.00  0.00    -0.000 C 
BRANCH  17  18
ATOM     18  C   UNL     1      16.473 128.983  61.835  1.00  0.00    -0.000 C 
BRANCH  18  19
ATOM     19  C   UNL     1      15.541 129.741  60.877  1.00  0.00    -0.003 C 
ATOM     20  C   UNL     1      14.412 128.866  60.334  1.00  0.00     0.004 C 
ENDBRANCH  18  19
ENDBRANCH  17  18
ENDBRANCH  16  17
ENDBRANCH  15  16
ENDBRANCH  14  15
ENDBRANCH  13  14
ENDBRANCH  12  13
ENDBRANCH   1  12
TORSDOF 16
ENDMDL
