MODEL 1
REMARK VINA RESULT:    -5.637      0.000      0.000
REMARK INTER + INTRA:          -6.547
REMARK INTER:                  -6.297
REMARK INTRA:                  -0.250
REMARK UNBOUND:                -0.250
REMARK SMILES O=C([O-])C=Cc1ccccc1
REMARK SMILES IDX 4 1 5 2 2 3 1 4 3 5 6 6 7 7 11 8 8 9 10 10 9 11
REMARK H PARENT
REMARK Flexibility Score: inf
ROOT
ATOM      1  C   UNL     1       5.710  -3.964 -24.358  1.00  0.00     0.025 C 
ATOM      2  C   UNL     1       5.887  -3.788 -23.040  1.00  0.00     0.010 C 
ENDROOT
BRANCH   1   3
ATOM      3  C   UNL     1       5.033  -3.018 -25.265  1.00  0.00     0.064 C 
ATOM      4  O   UNL     1       3.777  -3.035 -25.347  1.00  0.00    -0.545 OA
ATOM      5  O   UNL     1       5.753  -2.158 -26.087  1.00  0.00    -0.545 OA
ENDBRANCH   1   3
BRANCH   2   6
ATOM      6  C   UNL     1       5.273  -2.714 -22.231  1.00  0.00    -0.026 A 
ATOM      7  C   UNL     1       3.999  -2.871 -21.657  1.00  0.00     0.008 A 
ATOM      8  C   UNL     1       6.017  -1.559 -21.944  1.00  0.00     0.008 A 
ATOM      9  C   UNL     1       3.460  -1.864 -20.852  1.00  0.00     0.001 A 
ATOM     10  C   UNL     1       5.475  -0.553 -21.139  1.00  0.00     0.001 A 
ATOM     11  C   UNL     1       4.195  -0.703 -20.597  1.00  0.00     0.000 A 
ENDBRANCH   2   6
TORSDOF 2
ENDMDL
MODEL 2
REMARK VINA RESULT:    -5.573      0.221      1.767
REMARK INTER + INTRA:          -6.475
REMARK INTER:                  -6.198
REMARK INTRA:                  -0.277
REMARK UNBOUND:                -0.250
REMARK SMILES O=C([O-])C=Cc1ccccc1
REMARK SMILES IDX 4 1 5 2 2 3 1 4 3 5 6 6 7 7 11 8 8 9 10 10 9 11
REMARK H PARENT
REMARK Flexibility Score: inf
ROOT
ATOM      1  C   UNL     1       5.539  -3.874 -24.455  1.00  0.00     0.025 C 
ATOM      2  C   UNL     1       5.804  -3.794 -23.143  1.00  0.00     0.010 C 
ENDROOT
BRANCH   1   3
ATOM      3  C   UNL     1       4.826  -2.853 -25.248  1.00  0.00     0.064 C 
ATOM      4  O   UNL     1       5.481  -1.922 -25.785  1.00  0.00    -0.545 OA
ATOM      5  O   UNL     1       3.440  -2.855 -25.356  1.00  0.00    -0.545 OA
ENDBRANCH   1   3
BRANCH   2   6
ATOM      6  C   UNL     1       5.269  -2.769 -22.223  1.00  0.00    -0.026 A 
ATOM      7  C   UNL     1       5.975  -1.581 -21.964  1.00  0.00     0.008 A 
ATOM      8  C   UNL     1       3.985  -2.937 -21.680  1.00  0.00     0.008 A 
ATOM      9  C   UNL     1       5.426  -0.602 -21.131  1.00  0.00     0.001 A 
ATOM     10  C   UNL     1       3.439  -1.955 -20.847  1.00  0.00     0.001 A 
ATOM     11  C   UNL     1       4.161  -0.791 -20.569  1.00  0.00     0.000 A 
ENDBRANCH   2   6
TORSDOF 2
ENDMDL
MODEL 3
REMARK VINA RESULT:    -5.527      2.099      3.603
REMARK INTER + INTRA:          -6.424
REMARK INTER:                  -6.156
REMARK INTRA:                  -0.268
REMARK UNBOUND:                -0.250
REMARK SMILES O=C([O-])C=Cc1ccccc1
REMARK SMILES IDX 4 1 5 2 2 3 1 4 3 5 6 6 7 7 11 8 8 9 10 10 9 11
REMARK H PARENT
REMARK Flexibility Score: inf
ROOT
ATOM      1  C   UNL     1       5.870   0.599 -21.962  1.00  0.00     0.025 C 
ATOM      2  C   UNL     1       5.774  -0.515 -21.221  1.00  0.00     0.010 C 
ENDROOT
BRANCH   1   3
ATOM      3  C   UNL     1       5.112   0.873 -23.198  1.00  0.00     0.064 C 
ATOM      4  O   UNL     1       4.073   1.580 -23.139  1.00  0.00    -0.545 OA
ATOM      5  O   UNL     1       5.479   0.309 -24.415  1.00  0.00    -0.545 OA
ENDBRANCH   1   3
BRANCH   2   6
ATOM      6  C   UNL     1       5.041  -1.739 -21.608  1.00  0.00    -0.026 A 
ATOM      7  C   UNL     1       5.648  -2.736 -22.390  1.00  0.00     0.008 A 
ATOM      8  C   UNL     1       3.751  -1.957 -21.097  1.00  0.00     0.008 A 
ATOM      9  C   UNL     1       4.953  -3.909 -22.700  1.00  0.00     0.001 A 
ATOM     10  C   UNL     1       3.060  -3.131 -21.409  1.00  0.00     0.001 A 
ATOM     11  C   UNL     1       3.658  -4.105 -22.214  1.00  0.00     0.000 A 
ENDBRANCH   2   6
TORSDOF 2
ENDMDL
MODEL 4
REMARK VINA RESULT:    -5.476     10.962     12.450
REMARK INTER + INTRA:          -6.367
REMARK INTER:                  -6.097
REMARK INTRA:                  -0.270
REMARK UNBOUND:                -0.250
REMARK SMILES O=C([O-])C=Cc1ccccc1
REMARK SMILES IDX 4 1 5 2 2 3 1 4 3 5 6 6 7 7 11 8 8 9 10 10 9 11
REMARK H PARENT
REMARK Flexibility Score: inf
ROOT
ATOM      1  C   UNL     1       2.508  10.865 -23.718  1.00  0.00     0.025 C 
ATOM      2  C   UNL     1       3.414  10.948 -22.733  1.00  0.00     0.010 C 
ENDROOT
BRANCH   1   3
ATOM      3  C   UNL     1       2.451   9.803 -24.742  1.00  0.00     0.064 C 
ATOM      4  O   UNL     1       1.685   8.820 -24.567  1.00  0.00    -0.545 OA
ATOM      5  O   UNL     1       3.277   9.827 -25.860  1.00  0.00    -0.545 OA
ENDBRANCH   1   3
BRANCH   2   6
ATOM      6  C   UNL     1       4.622  10.105 -22.608  1.00  0.00    -0.026 A 
ATOM      7  C   UNL     1       5.853  10.509 -23.154  1.00  0.00     0.008 A 
ATOM      8  C   UNL     1       4.563   8.931 -21.841  1.00  0.00     0.008 A 
ATOM      9  C   UNL     1       6.994   9.721 -22.978  1.00  0.00     0.001 A 
ATOM     10  C   UNL     1       5.707   8.145 -21.668  1.00  0.00     0.001 A 
ATOM     11  C   UNL     1       6.920   8.537 -22.240  1.00  0.00     0.000 A 
ENDBRANCH   2   6
TORSDOF 2
ENDMDL
MODEL 5
REMARK VINA RESULT:    -5.294      9.415     10.922
REMARK INTER + INTRA:          -6.163
REMARK INTER:                  -5.900
REMARK INTRA:                  -0.264
REMARK UNBOUND:                -0.250
REMARK SMILES O=C([O-])C=Cc1ccccc1
REMARK SMILES IDX 4 1 5 2 2 3 1 4 3 5 6 6 7 7 11 8 8 9 10 10 9 11
REMARK H PARENT
REMARK Flexibility Score: inf
ROOT
ATOM      1  C   UNL     1       4.037   6.373 -21.632  1.00  0.00     0.025 C 
ATOM      2  C   UNL     1       4.752   7.404 -21.160  1.00  0.00     0.010 C 
ENDROOT
BRANCH   1   3
ATOM      3  C   UNL     1       3.762   6.101 -23.056  1.00  0.00     0.064 C 
ATOM      4  O   UNL     1       4.573   5.402 -23.717  1.00  0.00    -0.545 OA
ATOM      5  O   UNL     1       2.666   6.660 -23.703  1.00  0.00    -0.545 OA
ENDBRANCH   1   3
BRANCH   2   6
ATOM      6  C   UNL     1       5.229   8.552 -21.960  1.00  0.00    -0.026 A 
ATOM      7  C   UNL     1       4.373   9.618 -22.287  1.00  0.00     0.008 A 
ATOM      8  C   UNL     1       6.586   8.627 -22.311  1.00  0.00     0.008 A 
ATOM      9  C   UNL     1       4.859  10.718 -23.000  1.00  0.00     0.001 A 
ATOM     10  C   UNL     1       7.068   9.729 -23.024  1.00  0.00     0.001 A 
ATOM     11  C   UNL     1       6.205  10.772 -23.373  1.00  0.00     0.000 A 
ENDBRANCH   2   6
TORSDOF 2
ENDMDL
MODEL 6
REMARK VINA RESULT:    -5.246      1.927      2.415
REMARK INTER + INTRA:          -6.110
REMARK INTER:                  -5.872
REMARK INTRA:                  -0.238
REMARK UNBOUND:                -0.250
REMARK SMILES O=C([O-])C=Cc1ccccc1
REMARK SMILES IDX 4 1 5 2 2 3 1 4 3 5 6 6 7 7 11 8 8 9 10 10 9 11
REMARK H PARENT
REMARK Flexibility Score: inf
ROOT
ATOM      1  C   UNL     1       4.648  -4.012 -22.617  1.00  0.00     0.025 C 
ATOM      2  C   UNL     1       4.268  -2.937 -21.911  1.00  0.00     0.010 C 
ENDROOT
BRANCH   1   3
ATOM      3  C   UNL     1       5.668  -4.020 -23.683  1.00  0.00     0.064 C 
ATOM      4  O   UNL     1       6.848  -4.357 -23.405  1.00  0.00    -0.545 OA
ATOM      5  O   UNL     1       5.373  -3.594 -24.974  1.00  0.00    -0.545 OA
ENDBRANCH   1   3
BRANCH   2   6
ATOM      6  C   UNL     1       4.661  -1.542 -22.201  1.00  0.00    -0.026 A 
ATOM      7  C   UNL     1       4.045  -0.810 -23.231  1.00  0.00     0.008 A 
ATOM      8  C   UNL     1       5.589  -0.902 -21.365  1.00  0.00     0.008 A 
ATOM      9  C   UNL     1       4.395   0.525 -23.454  1.00  0.00     0.001 A 
ATOM     10  C   UNL     1       5.936   0.434 -21.590  1.00  0.00     0.001 A 
ATOM     11  C   UNL     1       5.343   1.146 -22.637  1.00  0.00     0.000 A 
ENDBRANCH   2   6
TORSDOF 2
ENDMDL
MODEL 7
REMARK VINA RESULT:    -5.241      1.576      2.359
REMARK INTER + INTRA:          -6.105
REMARK INTER:                  -5.872
REMARK INTRA:                  -0.233
REMARK UNBOUND:                -0.250
REMARK SMILES O=C([O-])C=Cc1ccccc1
REMARK SMILES IDX 4 1 5 2 2 3 1 4 3 5 6 6 7 7 11 8 8 9 10 10 9 11
REMARK H PARENT
REMARK Flexibility Score: inf
ROOT
ATOM      1  C   UNL     1       2.918  -4.243 -23.349  1.00  0.00     0.025 C 
ATOM      2  C   UNL     1       3.801  -4.130 -22.347  1.00  0.00     0.010 C 
ENDROOT
BRANCH   1   3
ATOM      3  C   UNL     1       2.462  -3.141 -24.218  1.00  0.00     0.064 C 
ATOM      4  O   UNL     1       1.464  -2.456 -23.872  1.00  0.00    -0.545 OA
ATOM      5  O   UNL     1       3.064  -2.886 -25.445  1.00  0.00    -0.545 OA
ENDBRANCH   1   3
BRANCH   2   6
ATOM      6  C   UNL     1       4.329  -2.857 -21.812  1.00  0.00    -0.026 A 
ATOM      7  C   UNL     1       5.582  -2.362 -22.211  1.00  0.00     0.008 A 
ATOM      8  C   UNL     1       3.519  -2.078 -20.971  1.00  0.00     0.008 A 
ATOM      9  C   UNL     1       6.039  -1.130 -21.732  1.00  0.00     0.001 A 
ATOM     10  C   UNL     1       3.978  -0.846 -20.494  1.00  0.00     0.001 A 
ATOM     11  C   UNL     1       5.239  -0.375 -20.870  1.00  0.00     0.000 A 
ENDBRANCH   2   6
TORSDOF 2
ENDMDL
MODEL 8
REMARK VINA RESULT:    -5.070      2.434      3.301
REMARK INTER + INTRA:          -5.913
REMARK INTER:                  -5.650
REMARK INTRA:                  -0.263
REMARK UNBOUND:                -0.250
REMARK SMILES O=C([O-])C=Cc1ccccc1
REMARK SMILES IDX 4 1 5 2 2 3 1 4 3 5 6 6 7 7 11 8 8 9 10 10 9 11
REMARK H PARENT
REMARK Flexibility Score: inf
ROOT
ATOM      1  C   UNL     1       3.990  -4.245 -22.226  1.00  0.00     0.025 C 
ATOM      2  C   UNL     1       4.966  -3.487 -22.747  1.00  0.00     0.010 C 
ENDROOT
BRANCH   1   3
ATOM      3  C   UNL     1       2.732  -3.739 -21.643  1.00  0.00     0.064 C 
ATOM      4  O   UNL     1       2.526  -3.878 -20.409  1.00  0.00    -0.545 OA
ATOM      5  O   UNL     1       1.738  -3.177 -22.436  1.00  0.00    -0.545 OA
ENDBRANCH   1   3
BRANCH   2   6
ATOM      6  C   UNL     1       5.045  -2.014 -22.657  1.00  0.00    -0.026 A 
ATOM      7  C   UNL     1       5.645  -1.381 -21.554  1.00  0.00     0.008 A 
ATOM      8  C   UNL     1       4.608  -1.236 -23.741  1.00  0.00     0.008 A 
ATOM      9  C   UNL     1       5.755   0.012 -21.515  1.00  0.00     0.001 A 
ATOM     10  C   UNL     1       4.721   0.157 -23.698  1.00  0.00     0.001 A 
ATOM     11  C   UNL     1       5.290   0.781 -22.584  1.00  0.00     0.000 A 
ENDBRANCH   2   6
TORSDOF 2
ENDMDL
