MODEL 1
REMARK VINA RESULT:    -4.769      0.000      0.000
REMARK INTER + INTRA:          -4.769
REMARK INTER:                  -4.769
REMARK INTRA:                   0.000
REMARK UNBOUND:                 0.000
REMARK SMILES CC(C)=C1CC[C@H](C)CC1=O
REMARK SMILES IDX 8 1 7 2 6 3 5 4 4 5 2 6 1 7 3 8 10 9 11 10 9 11
REMARK H PARENT
REMARK Flexibility Score: inf
ROOT
ATOM      1  C   UNL     1     -28.994 -14.769  22.114  1.00  0.00     0.008 C 
ATOM      2  C   UNL     1     -28.499 -13.738  23.133  1.00  0.00    -0.006 C 
ATOM      3  C   UNL     1     -27.832 -12.550  22.422  1.00  0.00     0.008 C 
ATOM      4  C   UNL     1     -27.239 -11.557  23.431  1.00  0.00     0.039 C 
ATOM      5  C   UNL     1     -28.252 -11.117  24.480  1.00  0.00    -0.006 C 
ATOM      6  C   UNL     1     -28.205  -9.868  25.030  1.00  0.00    -0.070 C 
ATOM      7  C   UNL     1     -27.135  -8.876  24.634  1.00  0.00     0.039 C 
ATOM      8  C   UNL     1     -29.238  -9.400  26.030  1.00  0.00     0.039 C 
ATOM      9  C   UNL     1     -29.210 -12.162  24.945  1.00  0.00     0.159 C 
ATOM     10  O   UNL     1     -29.653 -12.167  26.125  1.00  0.00    -0.295 OA
ATOM     11  C   UNL     1     -29.663 -13.241  24.003  1.00  0.00     0.084 C 
ENDROOT
TORSDOF 0
ENDMDL
MODEL 2
REMARK VINA RESULT:    -4.526      1.089      1.413
REMARK INTER + INTRA:          -4.526
REMARK INTER:                  -4.526
REMARK INTRA:                   0.000
REMARK UNBOUND:                 0.000
REMARK SMILES CC(C)=C1CC[C@H](C)CC1=O
REMARK SMILES IDX 8 1 7 2 6 3 5 4 4 5 2 6 1 7 3 8 10 9 11 10 9 11
REMARK H PARENT
REMARK Flexibility Score: inf
ROOT
ATOM      1  C   UNL     1     -29.608 -15.987  21.652  1.00  0.00     0.008 C 
ATOM      2  C   UNL     1     -29.031 -14.980  22.652  1.00  0.00    -0.006 C 
ATOM      3  C   UNL     1     -28.406 -13.784  21.916  1.00  0.00     0.008 C 
ATOM      4  C   UNL     1     -27.733 -12.815  22.897  1.00  0.00     0.039 C 
ATOM      5  C   UNL     1     -28.664 -12.386  24.024  1.00  0.00    -0.006 C 
ATOM      6  C   UNL     1     -28.566 -11.148  24.592  1.00  0.00    -0.070 C 
ATOM      7  C   UNL     1     -27.518 -10.158  24.138  1.00  0.00     0.039 C 
ATOM      8  C   UNL     1     -29.520 -10.691  25.672  1.00  0.00     0.039 C 
ATOM      9  C   UNL     1     -29.596 -13.433  24.538  1.00  0.00     0.159 C 
ATOM     10  O   UNL     1     -29.953 -13.455  25.747  1.00  0.00    -0.295 OA
ATOM     11  C   UNL     1     -30.125 -14.490  23.612  1.00  0.00     0.084 C 
ENDROOT
TORSDOF 0
ENDMDL
MODEL 3
REMARK VINA RESULT:    -4.480      1.662      2.658
REMARK INTER + INTRA:          -4.480
REMARK INTER:                  -4.480
REMARK INTRA:                   0.000
REMARK UNBOUND:                 0.000
REMARK SMILES CC(C)=C1CC[C@H](C)CC1=O
REMARK SMILES IDX 8 1 7 2 6 3 5 4 4 5 2 6 1 7 3 8 10 9 11 10 9 11
REMARK H PARENT
REMARK Flexibility Score: inf
ROOT
ATOM      1  C   UNL     1     -29.331 -16.019  21.997  1.00  0.00     0.008 C 
ATOM      2  C   UNL     1     -29.482 -14.565  22.455  1.00  0.00    -0.006 C 
ATOM      3  C   UNL     1     -29.868 -14.504  23.942  1.00  0.00     0.008 C 
ATOM      4  C   UNL     1     -30.124 -13.059  24.393  1.00  0.00     0.039 C 
ATOM      5  C   UNL     1     -28.968 -12.128  24.050  1.00  0.00    -0.006 C 
ATOM      6  C   UNL     1     -28.660 -11.059  24.841  1.00  0.00    -0.070 C 
ATOM      7  C   UNL     1     -29.465 -10.744  26.081  1.00  0.00     0.039 C 
ATOM      8  C   UNL     1     -27.481 -10.161  24.542  1.00  0.00     0.039 C 
ATOM      9  C   UNL     1     -28.280 -12.388  22.751  1.00  0.00     0.159 C 
ATOM     10  O   UNL     1     -27.779 -11.450  22.075  1.00  0.00    -0.295 OA
ATOM     11  C   UNL     1     -28.178 -13.790  22.221  1.00  0.00     0.084 C 
ENDROOT
TORSDOF 0
ENDMDL
MODEL 4
REMARK VINA RESULT:    -4.479      1.751      4.595
REMARK INTER + INTRA:          -4.479
REMARK INTER:                  -4.479
REMARK INTRA:                   0.000
REMARK UNBOUND:                 0.000
REMARK SMILES CC(C)=C1CC[C@H](C)CC1=O
REMARK SMILES IDX 8 1 7 2 6 3 5 4 4 5 2 6 1 7 3 8 10 9 11 10 9 11
REMARK H PARENT
REMARK Flexibility Score: inf
ROOT
ATOM      1  C   UNL     1     -27.233  -8.883  26.031  1.00  0.00     0.008 C 
ATOM      2  C   UNL     1     -27.375 -10.313  25.498  1.00  0.00    -0.006 C 
ATOM      3  C   UNL     1     -28.600 -11.003  26.119  1.00  0.00     0.008 C 
ATOM      4  C   UNL     1     -28.698 -12.469  25.676  1.00  0.00     0.039 C 
ATOM      5  C   UNL     1     -28.644 -12.625  24.162  1.00  0.00    -0.006 C 
ATOM      6  C   UNL     1     -29.314 -13.632  23.528  1.00  0.00    -0.070 C 
ATOM      7  C   UNL     1     -30.124 -14.645  24.306  1.00  0.00     0.039 C 
ATOM      8  C   UNL     1     -29.314 -13.764  22.022  1.00  0.00     0.039 C 
ATOM      9  C   UNL     1     -27.729 -11.692  23.439  1.00  0.00     0.159 C 
ATOM     10  O   UNL     1     -27.135 -12.044  22.384  1.00  0.00    -0.295 OA
ATOM     11  C   UNL     1     -27.497 -10.306  23.967  1.00  0.00     0.084 C 
ENDROOT
TORSDOF 0
ENDMDL
MODEL 5
REMARK VINA RESULT:    -4.040      0.963      3.990
REMARK INTER + INTRA:          -4.040
REMARK INTER:                  -4.040
REMARK INTRA:                   0.000
REMARK UNBOUND:                 0.000
REMARK SMILES CC(C)=C1CC[C@H](C)CC1=O
REMARK SMILES IDX 8 1 7 2 6 3 5 4 4 5 2 6 1 7 3 8 10 9 11 10 9 11
REMARK H PARENT
REMARK Flexibility Score: inf
ROOT
ATOM      1  C   UNL     1     -26.730  -8.899  25.020  1.00  0.00     0.008 C 
ATOM      2  C   UNL     1     -27.808  -9.900  24.592  1.00  0.00    -0.006 C 
ATOM      3  C   UNL     1     -27.320 -10.748  23.407  1.00  0.00     0.008 C 
ATOM      4  C   UNL     1     -28.423 -11.686  22.899  1.00  0.00     0.039 C 
ATOM      5  C   UNL     1     -29.027 -12.531  24.013  1.00  0.00    -0.006 C 
ATOM      6  C   UNL     1     -29.498 -13.790  23.771  1.00  0.00    -0.070 C 
ATOM      7  C   UNL     1     -29.455 -14.390  22.384  1.00  0.00     0.039 C 
ATOM      8  C   UNL     1     -30.048 -14.660  24.879  1.00  0.00     0.039 C 
ATOM      9  C   UNL     1     -29.176 -11.860  25.338  1.00  0.00     0.159 C 
ATOM     10  O   UNL     1     -30.125 -12.150  26.116  1.00  0.00    -0.295 OA
ATOM     11  C   UNL     1     -28.189 -10.814  25.767  1.00  0.00     0.084 C 
ENDROOT
TORSDOF 0
ENDMDL
MODEL 6
REMARK VINA RESULT:    -3.768      1.983      2.645
REMARK INTER + INTRA:          -3.768
REMARK INTER:                  -3.768
REMARK INTRA:                   0.000
REMARK UNBOUND:                 0.000
REMARK SMILES CC(C)=C1CC[C@H](C)CC1=O
REMARK SMILES IDX 8 1 7 2 6 3 5 4 4 5 2 6 1 7 3 8 10 9 11 10 9 11
REMARK H PARENT
REMARK Flexibility Score: inf
ROOT
ATOM      1  C   UNL     1     -30.120 -12.355  20.291  1.00  0.00     0.008 C 
ATOM      2  C   UNL     1     -29.607 -12.743  21.682  1.00  0.00    -0.006 C 
ATOM      3  C   UNL     1     -28.187 -13.327  21.592  1.00  0.00     0.008 C 
ATOM      4  C   UNL     1     -27.698 -13.816  22.962  1.00  0.00     0.039 C 
ATOM      5  C   UNL     1     -27.824 -12.748  24.041  1.00  0.00    -0.006 C 
ATOM      6  C   UNL     1     -26.939 -12.682  25.079  1.00  0.00    -0.070 C 
ATOM      7  C   UNL     1     -25.808 -13.676  25.210  1.00  0.00     0.039 C 
ATOM      8  C   UNL     1     -27.020 -11.593  26.125  1.00  0.00     0.039 C 
ATOM      9  C   UNL     1     -29.026 -11.868  23.955  1.00  0.00     0.159 C 
ATOM     10  O   UNL     1     -29.572 -11.402  24.991  1.00  0.00    -0.295 OA
ATOM     11  C   UNL     1     -29.613 -11.525  22.616  1.00  0.00     0.084 C 
ENDROOT
TORSDOF 0
ENDMDL
MODEL 7
REMARK VINA RESULT:    -3.478      1.492      4.514
REMARK INTER + INTRA:          -3.478
REMARK INTER:                  -3.478
REMARK INTRA:                   0.000
REMARK UNBOUND:                 0.000
REMARK SMILES CC(C)=C1CC[C@H](C)CC1=O
REMARK SMILES IDX 8 1 7 2 6 3 5 4 4 5 2 6 1 7 3 8 10 9 11 10 9 11
REMARK H PARENT
REMARK Flexibility Score: inf
ROOT
ATOM      1  C   UNL     1     -27.332 -10.395  23.992  1.00  0.00     0.008 C 
ATOM      2  C   UNL     1     -28.393 -11.455  23.678  1.00  0.00    -0.006 C 
ATOM      3  C   UNL     1     -28.116 -12.111  22.315  1.00  0.00     0.008 C 
ATOM      4  C   UNL     1     -29.225 -13.102  21.937  1.00  0.00     0.039 C 
ATOM      5  C   UNL     1     -29.493 -14.124  23.035  1.00  0.00    -0.006 C 
ATOM      6  C   UNL     1     -29.902 -15.393  22.738  1.00  0.00    -0.070 C 
ATOM      7  C   UNL     1     -30.123 -15.830  21.308  1.00  0.00     0.039 C 
ATOM      8  C   UNL     1     -30.116 -16.432  23.815  1.00  0.00     0.039 C 
ATOM      9  C   UNL     1     -29.395 -13.621  24.437  1.00  0.00     0.159 C 
ATOM     10  O   UNL     1     -30.117 -14.094  25.355  1.00  0.00    -0.295 OA
ATOM     11  C   UNL     1     -28.425 -12.526  24.778  1.00  0.00     0.084 C 
ENDROOT
TORSDOF 0
ENDMDL
MODEL 8
REMARK VINA RESULT:    -2.312      2.392      3.407
REMARK INTER + INTRA:          -2.312
REMARK INTER:                  -2.312
REMARK INTRA:                   0.000
REMARK UNBOUND:                 0.000
REMARK SMILES CC(C)=C1CC[C@H](C)CC1=O
REMARK SMILES IDX 8 1 7 2 6 3 5 4 4 5 2 6 1 7 3 8 10 9 11 10 9 11
REMARK H PARENT
REMARK Flexibility Score: inf
ROOT
ATOM      1  C   UNL     1     -24.576 -13.999  26.124  1.00  0.00     0.008 C 
ATOM      2  C   UNL     1     -25.535 -13.178  25.257  1.00  0.00    -0.006 C 
ATOM      3  C   UNL     1     -26.490 -14.100  24.482  1.00  0.00     0.008 C 
ATOM      4  C   UNL     1     -27.390 -13.300  23.531  1.00  0.00     0.039 C 
ATOM      5  C   UNL     1     -28.119 -12.164  24.236  1.00  0.00    -0.006 C 
ATOM      6  C   UNL     1     -29.360 -11.760  23.833  1.00  0.00    -0.070 C 
ATOM      7  C   UNL     1     -30.055 -12.413  22.660  1.00  0.00     0.039 C 
ATOM      8  C   UNL     1     -30.117 -10.672  24.560  1.00  0.00     0.039 C 
ATOM      9  C   UNL     1     -27.352 -11.454  25.302  1.00  0.00     0.159 C 
ATOM     10  O   UNL     1     -27.529 -10.227  25.530  1.00  0.00    -0.295 OA
ATOM     11  C   UNL     1     -26.342 -12.200  26.125  1.00  0.00     0.084 C 
ENDROOT
TORSDOF 0
ENDMDL
