MODEL 1
REMARK VINA RESULT:    -4.123      0.000      0.000
REMARK INTER + INTRA:          -4.243
REMARK INTER:                  -4.243
REMARK INTRA:                   0.000
REMARK UNBOUND:                 0.000
REMARK SMILES Oc1ccc2[nH]ccc2c1
REMARK SMILES IDX 3 1 4 2 5 3 9 4 8 5 7 6 6 7 10 8 2 9 1 11
REMARK H PARENT 6 10 1 12
REMARK Flexibility Score: inf
ROOT
ATOM      1  C   UNL     1      24.744  28.741  42.897  1.00  0.00     0.048 A 
ATOM      2  C   UNL     1      24.554  27.349  42.813  1.00  0.00     0.030 A 
ATOM      3  C   UNL     1      23.255  26.860  42.940  1.00  0.00     0.046 A 
ATOM      4  C   UNL     1      22.188  27.695  43.138  1.00  0.00     0.003 A 
ATOM      5  C   UNL     1      21.059  26.910  43.219  1.00  0.00     0.028 A 
ATOM      6  C   UNL     1      21.513  25.605  43.061  1.00  0.00     0.083 A 
ATOM      7  N   UNL     1      22.855  25.579  42.890  1.00  0.00    -0.361 N 
ATOM      8  C   UNL     1      22.341  29.078  43.226  1.00  0.00     0.056 A 
ATOM      9  C   UNL     1      23.644  29.606  43.103  1.00  0.00     0.116 A 
ATOM     10  H   UNL     1      23.453  24.735  42.751  1.00  0.00     0.166 HD
ENDROOT
BRANCH   9  11
ATOM     11  O   UNL     1      23.859  30.979  43.182  1.00  0.00    -0.508 OA
ATOM     12  H   UNL     1      23.094  31.639  43.101  1.00  0.00     0.293 HD
ENDBRANCH   9  11
TORSDOF 1
ENDMDL
MODEL 2
REMARK VINA RESULT:    -4.033      3.320      4.664
REMARK INTER + INTRA:          -4.151
REMARK INTER:                  -4.151
REMARK INTRA:                   0.000
REMARK UNBOUND:                 0.000
REMARK SMILES Oc1ccc2[nH]ccc2c1
REMARK SMILES IDX 3 1 4 2 5 3 9 4 8 5 7 6 6 7 10 8 2 9 1 11
REMARK H PARENT 6 10 1 12
REMARK Flexibility Score: inf
ROOT
ATOM      1  C   UNL     1      17.340  28.301  42.629  1.00  0.00     0.048 A 
ATOM      2  C   UNL     1      17.926  27.225  41.936  1.00  0.00     0.030 A 
ATOM      3  C   UNL     1      19.213  26.838  42.304  1.00  0.00     0.046 A 
ATOM      4  C   UNL     1      19.897  27.474  43.305  1.00  0.00     0.003 A 
ATOM      5  C   UNL     1      21.125  26.858  43.422  1.00  0.00     0.028 A 
ATOM      6  C   UNL     1      21.119  25.855  42.458  1.00  0.00     0.083 A 
ATOM      7  N   UNL     1      19.949  25.846  41.778  1.00  0.00    -0.361 N 
ATOM      8  C   UNL     1      19.347  28.542  44.011  1.00  0.00     0.056 A 
ATOM      9  C   UNL     1      18.045  28.961  43.663  1.00  0.00     0.116 A 
ATOM     10  H   UNL     1      19.679  25.200  41.004  1.00  0.00     0.166 HD
ENDROOT
BRANCH   9  11
ATOM     11  O   UNL     1      17.443  30.022  44.333  1.00  0.00    -0.508 OA
ATOM     12  H   UNL     1      16.971  30.765  43.830  1.00  0.00     0.293 HD
ENDBRANCH   9  11
TORSDOF 1
ENDMDL
MODEL 3
REMARK VINA RESULT:    -3.966      4.081      5.250
REMARK INTER + INTRA:          -4.082
REMARK INTER:                  -4.082
REMARK INTRA:                   0.000
REMARK UNBOUND:                 0.000
REMARK SMILES Oc1ccc2[nH]ccc2c1
REMARK SMILES IDX 3 1 4 2 5 3 9 4 8 5 7 6 6 7 10 8 2 9 1 11
REMARK H PARENT 6 10 1 12
REMARK Flexibility Score: inf
ROOT
ATOM      1  C   UNL     1      20.662  27.383  43.075  1.00  0.00     0.048 A 
ATOM      2  C   UNL     1      20.034  28.458  43.731  1.00  0.00     0.030 A 
ATOM      3  C   UNL     1      18.650  28.573  43.613  1.00  0.00     0.046 A 
ATOM      4  C   UNL     1      17.913  27.677  42.888  1.00  0.00     0.003 A 
ATOM      5  C   UNL     1      16.593  28.066  42.970  1.00  0.00     0.028 A 
ATOM      6  C   UNL     1      16.602  29.209  43.763  1.00  0.00     0.083 A 
ATOM      7  N   UNL     1      17.861  29.515  44.154  1.00  0.00    -0.361 N 
ATOM      8  C   UNL     1      18.503  26.601  42.226  1.00  0.00     0.056 A 
ATOM      9  C   UNL     1      19.903  26.455  42.324  1.00  0.00     0.116 A 
ATOM     10  H   UNL     1      18.153  30.319  44.752  1.00  0.00     0.166 HD
ENDROOT
BRANCH   9  11
ATOM     11  O   UNL     1      20.549  25.400  41.685  1.00  0.00    -0.508 OA
ATOM     12  H   UNL     1      20.888  24.597  42.201  1.00  0.00     0.293 HD
ENDBRANCH   9  11
TORSDOF 1
ENDMDL
MODEL 4
REMARK VINA RESULT:    -3.945      5.413      7.020
REMARK INTER + INTRA:          -4.060
REMARK INTER:                  -4.060
REMARK INTRA:                   0.000
REMARK UNBOUND:                 0.000
REMARK SMILES Oc1ccc2[nH]ccc2c1
REMARK SMILES IDX 3 1 4 2 5 3 9 4 8 5 7 6 6 7 10 8 2 9 1 11
REMARK H PARENT 6 10 1 12
REMARK Flexibility Score: inf
ROOT
ATOM      1  C   UNL     1      15.176  28.099  43.015  1.00  0.00     0.048 A 
ATOM      2  C   UNL     1      16.137  28.941  43.605  1.00  0.00     0.030 A 
ATOM      3  C   UNL     1      17.462  28.510  43.614  1.00  0.00     0.046 A 
ATOM      4  C   UNL     1      17.832  27.310  43.068  1.00  0.00     0.003 A 
ATOM      5  C   UNL     1      19.194  27.184  43.236  1.00  0.00     0.028 A 
ATOM      6  C   UNL     1      19.588  28.345  43.892  1.00  0.00     0.083 A 
ATOM      7  N   UNL     1      18.526  29.153  44.120  1.00  0.00    -0.361 N 
ATOM      8  C   UNL     1      16.906  26.453  42.476  1.00  0.00     0.056 A 
ATOM      9  C   UNL     1      15.555  26.858  42.451  1.00  0.00     0.116 A 
ATOM     10  H   UNL     1      18.537  30.083  44.594  1.00  0.00     0.166 HD
ENDROOT
BRANCH   9  11
ATOM     11  O   UNL     1      14.585  26.044  41.874  1.00  0.00    -0.508 OA
ATOM     12  H   UNL     1      13.641  26.377  41.716  1.00  0.00     0.293 HD
ENDBRANCH   9  11
TORSDOF 1
ENDMDL
MODEL 5
REMARK VINA RESULT:    -3.852      2.593      4.079
REMARK INTER + INTRA:          -3.965
REMARK INTER:                  -3.965
REMARK INTRA:                   0.000
REMARK UNBOUND:                 0.000
REMARK SMILES Oc1ccc2[nH]ccc2c1
REMARK SMILES IDX 3 1 4 2 5 3 9 4 8 5 7 6 6 7 10 8 2 9 1 11
REMARK H PARENT 6 10 1 12
REMARK Flexibility Score: inf
ROOT
ATOM      1  C   UNL     1      21.380  27.345  43.236  1.00  0.00     0.048 A 
ATOM      2  C   UNL     1      21.676  28.720  43.179  1.00  0.00     0.030 A 
ATOM      3  C   UNL     1      23.004  29.093  42.983  1.00  0.00     0.046 A 
ATOM      4  C   UNL     1      24.000  28.163  42.848  1.00  0.00     0.003 A 
ATOM      5  C   UNL     1      25.182  28.848  42.669  1.00  0.00     0.028 A 
ATOM      6  C   UNL     1      24.830  30.194  42.707  1.00  0.00     0.083 A 
ATOM      7  N   UNL     1      23.498  30.338  42.898  1.00  0.00    -0.361 N 
ATOM      8  C   UNL     1      23.742  26.794  42.900  1.00  0.00     0.056 A 
ATOM      9  C   UNL     1      22.407  26.382  43.097  1.00  0.00     0.116 A 
ATOM     10  H   UNL     1      22.969  31.236  42.966  1.00  0.00     0.166 HD
ENDROOT
BRANCH   9  11
ATOM     11  O   UNL     1      22.089  25.028  43.158  1.00  0.00    -0.508 OA
ATOM     12  H   UNL     1      21.412  24.616  42.527  1.00  0.00     0.293 HD
ENDBRANCH   9  11
TORSDOF 1
ENDMDL
MODEL 6
REMARK VINA RESULT:    -3.834      2.238      3.508
REMARK INTER + INTRA:          -3.946
REMARK INTER:                  -3.946
REMARK INTRA:                   0.000
REMARK UNBOUND:                 0.000
REMARK SMILES Oc1ccc2[nH]ccc2c1
REMARK SMILES IDX 3 1 4 2 5 3 9 4 8 5 7 6 6 7 10 8 2 9 1 11
REMARK H PARENT 6 10 1 12
REMARK Flexibility Score: inf
ROOT
ATOM      1  C   UNL     1      21.377  25.971  43.328  1.00  0.00     0.048 A 
ATOM      2  C   UNL     1      22.775  26.103  43.238  1.00  0.00     0.030 A 
ATOM      3  C   UNL     1      23.299  27.387  43.095  1.00  0.00     0.046 A 
ATOM      4  C   UNL     1      22.492  28.491  43.043  1.00  0.00     0.003 A 
ATOM      5  C   UNL     1      23.309  29.592  42.900  1.00  0.00     0.028 A 
ATOM      6  C   UNL     1      24.603  29.082  42.873  1.00  0.00     0.083 A 
ATOM      7  N   UNL     1      24.592  27.734  42.992  1.00  0.00    -0.361 N 
ATOM      8  C   UNL     1      21.104  28.396  43.129  1.00  0.00     0.056 A 
ATOM      9  C   UNL     1      20.540  27.110  43.274  1.00  0.00     0.116 A 
ATOM     10  H   UNL     1      25.420  27.099  43.001  1.00  0.00     0.166 HD
ENDROOT
BRANCH   9  11
ATOM     11  O   UNL     1      19.160  26.952  43.365  1.00  0.00    -0.508 OA
ATOM     12  H   UNL     1      18.523  27.665  43.030  1.00  0.00     0.293 HD
ENDBRANCH   9  11
TORSDOF 1
ENDMDL
MODEL 7
REMARK VINA RESULT:    -3.830      4.054      5.304
REMARK INTER + INTRA:          -3.942
REMARK INTER:                  -3.942
REMARK INTRA:                   0.000
REMARK UNBOUND:                 0.000
REMARK SMILES Oc1ccc2[nH]ccc2c1
REMARK SMILES IDX 3 1 4 2 5 3 9 4 8 5 7 6 6 7 10 8 2 9 1 11
REMARK H PARENT 6 10 1 12
REMARK Flexibility Score: inf
ROOT
ATOM      1  C   UNL     1      19.602  26.571  42.365  1.00  0.00     0.048 A 
ATOM      2  C   UNL     1      18.207  26.567  42.181  1.00  0.00     0.030 A 
ATOM      3  C   UNL     1      17.466  27.572  42.800  1.00  0.00     0.046 A 
ATOM      4  C   UNL     1      18.062  28.538  43.564  1.00  0.00     0.003 A 
ATOM      5  C   UNL     1      17.066  29.371  44.027  1.00  0.00     0.028 A 
ATOM      6  C   UNL     1      15.887  28.850  43.504  1.00  0.00     0.083 A 
ATOM      7  N   UNL     1      16.136  27.751  42.754  1.00  0.00    -0.361 N 
ATOM      8  C   UNL     1      19.441  28.571  43.767  1.00  0.00     0.056 A 
ATOM      9  C   UNL     1      20.221  27.568  43.155  1.00  0.00     0.116 A 
ATOM     10  H   UNL     1      15.435  27.166  42.247  1.00  0.00     0.166 HD
ENDROOT
BRANCH   9  11
ATOM     11  O   UNL     1      21.603  27.549  43.322  1.00  0.00    -0.508 OA
ATOM     12  H   UNL     1      22.050  28.048  44.082  1.00  0.00     0.293 HD
ENDBRANCH   9  11
TORSDOF 1
ENDMDL
MODEL 8
REMARK VINA RESULT:    -3.829      4.822      6.122
REMARK INTER + INTRA:          -3.941
REMARK INTER:                  -3.941
REMARK INTRA:                   0.000
REMARK UNBOUND:                 0.000
REMARK SMILES Oc1ccc2[nH]ccc2c1
REMARK SMILES IDX 3 1 4 2 5 3 9 4 8 5 7 6 6 7 10 8 2 9 1 11
REMARK H PARENT 6 10 1 12
REMARK Flexibility Score: inf
ROOT
ATOM      1  C   UNL     1      18.144  29.304  43.778  1.00  0.00     0.048 A 
ATOM      2  C   UNL     1      16.763  29.150  43.556  1.00  0.00     0.030 A 
ATOM      3  C   UNL     1      16.319  27.933  43.042  1.00  0.00     0.046 A 
ATOM      4  C   UNL     1      17.185  26.912  42.759  1.00  0.00     0.003 A 
ATOM      5  C   UNL     1      16.439  25.861  42.272  1.00  0.00     0.028 A 
ATOM      6  C   UNL     1      15.123  26.313  42.287  1.00  0.00     0.083 A 
ATOM      7  N   UNL     1      15.055  27.580  42.758  1.00  0.00    -0.361 N 
ATOM      8  C   UNL     1      18.558  27.031  42.967  1.00  0.00     0.056 A 
ATOM      9  C   UNL     1      19.043  28.250  43.486  1.00  0.00     0.116 A 
ATOM     10  H   UNL     1      14.194  28.159  42.875  1.00  0.00     0.166 HD
ENDROOT
BRANCH   9  11
ATOM     11  O   UNL     1      20.404  28.428  43.715  1.00  0.00    -0.508 OA
ATOM     12  H   UNL     1      20.841  29.338  43.622  1.00  0.00     0.293 HD
ENDBRANCH   9  11
TORSDOF 1
ENDMDL
MODEL 9
REMARK VINA RESULT:    -3.805      3.737      4.802
REMARK INTER + INTRA:          -3.916
REMARK INTER:                  -3.916
REMARK INTRA:                   0.000
REMARK UNBOUND:                 0.000
REMARK SMILES Oc1ccc2[nH]ccc2c1
REMARK SMILES IDX 3 1 4 2 5 3 9 4 8 5 7 6 6 7 10 8 2 9 1 11
REMARK H PARENT 6 10 1 12
REMARK Flexibility Score: inf
ROOT
ATOM      1  C   UNL     1      20.088  25.581  41.397  1.00  0.00     0.048 A 
ATOM      2  C   UNL     1      18.877  26.296  41.341  1.00  0.00     0.030 A 
ATOM      3  C   UNL     1      18.647  27.265  42.316  1.00  0.00     0.046 A 
ATOM      4  C   UNL     1      19.561  27.524  43.301  1.00  0.00     0.003 A 
ATOM      5  C   UNL     1      19.040  28.524  44.094  1.00  0.00     0.028 A 
ATOM      6  C   UNL     1      17.804  28.825  43.531  1.00  0.00     0.083 A 
ATOM      7  N   UNL     1      17.569  28.054  42.444  1.00  0.00    -0.361 N 
ATOM      8  C   UNL     1      20.770  26.835  43.386  1.00  0.00     0.056 A 
ATOM      9  C   UNL     1      21.034  25.847  42.415  1.00  0.00     0.116 A 
ATOM     10  H   UNL     1      16.721  28.071  41.835  1.00  0.00     0.166 HD
ENDROOT
BRANCH   9  11
ATOM     11  O   UNL     1      22.224  25.125  42.449  1.00  0.00    -0.508 OA
ATOM     12  H   UNL     1      22.914  25.277  43.175  1.00  0.00     0.293 HD
ENDBRANCH   9  11
TORSDOF 1
ENDMDL
