MODEL 1
REMARK VINA RESULT:    -4.264      0.000      0.000
REMARK INTER + INTRA:          -5.649
REMARK INTER:                  -5.510
REMARK INTRA:                  -0.139
REMARK UNBOUND:                -0.139
REMARK SMILES C=CC(=O)CCCCC
REMARK SMILES IDX 6 1 7 2 8 3 9 4 5 5 3 6 4 7 2 8 1 9
REMARK H PARENT
REMARK Flexibility Score: inf
ROOT
ATOM      1  C   UNL     1     -41.221  16.427  15.684  1.00  0.00     0.008 C 
ENDROOT
BRANCH   1   2
ATOM      2  C   UNL     1     -41.769  17.417  16.726  1.00  0.00     0.000 C 
BRANCH   2   3
ATOM      3  C   UNL     1     -43.222  17.827  16.442  1.00  0.00    -0.003 C 
ATOM      4  C   UNL     1     -44.032  18.056  17.718  1.00  0.00     0.004 C 
ENDBRANCH   2   3
ENDBRANCH   1   2
BRANCH   1   5
ATOM      5  C   UNL     1     -39.927  15.747  16.152  1.00  0.00     0.080 C 
BRANCH   5   6
ATOM      6  C   UNL     1     -39.687  14.447  15.437  1.00  0.00     0.155 C 
ATOM      7  O   UNL     1     -38.689  14.339  14.674  1.00  0.00    -0.295 OA
BRANCH   6   8
ATOM      8  C   UNL     1     -40.596  13.302  15.648  1.00  0.00     0.039 C 
ATOM      9  C   UNL     1     -40.247  12.234  16.361  1.00  0.00     0.012 C 
ENDBRANCH   6   8
ENDBRANCH   5   6
ENDBRANCH   1   5
TORSDOF 5
ENDMDL
MODEL 2
REMARK VINA RESULT:    -3.937      2.224      3.074
REMARK INTER + INTRA:          -5.227
REMARK INTER:                  -4.875
REMARK INTRA:                  -0.352
REMARK UNBOUND:                -0.139
REMARK SMILES C=CC(=O)CCCCC
REMARK SMILES IDX 6 1 7 2 8 3 9 4 5 5 3 6 4 7 2 8 1 9
REMARK H PARENT
REMARK Flexibility Score: inf
ROOT
ATOM      1  C   UNL     1     -41.862  18.091  17.719  1.00  0.00     0.008 C 
ENDROOT
BRANCH   1   2
ATOM      2  C   UNL     1     -42.856  17.894  18.877  1.00  0.00     0.000 C 
BRANCH   2   3
ATOM      3  C   UNL     1     -44.319  18.027  18.426  1.00  0.00    -0.003 C 
ATOM      4  C   UNL     1     -44.461  18.175  16.912  1.00  0.00     0.004 C 
ENDBRANCH   2   3
ENDBRANCH   1   2
BRANCH   1   5
ATOM      5  C   UNL     1     -40.915  16.895  17.557  1.00  0.00     0.080 C 
BRANCH   5   6
ATOM      6  C   UNL     1     -40.796  16.465  16.122  1.00  0.00     0.155 C 
ATOM      7  O   UNL     1     -40.142  15.423  15.844  1.00  0.00    -0.295 OA
BRANCH   6   8
ATOM      8  C   UNL     1     -41.460  17.240  15.054  1.00  0.00     0.039 C 
ATOM      9  C   UNL     1     -40.864  17.518  13.897  1.00  0.00     0.012 C 
ENDBRANCH   6   8
ENDBRANCH   5   6
ENDBRANCH   1   5
TORSDOF 5
ENDMDL
MODEL 3
REMARK VINA RESULT:    -3.915      1.540      1.991
REMARK INTER + INTRA:          -5.198
REMARK INTER:                  -5.007
REMARK INTRA:                  -0.191
REMARK UNBOUND:                -0.139
REMARK SMILES C=CC(=O)CCCCC
REMARK SMILES IDX 6 1 7 2 8 3 9 4 5 5 3 6 4 7 2 8 1 9
REMARK H PARENT
REMARK Flexibility Score: inf
ROOT
ATOM      1  C   UNL     1     -40.693  17.033  17.279  1.00  0.00     0.008 C 
ENDROOT
BRANCH   1   2
ATOM      2  C   UNL     1     -41.980  17.540  17.951  1.00  0.00     0.000 C 
BRANCH   2   3
ATOM      3  C   UNL     1     -43.102  17.820  16.940  1.00  0.00    -0.003 C 
ATOM      4  C   UNL     1     -44.447  18.099  17.612  1.00  0.00     0.004 C 
ENDBRANCH   2   3
ENDBRANCH   1   2
BRANCH   1   5
ATOM      5  C   UNL     1     -40.968  16.362  15.926  1.00  0.00     0.080 C 
BRANCH   5   6
ATOM      6  C   UNL     1     -40.012  15.235  15.654  1.00  0.00     0.155 C 
ATOM      7  O   UNL     1     -40.408  14.046  15.792  1.00  0.00    -0.295 OA
BRANCH   6   8
ATOM      8  C   UNL     1     -38.634  15.519  15.206  1.00  0.00     0.039 C 
ATOM      9  C   UNL     1     -37.568  14.961  15.775  1.00  0.00     0.012 C 
ENDBRANCH   6   8
ENDBRANCH   5   6
ENDBRANCH   1   5
TORSDOF 5
ENDMDL
MODEL 4
REMARK VINA RESULT:    -3.915      2.229      5.110
REMARK INTER + INTRA:          -5.198
REMARK INTER:                  -5.016
REMARK INTRA:                  -0.182
REMARK UNBOUND:                -0.139
REMARK SMILES C=CC(=O)CCCCC
REMARK SMILES IDX 6 1 7 2 8 3 9 4 5 5 3 6 4 7 2 8 1 9
REMARK H PARENT
REMARK Flexibility Score: inf
ROOT
ATOM      1  C   UNL     1     -41.148  16.698  17.141  1.00  0.00     0.008 C 
ENDROOT
BRANCH   1   2
ATOM      2  C   UNL     1     -40.103  16.372  16.060  1.00  0.00     0.000 C 
BRANCH   2   3
ATOM      3  C   UNL     1     -40.061  14.876  15.714  1.00  0.00    -0.003 C 
ATOM      4  C   UNL     1     -38.659  14.396  15.338  1.00  0.00     0.004 C 
ENDBRANCH   2   3
ENDBRANCH   1   2
BRANCH   1   5
ATOM      5  C   UNL     1     -41.834  18.049  16.897  1.00  0.00     0.080 C 
BRANCH   5   6
ATOM      6  C   UNL     1     -43.195  17.884  16.280  1.00  0.00     0.155 C 
ATOM      7  O   UNL     1     -43.284  17.498  15.083  1.00  0.00    -0.295 OA
BRANCH   6   8
ATOM      8  C   UNL     1     -44.411  18.145  17.075  1.00  0.00     0.039 C 
ATOM      9  C   UNL     1     -44.424  18.076  18.404  1.00  0.00     0.012 C 
ENDBRANCH   6   8
ENDBRANCH   5   6
ENDBRANCH   1   5
TORSDOF 5
ENDMDL
MODEL 5
REMARK VINA RESULT:    -3.908      2.537      3.314
REMARK INTER + INTRA:          -5.190
REMARK INTER:                  -4.669
REMARK INTRA:                  -0.521
REMARK UNBOUND:                -0.139
REMARK SMILES C=CC(=O)CCCCC
REMARK SMILES IDX 6 1 7 2 8 3 9 4 5 5 3 6 4 7 2 8 1 9
REMARK H PARENT
REMARK Flexibility Score: inf
ROOT
ATOM      1  C   UNL     1     -42.112  18.402  15.450  1.00  0.00     0.008 C 
ENDROOT
BRANCH   1   2
ATOM      2  C   UNL     1     -43.248  19.068  16.245  1.00  0.00     0.000 C 
BRANCH   2   3
ATOM      3  C   UNL     1     -44.305  18.060  16.721  1.00  0.00    -0.003 C 
ATOM      4  C   UNL     1     -44.532  18.109  18.231  1.00  0.00     0.004 C 
ENDBRANCH   2   3
ENDBRANCH   1   2
BRANCH   1   5
ATOM      5  C   UNL     1     -41.891  16.941  15.865  1.00  0.00     0.080 C 
BRANCH   5   6
ATOM      6  C   UNL     1     -40.767  16.803  16.852  1.00  0.00     0.155 C 
ATOM      7  O   UNL     1     -39.650  16.373  16.456  1.00  0.00    -0.295 OA
BRANCH   6   8
ATOM      8  C   UNL     1     -40.963  17.191  18.263  1.00  0.00     0.039 C 
ATOM      9  C   UNL     1     -40.448  18.306  18.776  1.00  0.00     0.012 C 
ENDBRANCH   6   8
ENDBRANCH   5   6
ENDBRANCH   1   5
TORSDOF 5
ENDMDL
MODEL 6
REMARK VINA RESULT:    -3.863      1.565      1.988
REMARK INTER + INTRA:          -5.131
REMARK INTER:                  -4.954
REMARK INTRA:                  -0.177
REMARK UNBOUND:                -0.139
REMARK SMILES C=CC(=O)CCCCC
REMARK SMILES IDX 6 1 7 2 8 3 9 4 5 5 3 6 4 7 2 8 1 9
REMARK H PARENT
REMARK Flexibility Score: inf
ROOT
ATOM      1  C   UNL     1     -41.113  16.377  15.727  1.00  0.00     0.008 C 
ENDROOT
BRANCH   1   2
ATOM      2  C   UNL     1     -41.070  17.263  14.470  1.00  0.00     0.000 C 
BRANCH   2   3
ATOM      3  C   UNL     1     -42.153  18.354  14.482  1.00  0.00    -0.003 C 
ATOM      4  C   UNL     1     -42.485  18.871  13.082  1.00  0.00     0.004 C 
ENDBRANCH   2   3
ENDBRANCH   1   2
BRANCH   1   5
ATOM      5  C   UNL     1     -39.735  15.799  16.077  1.00  0.00     0.080 C 
BRANCH   5   6
ATOM      6  C   UNL     1     -39.522  14.444  15.462  1.00  0.00     0.155 C 
ATOM      7  O   UNL     1     -38.478  14.232  14.788  1.00  0.00    -0.295 OA
BRANCH   6   8
ATOM      8  C   UNL     1     -40.513  13.369  15.668  1.00  0.00     0.039 C 
ATOM      9  C   UNL     1     -40.231  12.258  16.345  1.00  0.00     0.012 C 
ENDBRANCH   6   8
ENDBRANCH   5   6
ENDBRANCH   1   5
TORSDOF 5
ENDMDL
MODEL 7
REMARK VINA RESULT:    -3.850      1.950      2.096
REMARK INTER + INTRA:          -5.115
REMARK INTER:                  -4.931
REMARK INTRA:                  -0.184
REMARK UNBOUND:                -0.139
REMARK SMILES C=CC(=O)CCCCC
REMARK SMILES IDX 6 1 7 2 8 3 9 4 5 5 3 6 4 7 2 8 1 9
REMARK H PARENT
REMARK Flexibility Score: inf
ROOT
ATOM      1  C   UNL     1     -41.077  16.422  16.100  1.00  0.00     0.008 C 
ENDROOT
BRANCH   1   2
ATOM      2  C   UNL     1     -41.851  17.581  16.752  1.00  0.00     0.000 C 
BRANCH   2   3
ATOM      3  C   UNL     1     -43.217  17.822  16.091  1.00  0.00    -0.003 C 
ATOM      4  C   UNL     1     -44.308  18.176  17.101  1.00  0.00     0.004 C 
ENDBRANCH   2   3
ENDBRANCH   1   2
BRANCH   1   5
ATOM      5  C   UNL     1     -40.588  16.771  14.688  1.00  0.00     0.080 C 
BRANCH   5   6
ATOM      6  C   UNL     1     -39.387  15.958  14.294  1.00  0.00     0.155 C 
ATOM      7  O   UNL     1     -39.441  15.246  13.255  1.00  0.00    -0.295 OA
BRANCH   6   8
ATOM      8  C   UNL     1     -38.152  16.015  15.100  1.00  0.00     0.039 C 
ATOM      9  C   UNL     1     -37.687  14.964  15.771  1.00  0.00     0.012 C 
ENDBRANCH   6   8
ENDBRANCH   5   6
ENDBRANCH   1   5
TORSDOF 5
ENDMDL
MODEL 8
REMARK VINA RESULT:    -3.829      1.922      2.396
REMARK INTER + INTRA:          -5.087
REMARK INTER:                  -4.847
REMARK INTRA:                  -0.239
REMARK UNBOUND:                -0.139
REMARK SMILES C=CC(=O)CCCCC
REMARK SMILES IDX 6 1 7 2 8 3 9 4 5 5 3 6 4 7 2 8 1 9
REMARK H PARENT
REMARK Flexibility Score: inf
ROOT
ATOM      1  C   UNL     1     -42.936  17.332  15.443  1.00  0.00     0.008 C 
ENDROOT
BRANCH   1   2
ATOM      2  C   UNL     1     -43.385  18.566  16.245  1.00  0.00     0.000 C 
BRANCH   2   3
ATOM      3  C   UNL     1     -44.473  18.235  17.277  1.00  0.00    -0.003 C 
ATOM      4  C   UNL     1     -43.906  17.978  18.673  1.00  0.00     0.004 C 
ENDBRANCH   2   3
ENDBRANCH   1   2
BRANCH   1   5
ATOM      5  C   UNL     1     -41.421  17.313  15.204  1.00  0.00     0.080 C 
BRANCH   5   6
ATOM      6  C   UNL     1     -40.710  16.417  16.179  1.00  0.00     0.155 C 
ATOM      7  O   UNL     1     -40.460  16.846  17.339  1.00  0.00    -0.295 OA
BRANCH   6   8
ATOM      8  C   UNL     1     -40.333  15.043  15.791  1.00  0.00     0.039 C 
ATOM      9  C   UNL     1     -39.587  14.782  14.720  1.00  0.00     0.012 C 
ENDBRANCH   6   8
ENDBRANCH   5   6
ENDBRANCH   1   5
TORSDOF 5
ENDMDL
MODEL 9
REMARK VINA RESULT:    -3.739      2.048      4.449
REMARK INTER + INTRA:          -4.971
REMARK INTER:                  -4.557
REMARK INTRA:                  -0.414
REMARK UNBOUND:                -0.139
REMARK SMILES C=CC(=O)CCCCC
REMARK SMILES IDX 6 1 7 2 8 3 9 4 5 5 3 6 4 7 2 8 1 9
REMARK H PARENT
REMARK Flexibility Score: inf
ROOT
ATOM      1  C   UNL     1     -39.360  14.495  14.633  1.00  0.00     0.008 C 
ENDROOT
BRANCH   1   2
ATOM      2  C   UNL     1     -38.609  13.674  15.696  1.00  0.00     0.000 C 
BRANCH   2   3
ATOM      3  C   UNL     1     -39.389  12.425  16.135  1.00  0.00    -0.003 C 
ATOM      4  C   UNL     1     -40.900  12.654  16.171  1.00  0.00     0.004 C 
ENDBRANCH   2   3
ENDBRANCH   1   2
BRANCH   1   5
ATOM      5  C   UNL     1     -39.167  16.006  14.822  1.00  0.00     0.080 C 
BRANCH   5   6
ATOM      6  C   UNL     1     -40.479  16.729  14.930  1.00  0.00     0.155 C 
ATOM      7  O   UNL     1     -40.906  17.382  13.939  1.00  0.00    -0.295 OA
BRANCH   6   8
ATOM      8  C   UNL     1     -41.271  16.654  16.174  1.00  0.00     0.039 C 
ATOM      9  C   UNL     1     -40.783  17.023  17.356  1.00  0.00     0.012 C 
ENDBRANCH   6   8
ENDBRANCH   5   6
ENDBRANCH   1   5
TORSDOF 5
ENDMDL
