MODEL 1
REMARK VINA RESULT:    -3.279      0.000      0.000
REMARK INTER + INTRA:          -6.315
REMARK INTER:                  -5.580
REMARK INTRA:                  -0.735
REMARK UNBOUND:                -0.735
REMARK SMILES CCCCCCCCCCCCCC(=O)[O-]
REMARK SMILES IDX 8 1 9 2 10 3 11 4 12 5 13 6 14 7 15 8 16 9 7 10 6 11 5 12
REMARK SMILES IDX 4 13 3 14 2 15 1 16
REMARK H PARENT
REMARK Flexibility Score: inf
ROOT
ATOM      1  C   UNL     1       7.423   5.595   1.934  1.00  0.00     0.000 C 
ENDROOT
BRANCH   1   2
ATOM      2  C   UNL     1       8.547   6.122   1.024  1.00  0.00     0.000 C 
BRANCH   2   3
ATOM      3  C   UNL     1       9.886   5.406   1.262  1.00  0.00     0.000 C 
BRANCH   3   4
ATOM      4  C   UNL     1       9.770   3.880   1.136  1.00  0.00     0.000 C 
BRANCH   4   5
ATOM      5  C   UNL     1      10.008   3.197   2.488  1.00  0.00     0.006 C 
BRANCH   5   6
ATOM      6  C   UNL     1      10.122   1.678   2.324  1.00  0.00     0.053 C 
BRANCH   6   7
ATOM      7  C   UNL     1       9.838   0.989   3.621  1.00  0.00     0.041 C 
ATOM      8  O   UNL     1      10.119   1.551   4.712  1.00  0.00    -0.550 OA
ATOM      9  O   UNL     1       9.217  -0.253   3.626  1.00  0.00    -0.550 OA
ENDBRANCH   6   7
ENDBRANCH   5   6
ENDBRANCH   4   5
ENDBRANCH   3   4
ENDBRANCH   2   3
ENDBRANCH   1   2
BRANCH   1  10
ATOM     10  C   UNL     1       7.786   5.674   3.425  1.00  0.00     0.000 C 
BRANCH  10  11
ATOM     11  C   UNL     1       6.993   6.762   4.168  1.00  0.00    -0.000 C 
BRANCH  11  12
ATOM     12  C   UNL     1       7.857   7.541   5.173  1.00  0.00    -0.000 C 
BRANCH  12  13
ATOM     13  C   UNL     1       9.317   7.065   5.190  1.00  0.00    -0.000 C 
BRANCH  13  14
ATOM     14  C   UNL     1      10.097   7.643   4.003  1.00  0.00    -0.000 C 
BRANCH  14  15
ATOM     15  C   UNL     1      10.009   9.172   3.979  1.00  0.00    -0.003 C 
ATOM     16  C   UNL     1      10.077   9.707   2.551  1.00  0.00     0.004 C 
ENDBRANCH  14  15
ENDBRANCH  13  14
ENDBRANCH  12  13
ENDBRANCH  11  12
ENDBRANCH  10  11
ENDBRANCH   1  10
TORSDOF 12
ENDMDL
MODEL 2
REMARK VINA RESULT:    -3.115     21.710     23.481
REMARK INTER + INTRA:          -6.036
REMARK INTER:                  -4.465
REMARK INTRA:                  -1.571
REMARK UNBOUND:                -0.735
REMARK SMILES CCCCCCCCCCCCCC(=O)[O-]
REMARK SMILES IDX 8 1 9 2 10 3 11 4 12 5 13 6 14 7 15 8 16 9 7 10 6 11 5 12
REMARK SMILES IDX 4 13 3 14 2 15 1 16
REMARK H PARENT
REMARK Flexibility Score: inf
ROOT
ATOM      1  C   UNL     1      -6.761  -6.009  -7.521  1.00  0.00     0.000 C 
ENDROOT
BRANCH   1   2
ATOM      2  C   UNL     1      -5.961  -5.517  -8.740  1.00  0.00     0.000 C 
BRANCH   2   3
ATOM      3  C   UNL     1      -6.147  -6.416  -9.972  1.00  0.00     0.000 C 
BRANCH   3   4
ATOM      4  C   UNL     1      -5.680  -7.858  -9.727  1.00  0.00     0.000 C 
BRANCH   4   5
ATOM      5  C   UNL     1      -4.206  -7.894  -9.306  1.00  0.00     0.006 C 
BRANCH   5   6
ATOM      6  C   UNL     1      -3.822  -9.273  -8.761  1.00  0.00     0.053 C 
BRANCH   6   7
ATOM      7  C   UNL     1      -3.953  -9.302  -7.271  1.00  0.00     0.041 C 
ATOM      8  O   UNL     1      -4.994  -9.763  -6.735  1.00  0.00    -0.550 OA
ATOM      9  O   UNL     1      -2.904  -8.865  -6.473  1.00  0.00    -0.550 OA
ENDBRANCH   6   7
ENDBRANCH   5   6
ENDBRANCH   4   5
ENDBRANCH   3   4
ENDBRANCH   2   3
ENDBRANCH   1   2
BRANCH   1  10
ATOM     10  C   UNL     1      -7.421  -4.858  -6.746  1.00  0.00     0.000 C 
BRANCH  10  11
ATOM     11  C   UNL     1      -8.955  -4.971  -6.717  1.00  0.00    -0.000 C 
BRANCH  11  12
ATOM     12  C   UNL     1      -9.541  -5.399  -8.072  1.00  0.00    -0.000 C 
BRANCH  12  13
ATOM     13  C   UNL     1     -10.117  -6.823  -8.044  1.00  0.00    -0.000 C 
BRANCH  13  14
ATOM     14  C   UNL     1      -9.665  -7.622  -9.272  1.00  0.00    -0.000 C 
BRANCH  14  15
ATOM     15  C   UNL     1      -9.162  -9.012  -8.868  1.00  0.00    -0.003 C 
ATOM     16  C   UNL     1      -8.640  -9.016  -7.434  1.00  0.00     0.004 C 
ENDBRANCH  14  15
ENDBRANCH  13  14
ENDBRANCH  12  13
ENDBRANCH  11  12
ENDBRANCH  10  11
ENDBRANCH   1  10
TORSDOF 12
ENDMDL
MODEL 3
REMARK VINA RESULT:    -3.005     22.220     23.387
REMARK INTER + INTRA:          -5.848
REMARK INTER:                  -4.832
REMARK INTRA:                  -1.016
REMARK UNBOUND:                -0.735
REMARK SMILES CCCCCCCCCCCCCC(=O)[O-]
REMARK SMILES IDX 8 1 9 2 10 3 11 4 12 5 13 6 14 7 15 8 16 9 7 10 6 11 5 12
REMARK SMILES IDX 4 13 3 14 2 15 1 16
REMARK H PARENT
REMARK Flexibility Score: inf
ROOT
ATOM      1  C   UNL     1      -5.017  -6.274  -9.693  1.00  0.00     0.000 C 
ENDROOT
BRANCH   1   2
ATOM      2  C   UNL     1      -4.511  -7.284  -8.648  1.00  0.00     0.000 C 
BRANCH   2   3
ATOM      3  C   UNL     1      -3.897  -8.540  -9.287  1.00  0.00     0.000 C 
BRANCH   3   4
ATOM      4  C   UNL     1      -4.893  -9.704  -9.377  1.00  0.00     0.000 C 
BRANCH   4   5
ATOM      5  C   UNL     1      -5.621  -9.908  -8.043  1.00  0.00     0.006 C 
BRANCH   5   6
ATOM      6  C   UNL     1      -7.123 -10.115  -8.262  1.00  0.00     0.053 C 
BRANCH   6   7
ATOM      7  C   UNL     1      -7.890  -9.722  -7.039  1.00  0.00     0.041 C 
ATOM      8  O   UNL     1      -7.281  -9.435  -5.975  1.00  0.00    -0.550 OA
ATOM      9  O   UNL     1      -9.274  -9.626  -7.087  1.00  0.00    -0.550 OA
ENDBRANCH   6   7
ENDBRANCH   5   6
ENDBRANCH   4   5
ENDBRANCH   3   4
ENDBRANCH   2   3
ENDBRANCH   1   2
BRANCH   1  10
ATOM     10  C   UNL     1      -6.550  -6.251  -9.794  1.00  0.00     0.000 C 
BRANCH  10  11
ATOM     11  C   UNL     1      -7.234  -6.437  -8.430  1.00  0.00    -0.000 C 
BRANCH  11  12
ATOM     12  C   UNL     1      -6.957  -5.272  -7.466  1.00  0.00    -0.000 C 
BRANCH  12  13
ATOM     13  C   UNL     1      -8.024  -5.146  -6.368  1.00  0.00    -0.000 C 
BRANCH  13  14
ATOM     14  C   UNL     1      -9.406  -4.876  -6.975  1.00  0.00    -0.000 C 
BRANCH  14  15
ATOM     15  C   UNL     1     -10.039  -3.621  -6.364  1.00  0.00    -0.003 C 
ATOM     16  C   UNL     1     -10.125  -2.492  -7.388  1.00  0.00     0.004 C 
ENDBRANCH  14  15
ENDBRANCH  13  14
ENDBRANCH  12  13
ENDBRANCH  11  12
ENDBRANCH  10  11
ENDBRANCH   1  10
TORSDOF 12
ENDMDL
MODEL 4
REMARK VINA RESULT:    -2.819     22.128     24.004
REMARK INTER + INTRA:          -5.531
REMARK INTER:                  -4.278
REMARK INTRA:                  -1.253
REMARK UNBOUND:                -0.735
REMARK SMILES CCCCCCCCCCCCCC(=O)[O-]
REMARK SMILES IDX 8 1 9 2 10 3 11 4 12 5 13 6 14 7 15 8 16 9 7 10 6 11 5 12
REMARK SMILES IDX 4 13 3 14 2 15 1 16
REMARK H PARENT
REMARK Flexibility Score: inf
ROOT
ATOM      1  C   UNL     1      -7.592  -9.105  -7.099  1.00  0.00     0.000 C 
ENDROOT
BRANCH   1   2
ATOM      2  C   UNL     1      -6.652 -10.100  -6.396  1.00  0.00     0.000 C 
BRANCH   2   3
ATOM      3  C   UNL     1      -5.187  -9.941  -6.835  1.00  0.00     0.000 C 
BRANCH   3   4
ATOM      4  C   UNL     1      -5.001 -10.125  -8.348  1.00  0.00     0.000 C 
BRANCH   4   5
ATOM      5  C   UNL     1      -3.863  -9.242  -8.872  1.00  0.00     0.006 C 
BRANCH   5   6
ATOM      6  C   UNL     1      -3.985  -7.812  -8.336  1.00  0.00     0.053 C 
BRANCH   6   7
ATOM      7  C   UNL     1      -4.526  -6.901  -9.392  1.00  0.00     0.041 C 
ATOM      8  O   UNL     1      -5.636  -7.147  -9.933  1.00  0.00    -0.550 OA
ATOM      9  O   UNL     1      -3.828  -5.754  -9.745  1.00  0.00    -0.550 OA
ENDBRANCH   6   7
ENDBRANCH   5   6
ENDBRANCH   4   5
ENDBRANCH   3   4
ENDBRANCH   2   3
ENDBRANCH   1   2
BRANCH   1  10
ATOM     10  C   UNL     1      -8.662  -9.807  -7.950  1.00  0.00     0.000 C 
BRANCH  10  11
ATOM     11  C   UNL     1      -8.940  -9.071  -9.272  1.00  0.00    -0.000 C 
BRANCH  11  12
ATOM     12  C   UNL     1     -10.125  -8.098  -9.168  1.00  0.00    -0.000 C 
BRANCH  12  13
ATOM     13  C   UNL     1      -9.712  -6.637  -9.403  1.00  0.00    -0.000 C 
BRANCH  13  14
ATOM     14  C   UNL     1      -9.539  -5.895  -8.073  1.00  0.00    -0.000 C 
BRANCH  14  15
ATOM     15  C   UNL     1      -8.058  -5.628  -7.781  1.00  0.00    -0.003 C 
ATOM     16  C   UNL     1      -7.863  -5.078  -6.371  1.00  0.00     0.004 C 
ENDBRANCH  14  15
ENDBRANCH  13  14
ENDBRANCH  12  13
ENDBRANCH  11  12
ENDBRANCH  10  11
ENDBRANCH   1  10
TORSDOF 12
ENDMDL
MODEL 5
REMARK VINA RESULT:    -2.776     22.027     23.944
REMARK INTER + INTRA:          -5.458
REMARK INTER:                  -4.216
REMARK INTRA:                  -1.241
REMARK UNBOUND:                -0.735
REMARK SMILES CCCCCCCCCCCCCC(=O)[O-]
REMARK SMILES IDX 8 1 9 2 10 3 11 4 12 5 13 6 14 7 15 8 16 9 7 10 6 11 5 12
REMARK SMILES IDX 4 13 3 14 2 15 1 16
REMARK H PARENT
REMARK Flexibility Score: inf
ROOT
ATOM      1  C   UNL     1      -7.726  -5.023  -6.757  1.00  0.00     0.000 C 
ENDROOT
BRANCH   1   2
ATOM      2  C   UNL     1      -9.127  -4.897  -7.378  1.00  0.00     0.000 C 
BRANCH   2   3
ATOM      3  C   UNL     1      -9.844  -6.251  -7.500  1.00  0.00     0.000 C 
BRANCH   3   4
ATOM      4  C   UNL     1      -9.908  -6.758  -8.949  1.00  0.00     0.000 C 
BRANCH   4   5
ATOM      5  C   UNL     1     -10.017  -8.286  -8.991  1.00  0.00     0.006 C 
BRANCH   5   6
ATOM      6  C   UNL     1      -8.692  -8.943  -8.590  1.00  0.00     0.053 C 
BRANCH   6   7
ATOM      7  C   UNL     1      -8.786  -9.506  -7.206  1.00  0.00     0.041 C 
ATOM      8  O   UNL     1      -9.820 -10.125  -6.842  1.00  0.00    -0.550 OA
ATOM      9  O   UNL     1      -7.710  -9.390  -6.335  1.00  0.00    -0.550 OA
ENDBRANCH   6   7
ENDBRANCH   5   6
ENDBRANCH   4   5
ENDBRANCH   3   4
ENDBRANCH   2   3
ENDBRANCH   1   2
BRANCH   1  10
ATOM     10  C   UNL     1      -6.866  -6.089  -7.454  1.00  0.00     0.000 C 
BRANCH  10  11
ATOM     11  C   UNL     1      -6.268  -5.590  -8.780  1.00  0.00    -0.000 C 
BRANCH  11  12
ATOM     12  C   UNL     1      -5.695  -6.730  -9.636  1.00  0.00    -0.000 C 
BRANCH  12  13
ATOM     13  C   UNL     1      -4.242  -7.071  -9.271  1.00  0.00    -0.000 C 
BRANCH  13  14
ATOM     14  C   UNL     1      -4.059  -8.585  -9.106  1.00  0.00    -0.000 C 
BRANCH  14  15
ATOM     15  C   UNL     1      -4.395  -9.028  -7.678  1.00  0.00    -0.003 C 
ATOM     16  C   UNL     1      -3.182  -8.899  -6.761  1.00  0.00     0.004 C 
ENDBRANCH  14  15
ENDBRANCH  13  14
ENDBRANCH  12  13
ENDBRANCH  11  12
ENDBRANCH  10  11
ENDBRANCH   1  10
TORSDOF 12
ENDMDL
MODEL 6
REMARK VINA RESULT:    -2.649     22.290     23.925
REMARK INTER + INTRA:          -5.243
REMARK INTER:                  -4.160
REMARK INTRA:                  -1.083
REMARK UNBOUND:                -0.735
REMARK SMILES CCCCCCCCCCCCCC(=O)[O-]
REMARK SMILES IDX 8 1 9 2 10 3 11 4 12 5 13 6 14 7 15 8 16 9 7 10 6 11 5 12
REMARK SMILES IDX 4 13 3 14 2 15 1 16
REMARK H PARENT
REMARK Flexibility Score: inf
ROOT
ATOM      1  C   UNL     1      -5.989  -5.393  -8.578  1.00  0.00     0.000 C 
ENDROOT
BRANCH   1   2
ATOM      2  C   UNL     1      -6.867  -6.119  -7.544  1.00  0.00     0.000 C 
BRANCH   2   3
ATOM      3  C   UNL     1      -7.738  -5.152  -6.725  1.00  0.00     0.000 C 
BRANCH   3   4
ATOM      4  C   UNL     1      -9.179  -5.067  -7.248  1.00  0.00     0.000 C 
BRANCH   4   5
ATOM      5  C   UNL     1      -9.433  -6.121  -8.331  1.00  0.00     0.006 C 
BRANCH   5   6
ATOM      6  C   UNL     1     -10.125  -7.356  -7.745  1.00  0.00     0.053 C 
BRANCH   6   7
ATOM      7  C   UNL     1      -9.446  -8.606  -8.209  1.00  0.00     0.041 C 
ATOM      8  O   UNL     1      -8.787  -8.609  -9.281  1.00  0.00    -0.550 OA
ATOM      9  O   UNL     1      -9.501  -9.756  -7.432  1.00  0.00    -0.550 OA
ENDBRANCH   6   7
ENDBRANCH   5   6
ENDBRANCH   4   5
ENDBRANCH   3   4
ENDBRANCH   2   3
ENDBRANCH   1   2
BRANCH   1  10
ATOM     10  C   UNL     1      -5.793  -6.212  -9.863  1.00  0.00     0.000 C 
BRANCH  10  11
ATOM     11  C   UNL     1      -4.326  -6.615 -10.088  1.00  0.00    -0.000 C 
BRANCH  11  12
ATOM     12  C   UNL     1      -4.132  -8.140 -10.125  1.00  0.00    -0.000 C 
BRANCH  12  13
ATOM     13  C   UNL     1      -5.259  -8.897  -9.406  1.00  0.00    -0.000 C 
BRANCH  13  14
ATOM     14  C   UNL     1      -4.688  -9.943  -8.441  1.00  0.00    -0.000 C 
BRANCH  14  15
ATOM     15  C   UNL     1      -4.260  -9.297  -7.119  1.00  0.00    -0.003 C 
ATOM     16  C   UNL     1      -2.800  -9.608  -6.800  1.00  0.00     0.004 C 
ENDBRANCH  14  15
ENDBRANCH  13  14
ENDBRANCH  12  13
ENDBRANCH  11  12
ENDBRANCH  10  11
ENDBRANCH   1  10
TORSDOF 12
ENDMDL
MODEL 7
REMARK VINA RESULT:    -2.505     21.811     23.487
REMARK INTER + INTRA:          -4.997
REMARK INTER:                  -3.604
REMARK INTRA:                  -1.393
REMARK UNBOUND:                -0.735
REMARK SMILES CCCCCCCCCCCCCC(=O)[O-]
REMARK SMILES IDX 8 1 9 2 10 3 11 4 12 5 13 6 14 7 15 8 16 9 7 10 6 11 5 12
REMARK SMILES IDX 4 13 3 14 2 15 1 16
REMARK H PARENT
REMARK Flexibility Score: inf
ROOT
ATOM      1  C   UNL     1      -9.000  -7.965  -8.153  1.00  0.00     0.000 C 
ENDROOT
BRANCH   1   2
ATOM      2  C   UNL     1      -8.952  -9.145  -7.167  1.00  0.00     0.000 C 
BRANCH   2   3
ATOM      3  C   UNL     1      -7.807 -10.125  -7.472  1.00  0.00     0.000 C 
BRANCH   3   4
ATOM      4  C   UNL     1      -7.279  -9.988  -8.907  1.00  0.00     0.000 C 
BRANCH   4   5
ATOM      5  C   UNL     1      -5.746  -9.945  -8.926  1.00  0.00     0.006 C 
BRANCH   5   6
ATOM      6  C   UNL     1      -5.190  -9.579  -7.547  1.00  0.00     0.053 C 
BRANCH   6   7
ATOM      7  C   UNL     1      -3.714  -9.344  -7.623  1.00  0.00     0.041 C 
ATOM      8  O   UNL     1      -3.084  -9.608  -8.680  1.00  0.00    -0.550 OA
ATOM      9  O   UNL     1      -3.042  -8.788  -6.543  1.00  0.00    -0.550 OA
ENDBRANCH   6   7
ENDBRANCH   5   6
ENDBRANCH   4   5
ENDBRANCH   3   4
ENDBRANCH   2   3
ENDBRANCH   1   2
BRANCH   1  10
ATOM     10  C   UNL     1      -9.931  -6.839  -7.679  1.00  0.00     0.000 C 
BRANCH  10  11
ATOM     11  C   UNL     1      -9.271  -5.453  -7.764  1.00  0.00    -0.000 C 
BRANCH  11  12
ATOM     12  C   UNL     1      -8.057  -5.318  -6.830  1.00  0.00    -0.000 C 
BRANCH  12  13
ATOM     13  C   UNL     1      -6.731  -5.645  -7.534  1.00  0.00    -0.000 C 
BRANCH  13  14
ATOM     14  C   UNL     1      -6.842  -5.416  -9.046  1.00  0.00    -0.000 C 
BRANCH  14  15
ATOM     15  C   UNL     1      -5.959  -6.404  -9.817  1.00  0.00    -0.003 C 
ATOM     16  C   UNL     1      -4.481  -6.179  -9.510  1.00  0.00     0.004 C 
ENDBRANCH  14  15
ENDBRANCH  13  14
ENDBRANCH  12  13
ENDBRANCH  11  12
ENDBRANCH  10  11
ENDBRANCH   1  10
TORSDOF 12
ENDMDL
