MODEL 1
REMARK VINA RESULT:    -2.837      0.000      0.000
REMARK INTER + INTRA:          -4.634
REMARK INTER:                  -3.832
REMARK INTRA:                  -0.803
REMARK UNBOUND:                -0.803
REMARK SMILES CC(=O)CCC=C(C)CCC=C(C)C
REMARK SMILES IDX 7 1 6 2 8 3 9 4 10 5 11 6 13 7 12 8 14 9 5 10 4 11 2 12 3 13
REMARK SMILES IDX 1 14
REMARK H PARENT
REMARK Flexibility Score: inf
ROOT
ATOM      1  C   UNL     1      -9.659 -23.325  21.077  1.00  0.00    -0.077 C 
ATOM      2  C   UNL     1      -8.519 -23.728  21.678  1.00  0.00    -0.028 C 
ATOM      3  C   UNL     1     -10.441 -24.249  20.173  1.00  0.00     0.039 C 
ENDROOT
BRANCH   1   4
ATOM      4  C   UNL     1     -10.166 -21.916  21.314  1.00  0.00     0.034 C 
BRANCH   4   5
ATOM      5  C   UNL     1     -11.111 -21.843  22.521  1.00  0.00     0.032 C 
BRANCH   5   6
ATOM      6  C   UNL     1     -10.353 -21.791  23.826  1.00  0.00    -0.028 C 
ATOM      7  C   UNL     1     -11.118 -24.061  24.558  1.00  0.00     0.039 C 
ATOM      8  C   UNL     1     -10.381 -22.762  24.767  1.00  0.00    -0.080 C 
ATOM      9  C   UNL     1      -9.607 -22.585  26.047  1.00  0.00     0.039 C 
ENDBRANCH   5   6
ENDBRANCH   4   5
ENDBRANCH   1   4
BRANCH   2  10
ATOM     10  C   UNL     1      -7.934 -25.109  21.496  1.00  0.00     0.035 C 
BRANCH  10  11
ATOM     11  C   UNL     1      -6.413 -25.121  21.695  1.00  0.00     0.079 C 
BRANCH  11  12
ATOM     12  C   UNL     1      -5.677 -24.922  20.393  1.00  0.00     0.130 C 
ATOM     13  O   UNL     1      -6.258 -25.125  19.337  1.00  0.00    -0.300 OA
ATOM     14  C   UNL     1      -4.249 -24.468  20.365  1.00  0.00     0.087 C 
ENDBRANCH  11  12
ENDBRANCH  10  11
ENDBRANCH   2  10
TORSDOF 6
ENDMDL
MODEL 2
REMARK VINA RESULT:    -2.820      2.361      5.887
REMARK INTER + INTRA:          -4.612
REMARK INTER:                  -4.207
REMARK INTRA:                  -0.405
REMARK UNBOUND:                -0.803
REMARK SMILES CC(=O)CCC=C(C)CCC=C(C)C
REMARK SMILES IDX 7 1 6 2 8 3 9 4 10 5 11 6 13 7 12 8 14 9 5 10 4 11 2 12 3 13
REMARK SMILES IDX 1 14
REMARK H PARENT
REMARK Flexibility Score: inf
ROOT
ATOM      1  C   UNL     1      -9.385 -23.508  21.732  1.00  0.00    -0.077 C 
ATOM      2  C   UNL     1     -10.077 -23.316  22.876  1.00  0.00    -0.028 C 
ATOM      3  C   UNL     1      -9.221 -22.403  20.716  1.00  0.00     0.039 C 
ENDROOT
BRANCH   1   4
ATOM      4  C   UNL     1      -8.761 -24.863  21.461  1.00  0.00     0.034 C 
BRANCH   4   5
ATOM      5  C   UNL     1      -7.248 -24.858  21.721  1.00  0.00     0.032 C 
BRANCH   5   6
ATOM      6  C   UNL     1      -6.457 -24.779  20.436  1.00  0.00    -0.028 C 
ATOM      7  C   UNL     1      -4.252 -25.125  21.574  1.00  0.00     0.039 C 
ATOM      8  C   UNL     1      -5.109 -24.857  20.362  1.00  0.00    -0.080 C 
ATOM      9  C   UNL     1      -4.427 -24.733  19.025  1.00  0.00     0.039 C 
ENDBRANCH   5   6
ENDBRANCH   4   5
ENDBRANCH   1   4
BRANCH   2  10
ATOM     10  C   UNL     1     -10.740 -22.005  23.229  1.00  0.00     0.035 C 
BRANCH  10  11
ATOM     11  C   UNL     1     -10.770 -21.764  24.743  1.00  0.00     0.079 C 
BRANCH  11  12
ATOM     12  C   UNL     1      -9.552 -22.336  25.425  1.00  0.00     0.130 C 
ATOM     13  O   UNL     1      -9.670 -23.316  26.146  1.00  0.00    -0.300 OA
ATOM     14  C   UNL     1      -8.192 -21.736  25.227  1.00  0.00     0.087 C 
ENDBRANCH  11  12
ENDBRANCH  10  11
ENDBRANCH   2  10
TORSDOF 6
ENDMDL
MODEL 3
REMARK VINA RESULT:    -2.028      2.271      4.607
REMARK INTER + INTRA:          -3.542
REMARK INTER:                  -3.000
REMARK INTRA:                  -0.542
REMARK UNBOUND:                -0.803
REMARK SMILES CC(=O)CCC=C(C)CCC=C(C)C
REMARK SMILES IDX 7 1 6 2 8 3 9 4 10 5 11 6 13 7 12 8 14 9 5 10 4 11 2 12 3 13
REMARK SMILES IDX 1 14
REMARK H PARENT
REMARK Flexibility Score: inf
ROOT
ATOM      1  C   UNL     1      -8.690 -24.772  21.371  1.00  0.00    -0.077 C 
ATOM      2  C   UNL     1      -9.140 -25.114  22.597  1.00  0.00    -0.028 C 
ATOM      3  C   UNL     1      -7.378 -24.045  21.188  1.00  0.00     0.039 C 
ENDROOT
BRANCH   1   4
ATOM      4  C   UNL     1      -9.518 -25.125  20.151  1.00  0.00     0.034 C 
BRANCH   4   5
ATOM      5  C   UNL     1     -10.957 -24.604  20.266  1.00  0.00     0.032 C 
BRANCH   5   6
ATOM      6  C   UNL     1     -11.066 -23.466  21.253  1.00  0.00    -0.028 C 
ATOM      7  C   UNL     1     -10.828 -21.696  19.496  1.00  0.00     0.039 C 
ATOM      8  C   UNL     1     -10.969 -22.157  20.925  1.00  0.00    -0.080 C 
ATOM      9  C   UNL     1     -11.061 -21.108  22.002  1.00  0.00     0.039 C 
ENDBRANCH   5   6
ENDBRANCH   4   5
ENDBRANCH   1   4
BRANCH   2  10
ATOM     10  C   UNL     1      -8.388 -24.799  23.870  1.00  0.00     0.035 C 
BRANCH  10  11
ATOM     11  C   UNL     1      -9.316 -24.278  24.974  1.00  0.00     0.079 C 
BRANCH  11  12
ATOM     12  C   UNL     1      -9.410 -22.772  24.959  1.00  0.00     0.130 C 
ATOM     13  O   UNL     1      -8.529 -22.119  24.420  1.00  0.00    -0.300 OA
ATOM     14  C   UNL     1     -10.570 -22.056  25.584  1.00  0.00     0.087 C 
ENDBRANCH  11  12
ENDBRANCH  10  11
ENDBRANCH   2  10
TORSDOF 6
ENDMDL
MODEL 4
REMARK VINA RESULT:    -1.012     17.842     20.323
REMARK INTER + INTRA:          -2.170
REMARK INTER:                  -2.059
REMARK INTRA:                  -0.111
REMARK UNBOUND:                -0.803
REMARK SMILES CC(=O)CCC=C(C)CCC=C(C)C
REMARK SMILES IDX 7 1 6 2 8 3 9 4 10 5 11 6 13 7 12 8 14 9 5 10 4 11 2 12 3 13
REMARK SMILES IDX 1 14
REMARK H PARENT
REMARK Flexibility Score: inf
ROOT
ATOM      1  C   UNL     1       7.754 -23.830   7.898  1.00  0.00    -0.077 C 
ATOM      2  C   UNL     1       8.292 -23.726   9.132  1.00  0.00    -0.028 C 
ATOM      3  C   UNL     1       7.839 -25.114   7.107  1.00  0.00     0.039 C 
ENDROOT
BRANCH   1   4
ATOM      4  C   UNL     1       7.049 -22.632   7.293  1.00  0.00     0.034 C 
BRANCH   4   5
ATOM      5  C   UNL     1       5.528 -22.833   7.232  1.00  0.00     0.032 C 
BRANCH   5   6
ATOM      6  C   UNL     1       5.027 -23.682   8.376  1.00  0.00    -0.028 C 
ATOM      7  C   UNL     1       2.916 -24.330   7.193  1.00  0.00     0.039 C 
ATOM      8  C   UNL     1       3.837 -24.325   8.387  1.00  0.00    -0.080 C 
ATOM      9  C   UNL     1       3.429 -25.118   9.601  1.00  0.00     0.039 C 
ENDBRANCH   5   6
ENDBRANCH   4   5
ENDBRANCH   1   4
BRANCH   2  10
ATOM     10  C   UNL     1       9.019 -24.863   9.814  1.00  0.00     0.035 C 
BRANCH  10  11
ATOM     11  C   UNL     1       9.125 -24.652  11.329  1.00  0.00     0.079 C 
BRANCH  11  12
ATOM     12  C   UNL     1       7.784 -24.783  12.007  1.00  0.00     0.130 C 
ATOM     13  O   UNL     1       7.702 -24.626  13.216  1.00  0.00    -0.300 OA
ATOM     14  C   UNL     1       6.541 -25.093  11.226  1.00  0.00     0.087 C 
ENDBRANCH  11  12
ENDBRANCH  10  11
ENDBRANCH   2  10
TORSDOF 6
ENDMDL
MODEL 5
REMARK VINA RESULT:    -0.027     18.253     20.142
REMARK INTER + INTRA:          -0.839
REMARK INTER:                  -0.472
REMARK INTRA:                  -0.367
REMARK UNBOUND:                -0.803
REMARK SMILES CC(=O)CCC=C(C)CCC=C(C)C
REMARK SMILES IDX 7 1 6 2 8 3 9 4 10 5 11 6 13 7 12 8 14 9 5 10 4 11 2 12 3 13
REMARK SMILES IDX 1 14
REMARK H PARENT
REMARK Flexibility Score: inf
ROOT
ATOM      1  C   UNL     1       7.348 -24.321   9.125  1.00  0.00    -0.077 C 
ATOM      2  C   UNL     1       7.106 -24.311   7.797  1.00  0.00    -0.028 C 
ATOM      3  C   UNL     1       6.269 -23.974  10.125  1.00  0.00     0.039 C 
ENDROOT
BRANCH   1   4
ATOM      4  C   UNL     1       8.731 -24.687   9.625  1.00  0.00     0.034 C 
BRANCH   4   5
ATOM      5  C   UNL     1       9.123 -23.877  10.869  1.00  0.00     0.032 C 
BRANCH   5   6
ATOM      6  C   UNL     1       9.036 -24.705  12.129  1.00  0.00    -0.028 C 
ATOM      7  C   UNL     1       8.447 -22.748  13.578  1.00  0.00     0.039 C 
ATOM      8  C   UNL     1       8.773 -24.204  13.358  1.00  0.00    -0.080 C 
ATOM      9  C   UNL     1       8.743 -25.125  14.549  1.00  0.00     0.039 C 
ENDBRANCH   5   6
ENDBRANCH   4   5
ENDBRANCH   1   4
BRANCH   2  10
ATOM     10  C   UNL     1       5.762 -23.953   7.206  1.00  0.00     0.035 C 
BRANCH  10  11
ATOM     11  C   UNL     1       4.744 -25.091   7.356  1.00  0.00     0.079 C 
BRANCH  11  12
ATOM     12  C   UNL     1       3.383 -24.575   7.752  1.00  0.00     0.130 C 
ATOM     13  O   UNL     1       2.382 -25.125   7.320  1.00  0.00    -0.300 OA
ATOM     14  C   UNL     1       3.231 -23.403   8.676  1.00  0.00     0.087 C 
ENDBRANCH  11  12
ENDBRANCH  10  11
ENDBRANCH   2  10
TORSDOF 6
ENDMDL
