MODEL 1
REMARK VINA RESULT:    -7.182      0.000      0.000
REMARK INTER + INTRA:          -9.174
REMARK INTER:                  -8.861
REMARK INTRA:                  -0.312
REMARK UNBOUND:                -0.312
REMARK SMILES Oc1cc(O)c2cc(O)c(-c3cc(O)c(O)c(O)c3)[o+]c2c1.[Cl-]
REMARK SMILES IDX 10 1 20 2 21 3 22 4 2 5 3 6 4 7 6 8 7 9 8 10 11 11 12 12
REMARK SMILES IDX 13 13 19 14 15 15 17 16 14 17 16 19 18 21 9 23 1 25 5 27
REMARK H PARENT 14 18 16 20 18 22 9 24 1 26 5 28
REMARK Flexibility Score: inf
ROOT
ATOM      1  C   UNL     1      -1.728  10.579  26.972  1.00  0.00     0.402 A 
ATOM      2  O   UNL     1      -1.756  11.876  27.267  1.00  0.00    -0.202 OA
ATOM      3  C   UNL     1      -2.490  12.386  28.250  1.00  0.00     0.368 A 
ATOM      4  C   UNL     1      -2.455  13.763  28.481  1.00  0.00     0.162 A 
ATOM      5  C   UNL     1      -3.220  14.327  29.507  1.00  0.00     0.128 A 
ATOM      6  C   UNL     1      -4.022  13.508  30.305  1.00  0.00     0.093 A 
ATOM      7  C   UNL     1      -4.074  12.125  30.095  1.00  0.00     0.136 A 
ATOM      8  C   UNL     1      -3.299  11.548  29.056  1.00  0.00     0.125 A 
ATOM      9  C   UNL     1      -3.278  10.171  28.781  1.00  0.00     0.078 A 
ATOM     10  C   UNL     1      -2.484   9.675  27.743  1.00  0.00     0.223 A 
ENDROOT
BRANCH   1  11
ATOM     11  C   UNL     1      -0.877  10.135  25.845  1.00  0.00     0.091 A 
ATOM     12  C   UNL     1       0.521  10.067  25.968  1.00  0.00     0.068 A 
ATOM     13  C   UNL     1       1.309   9.622  24.897  1.00  0.00     0.162 A 
ATOM     14  C   UNL     1      -1.479   9.718  24.648  1.00  0.00     0.068 A 
ATOM     15  C   UNL     1       0.700   9.229  23.694  1.00  0.00     0.200 A 
ATOM     16  C   UNL     1      -0.700   9.274  23.574  1.00  0.00     0.162 A 
BRANCH  13  17
ATOM     17  O   UNL     1       2.697   9.565  25.027  1.00  0.00    -0.504 OA
ATOM     18  H   UNL     1       3.259   8.946  24.456  1.00  0.00     0.293 HD
ENDBRANCH  13  17
BRANCH  15  19
ATOM     19  O   UNL     1       1.470   8.788  22.616  1.00  0.00    -0.502 OA
ATOM     20  H   UNL     1       1.247   9.030  21.659  1.00  0.00     0.293 HD
ENDBRANCH  15  19
BRANCH  16  21
ATOM     21  O   UNL     1      -1.336   8.882  22.397  1.00  0.00    -0.504 OA
ATOM     22  H   UNL     1      -2.206   8.362  22.402  1.00  0.00     0.293 HD
ENDBRANCH  16  21
ENDBRANCH   1  11
BRANCH  10  23
ATOM     23  O   UNL     1      -2.424   8.303  27.501  1.00  0.00    -0.500 OA
ATOM     24  H   UNL     1      -2.521   7.626  28.249  1.00  0.00     0.294 HD
ENDBRANCH  10  23
BRANCH   5  25
ATOM     25  O   UNL     1      -3.191  15.700  29.742  1.00  0.00    -0.507 OA
ATOM     26  H   UNL     1      -4.010  16.198  30.071  1.00  0.00     0.293 HD
ENDBRANCH   5  25
BRANCH   7  27
ATOM     27  O   UNL     1      -4.904  11.376  30.934  1.00  0.00    -0.507 OA
ATOM     28  H   UNL     1      -5.909  11.330  30.851  1.00  0.00     0.293 HD
ENDBRANCH   7  27
TORSDOF 7
ENDMDL
MODEL 2
REMARK VINA RESULT:    -6.958      1.573      3.505
REMARK INTER + INTRA:          -8.897
REMARK INTER:                  -8.618
REMARK INTRA:                  -0.280
REMARK UNBOUND:                -0.312
REMARK SMILES Oc1cc(O)c2cc(O)c(-c3cc(O)c(O)c(O)c3)[o+]c2c1.[Cl-]
REMARK SMILES IDX 10 1 20 2 21 3 22 4 2 5 3 6 4 7 6 8 7 9 8 10 11 11 12 12
REMARK SMILES IDX 13 13 19 14 15 15 17 16 14 17 16 19 18 21 9 23 1 25 5 27
REMARK H PARENT 14 18 16 20 18 22 9 24 1 26 5 28
REMARK Flexibility Score: inf
ROOT
ATOM      1  C   UNL     1      -2.285  11.015  25.835  1.00  0.00     0.402 A 
ATOM      2  O   UNL     1      -2.804  10.469  26.932  1.00  0.00    -0.202 OA
ATOM      3  C   UNL     1      -2.983  11.138  28.067  1.00  0.00     0.368 A 
ATOM      4  C   UNL     1      -3.532  10.475  29.167  1.00  0.00     0.162 A 
ATOM      5  C   UNL     1      -3.730  11.154  30.374  1.00  0.00     0.128 A 
ATOM      6  C   UNL     1      -3.375  12.501  30.478  1.00  0.00     0.093 A 
ATOM      7  C   UNL     1      -2.823  13.188  29.390  1.00  0.00     0.136 A 
ATOM      8  C   UNL     1      -2.623  12.504  28.163  1.00  0.00     0.125 A 
ATOM      9  C   UNL     1      -2.089  13.114  27.017  1.00  0.00     0.078 A 
ATOM     10  C   UNL     1      -1.926  12.376  25.841  1.00  0.00     0.223 A 
ENDROOT
BRANCH   1  11
ATOM     11  C   UNL     1      -2.127  10.162  24.635  1.00  0.00     0.091 A 
ATOM     12  C   UNL     1      -3.239   9.734  23.891  1.00  0.00     0.068 A 
ATOM     13  C   UNL     1      -3.067   8.946  22.745  1.00  0.00     0.162 A 
ATOM     14  C   UNL     1      -0.839   9.819  24.198  1.00  0.00     0.068 A 
ATOM     15  C   UNL     1      -1.775   8.587  22.327  1.00  0.00     0.200 A 
ATOM     16  C   UNL     1      -0.658   9.031  23.056  1.00  0.00     0.162 A 
BRANCH  13  17
ATOM     17  O   UNL     1      -4.179   8.521  22.016  1.00  0.00    -0.504 OA
ATOM     18  H   UNL     1      -5.106   8.881  22.204  1.00  0.00     0.293 HD
ENDBRANCH  13  17
BRANCH  15  19
ATOM     19  O   UNL     1      -1.586   7.799  21.190  1.00  0.00    -0.502 OA
ATOM     20  H   UNL     1      -0.931   8.051  20.462  1.00  0.00     0.293 HD
ENDBRANCH  15  19
BRANCH  16  21
ATOM     21  O   UNL     1       0.638   8.701  22.663  1.00  0.00    -0.504 OA
ATOM     22  H   UNL     1       1.079   7.831  22.937  1.00  0.00     0.293 HD
ENDBRANCH  16  21
ENDBRANCH   1  11
BRANCH  10  23
ATOM     23  O   UNL     1      -1.442  12.994  24.687  1.00  0.00    -0.500 OA
ATOM     24  H   UNL     1      -0.988  12.466  23.951  1.00  0.00     0.294 HD
ENDBRANCH  10  23
BRANCH   5  25
ATOM     25  O   UNL     1      -4.276  10.499  31.475  1.00  0.00    -0.507 OA
ATOM     26  H   UNL     1      -3.843  10.552  32.390  1.00  0.00     0.293 HD
ENDBRANCH   5  25
BRANCH   7  27
ATOM     27  O   UNL     1      -2.492  14.533  29.578  1.00  0.00    -0.507 OA
ATOM     28  H   UNL     1      -1.647  14.965  29.237  1.00  0.00     0.293 HD
ENDBRANCH   7  27
TORSDOF 7
ENDMDL
MODEL 3
REMARK VINA RESULT:    -6.855      1.487      2.115
REMARK INTER + INTRA:          -8.770
REMARK INTER:                  -8.510
REMARK INTRA:                  -0.260
REMARK UNBOUND:                -0.312
REMARK SMILES Oc1cc(O)c2cc(O)c(-c3cc(O)c(O)c(O)c3)[o+]c2c1.[Cl-]
REMARK SMILES IDX 10 1 20 2 21 3 22 4 2 5 3 6 4 7 6 8 7 9 8 10 11 11 12 12
REMARK SMILES IDX 13 13 19 14 15 15 17 16 14 17 16 19 18 21 9 23 1 25 5 27
REMARK H PARENT 14 18 16 20 18 22 9 24 1 26 5 28
REMARK Flexibility Score: inf
ROOT
ATOM      1  C   UNL     1      -2.627  10.763  26.795  1.00  0.00     0.402 A 
ATOM      2  O   UNL     1      -2.799  12.058  27.046  1.00  0.00    -0.202 OA
ATOM      3  C   UNL     1      -2.885  12.558  28.274  1.00  0.00     0.368 A 
ATOM      4  C   UNL     1      -3.070  13.933  28.437  1.00  0.00     0.162 A 
ATOM      5  C   UNL     1      -3.166  14.487  29.718  1.00  0.00     0.128 A 
ATOM      6  C   UNL     1      -3.078  13.658  30.840  1.00  0.00     0.093 A 
ATOM      7  C   UNL     1      -2.893  12.277  30.704  1.00  0.00     0.136 A 
ATOM      8  C   UNL     1      -2.792  11.712  29.406  1.00  0.00     0.125 A 
ATOM      9  C   UNL     1      -2.593  10.342  29.174  1.00  0.00     0.078 A 
ATOM     10  C   UNL     1      -2.498   9.859  27.865  1.00  0.00     0.223 A 
ENDROOT
BRANCH   1  11
ATOM     11  C   UNL     1      -2.557  10.327  25.381  1.00  0.00     0.091 A 
ATOM     12  C   UNL     1      -1.360   9.846  24.824  1.00  0.00     0.068 A 
ATOM     13  C   UNL     1      -1.318   9.416  23.490  1.00  0.00     0.162 A 
ATOM     14  C   UNL     1      -3.719  10.340  24.596  1.00  0.00     0.068 A 
ATOM     15  C   UNL     1      -2.482   9.454  22.704  1.00  0.00     0.200 A 
ATOM     16  C   UNL     1      -3.686   9.915  23.264  1.00  0.00     0.162 A 
BRANCH  13  17
ATOM     17  O   UNL     1      -0.123   8.946  22.945  1.00  0.00    -0.504 OA
ATOM     18  H   UNL     1       0.630   9.575  22.695  1.00  0.00     0.293 HD
ENDBRANCH  13  17
BRANCH  15  19
ATOM     19  O   UNL     1      -2.457   9.035  21.373  1.00  0.00    -0.502 OA
ATOM     20  H   UNL     1      -2.139   8.112  21.104  1.00  0.00     0.293 HD
ENDBRANCH  15  19
BRANCH  16  21
ATOM     21  O   UNL     1      -4.861   9.957  22.513  1.00  0.00    -0.504 OA
ATOM     22  H   UNL     1      -5.074   9.262  21.807  1.00  0.00     0.293 HD
ENDBRANCH  16  21
ENDBRANCH   1  11
BRANCH  10  23
ATOM     23  O   UNL     1      -2.251   8.505  27.635  1.00  0.00    -0.500 OA
ATOM     24  H   UNL     1      -2.895   7.929  27.104  1.00  0.00     0.294 HD
ENDBRANCH  10  23
BRANCH   5  25
ATOM     25  O   UNL     1      -3.351  15.857  29.888  1.00  0.00    -0.507 OA
ATOM     26  H   UNL     1      -3.215  16.301  30.788  1.00  0.00     0.293 HD
ENDBRANCH   5  25
BRANCH   7  27
ATOM     27  O   UNL     1      -2.818  11.519  31.876  1.00  0.00    -0.507 OA
ATOM     28  H   UNL     1      -1.963  11.149  32.262  1.00  0.00     0.293 HD
ENDBRANCH   7  27
TORSDOF 7
ENDMDL
MODEL 4
REMARK VINA RESULT:    -6.824      6.489      8.652
REMARK INTER + INTRA:          -8.732
REMARK INTER:                  -8.623
REMARK INTRA:                  -0.109
REMARK UNBOUND:                -0.312
REMARK SMILES Oc1cc(O)c2cc(O)c(-c3cc(O)c(O)c(O)c3)[o+]c2c1.[Cl-]
REMARK SMILES IDX 10 1 20 2 21 3 22 4 2 5 3 6 4 7 6 8 7 9 8 10 11 11 12 12
REMARK SMILES IDX 13 13 19 14 15 15 17 16 14 17 16 19 18 21 9 23 1 25 5 27
REMARK H PARENT 14 18 16 20 18 22 9 24 1 26 5 28
REMARK Flexibility Score: inf
ROOT
ATOM      1  C   UNL     1       2.770  15.717  24.867  1.00  0.00     0.402 A 
ATOM      2  O   UNL     1       1.561  15.332  25.268  1.00  0.00    -0.202 OA
ATOM      3  C   UNL     1       1.242  14.067  25.517  1.00  0.00     0.368 A 
ATOM      4  C   UNL     1      -0.057  13.762  25.930  1.00  0.00     0.162 A 
ATOM      5  C   UNL     1      -0.421  12.438  26.197  1.00  0.00     0.128 A 
ATOM      6  C   UNL     1       0.520  11.416  26.049  1.00  0.00     0.093 A 
ATOM      7  C   UNL     1       1.829  11.696  25.637  1.00  0.00     0.136 A 
ATOM      8  C   UNL     1       2.203  13.038  25.367  1.00  0.00     0.125 A 
ATOM      9  C   UNL     1       3.494  13.413  24.963  1.00  0.00     0.078 A 
ATOM     10  C   UNL     1       3.790  14.758  24.720  1.00  0.00     0.223 A 
ENDROOT
BRANCH   1  11
ATOM     11  C   UNL     1       2.999  17.157  24.612  1.00  0.00     0.091 A 
ATOM     12  C   UNL     1       3.569  17.604  23.408  1.00  0.00     0.068 A 
ATOM     13  C   UNL     1       3.757  18.973  23.175  1.00  0.00     0.162 A 
ATOM     14  C   UNL     1       2.586  18.101  25.564  1.00  0.00     0.068 A 
ATOM     15  C   UNL     1       3.362  19.911  24.143  1.00  0.00     0.200 A 
ATOM     16  C   UNL     1       2.772  19.469  25.340  1.00  0.00     0.162 A 
BRANCH  13  17
ATOM     17  O   UNL     1       4.330  19.406  21.978  1.00  0.00    -0.504 OA
ATOM     18  H   UNL     1       5.212  19.034  21.647  1.00  0.00     0.293 HD
ENDBRANCH  13  17
BRANCH  15  19
ATOM     19  O   UNL     1       3.547  21.278  23.929  1.00  0.00    -0.502 OA
ATOM     20  H   UNL     1       3.143  21.978  24.537  1.00  0.00     0.293 HD
ENDBRANCH  15  19
BRANCH  16  21
ATOM     21  O   UNL     1       2.361  20.375  26.318  1.00  0.00    -0.504 OA
ATOM     22  H   UNL     1       2.997  21.048  26.730  1.00  0.00     0.293 HD
ENDBRANCH  16  21
ENDBRANCH   1  11
BRANCH  10  23
ATOM     23  O   UNL     1       5.085  15.137  24.366  1.00  0.00    -0.500 OA
ATOM     24  H   UNL     1       5.635  15.760  24.947  1.00  0.00     0.294 HD
ENDBRANCH  10  23
BRANCH   5  25
ATOM     25  O   UNL     1      -1.715  12.126  26.608  1.00  0.00    -0.507 OA
ATOM     26  H   UNL     1      -2.108  12.513  27.459  1.00  0.00     0.293 HD
ENDBRANCH   5  25
BRANCH   7  27
ATOM     27  O   UNL     1       2.709  10.617  25.511  1.00  0.00    -0.507 OA
ATOM     28  H   UNL     1       3.709  10.680  25.628  1.00  0.00     0.293 HD
ENDBRANCH   7  27
TORSDOF 7
ENDMDL
MODEL 5
REMARK VINA RESULT:    -6.688      6.319      8.494
REMARK INTER + INTRA:          -8.564
REMARK INTER:                  -8.560
REMARK INTRA:                  -0.004
REMARK UNBOUND:                -0.312
REMARK SMILES Oc1cc(O)c2cc(O)c(-c3cc(O)c(O)c(O)c3)[o+]c2c1.[Cl-]
REMARK SMILES IDX 10 1 20 2 21 3 22 4 2 5 3 6 4 7 6 8 7 9 8 10 11 11 12 12
REMARK SMILES IDX 13 13 19 14 15 15 17 16 14 17 16 19 18 21 9 23 1 25 5 27
REMARK H PARENT 14 18 16 20 18 22 9 24 1 26 5 28
REMARK Flexibility Score: inf
ROOT
ATOM      1  C   UNL     1       2.548  15.659  25.003  1.00  0.00     0.402 A 
ATOM      2  O   UNL     1       1.361  15.253  25.446  1.00  0.00    -0.202 OA
ATOM      3  C   UNL     1       1.056  13.977  25.656  1.00  0.00     0.368 A 
ATOM      4  C   UNL     1      -0.220  13.649  26.118  1.00  0.00     0.162 A 
ATOM      5  C   UNL     1      -0.569  12.314  26.345  1.00  0.00     0.128 A 
ATOM      6  C   UNL     1       0.366  11.303  26.107  1.00  0.00     0.093 A 
ATOM      7  C   UNL     1       1.652  11.605  25.644  1.00  0.00     0.136 A 
ATOM      8  C   UNL     1       2.010  12.959  25.414  1.00  0.00     0.125 A 
ATOM      9  C   UNL     1       3.279  13.356  24.963  1.00  0.00     0.078 A 
ATOM     10  C   UNL     1       3.561  14.711  24.764  1.00  0.00     0.223 A 
ENDROOT
BRANCH   1  11
ATOM     11  C   UNL     1       2.762  17.110  24.799  1.00  0.00     0.091 A 
ATOM     12  C   UNL     1       2.411  18.046  25.787  1.00  0.00     0.068 A 
ATOM     13  C   UNL     1       2.642  19.413  25.585  1.00  0.00     0.162 A 
ATOM     14  C   UNL     1       3.379  17.558  23.622  1.00  0.00     0.068 A 
ATOM     15  C   UNL     1       3.239  19.856  24.393  1.00  0.00     0.200 A 
ATOM     16  C   UNL     1       3.612  18.920  23.412  1.00  0.00     0.162 A 
BRANCH  13  17
ATOM     17  O   UNL     1       2.283  20.335  26.569  1.00  0.00    -0.504 OA
ATOM     18  H   UNL     1       2.957  20.687  27.238  1.00  0.00     0.293 HD
ENDBRANCH  13  17
BRANCH  15  19
ATOM     19  O   UNL     1       3.472  21.215  24.174  1.00  0.00    -0.502 OA
ATOM     20  H   UNL     1       2.747  21.839  23.844  1.00  0.00     0.293 HD
ENDBRANCH  15  19
BRANCH  16  21
ATOM     21  O   UNL     1       4.215  19.326  22.222  1.00  0.00    -0.504 OA
ATOM     22  H   UNL     1       3.680  19.505  21.380  1.00  0.00     0.293 HD
ENDBRANCH  16  21
ENDBRANCH   1  11
BRANCH  10  23
ATOM     23  O   UNL     1       4.836  15.109  24.364  1.00  0.00    -0.500 OA
ATOM     24  H   UNL     1       5.303  14.683  23.571  1.00  0.00     0.294 HD
ENDBRANCH  10  23
BRANCH   5  25
ATOM     25  O   UNL     1      -1.840  11.980  26.806  1.00  0.00    -0.507 OA
ATOM     26  H   UNL     1      -2.651  12.543  26.576  1.00  0.00     0.293 HD
ENDBRANCH   5  25
BRANCH   7  27
ATOM     27  O   UNL     1       2.526  10.536  25.427  1.00  0.00    -0.507 OA
ATOM     28  H   UNL     1       2.936   9.977  26.160  1.00  0.00     0.293 HD
ENDBRANCH   7  27
TORSDOF 7
ENDMDL
MODEL 6
REMARK VINA RESULT:    -6.680      1.373      7.158
REMARK INTER + INTRA:          -8.555
REMARK INTER:                  -8.176
REMARK INTRA:                  -0.378
REMARK UNBOUND:                -0.312
REMARK SMILES Oc1cc(O)c2cc(O)c(-c3cc(O)c(O)c(O)c3)[o+]c2c1.[Cl-]
REMARK SMILES IDX 10 1 20 2 21 3 22 4 2 5 3 6 4 7 6 8 7 9 8 10 11 11 12 12
REMARK SMILES IDX 13 13 19 14 15 15 17 16 14 17 16 19 18 21 9 23 1 25 5 27
REMARK H PARENT 14 18 16 20 18 22 9 24 1 26 5 28
REMARK Flexibility Score: inf
ROOT
ATOM      1  C   UNL     1      -2.758  11.524  27.250  1.00  0.00     0.402 A 
ATOM      2  O   UNL     1      -1.498  11.174  27.004  1.00  0.00    -0.202 OA
ATOM      3  C   UNL     1      -1.120  10.532  25.903  1.00  0.00     0.368 A 
ATOM      4  C   UNL     1       0.227  10.204  25.737  1.00  0.00     0.162 A 
ATOM      5  C   UNL     1       0.653   9.526  24.590  1.00  0.00     0.128 A 
ATOM      6  C   UNL     1      -0.276   9.175  23.607  1.00  0.00     0.093 A 
ATOM      7  C   UNL     1      -1.631   9.493  23.749  1.00  0.00     0.136 A 
ATOM      8  C   UNL     1      -2.067  10.183  24.911  1.00  0.00     0.125 A 
ATOM      9  C   UNL     1      -3.403  10.554  25.132  1.00  0.00     0.078 A 
ATOM     10  C   UNL     1      -3.756  11.237  26.300  1.00  0.00     0.223 A 
ENDROOT
BRANCH   1  11
ATOM     11  C   UNL     1      -3.055  12.228  28.518  1.00  0.00     0.091 A 
ATOM     12  C   UNL     1      -2.973  13.628  28.614  1.00  0.00     0.068 A 
ATOM     13  C   UNL     1      -3.280  14.278  29.817  1.00  0.00     0.162 A 
ATOM     14  C   UNL     1      -3.482  11.491  29.633  1.00  0.00     0.068 A 
ATOM     15  C   UNL     1      -3.684  13.530  30.935  1.00  0.00     0.200 A 
ATOM     16  C   UNL     1      -3.788  12.132  30.838  1.00  0.00     0.162 A 
BRANCH  13  17
ATOM     17  O   UNL     1      -3.190  15.667  29.903  1.00  0.00    -0.504 OA
ATOM     18  H   UNL     1      -2.697  16.122  30.662  1.00  0.00     0.293 HD
ENDBRANCH  13  17
BRANCH  15  19
ATOM     19  O   UNL     1      -3.989  14.161  32.143  1.00  0.00    -0.502 OA
ATOM     20  H   UNL     1      -3.684  15.103  32.351  1.00  0.00     0.293 HD
ENDBRANCH  15  19
BRANCH  16  21
ATOM     21  O   UNL     1      -4.195  11.361  31.927  1.00  0.00    -0.504 OA
ATOM     22  H   UNL     1      -4.830  10.578  31.826  1.00  0.00     0.293 HD
ENDBRANCH  16  21
ENDBRANCH   1  11
BRANCH  10  23
ATOM     23  O   UNL     1      -5.074  11.650  26.498  1.00  0.00    -0.500 OA
ATOM     24  H   UNL     1      -5.295  12.516  26.976  1.00  0.00     0.294 HD
ENDBRANCH  10  23
BRANCH   5  25
ATOM     25  O   UNL     1       1.995   9.195  24.418  1.00  0.00    -0.507 OA
ATOM     26  H   UNL     1       2.282   8.469  23.771  1.00  0.00     0.293 HD
ENDBRANCH   5  25
BRANCH   7  27
ATOM     27  O   UNL     1      -2.496   9.104  22.722  1.00  0.00    -0.507 OA
ATOM     28  H   UNL     1      -3.405   9.508  22.558  1.00  0.00     0.293 HD
ENDBRANCH   7  27
TORSDOF 7
ENDMDL
MODEL 7
REMARK VINA RESULT:    -6.667      1.656      7.246
REMARK INTER + INTRA:          -8.538
REMARK INTER:                  -8.276
REMARK INTRA:                  -0.261
REMARK UNBOUND:                -0.312
REMARK SMILES Oc1cc(O)c2cc(O)c(-c3cc(O)c(O)c(O)c3)[o+]c2c1.[Cl-]
REMARK SMILES IDX 10 1 20 2 21 3 22 4 2 5 3 6 4 7 6 8 7 9 8 10 11 11 12 12
REMARK SMILES IDX 13 13 19 14 15 15 17 16 14 17 16 19 18 21 9 23 1 25 5 27
REMARK H PARENT 14 18 16 20 18 22 9 24 1 26 5 28
REMARK Flexibility Score: inf
ROOT
ATOM      1  C   UNL     1      -2.330  11.384  27.302  1.00  0.00     0.402 A 
ATOM      2  O   UNL     1      -3.228  10.605  26.704  1.00  0.00    -0.202 OA
ATOM      3  C   UNL     1      -2.969   9.898  25.609  1.00  0.00     0.368 A 
ATOM      4  C   UNL     1      -3.980   9.112  25.052  1.00  0.00     0.162 A 
ATOM      5  C   UNL     1      -3.736   8.360  23.898  1.00  0.00     0.128 A 
ATOM      6  C   UNL     1      -2.473   8.398  23.300  1.00  0.00     0.093 A 
ATOM      7  C   UNL     1      -1.443   9.177  23.839  1.00  0.00     0.136 A 
ATOM      8  C   UNL     1      -1.686   9.940  25.011  1.00  0.00     0.125 A 
ATOM      9  C   UNL     1      -0.710  10.739  25.628  1.00  0.00     0.078 A 
ATOM     10  C   UNL     1      -1.023  11.459  26.785  1.00  0.00     0.223 A 
ENDROOT
BRANCH   1  11
ATOM     11  C   UNL     1      -2.745  12.130  28.512  1.00  0.00     0.091 A 
ATOM     12  C   UNL     1      -2.792  13.534  28.524  1.00  0.00     0.068 A 
ATOM     13  C   UNL     1      -3.209  14.222  29.672  1.00  0.00     0.162 A 
ATOM     14  C   UNL     1      -3.153  11.423  29.653  1.00  0.00     0.068 A 
ATOM     15  C   UNL     1      -3.594  13.507  30.818  1.00  0.00     0.200 A 
ATOM     16  C   UNL     1      -3.568  12.101  30.803  1.00  0.00     0.162 A 
BRANCH  13  17
ATOM     17  O   UNL     1      -3.247  15.617  29.675  1.00  0.00    -0.504 OA
ATOM     18  H   UNL     1      -4.074  16.125  29.962  1.00  0.00     0.293 HD
ENDBRANCH  13  17
BRANCH  15  19
ATOM     19  O   UNL     1      -4.007  14.176  31.971  1.00  0.00    -0.502 OA
ATOM     20  H   UNL     1      -4.472  15.074  31.936  1.00  0.00     0.293 HD
ENDBRANCH  15  19
BRANCH  16  21
ATOM     21  O   UNL     1      -3.952  11.361  31.921  1.00  0.00    -0.504 OA
ATOM     22  H   UNL     1      -4.388  10.450  31.840  1.00  0.00     0.293 HD
ENDBRANCH  16  21
ENDBRANCH   1  11
BRANCH  10  23
ATOM     23  O   UNL     1      -0.041  12.214  27.427  1.00  0.00    -0.500 OA
ATOM     24  H   UNL     1       0.913  12.246  27.086  1.00  0.00     0.294 HD
ENDBRANCH  10  23
BRANCH   5  25
ATOM     25  O   UNL     1      -4.739   7.574  23.337  1.00  0.00    -0.507 OA
ATOM     26  H   UNL     1      -5.667   7.944  23.163  1.00  0.00     0.293 HD
ENDBRANCH   5  25
BRANCH   7  27
ATOM     27  O   UNL     1      -0.211   9.162  23.179  1.00  0.00    -0.507 OA
ATOM     28  H   UNL     1       0.001   9.700  22.353  1.00  0.00     0.293 HD
ENDBRANCH   7  27
TORSDOF 7
ENDMDL
MODEL 8
REMARK VINA RESULT:    -6.656      8.426     10.125
REMARK INTER + INTRA:          -8.525
REMARK INTER:                  -8.579
REMARK INTRA:                   0.054
REMARK UNBOUND:                -0.312
REMARK SMILES Oc1cc(O)c2cc(O)c(-c3cc(O)c(O)c(O)c3)[o+]c2c1.[Cl-]
REMARK SMILES IDX 10 1 20 2 21 3 22 4 2 5 3 6 4 7 6 8 7 9 8 10 11 11 12 12
REMARK SMILES IDX 13 13 19 14 15 15 17 16 14 17 16 19 18 21 9 23 1 25 5 27
REMARK H PARENT 14 18 16 20 18 22 9 24 1 26 5 28
REMARK Flexibility Score: inf
ROOT
ATOM      1  C   UNL     1       2.885  17.726  24.353  1.00  0.00     0.402 A 
ATOM      2  O   UNL     1       3.542  18.173  23.286  1.00  0.00    -0.202 OA
ATOM      3  C   UNL     1       3.638  19.462  22.973  1.00  0.00     0.368 A 
ATOM      4  C   UNL     1       4.347  19.833  21.829  1.00  0.00     0.162 A 
ATOM      5  C   UNL     1       4.462  21.181  21.475  1.00  0.00     0.128 A 
ATOM      6  C   UNL     1       3.862  22.161  22.272  1.00  0.00     0.093 A 
ATOM      7  C   UNL     1       3.146  21.815  23.424  1.00  0.00     0.136 A 
ATOM      8  C   UNL     1       3.030  20.448  23.788  1.00  0.00     0.125 A 
ATOM      9  C   UNL     1       2.343  20.009  24.931  1.00  0.00     0.078 A 
ATOM     10  C   UNL     1       2.275  18.644  25.228  1.00  0.00     0.223 A 
ENDROOT
BRANCH   1  11
ATOM     11  C   UNL     1       2.842  16.265  24.587  1.00  0.00     0.091 A 
ATOM     12  C   UNL     1       1.683  15.637  25.074  1.00  0.00     0.068 A 
ATOM     13  C   UNL     1       1.654  14.249  25.268  1.00  0.00     0.162 A 
ATOM     14  C   UNL     1       3.960  15.480  24.265  1.00  0.00     0.068 A 
ATOM     15  C   UNL     1       2.785  13.474  24.965  1.00  0.00     0.200 A 
ATOM     16  C   UNL     1       3.940  14.096  24.457  1.00  0.00     0.162 A 
BRANCH  13  17
ATOM     17  O   UNL     1       0.500  13.636  25.758  1.00  0.00    -0.504 OA
ATOM     18  H   UNL     1       0.301  13.595  26.751  1.00  0.00     0.293 HD
ENDBRANCH  13  17
BRANCH  15  19
ATOM     19  O   UNL     1       2.775  12.091  25.157  1.00  0.00    -0.502 OA
ATOM     20  H   UNL     1       3.620  11.536  25.124  1.00  0.00     0.293 HD
ENDBRANCH  15  19
BRANCH  16  21
ATOM     21  O   UNL     1       5.077  13.354  24.137  1.00  0.00    -0.504 OA
ATOM     22  H   UNL     1       6.000  13.619  24.458  1.00  0.00     0.293 HD
ENDBRANCH  16  21
ENDBRANCH   1  11
BRANCH  10  23
ATOM     23  O   UNL     1       1.635  18.212  26.390  1.00  0.00    -0.500 OA
ATOM     24  H   UNL     1       1.509  18.824  27.188  1.00  0.00     0.294 HD
ENDBRANCH  10  23
BRANCH   5  25
ATOM     25  O   UNL     1       5.167  21.559  20.335  1.00  0.00    -0.507 OA
ATOM     26  H   UNL     1       6.179  21.613  20.333  1.00  0.00     0.293 HD
ENDBRANCH   5  25
BRANCH   7  27
ATOM     27  O   UNL     1       2.574  22.854  24.164  1.00  0.00    -0.507 OA
ATOM     28  H   UNL     1       2.614  23.828  23.904  1.00  0.00     0.293 HD
ENDBRANCH   7  27
TORSDOF 7
ENDMDL
MODEL 9
REMARK VINA RESULT:    -6.594      1.213      2.610
REMARK INTER + INTRA:          -8.449
REMARK INTER:                  -8.069
REMARK INTRA:                  -0.379
REMARK UNBOUND:                -0.312
REMARK SMILES Oc1cc(O)c2cc(O)c(-c3cc(O)c(O)c(O)c3)[o+]c2c1.[Cl-]
REMARK SMILES IDX 10 1 20 2 21 3 22 4 2 5 3 6 4 7 6 8 7 9 8 10 11 11 12 12
REMARK SMILES IDX 13 13 19 14 15 15 17 16 14 17 16 19 18 21 9 23 1 25 5 27
REMARK H PARENT 14 18 16 20 18 22 9 24 1 26 5 28
REMARK Flexibility Score: inf
ROOT
ATOM      1  C   UNL     1      -1.656  11.616  26.653  1.00  0.00     0.402 A 
ATOM      2  O   UNL     1      -2.089  10.988  27.742  1.00  0.00    -0.202 OA
ATOM      3  C   UNL     1      -2.568  11.620  28.809  1.00  0.00     0.368 A 
ATOM      4  C   UNL     1      -2.996  10.872  29.908  1.00  0.00     0.162 A 
ATOM      5  C   UNL     1      -3.501  11.511  31.045  1.00  0.00     0.128 A 
ATOM      6  C   UNL     1      -3.576  12.906  31.080  1.00  0.00     0.093 A 
ATOM      7  C   UNL     1      -3.153  13.679  29.992  1.00  0.00     0.136 A 
ATOM      8  C   UNL     1      -2.642  13.034  28.836  1.00  0.00     0.125 A 
ATOM      9  C   UNL     1      -2.208  13.726  27.694  1.00  0.00     0.078 A 
ATOM     10  C   UNL     1      -1.721  13.021  26.589  1.00  0.00     0.223 A 
ENDROOT
BRANCH   1  11
ATOM     11  C   UNL     1      -1.136  10.799  25.533  1.00  0.00     0.091 A 
ATOM     12  C   UNL     1       0.211  10.403  25.481  1.00  0.00     0.068 A 
ATOM     13  C   UNL     1       0.679   9.611  24.424  1.00  0.00     0.162 A 
ATOM     14  C   UNL     1      -2.016  10.361  24.531  1.00  0.00     0.068 A 
ATOM     15  C   UNL     1      -0.203   9.196  23.413  1.00  0.00     0.200 A 
ATOM     16  C   UNL     1      -1.557   9.571  23.473  1.00  0.00     0.162 A 
BRANCH  13  17
ATOM     17  O   UNL     1       2.021   9.229  24.378  1.00  0.00    -0.504 OA
ATOM     18  H   UNL     1       2.512   9.118  23.499  1.00  0.00     0.293 HD
ENDBRANCH  13  17
BRANCH  15  19
ATOM     19  O   UNL     1       0.248   8.410  22.351  1.00  0.00    -0.502 OA
ATOM     20  H   UNL     1      -0.008   8.603  21.391  1.00  0.00     0.293 HD
ENDBRANCH  15  19
BRANCH  16  21
ATOM     21  O   UNL     1      -2.461   9.169  22.490  1.00  0.00    -0.504 OA
ATOM     22  H   UNL     1      -2.274   9.296  21.502  1.00  0.00     0.293 HD
ENDBRANCH  16  21
ENDBRANCH   1  11
BRANCH  10  23
ATOM     23  O   UNL     1      -1.336  13.705  25.436  1.00  0.00    -0.500 OA
ATOM     24  H   UNL     1      -1.243  14.714  25.422  1.00  0.00     0.294 HD
ENDBRANCH  10  23
BRANCH   5  25
ATOM     25  O   UNL     1      -3.929  10.772  32.144  1.00  0.00    -0.507 OA
ATOM     26  H   UNL     1      -3.277  10.440  32.846  1.00  0.00     0.293 HD
ENDBRANCH   5  25
BRANCH   7  27
ATOM     27  O   UNL     1      -3.259  15.068  30.109  1.00  0.00    -0.507 OA
ATOM     28  H   UNL     1      -2.704  15.632  30.735  1.00  0.00     0.293 HD
ENDBRANCH   7  27
TORSDOF 7
ENDMDL
