MODEL 1
REMARK VINA RESULT:    -2.339      0.000      0.000
REMARK INTER + INTRA:          -2.497
REMARK INTER:                  -2.476
REMARK INTRA:                  -0.021
REMARK UNBOUND:                -0.021
REMARK SMILES O=C([O-])c1cccnc1
REMARK SMILES IDX 4 1 5 2 9 3 6 4 8 5 7 6 2 7 1 8 3 9
REMARK H PARENT
REMARK Flexibility Score: inf
ROOT
ATOM      1  C   UNL     1      21.546  77.395   5.708  1.00  0.00     0.016 A 
ATOM      2  C   UNL     1      22.464  78.054   6.544  1.00  0.00     0.013 A 
ATOM      3  C   UNL     1      20.841  78.157   4.761  1.00  0.00     0.120 A 
ATOM      4  C   UNL     1      22.659  79.431   6.424  1.00  0.00     0.021 A 
ATOM      5  N   UNL     1      21.051  79.497   4.664  1.00  0.00    -0.264 NA
ATOM      6  C   UNL     1      21.936  80.143   5.468  1.00  0.00     0.111 A 
ENDROOT
BRANCH   1   7
ATOM      7  C   UNL     1      21.324  75.938   5.820  1.00  0.00     0.073 C 
ATOM      8  O   UNL     1      21.047  75.251   4.801  1.00  0.00    -0.545 OA
ATOM      9  O   UNL     1      21.419  75.305   7.055  1.00  0.00    -0.545 OA
ENDBRANCH   1   7
TORSDOF 1
ENDMDL
MODEL 2
REMARK VINA RESULT:    -2.335     12.794     13.085
REMARK INTER + INTRA:          -2.493
REMARK INTER:                  -2.476
REMARK INTRA:                  -0.017
REMARK UNBOUND:                -0.021
REMARK SMILES O=C([O-])c1cccnc1
REMARK SMILES IDX 4 1 5 2 9 3 6 4 8 5 7 6 2 7 1 8 3 9
REMARK H PARENT
REMARK Flexibility Score: inf
ROOT
ATOM      1  C   UNL     1      33.254  77.104   0.465  1.00  0.00     0.016 A 
ATOM      2  C   UNL     1      34.460  76.789  -0.185  1.00  0.00     0.013 A 
ATOM      3  C   UNL     1      33.081  78.410   0.953  1.00  0.00     0.120 A 
ATOM      4  C   UNL     1      35.451  77.760  -0.334  1.00  0.00     0.021 A 
ATOM      5  N   UNL     1      34.063  79.339   0.794  1.00  0.00    -0.264 NA
ATOM      6  C   UNL     1      35.232  79.044   0.167  1.00  0.00     0.111 A 
ENDROOT
BRANCH   1   7
ATOM      7  C   UNL     1      32.193  76.089   0.634  1.00  0.00     0.073 C 
ATOM      8  O   UNL     1      31.520  75.694  -0.355  1.00  0.00    -0.545 OA
ATOM      9  O   UNL     1      31.922  75.556   1.890  1.00  0.00    -0.545 OA
ENDBRANCH   1   7
TORSDOF 1
ENDMDL
MODEL 3
REMARK VINA RESULT:    -2.322     14.265     14.519
REMARK INTER + INTRA:          -2.479
REMARK INTER:                  -2.463
REMARK INTRA:                  -0.016
REMARK UNBOUND:                -0.021
REMARK SMILES O=C([O-])c1cccnc1
REMARK SMILES IDX 4 1 5 2 9 3 6 4 8 5 7 6 2 7 1 8 3 9
REMARK H PARENT
REMARK Flexibility Score: inf
ROOT
ATOM      1  C   UNL     1      34.098  76.900  -0.573  1.00  0.00     0.016 A 
ATOM      2  C   UNL     1      35.456  76.673  -0.290  1.00  0.00     0.013 A 
ATOM      3  C   UNL     1      33.683  76.878  -1.915  1.00  0.00     0.120 A 
ATOM      4  C   UNL     1      36.358  76.433  -1.328  1.00  0.00     0.021 A 
ATOM      5  N   UNL     1      34.582  76.642  -2.908  1.00  0.00    -0.264 NA
ATOM      6  C   UNL     1      35.898  76.421  -2.645  1.00  0.00     0.111 A 
ENDROOT
BRANCH   1   7
ATOM      7  C   UNL     1      33.128  77.156   0.512  1.00  0.00     0.073 C 
ATOM      8  O   UNL     1      32.832  78.336   0.843  1.00  0.00    -0.545 OA
ATOM      9  O   UNL     1      32.528  76.097   1.185  1.00  0.00    -0.545 OA
ENDBRANCH   1   7
TORSDOF 1
ENDMDL
MODEL 4
REMARK VINA RESULT:    -2.299     11.530     12.326
REMARK INTER + INTRA:          -2.454
REMARK INTER:                  -2.434
REMARK INTRA:                  -0.021
REMARK UNBOUND:                -0.021
REMARK SMILES O=C([O-])c1cccnc1
REMARK SMILES IDX 4 1 5 2 9 3 6 4 8 5 7 6 2 7 1 8 3 9
REMARK H PARENT
REMARK Flexibility Score: inf
ROOT
ATOM      1  C   UNL     1      19.119  80.063  -5.960  1.00  0.00     0.016 A 
ATOM      2  C   UNL     1      20.081  79.378  -5.198  1.00  0.00     0.013 A 
ATOM      3  C   UNL     1      19.564  80.977  -6.929  1.00  0.00     0.120 A 
ATOM      4  C   UNL     1      21.441  79.611  -5.411  1.00  0.00     0.021 A 
ATOM      5  N   UNL     1      20.895  81.186  -7.118  1.00  0.00    -0.264 NA
ATOM      6  C   UNL     1      21.833  80.528  -6.386  1.00  0.00     0.111 A 
ENDROOT
BRANCH   1   7
ATOM      7  C   UNL     1      17.675  79.831  -5.748  1.00  0.00     0.073 C 
ATOM      8  O   UNL     1      16.875  79.838  -6.722  1.00  0.00    -0.545 OA
ATOM      9  O   UNL     1      17.179  79.601  -4.470  1.00  0.00    -0.545 OA
ENDBRANCH   1   7
TORSDOF 1
ENDMDL
MODEL 5
REMARK VINA RESULT:    -2.297     13.390     13.697
REMARK INTER + INTRA:          -2.452
REMARK INTER:                  -2.436
REMARK INTRA:                  -0.017
REMARK UNBOUND:                -0.021
REMARK SMILES O=C([O-])c1cccnc1
REMARK SMILES IDX 4 1 5 2 9 3 6 4 8 5 7 6 2 7 1 8 3 9
REMARK H PARENT
REMARK Flexibility Score: inf
ROOT
ATOM      1  C   UNL     1      33.626  76.798  -0.435  1.00  0.00     0.016 A 
ATOM      2  C   UNL     1      32.885  76.395   0.690  1.00  0.00     0.013 A 
ATOM      3  C   UNL     1      33.007  76.748  -1.695  1.00  0.00     0.120 A 
ATOM      4  C   UNL     1      31.568  75.958   0.542  1.00  0.00     0.021 A 
ATOM      5  N   UNL     1      31.721  76.318  -1.812  1.00  0.00    -0.264 NA
ATOM      6  C   UNL     1      30.996  75.926  -0.731  1.00  0.00     0.111 A 
ENDROOT
BRANCH   1   7
ATOM      7  C   UNL     1      35.023  77.263  -0.299  1.00  0.00     0.073 C 
ATOM      8  O   UNL     1      35.276  78.398   0.187  1.00  0.00    -0.545 OA
ATOM      9  O   UNL     1      36.077  76.453  -0.706  1.00  0.00    -0.545 OA
ENDBRANCH   1   7
TORSDOF 1
ENDMDL
MODEL 6
REMARK VINA RESULT:    -2.293     13.064     13.257
REMARK INTER + INTRA:          -2.448
REMARK INTER:                  -2.427
REMARK INTRA:                  -0.021
REMARK UNBOUND:                -0.021
REMARK SMILES O=C([O-])c1cccnc1
REMARK SMILES IDX 4 1 5 2 9 3 6 4 8 5 7 6 2 7 1 8 3 9
REMARK H PARENT
REMARK Flexibility Score: inf
ROOT
ATOM      1  C   UNL     1      32.792  76.579  -0.413  1.00  0.00     0.016 A 
ATOM      2  C   UNL     1      34.118  76.814  -0.012  1.00  0.00     0.013 A 
ATOM      3  C   UNL     1      32.503  76.565  -1.788  1.00  0.00     0.120 A 
ATOM      4  C   UNL     1      35.112  77.027  -0.968  1.00  0.00     0.021 A 
ATOM      5  N   UNL     1      33.491  76.775  -2.700  1.00  0.00    -0.264 NA
ATOM      6  C   UNL     1      34.777  77.004  -2.322  1.00  0.00     0.111 A 
ENDROOT
BRANCH   1   7
ATOM      7  C   UNL     1      31.725  76.351   0.584  1.00  0.00     0.073 C 
ATOM      8  O   UNL     1      30.551  76.758   0.372  1.00  0.00    -0.545 OA
ATOM      9  O   UNL     1      32.002  75.684   1.772  1.00  0.00    -0.545 OA
ENDBRANCH   1   7
TORSDOF 1
ENDMDL
MODEL 7
REMARK VINA RESULT:    -2.274     10.518     10.761
REMARK INTER + INTRA:          -2.428
REMARK INTER:                  -2.408
REMARK INTRA:                  -0.019
REMARK UNBOUND:                -0.021
REMARK SMILES O=C([O-])c1cccnc1
REMARK SMILES IDX 4 1 5 2 9 3 6 4 8 5 7 6 2 7 1 8 3 9
REMARK H PARENT
REMARK Flexibility Score: inf
ROOT
ATOM      1  C   UNL     1      30.738  77.398   0.117  1.00  0.00     0.016 A 
ATOM      2  C   UNL     1      29.334  77.418   0.173  1.00  0.00     0.013 A 
ATOM      3  C   UNL     1      31.420  78.623   0.031  1.00  0.00     0.120 A 
ATOM      4  C   UNL     1      28.648  78.633   0.142  1.00  0.00     0.021 A 
ATOM      5  N   UNL     1      30.728  79.794   0.003  1.00  0.00    -0.264 NA
ATOM      6  C   UNL     1      29.369  79.824   0.056  1.00  0.00     0.111 A 
ENDROOT
BRANCH   1   7
ATOM      7  C   UNL     1      31.482  76.121   0.148  1.00  0.00     0.073 C 
ATOM      8  O   UNL     1      31.156  75.170  -0.611  1.00  0.00    -0.545 OA
ATOM      9  O   UNL     1      32.555  75.952   1.017  1.00  0.00    -0.545 OA
ENDBRANCH   1   7
TORSDOF 1
ENDMDL
MODEL 8
REMARK VINA RESULT:    -2.212     14.215     15.226
REMARK INTER + INTRA:          -2.362
REMARK INTER:                  -2.341
REMARK INTRA:                  -0.021
REMARK UNBOUND:                -0.021
REMARK SMILES O=C([O-])c1cccnc1
REMARK SMILES IDX 4 1 5 2 9 3 6 4 8 5 7 6 2 7 1 8 3 9
REMARK H PARENT
REMARK Flexibility Score: inf
ROOT
ATOM      1  C   UNL     1      18.097  91.213   0.233  1.00  0.00     0.016 A 
ATOM      2  C   UNL     1      18.424  92.522  -0.162  1.00  0.00     0.013 A 
ATOM      3  C   UNL     1      18.025  90.929   1.607  1.00  0.00     0.120 A 
ATOM      4  C   UNL     1      18.667  93.504   0.799  1.00  0.00     0.021 A 
ATOM      5  N   UNL     1      18.267  91.905   2.524  1.00  0.00    -0.264 NA
ATOM      6  C   UNL     1      18.583  93.174   2.152  1.00  0.00     0.111 A 
ENDROOT
BRANCH   1   7
ATOM      7  C   UNL     1      17.836  90.158  -0.769  1.00  0.00     0.073 C 
ATOM      8  O   UNL     1      17.250  90.432  -1.850  1.00  0.00    -0.545 OA
ATOM      9  O   UNL     1      18.235  88.847  -0.532  1.00  0.00    -0.545 OA
ENDBRANCH   1   7
TORSDOF 1
ENDMDL
MODEL 9
REMARK VINA RESULT:    -2.100      2.619      3.515
REMARK INTER + INTRA:          -2.243
REMARK INTER:                  -2.226
REMARK INTRA:                  -0.018
REMARK UNBOUND:                -0.021
REMARK SMILES O=C([O-])c1cccnc1
REMARK SMILES IDX 4 1 5 2 9 3 6 4 8 5 7 6 2 7 1 8 3 9
REMARK H PARENT
REMARK Flexibility Score: inf
ROOT
ATOM      1  C   UNL     1      20.975  76.402   3.598  1.00  0.00     0.016 A 
ATOM      2  C   UNL     1      21.368  75.614   2.502  1.00  0.00     0.013 A 
ATOM      3  C   UNL     1      20.606  77.736   3.361  1.00  0.00     0.120 A 
ATOM      4  C   UNL     1      21.387  76.159   1.217  1.00  0.00     0.021 A 
ATOM      5  N   UNL     1      20.633  78.244   2.100  1.00  0.00    -0.264 NA
ATOM      6  C   UNL     1      21.012  77.490   1.033  1.00  0.00     0.111 A 
ENDROOT
BRANCH   1   7
ATOM      7  C   UNL     1      20.949  75.843   4.966  1.00  0.00     0.073 C 
ATOM      8  O   UNL     1      20.193  74.875   5.249  1.00  0.00    -0.545 OA
ATOM      9  O   UNL     1      21.759  76.379   5.961  1.00  0.00    -0.545 OA
ENDBRANCH   1   7
TORSDOF 1
ENDMDL
