MODEL 1
REMARK VINA RESULT:    -2.364      0.000      0.000
REMARK INTER + INTRA:          -2.433
REMARK INTER:                  -2.433
REMARK INTRA:                   0.000
REMARK UNBOUND:                 0.000
REMARK SMILES Oc1ccc2[nH]ccc2c1
REMARK SMILES IDX 3 1 4 2 5 3 9 4 8 5 7 6 6 7 10 8 2 9 1 11
REMARK H PARENT 6 10 1 12
REMARK Flexibility Score: inf
ROOT
ATOM      1  C   UNL     1     126.272 111.590 135.879  1.00  0.00     0.048 A 
ATOM      2  C   UNL     1     126.053 110.220 136.118  1.00  0.00     0.030 A 
ATOM      3  C   UNL     1     126.378 109.322 135.103  1.00  0.00     0.046 A 
ATOM      4  C   UNL     1     126.896 109.744 133.908  1.00  0.00     0.003 A 
ATOM      5  C   UNL     1     127.106 108.625 133.131  1.00  0.00     0.028 A 
ATOM      6  C   UNL     1     126.693 107.555 133.919  1.00  0.00     0.083 A 
ATOM      7  N   UNL     1     126.251 107.985 135.122  1.00  0.00    -0.361 N 
ATOM      8  C   UNL     1     127.125 111.091 133.639  1.00  0.00     0.056 A 
ATOM      9  C   UNL     1     126.807 112.028 134.645  1.00  0.00     0.116 A 
ATOM     10  H   UNL     1     125.884 107.396 135.903  1.00  0.00     0.166 HD
ENDROOT
BRANCH   9  11
ATOM     11  O   UNL     1     127.014 113.388 134.434  1.00  0.00    -0.508 OA
ATOM     12  H   UNL     1     127.838 113.859 134.787  1.00  0.00     0.293 HD
ENDBRANCH   9  11
TORSDOF 1
ENDMDL
MODEL 2
REMARK VINA RESULT:    -2.298      2.497      3.791
REMARK INTER + INTRA:          -2.365
REMARK INTER:                  -2.365
REMARK INTRA:                   0.000
REMARK UNBOUND:                 0.000
REMARK SMILES Oc1ccc2[nH]ccc2c1
REMARK SMILES IDX 3 1 4 2 5 3 9 4 8 5 7 6 6 7 10 8 2 9 1 11
REMARK H PARENT 6 10 1 12
REMARK Flexibility Score: inf
ROOT
ATOM      1  C   UNL     1     127.078 109.554 133.369  1.00  0.00     0.048 A 
ATOM      2  C   UNL     1     126.781 110.618 134.242  1.00  0.00     0.030 A 
ATOM      3  C   UNL     1     126.232 110.306 135.484  1.00  0.00     0.046 A 
ATOM      4  C   UNL     1     125.984 109.013 135.858  1.00  0.00     0.003 A 
ATOM      5  C   UNL     1     125.448 109.045 137.127  1.00  0.00     0.028 A 
ATOM      6  C   UNL     1     125.398 110.394 137.464  1.00  0.00     0.083 A 
ATOM      7  N   UNL     1     125.878 111.160 136.459  1.00  0.00    -0.361 N 
ATOM      8  C   UNL     1     126.265 107.937 135.019  1.00  0.00     0.056 A 
ATOM      9  C   UNL     1     126.822 108.217 133.753  1.00  0.00     0.116 A 
ATOM     10  H   UNL     1     125.955 112.202 136.445  1.00  0.00     0.166 HD
ENDROOT
BRANCH   9  11
ATOM     11  O   UNL     1     127.125 107.182 132.871  1.00  0.00    -0.508 OA
ATOM     12  H   UNL     1     127.841 107.284 132.161  1.00  0.00     0.293 HD
ENDBRANCH   9  11
TORSDOF 1
ENDMDL
MODEL 3
REMARK VINA RESULT:    -2.242      1.695      2.386
REMARK INTER + INTRA:          -2.307
REMARK INTER:                  -2.307
REMARK INTRA:                   0.000
REMARK UNBOUND:                 0.000
REMARK SMILES Oc1ccc2[nH]ccc2c1
REMARK SMILES IDX 3 1 4 2 5 3 9 4 8 5 7 6 6 7 10 8 2 9 1 11
REMARK H PARENT 6 10 1 12
REMARK Flexibility Score: inf
ROOT
ATOM      1  C   UNL     1     126.357 111.319 135.379  1.00  0.00     0.048 A 
ATOM      2  C   UNL     1     126.806 110.760 134.168  1.00  0.00     0.030 A 
ATOM      3  C   UNL     1     126.751 109.374 134.032  1.00  0.00     0.046 A 
ATOM      4  C   UNL     1     126.276 108.570 135.033  1.00  0.00     0.003 A 
ATOM      5  C   UNL     1     126.352 107.268 134.588  1.00  0.00     0.028 A 
ATOM      6  C   UNL     1     126.884 107.354 133.306  1.00  0.00     0.083 A 
ATOM      7  N   UNL     1     127.125 108.642 132.969  1.00  0.00    -0.361 N 
ATOM      8  C   UNL     1     125.824 109.091 136.243  1.00  0.00     0.056 A 
ATOM      9  C   UNL     1     125.866 110.491 136.415  1.00  0.00     0.116 A 
ATOM     10  H   UNL     1     127.522 108.991 132.069  1.00  0.00     0.166 HD
ENDROOT
BRANCH   9  11
ATOM     11  O   UNL     1     125.427 111.070 137.604  1.00  0.00    -0.508 OA
ATOM     12  H   UNL     1     124.510 110.866 137.984  1.00  0.00     0.293 HD
ENDBRANCH   9  11
TORSDOF 1
ENDMDL
MODEL 4
REMARK VINA RESULT:    -2.233      1.198      2.381
REMARK INTER + INTRA:          -2.298
REMARK INTER:                  -2.298
REMARK INTRA:                   0.000
REMARK UNBOUND:                 0.000
REMARK SMILES Oc1ccc2[nH]ccc2c1
REMARK SMILES IDX 3 1 4 2 5 3 9 4 8 5 7 6 6 7 10 8 2 9 1 11
REMARK H PARENT 6 10 1 12
REMARK Flexibility Score: inf
ROOT
ATOM      1  C   UNL     1     127.125 110.104 133.353  1.00  0.00     0.048 A 
ATOM      2  C   UNL     1     126.899 108.759 133.701  1.00  0.00     0.030 A 
ATOM      3  C   UNL     1     126.334 108.496 134.947  1.00  0.00     0.046 A 
ATOM      4  C   UNL     1     126.002 109.501 135.814  1.00  0.00     0.003 A 
ATOM      5  C   UNL     1     125.470 108.915 136.942  1.00  0.00     0.028 A 
ATOM      6  C   UNL     1     125.509 107.547 136.693  1.00  0.00     0.083 A 
ATOM      7  N   UNL     1     126.036 107.296 135.472  1.00  0.00    -0.361 N 
ATOM      8  C   UNL     1     126.212 110.843 135.501  1.00  0.00     0.056 A 
ATOM      9  C   UNL     1     126.784 111.145 134.247  1.00  0.00     0.116 A 
ATOM     10  H   UNL     1     126.182 106.360 135.033  1.00  0.00     0.166 HD
ENDROOT
BRANCH   9  11
ATOM     11  O   UNL     1     127.017 112.468 133.879  1.00  0.00    -0.508 OA
ATOM     12  H   UNL     1     126.272 113.154 133.870  1.00  0.00     0.293 HD
ENDBRANCH   9  11
TORSDOF 1
ENDMDL
MODEL 5
REMARK VINA RESULT:    -2.214      2.603      4.077
REMARK INTER + INTRA:          -2.279
REMARK INTER:                  -2.279
REMARK INTRA:                   0.000
REMARK UNBOUND:                 0.000
REMARK SMILES Oc1ccc2[nH]ccc2c1
REMARK SMILES IDX 3 1 4 2 5 3 9 4 8 5 7 6 6 7 10 8 2 9 1 11
REMARK H PARENT 6 10 1 12
REMARK Flexibility Score: inf
ROOT
ATOM      1  C   UNL     1     126.936 108.949 133.461  1.00  0.00     0.048 A 
ATOM      2  C   UNL     1     127.120 110.343 133.515  1.00  0.00     0.030 A 
ATOM      3  C   UNL     1     126.732 111.007 134.678  1.00  0.00     0.046 A 
ATOM      4  C   UNL     1     126.189 110.337 135.741  1.00  0.00     0.003 A 
ATOM      5  C   UNL     1     125.918 111.269 136.720  1.00  0.00     0.028 A 
ATOM      6  C   UNL     1     126.322 112.487 136.183  1.00  0.00     0.083 A 
ATOM      7  N   UNL     1     126.820 112.322 134.936  1.00  0.00    -0.361 N 
ATOM      8  C   UNL     1     125.993 108.958 135.721  1.00  0.00     0.056 A 
ATOM      9  C   UNL     1     126.375 108.255 134.559  1.00  0.00     0.116 A 
ATOM     10  H   UNL     1     127.192 113.066 134.306  1.00  0.00     0.166 HD
ENDROOT
BRANCH   9  11
ATOM     11  O   UNL     1     126.203 106.875 134.481  1.00  0.00    -0.508 OA
ATOM     12  H   UNL     1     126.199 106.392 133.590  1.00  0.00     0.293 HD
ENDBRANCH   9  11
TORSDOF 1
ENDMDL
MODEL 6
REMARK VINA RESULT:    -2.191      2.776      3.474
REMARK INTER + INTRA:          -2.255
REMARK INTER:                  -2.255
REMARK INTRA:                   0.000
REMARK UNBOUND:                 0.000
REMARK SMILES Oc1ccc2[nH]ccc2c1
REMARK SMILES IDX 3 1 4 2 5 3 9 4 8 5 7 6 6 7 10 8 2 9 1 11
REMARK H PARENT 6 10 1 12
REMARK Flexibility Score: inf
ROOT
ATOM      1  C   UNL     1     125.581 109.350 137.294  1.00  0.00     0.048 A 
ATOM      2  C   UNL     1     125.935 110.447 136.486  1.00  0.00     0.030 A 
ATOM      3  C   UNL     1     126.385 110.185 135.193  1.00  0.00     0.046 A 
ATOM      4  C   UNL     1     126.485 108.908 134.711  1.00  0.00     0.003 A 
ATOM      5  C   UNL     1     126.954 108.990 133.418  1.00  0.00     0.028 A 
ATOM      6  C   UNL     1     127.119 110.350 133.178  1.00  0.00     0.083 A 
ATOM      7  N   UNL     1     126.769 111.076 134.265  1.00  0.00    -0.361 N 
ATOM      8  C   UNL     1     126.143 107.800 135.484  1.00  0.00     0.056 A 
ATOM      9  C   UNL     1     125.684 108.030 136.798  1.00  0.00     0.116 A 
ATOM     10  H   UNL     1     126.796 112.116 134.359  1.00  0.00     0.166 HD
ENDROOT
BRANCH   9  11
ATOM     11  O   UNL     1     125.327 106.962 137.618  1.00  0.00    -0.508 OA
ATOM     12  H   UNL     1     125.641 106.906 138.580  1.00  0.00     0.293 HD
ENDBRANCH   9  11
TORSDOF 1
ENDMDL
MODEL 7
REMARK VINA RESULT:    -2.049      2.078      2.743
REMARK INTER + INTRA:          -2.109
REMARK INTER:                  -2.109
REMARK INTRA:                   0.000
REMARK UNBOUND:                 0.000
REMARK SMILES Oc1ccc2[nH]ccc2c1
REMARK SMILES IDX 3 1 4 2 5 3 9 4 8 5 7 6 6 7 10 8 2 9 1 11
REMARK H PARENT 6 10 1 12
REMARK Flexibility Score: inf
ROOT
ATOM      1  C   UNL     1     124.959 108.378 137.255  1.00  0.00     0.048 A 
ATOM      2  C   UNL     1     125.360 107.412 136.314  1.00  0.00     0.030 A 
ATOM      3  C   UNL     1     126.056 107.849 135.188  1.00  0.00     0.046 A 
ATOM      4  C   UNL     1     126.348 109.172 134.992  1.00  0.00     0.003 A 
ATOM      5  C   UNL     1     127.035 109.270 133.801  1.00  0.00     0.028 A 
ATOM      6  C   UNL     1     127.125 107.966 133.326  1.00  0.00     0.083 A 
ATOM      7  N   UNL     1     126.526 107.101 134.177  1.00  0.00    -0.361 N 
ATOM      8  C   UNL     1     125.966 110.154 135.903  1.00  0.00     0.056 A 
ATOM      9  C   UNL     1     125.260 109.745 137.055  1.00  0.00     0.116 A 
ATOM     10  H   UNL     1     126.447 106.066 134.065  1.00  0.00     0.166 HD
ENDROOT
BRANCH   9  11
ATOM     11  O   UNL     1     124.852 110.682 138.001  1.00  0.00    -0.508 OA
ATOM     12  H   UNL     1     125.382 110.841 138.851  1.00  0.00     0.293 HD
ENDBRANCH   9  11
TORSDOF 1
ENDMDL
MODEL 8
REMARK VINA RESULT:    -2.037      2.089      3.498
REMARK INTER + INTRA:          -2.097
REMARK INTER:                  -2.097
REMARK INTRA:                   0.000
REMARK UNBOUND:                 0.000
REMARK SMILES Oc1ccc2[nH]ccc2c1
REMARK SMILES IDX 3 1 4 2 5 3 9 4 8 5 7 6 6 7 10 8 2 9 1 11
REMARK H PARENT 6 10 1 12
REMARK Flexibility Score: inf
ROOT
ATOM      1  C   UNL     1     126.694 107.333 133.831  1.00  0.00     0.048 A 
ATOM      2  C   UNL     1     126.303 106.951 135.128  1.00  0.00     0.030 A 
ATOM      3  C   UNL     1     125.964 107.959 136.029  1.00  0.00     0.046 A 
ATOM      4  C   UNL     1     126.003 109.282 135.677  1.00  0.00     0.003 A 
ATOM      5  C   UNL     1     125.614 110.013 136.778  1.00  0.00     0.028 A 
ATOM      6  C   UNL     1     125.353 109.069 137.766  1.00  0.00     0.083 A 
ATOM      7  N   UNL     1     125.567 107.816 137.304  1.00  0.00    -0.361 N 
ATOM      8  C   UNL     1     126.385 109.694 134.402  1.00  0.00     0.056 A 
ATOM      9  C   UNL     1     126.735 108.699 133.465  1.00  0.00     0.116 A 
ATOM     10  H   UNL     1     125.448 106.924 137.833  1.00  0.00     0.166 HD
ENDROOT
BRANCH   9  11
ATOM     11  O   UNL     1     127.125 109.050 132.175  1.00  0.00    -0.508 OA
ATOM     12  H   UNL     1     127.618 109.915 131.988  1.00  0.00     0.293 HD
ENDBRANCH   9  11
TORSDOF 1
ENDMDL
