MODEL 1
REMARK VINA RESULT:    -3.212      0.000      0.000
REMARK INTER + INTRA:          -3.812
REMARK INTER:                  -3.588
REMARK INTRA:                  -0.224
REMARK UNBOUND:                -0.224
REMARK SMILES O=C([O-])c1ccccc1C(=O)[O-]
REMARK SMILES IDX 4 1 9 2 5 3 8 4 6 5 7 6 2 7 1 8 3 9 10 10 11 11 12 12
REMARK H PARENT
REMARK Flexibility Score: inf
ROOT
ATOM      1  C   UNL     1     -18.646  58.931  35.896  1.00  0.00     0.006 A 
ATOM      2  C   UNL     1     -18.895  58.859  34.498  1.00  0.00     0.006 A 
ATOM      3  C   UNL     1     -17.746  58.019  36.480  1.00  0.00     0.010 A 
ATOM      4  C   UNL     1     -18.188  57.920  33.725  1.00  0.00     0.010 A 
ATOM      5  C   UNL     1     -17.073  57.081  35.696  1.00  0.00     0.001 A 
ATOM      6  C   UNL     1     -17.285  57.039  34.320  1.00  0.00     0.001 A 
ENDROOT
BRANCH   1   7
ATOM      7  C   UNL     1     -19.238  59.979  36.759  1.00  0.00     0.072 C 
ATOM      8  O   UNL     1     -18.642  61.077  36.924  1.00  0.00    -0.545 OA
ATOM      9  O   UNL     1     -20.485  59.795  37.345  1.00  0.00    -0.545 OA
ENDBRANCH   1   7
BRANCH   2  10
ATOM     10  C   UNL     1     -19.926  59.685  33.826  1.00  0.00     0.072 C 
ATOM     11  O   UNL     1     -21.090  59.234  33.663  1.00  0.00    -0.545 OA
ATOM     12  O   UNL     1     -19.644  60.987  33.429  1.00  0.00    -0.545 OA
ENDBRANCH   2  10
TORSDOF 2
ENDMDL
MODEL 2
REMARK VINA RESULT:    -3.204      0.071      3.120
REMARK INTER + INTRA:          -3.803
REMARK INTER:                  -3.582
REMARK INTRA:                  -0.221
REMARK UNBOUND:                -0.224
REMARK SMILES O=C([O-])c1ccccc1C(=O)[O-]
REMARK SMILES IDX 4 1 9 2 5 3 8 4 6 5 7 6 2 7 1 8 3 9 10 10 11 11 12 12
REMARK H PARENT
REMARK Flexibility Score: inf
ROOT
ATOM      1  C   UNL     1     -18.917  58.904  34.496  1.00  0.00     0.006 A 
ATOM      2  C   UNL     1     -18.668  58.998  35.893  1.00  0.00     0.006 A 
ATOM      3  C   UNL     1     -18.218  57.945  33.738  1.00  0.00     0.010 A 
ATOM      4  C   UNL     1     -17.777  58.088  36.492  1.00  0.00     0.010 A 
ATOM      5  C   UNL     1     -17.323  57.067  34.351  1.00  0.00     0.001 A 
ATOM      6  C   UNL     1     -17.111  57.131  35.726  1.00  0.00     0.001 A 
ENDROOT
BRANCH   1   7
ATOM      7  C   UNL     1     -19.941  59.726  33.810  1.00  0.00     0.072 C 
ATOM      8  O   UNL     1     -21.109  59.279  33.648  1.00  0.00    -0.545 OA
ATOM      9  O   UNL     1     -19.651  61.020  33.396  1.00  0.00    -0.545 OA
ENDBRANCH   1   7
BRANCH   2  10
ATOM     10  C   UNL     1     -19.253  60.065  36.738  1.00  0.00     0.072 C 
ATOM     11  O   UNL     1     -18.632  61.147  36.911  1.00  0.00    -0.545 OA
ATOM     12  O   UNL     1     -20.517  59.916  37.296  1.00  0.00    -0.545 OA
ENDBRANCH   2  10
TORSDOF 2
ENDMDL
MODEL 3
REMARK VINA RESULT:    -3.107      2.294      3.451
REMARK INTER + INTRA:          -3.695
REMARK INTER:                  -3.467
REMARK INTRA:                  -0.228
REMARK UNBOUND:                -0.224
REMARK SMILES O=C([O-])c1ccccc1C(=O)[O-]
REMARK SMILES IDX 4 1 9 2 5 3 8 4 6 5 7 6 2 7 1 8 3 9 10 10 11 11 12 12
REMARK H PARENT
REMARK Flexibility Score: inf
ROOT
ATOM      1  C   UNL     1     -18.461  58.810  36.132  1.00  0.00     0.006 A 
ATOM      2  C   UNL     1     -18.771  58.803  34.744  1.00  0.00     0.006 A 
ATOM      3  C   UNL     1     -18.659  59.991  36.873  1.00  0.00     0.010 A 
ATOM      4  C   UNL     1     -19.325  59.957  34.161  1.00  0.00     0.010 A 
ATOM      5  C   UNL     1     -19.191  61.131  36.267  1.00  0.00     0.001 A 
ATOM      6  C   UNL     1     -19.534  61.111  34.918  1.00  0.00     0.001 A 
ENDROOT
BRANCH   1   7
ATOM      7  C   UNL     1     -18.007  57.600  36.856  1.00  0.00     0.072 C 
ATOM      8  O   UNL     1     -18.849  56.815  37.369  1.00  0.00    -0.545 OA
ATOM      9  O   UNL     1     -16.657  57.278  36.922  1.00  0.00    -0.545 OA
ENDBRANCH   1   7
BRANCH   2  10
ATOM     10  C   UNL     1     -18.463  57.652  33.864  1.00  0.00     0.072 C 
ATOM     11  O   UNL     1     -17.304  57.505  33.395  1.00  0.00    -0.545 OA
ATOM     12  O   UNL     1     -19.427  56.686  33.597  1.00  0.00    -0.545 OA
ENDBRANCH   2  10
TORSDOF 2
ENDMDL
MODEL 4
REMARK VINA RESULT:    -3.098      2.297      4.289
REMARK INTER + INTRA:          -3.684
REMARK INTER:                  -3.460
REMARK INTRA:                  -0.224
REMARK UNBOUND:                -0.224
REMARK SMILES O=C([O-])c1ccccc1C(=O)[O-]
REMARK SMILES IDX 4 1 9 2 5 3 8 4 6 5 7 6 2 7 1 8 3 9 10 10 11 11 12 12
REMARK H PARENT
REMARK Flexibility Score: inf
ROOT
ATOM      1  C   UNL     1     -18.787  58.803  34.759  1.00  0.00     0.006 A 
ATOM      2  C   UNL     1     -18.454  58.798  36.141  1.00  0.00     0.006 A 
ATOM      3  C   UNL     1     -19.373  59.955  34.199  1.00  0.00     0.010 A 
ATOM      4  C   UNL     1     -18.660  59.965  36.899  1.00  0.00     0.010 A 
ATOM      5  C   UNL     1     -19.588  61.094  34.976  1.00  0.00     0.001 A 
ATOM      6  C   UNL     1     -19.222  61.103  36.320  1.00  0.00     0.001 A 
ENDROOT
BRANCH   1   7
ATOM      7  C   UNL     1     -18.475  57.670  33.857  1.00  0.00     0.072 C 
ATOM      8  O   UNL     1     -17.313  57.535  33.386  1.00  0.00    -0.545 OA
ATOM      9  O   UNL     1     -19.433  56.705  33.572  1.00  0.00    -0.545 OA
ENDBRANCH   1   7
BRANCH   2  10
ATOM     10  C   UNL     1     -17.966  57.586  36.840  1.00  0.00     0.072 C 
ATOM     11  O   UNL     1     -18.783  56.784  37.364  1.00  0.00    -0.545 OA
ATOM     12  O   UNL     1     -16.609  57.283  36.871  1.00  0.00    -0.545 OA
ENDBRANCH   2  10
TORSDOF 2
ENDMDL
MODEL 5
REMARK VINA RESULT:    -3.080     20.616     21.179
REMARK INTER + INTRA:          -3.665
REMARK INTER:                  -3.469
REMARK INTRA:                  -0.195
REMARK UNBOUND:                -0.224
REMARK SMILES O=C([O-])c1ccccc1C(=O)[O-]
REMARK SMILES IDX 4 1 9 2 5 3 8 4 6 5 7 6 2 7 1 8 3 9 10 10 11 11 12 12
REMARK H PARENT
REMARK Flexibility Score: inf
ROOT
ATOM      1  C   UNL     1     -33.447  44.349  37.544  1.00  0.00     0.006 A 
ATOM      2  C   UNL     1     -32.666  43.410  38.271  1.00  0.00     0.006 A 
ATOM      3  C   UNL     1     -33.212  44.514  36.166  1.00  0.00     0.010 A 
ATOM      4  C   UNL     1     -31.721  42.627  37.583  1.00  0.00     0.010 A 
ATOM      5  C   UNL     1     -32.255  43.741  35.508  1.00  0.00     0.001 A 
ATOM      6  C   UNL     1     -31.518  42.792  36.212  1.00  0.00     0.001 A 
ENDROOT
BRANCH   1   7
ATOM      7  C   UNL     1     -34.557  45.112  38.160  1.00  0.00     0.072 C 
ATOM      8  O   UNL     1     -35.684  44.571  38.325  1.00  0.00    -0.545 OA
ATOM      9  O   UNL     1     -34.357  46.406  38.625  1.00  0.00    -0.545 OA
ENDBRANCH   1   7
BRANCH   2  10
ATOM     10  C   UNL     1     -32.750  43.272  39.744  1.00  0.00     0.072 C 
ATOM     11  O   UNL     1     -33.223  42.224  40.256  1.00  0.00    -0.545 OA
ATOM     12  O   UNL     1     -32.249  44.265  40.579  1.00  0.00    -0.545 OA
ENDBRANCH   2  10
TORSDOF 2
ENDMDL
MODEL 6
REMARK VINA RESULT:    -3.070     20.603     21.074
REMARK INTER + INTRA:          -3.653
REMARK INTER:                  -3.489
REMARK INTRA:                  -0.165
REMARK UNBOUND:                -0.224
REMARK SMILES O=C([O-])c1ccccc1C(=O)[O-]
REMARK SMILES IDX 4 1 9 2 5 3 8 4 6 5 7 6 2 7 1 8 3 9 10 10 11 11 12 12
REMARK H PARENT
REMARK Flexibility Score: inf
ROOT
ATOM      1  C   UNL     1     -32.690  43.430  38.256  1.00  0.00     0.006 A 
ATOM      2  C   UNL     1     -33.431  44.391  37.516  1.00  0.00     0.006 A 
ATOM      3  C   UNL     1     -31.767  42.608  37.582  1.00  0.00     0.010 A 
ATOM      4  C   UNL     1     -33.177  44.539  36.140  1.00  0.00     0.010 A 
ATOM      5  C   UNL     1     -31.547  42.758  36.212  1.00  0.00     0.001 A 
ATOM      6  C   UNL     1     -32.242  43.729  35.495  1.00  0.00     0.001 A 
ENDROOT
BRANCH   1   7
ATOM      7  C   UNL     1     -32.792  43.305  39.729  1.00  0.00     0.072 C 
ATOM      8  O   UNL     1     -33.247  42.250  40.246  1.00  0.00    -0.545 OA
ATOM      9  O   UNL     1     -32.329  44.318  40.561  1.00  0.00    -0.545 OA
ENDBRANCH   1   7
BRANCH   2  10
ATOM     10  C   UNL     1     -34.519  45.198  38.117  1.00  0.00     0.072 C 
ATOM     11  O   UNL     1     -34.366  46.435  38.294  1.00  0.00    -0.545 OA
ATOM     12  O   UNL     1     -35.742  44.616  38.433  1.00  0.00    -0.545 OA
ENDBRANCH   2  10
TORSDOF 2
ENDMDL
MODEL 7
REMARK VINA RESULT:    -2.891      2.477      3.833
REMARK INTER + INTRA:          -3.454
REMARK INTER:                  -3.313
REMARK INTRA:                  -0.141
REMARK UNBOUND:                -0.224
REMARK SMILES O=C([O-])c1ccccc1C(=O)[O-]
REMARK SMILES IDX 4 1 9 2 5 3 8 4 6 5 7 6 2 7 1 8 3 9 10 10 11 11 12 12
REMARK H PARENT
REMARK Flexibility Score: inf
ROOT
ATOM      1  C   UNL     1     -17.620  57.225  35.869  1.00  0.00     0.006 A 
ATOM      2  C   UNL     1     -18.422  58.335  36.251  1.00  0.00     0.006 A 
ATOM      3  C   UNL     1     -17.496  56.907  34.503  1.00  0.00     0.010 A 
ATOM      4  C   UNL     1     -19.020  59.124  35.251  1.00  0.00     0.010 A 
ATOM      5  C   UNL     1     -18.116  57.691  33.529  1.00  0.00     0.001 A 
ATOM      6  C   UNL     1     -18.867  58.803  33.902  1.00  0.00     0.001 A 
ENDROOT
BRANCH   1   7
ATOM      7  C   UNL     1     -16.842  56.428  36.846  1.00  0.00     0.072 C 
ATOM      8  O   UNL     1     -15.876  56.950  37.465  1.00  0.00    -0.545 OA
ATOM      9  O   UNL     1     -17.204  55.119  37.142  1.00  0.00    -0.545 OA
ENDBRANCH   1   7
BRANCH   2  10
ATOM     10  C   UNL     1     -18.720  58.656  37.667  1.00  0.00     0.072 C 
ATOM     11  O   UNL     1     -19.584  57.994  38.298  1.00  0.00    -0.545 OA
ATOM     12  O   UNL     1     -18.005  59.644  38.335  1.00  0.00    -0.545 OA
ENDBRANCH   2  10
TORSDOF 2
ENDMDL
MODEL 8
REMARK VINA RESULT:    -2.882      2.443      3.746
REMARK INTER + INTRA:          -3.444
REMARK INTER:                  -3.310
REMARK INTRA:                  -0.134
REMARK UNBOUND:                -0.224
REMARK SMILES O=C([O-])c1ccccc1C(=O)[O-]
REMARK SMILES IDX 4 1 9 2 5 3 8 4 6 5 7 6 2 7 1 8 3 9 10 10 11 11 12 12
REMARK H PARENT
REMARK Flexibility Score: inf
ROOT
ATOM      1  C   UNL     1     -18.347  58.387  36.314  1.00  0.00     0.006 A 
ATOM      2  C   UNL     1     -17.568  57.233  36.024  1.00  0.00     0.006 A 
ATOM      3  C   UNL     1     -18.900  59.126  35.252  1.00  0.00     0.010 A 
ATOM      4  C   UNL     1     -17.424  56.825  34.685  1.00  0.00     0.010 A 
ATOM      5  C   UNL     1     -18.726  58.714  33.930  1.00  0.00     0.001 A 
ATOM      6  C   UNL     1     -17.999  57.560  33.648  1.00  0.00     0.001 A 
ENDROOT
BRANCH   1   7
ATOM      7  C   UNL     1     -18.666  58.807  37.699  1.00  0.00     0.072 C 
ATOM      8  O   UNL     1     -18.075  59.793  38.215  1.00  0.00    -0.545 OA
ATOM      9  O   UNL     1     -19.663  58.164  38.423  1.00  0.00    -0.545 OA
ENDBRANCH   1   7
BRANCH   2  10
ATOM     10  C   UNL     1     -16.836  56.480  37.068  1.00  0.00     0.072 C 
ATOM     11  O   UNL     1     -15.890  57.025  37.696  1.00  0.00    -0.545 OA
ATOM     12  O   UNL     1     -17.222  55.190  37.415  1.00  0.00    -0.545 OA
ENDBRANCH   2  10
TORSDOF 2
ENDMDL
MODEL 9
REMARK VINA RESULT:    -2.790      1.837      2.757
REMARK INTER + INTRA:          -3.341
REMARK INTER:                  -3.130
REMARK INTRA:                  -0.211
REMARK UNBOUND:                -0.224
REMARK SMILES O=C([O-])c1ccccc1C(=O)[O-]
REMARK SMILES IDX 4 1 9 2 5 3 8 4 6 5 7 6 2 7 1 8 3 9 10 10 11 11 12 12
REMARK H PARENT
REMARK Flexibility Score: inf
ROOT
ATOM      1  C   UNL     1     -18.172  58.174  36.472  1.00  0.00     0.006 A 
ATOM      2  C   UNL     1     -17.663  57.292  35.480  1.00  0.00     0.006 A 
ATOM      3  C   UNL     1     -17.622  58.138  37.768  1.00  0.00     0.010 A 
ATOM      4  C   UNL     1     -16.583  56.450  35.802  1.00  0.00     0.010 A 
ATOM      5  C   UNL     1     -16.565  57.279  38.070  1.00  0.00     0.001 A 
ATOM      6  C   UNL     1     -16.039  56.445  37.087  1.00  0.00     0.001 A 
ENDROOT
BRANCH   1   7
ATOM      7  C   UNL     1     -19.210  59.190  36.181  1.00  0.00     0.072 C 
ATOM      8  O   UNL     1     -20.402  59.000  36.543  1.00  0.00    -0.545 OA
ATOM      9  O   UNL     1     -18.875  60.391  35.567  1.00  0.00    -0.545 OA
ENDBRANCH   1   7
BRANCH   2  10
ATOM     10  C   UNL     1     -18.274  57.165  34.136  1.00  0.00     0.072 C 
ATOM     11  O   UNL     1     -17.680  57.625  33.125  1.00  0.00    -0.545 OA
ATOM     12  O   UNL     1     -19.472  56.482  33.963  1.00  0.00    -0.545 OA
ENDBRANCH   2  10
TORSDOF 2
ENDMDL
