MODEL 1
REMARK VINA RESULT:    -5.162      0.000      0.000
REMARK INTER + INTRA:          -8.102
REMARK INTER:                  -7.878
REMARK INTRA:                  -0.224
REMARK UNBOUND:                -0.224
REMARK SMILES CC1=CCC[C@H](C)C(=O)C[C@@H](C(C)C)C(=O)C1
REMARK SMILES IDX 8 1 9 2 6 3 7 4 5 5 4 6 3 7 2 8 1 9 10 11 11 12 15 13 16 14
REMARK SMILES IDX 17 15 12 17 13 18 14 19
REMARK H PARENT
REMARK Flexibility Score: 70.00
ROOT
ATOM      1  C   UNL     1     -13.517 -40.383  37.816  1.00  0.00     0.136 C 
ATOM      2  O   UNL     1     -13.593 -40.498  36.601  1.00  0.00    -0.299 OA
ENDROOT
BRANCH   1   3
ATOM      3  C   UNL     1     -13.601 -41.610  38.706  1.00  0.00     0.053 C 
ATOM      4  C   UNL     1     -12.384 -42.533  38.542  1.00  0.00     0.016 C 
BRANCH   3   5
ATOM      5  C   UNL     1     -13.830 -41.224  40.181  1.00  0.00     0.015 C 
BRANCH   5   6
ATOM      6  C   UNL     1     -12.597 -41.440  41.085  1.00  0.00     0.028 C 
BRANCH   6   7
ATOM      7  C   UNL     1     -12.377 -40.260  41.998  1.00  0.00    -0.028 C 
ATOM      8  C   UNL     1     -11.590 -39.196  41.707  1.00  0.00    -0.070 CG0
ATOM      9  C   UNL     1     -11.511 -38.079  42.716  1.00  0.00     0.039 C 
ATOM     10  G   UNL     1     -10.782 -39.085  40.423  1.00  0.00     0.000 G0
ENDBRANCH   6   7
ENDBRANCH   5   6
ENDBRANCH   3   5
ENDBRANCH   1   3
BRANCH   1  11
ATOM     11  C   UNL     1     -13.337 -39.005  38.409  1.00  0.00     0.087 C 
BRANCH  11  12
ATOM     12  C   UNL     1     -11.918 -38.436  38.145  1.00  0.00     0.066 C 
BRANCH  12  13
ATOM     13  C   UNL     1     -11.279 -38.037  39.464  1.00  0.00     0.140 C 
ATOM     14  O   UNL     1     -11.105 -36.851  39.714  1.00  0.00    -0.299 OA
BRANCH  13  15
ATOM     15  C   UNL     1     -10.760 -39.085  40.417  1.00  0.00     0.106 CG0
ATOM     16  G   UNL     1     -11.600 -39.193  41.681  1.00  0.00     0.000 G0
ENDBRANCH  13  15
ENDBRANCH  12  13
BRANCH  12  17
ATOM     17  C   UNL     1     -11.927 -37.229  37.151  1.00  0.00    -0.006 C 
ATOM     18  C   UNL     1     -13.313 -36.564  37.048  1.00  0.00     0.008 C 
ATOM     19  C   UNL     1     -11.483 -37.665  35.741  1.00  0.00     0.008 C 
ENDBRANCH  12  17
ENDBRANCH  11  12
ENDBRANCH   1  11
TORSDOF 1
ENDMDL
MODEL 2
REMARK VINA RESULT:    -5.081      2.413      5.335
REMARK INTER + INTRA:          -7.979
REMARK INTER:                  -7.905
REMARK INTRA:                  -0.073
REMARK UNBOUND:                -0.224
REMARK SMILES CC1=CCC[C@H](C)C(=O)C[C@@H](C(C)C)C(=O)C1
REMARK SMILES IDX 8 1 9 2 6 3 7 4 5 5 4 6 3 7 2 8 1 9 10 11 11 12 15 13 16 14
REMARK SMILES IDX 17 15 12 17 13 18 14 19
REMARK H PARENT
REMARK Flexibility Score: 70.00
ROOT
ATOM      1  C   UNL     1     -14.624 -36.667  39.259  1.00  0.00     0.136 C 
ATOM      2  O   UNL     1     -15.380 -36.701  40.221  1.00  0.00    -0.299 OA
ENDROOT
BRANCH   1   3
ATOM      3  C   UNL     1     -14.747 -35.557  38.230  1.00  0.00     0.053 C 
ATOM      4  C   UNL     1     -14.186 -34.222  38.744  1.00  0.00     0.016 C 
BRANCH   3   5
ATOM      5  C   UNL     1     -14.115 -35.962  36.884  1.00  0.00     0.015 C 
BRANCH   5   6
ATOM      6  C   UNL     1     -12.871 -35.132  36.500  1.00  0.00     0.028 C 
BRANCH   6   7
ATOM      7  C   UNL     1     -11.725 -36.023  36.092  1.00  0.00    -0.028 C 
ATOM      8  C   UNL     1     -10.809 -36.542  36.945  1.00  0.00    -0.070 CG0
ATOM      9  C   UNL     1      -9.749 -37.450  36.376  1.00  0.00     0.039 C 
ATOM     10  G   UNL     1     -10.797 -36.242  38.436  1.00  0.00     0.000 G0
ENDBRANCH   6   7
ENDBRANCH   5   6
ENDBRANCH   3   5
ENDBRANCH   1   3
BRANCH   1  11
ATOM     11  C   UNL     1     -13.574 -37.743  39.118  1.00  0.00     0.087 C 
BRANCH  11  12
ATOM     12  C   UNL     1     -12.387 -37.533  40.095  1.00  0.00     0.066 C 
BRANCH  12  13
ATOM     13  C   UNL     1     -11.092 -37.440  39.305  1.00  0.00     0.140 C 
ATOM     14  O   UNL     1     -10.243 -38.312  39.436  1.00  0.00    -0.299 OA
BRANCH  13  15
ATOM     15  C   UNL     1     -10.798 -36.233  38.448  1.00  0.00     0.106 CG0
ATOM     16  G   UNL     1     -10.810 -36.556  36.961  1.00  0.00     0.000 G0
ENDBRANCH  13  15
ENDBRANCH  12  13
BRANCH  12  17
ATOM     17  C   UNL     1     -12.290 -38.657  41.178  1.00  0.00    -0.006 C 
ATOM     18  C   UNL     1     -12.713 -40.035  40.633  1.00  0.00     0.008 C 
ATOM     19  C   UNL     1     -13.160 -38.323  42.406  1.00  0.00     0.008 C 
ENDBRANCH  12  17
ENDBRANCH  11  12
ENDBRANCH   1  11
TORSDOF 1
ENDMDL
MODEL 3
REMARK VINA RESULT:    -4.985      1.613      3.784
REMARK INTER + INTRA:          -7.831
REMARK INTER:                  -7.837
REMARK INTRA:                   0.005
REMARK UNBOUND:                -0.224
REMARK SMILES CC1=CCC[C@H](C)C(=O)C[C@@H](C(C)C)C(=O)C1
REMARK SMILES IDX 8 1 9 2 6 3 7 4 5 5 4 6 3 7 2 8 1 9 10 11 11 12 15 13 16 14
REMARK SMILES IDX 17 15 12 17 13 18 14 19
REMARK H PARENT
REMARK Flexibility Score: 70.00
ROOT
ATOM      1  C   UNL     1     -10.310 -37.521  39.061  1.00  0.00     0.136 C 
ATOM      2  O   UNL     1      -9.527 -36.586  39.161  1.00  0.00    -0.299 OA
ENDROOT
BRANCH   1   3
ATOM      3  C   UNL     1     -10.729 -38.301  40.295  1.00  0.00     0.053 C 
ATOM      4  C   UNL     1      -9.619 -38.353  41.356  1.00  0.00     0.016 C 
BRANCH   3   5
ATOM      5  C   UNL     1     -12.053 -37.768  40.878  1.00  0.00     0.015 C 
BRANCH   5   6
ATOM      6  C   UNL     1     -13.123 -38.858  41.102  1.00  0.00     0.028 C 
BRANCH   6   7
ATOM      7  C   UNL     1     -12.646 -40.201  40.611  1.00  0.00    -0.028 C 
ATOM      8  C   UNL     1     -12.895 -40.706  39.379  1.00  0.00    -0.070 CG0
ATOM      9  C   UNL     1     -12.307 -42.050  39.034  1.00  0.00     0.039 C 
ATOM     10  G   UNL     1     -13.745 -39.987  38.342  1.00  0.00     0.000 G0
ENDBRANCH   6   7
ENDBRANCH   5   6
ENDBRANCH   3   5
ENDBRANCH   1   3
BRANCH   1  11
ATOM     11  C   UNL     1     -10.849 -37.878  37.697  1.00  0.00     0.087 C 
BRANCH  11  12
ATOM     12  C   UNL     1     -12.399 -37.835  37.651  1.00  0.00     0.066 C 
BRANCH  12  13
ATOM     13  C   UNL     1     -12.935 -39.220  37.327  1.00  0.00     0.140 C 
ATOM     14  O   UNL     1     -12.775 -39.680  36.203  1.00  0.00    -0.299 OA
BRANCH  13  15
ATOM     15  C   UNL     1     -13.754 -39.985  38.337  1.00  0.00     0.106 CG0
ATOM     16  G   UNL     1     -12.890 -40.700  39.366  1.00  0.00     0.000 G0
ENDBRANCH  13  15
ENDBRANCH  12  13
BRANCH  12  17
ATOM     17  C   UNL     1     -12.944 -36.783  36.630  1.00  0.00    -0.006 C 
ATOM     18  C   UNL     1     -11.843 -35.830  36.126  1.00  0.00     0.008 C 
ATOM     19  C   UNL     1     -14.078 -35.943  37.249  1.00  0.00     0.008 C 
ENDBRANCH  12  17
ENDBRANCH  11  12
ENDBRANCH   1  11
TORSDOF 1
ENDMDL
MODEL 4
REMARK VINA RESULT:    -4.930      2.301      4.102
REMARK INTER + INTRA:          -7.748
REMARK INTER:                  -7.620
REMARK INTRA:                  -0.127
REMARK UNBOUND:                -0.224
REMARK SMILES CC1=CCC[C@H](C)C(=O)C[C@@H](C(C)C)C(=O)C1
REMARK SMILES IDX 8 1 9 2 6 3 7 4 5 5 4 6 3 7 2 8 1 9 10 11 11 12 15 13 16 14
REMARK SMILES IDX 17 15 12 17 13 18 14 19
REMARK H PARENT
REMARK Flexibility Score: 70.00
ROOT
ATOM      1  C   UNL     1     -13.596 -36.159  37.228  1.00  0.00     0.136 C 
ATOM      2  O   UNL     1     -14.547 -36.003  36.474  1.00  0.00    -0.299 OA
ENDROOT
BRANCH   1   3
ATOM      3  C   UNL     1     -13.418 -35.249  38.431  1.00  0.00     0.053 C 
ATOM      4  C   UNL     1     -12.832 -33.883  38.045  1.00  0.00     0.016 C 
BRANCH   3   5
ATOM      5  C   UNL     1     -14.730 -35.104  39.228  1.00  0.00     0.015 C 
BRANCH   5   6
ATOM      6  C   UNL     1     -15.112 -36.359  40.041  1.00  0.00     0.028 C 
BRANCH   6   7
ATOM      7  C   UNL     1     -14.090 -36.648  41.112  1.00  0.00    -0.028 C 
ATOM      8  C   UNL     1     -13.318 -37.761  41.163  1.00  0.00    -0.070 CG0
ATOM      9  C   UNL     1     -12.314 -37.874  42.281  1.00  0.00     0.039 C 
ATOM     10  G   UNL     1     -13.428 -38.896  40.156  1.00  0.00     0.000 G0
ENDBRANCH   6   7
ENDBRANCH   5   6
ENDBRANCH   3   5
ENDBRANCH   1   3
BRANCH   1  11
ATOM     11  C   UNL     1     -12.613 -37.268  36.942  1.00  0.00     0.087 C 
BRANCH  11  12
ATOM     12  C   UNL     1     -13.050 -38.615  37.575  1.00  0.00     0.066 C 
BRANCH  12  13
ATOM     13  C   UNL     1     -12.490 -38.718  38.985  1.00  0.00     0.140 C 
ATOM     14  O   UNL     1     -11.277 -38.737  39.151  1.00  0.00    -0.299 OA
BRANCH  13  15
ATOM     15  C   UNL     1     -13.409 -38.905  40.166  1.00  0.00     0.106 CG0
ATOM     16  G   UNL     1     -13.320 -37.757  41.162  1.00  0.00     0.000 G0
ENDBRANCH  13  15
ENDBRANCH  12  13
BRANCH  12  17
ATOM     17  C   UNL     1     -12.617 -39.852  36.722  1.00  0.00    -0.006 C 
ATOM     18  C   UNL     1     -12.050 -39.448  35.348  1.00  0.00     0.008 C 
ATOM     19  C   UNL     1     -13.798 -40.818  36.503  1.00  0.00     0.008 C 
ENDBRANCH  12  17
ENDBRANCH  11  12
ENDBRANCH   1  11
TORSDOF 1
ENDMDL
MODEL 5
REMARK VINA RESULT:    -4.852      2.084      2.730
REMARK INTER + INTRA:          -7.628
REMARK INTER:                  -7.573
REMARK INTRA:                  -0.056
REMARK UNBOUND:                -0.224
REMARK SMILES CC1=CCC[C@H](C)C(=O)C[C@@H](C(C)C)C(=O)C1
REMARK SMILES IDX 8 1 9 2 6 3 7 4 5 5 4 6 3 7 2 8 1 9 10 11 11 12 15 13 16 14
REMARK SMILES IDX 17 15 12 17 13 18 14 19
REMARK H PARENT
REMARK Flexibility Score: 70.00
ROOT
ATOM      1  C   UNL     1     -13.135 -40.785  38.970  1.00  0.00     0.136 C 
ATOM      2  O   UNL     1     -12.795 -41.910  38.630  1.00  0.00    -0.299 OA
ENDROOT
BRANCH   1   3
ATOM      3  C   UNL     1     -13.098 -40.386  40.434  1.00  0.00     0.053 C 
ATOM      4  C   UNL     1     -13.661 -41.483  41.351  1.00  0.00     0.016 C 
BRANCH   3   5
ATOM      5  C   UNL     1     -11.683 -39.951  40.866  1.00  0.00     0.015 C 
BRANCH   5   6
ATOM      6  C   UNL     1     -11.637 -38.581  41.576  1.00  0.00     0.028 C 
BRANCH   6   7
ATOM      7  C   UNL     1     -12.990 -37.916  41.566  1.00  0.00    -0.028 C 
ATOM      8  C   UNL     1     -13.441 -37.097  40.586  1.00  0.00    -0.070 CG0
ATOM      9  C   UNL     1     -14.838 -36.547  40.712  1.00  0.00     0.039 C 
ATOM     10  G   UNL     1     -12.602 -36.704  39.379  1.00  0.00     0.000 G0
ENDBRANCH   6   7
ENDBRANCH   5   6
ENDBRANCH   3   5
ENDBRANCH   1   3
BRANCH   1  11
ATOM     11  C   UNL     1     -13.586 -39.808  37.910  1.00  0.00     0.087 C 
BRANCH  11  12
ATOM     12  C   UNL     1     -12.533 -38.698  37.653  1.00  0.00     0.066 C 
BRANCH  12  13
ATOM     13  C   UNL     1     -13.088 -37.358  38.108  1.00  0.00     0.140 C 
ATOM     14  O   UNL     1     -13.880 -36.760  37.391  1.00  0.00    -0.299 OA
BRANCH  13  15
ATOM     15  C   UNL     1     -12.592 -36.711  39.377  1.00  0.00     0.106 CG0
ATOM     16  G   UNL     1     -13.439 -37.075  40.588  1.00  0.00     0.000 G0
ENDBRANCH  13  15
ENDBRANCH  12  13
BRANCH  12  17
ATOM     17  C   UNL     1     -12.085 -38.626  36.156  1.00  0.00    -0.006 C 
ATOM     18  C   UNL     1     -12.021 -40.017  35.495  1.00  0.00     0.008 C 
ATOM     19  C   UNL     1     -10.706 -37.952  36.020  1.00  0.00     0.008 C 
ENDBRANCH  12  17
ENDBRANCH  11  12
ENDBRANCH   1  11
TORSDOF 1
ENDMDL
MODEL 6
REMARK VINA RESULT:    -4.850      2.562      5.145
REMARK INTER + INTRA:          -7.626
REMARK INTER:                  -7.451
REMARK INTRA:                  -0.175
REMARK UNBOUND:                -0.224
REMARK SMILES CC1=CCC[C@H](C)C(=O)C[C@@H](C(C)C)C(=O)C1
REMARK SMILES IDX 8 1 9 2 6 3 7 4 5 5 4 6 3 7 2 8 1 9 10 11 11 12 15 13 16 14
REMARK SMILES IDX 17 15 12 17 13 18 14 19
REMARK H PARENT
REMARK Flexibility Score: 70.00
ROOT
ATOM      1  C   UNL     1     -10.625 -37.833  39.929  1.00  0.00     0.136 C 
ATOM      2  O   UNL     1      -9.674 -38.545  40.223  1.00  0.00    -0.299 OA
ENDROOT
BRANCH   1   3
ATOM      3  C   UNL     1     -10.685 -37.165  38.566  1.00  0.00     0.053 C 
ATOM      4  C   UNL     1      -9.312 -36.647  38.110  1.00  0.00     0.016 C 
BRANCH   3   5
ATOM      5  C   UNL     1     -11.327 -38.089  37.512  1.00  0.00     0.015 C 
BRANCH   5   6
ATOM      6  C   UNL     1     -12.636 -37.537  36.908  1.00  0.00     0.028 C 
BRANCH   6   7
ATOM      7  C   UNL     1     -12.902 -36.129  37.377  1.00  0.00    -0.028 C 
ATOM      8  C   UNL     1     -13.788 -35.791  38.344  1.00  0.00    -0.070 CG0
ATOM      9  C   UNL     1     -13.902 -34.336  38.722  1.00  0.00     0.039 C 
ATOM     10  G   UNL     1     -14.673 -36.806  39.052  1.00  0.00     0.000 G0
ENDBRANCH   6   7
ENDBRANCH   5   6
ENDBRANCH   3   5
ENDBRANCH   1   3
BRANCH   1  11
ATOM     11  C   UNL     1     -11.728 -37.634  40.940  1.00  0.00     0.087 C 
BRANCH  11  12
ATOM     12  C   UNL     1     -13.058 -38.295  40.491  1.00  0.00     0.066 C 
BRANCH  12  13
ATOM     13  C   UNL     1     -14.143 -37.235  40.395  1.00  0.00     0.140 C 
ATOM     14  O   UNL     1     -14.643 -36.791  41.421  1.00  0.00    -0.299 OA
BRANCH  13  15
ATOM     15  C   UNL     1     -14.684 -36.806  39.054  1.00  0.00     0.106 CG0
ATOM     16  G   UNL     1     -13.784 -35.796  38.357  1.00  0.00     0.000 G0
ENDBRANCH  13  15
ENDBRANCH  12  13
BRANCH  12  17
ATOM     17  C   UNL     1     -13.506 -39.455  41.439  1.00  0.00    -0.006 C 
ATOM     18  C   UNL     1     -12.656 -39.526  42.722  1.00  0.00     0.008 C 
ATOM     19  C   UNL     1     -13.435 -40.818  40.723  1.00  0.00     0.008 C 
ENDBRANCH  12  17
ENDBRANCH  11  12
ENDBRANCH   1  11
TORSDOF 1
ENDMDL
MODEL 7
REMARK VINA RESULT:    -4.820      2.045      3.954
REMARK INTER + INTRA:          -7.579
REMARK INTER:                  -7.555
REMARK INTRA:                  -0.024
REMARK UNBOUND:                -0.224
REMARK SMILES CC1=CCC[C@H](C)C(=O)C[C@@H](C(C)C)C(=O)C1
REMARK SMILES IDX 8 1 9 2 6 3 7 4 5 5 4 6 3 7 2 8 1 9 10 11 11 12 15 13 16 14
REMARK SMILES IDX 17 15 12 17 13 18 14 19
REMARK H PARENT
REMARK Flexibility Score: 70.00
ROOT
ATOM      1  C   UNL     1     -13.115 -37.634  40.860  1.00  0.00     0.136 C 
ATOM      2  O   UNL     1     -14.148 -37.179  41.331  1.00  0.00    -0.299 OA
ENDROOT
BRANCH   1   3
ATOM      3  C   UNL     1     -12.474 -38.867  41.472  1.00  0.00     0.053 C 
ATOM      4  C   UNL     1     -12.358 -38.765  43.000  1.00  0.00     0.016 C 
BRANCH   3   5
ATOM      5  C   UNL     1     -13.201 -40.155  41.038  1.00  0.00     0.015 C 
BRANCH   5   6
ATOM      6  C   UNL     1     -12.400 -41.022  40.043  1.00  0.00     0.028 C 
BRANCH   6   7
ATOM      7  C   UNL     1     -13.128 -41.159  38.730  1.00  0.00    -0.028 C 
ATOM      8  C   UNL     1     -12.950 -40.348  37.660  1.00  0.00    -0.070 CG0
ATOM      9  C   UNL     1     -13.730 -40.649  36.406  1.00  0.00     0.039 C 
ATOM     10  G   UNL     1     -12.013 -39.148  37.672  1.00  0.00     0.000 G0
ENDBRANCH   6   7
ENDBRANCH   5   6
ENDBRANCH   3   5
ENDBRANCH   1   3
BRANCH   1  11
ATOM     11  C   UNL     1     -12.495 -36.949  39.665  1.00  0.00     0.087 C 
BRANCH  11  12
ATOM     12  C   UNL     1     -13.392 -37.051  38.403  1.00  0.00     0.066 C 
BRANCH  12  13
ATOM     13  C   UNL     1     -12.668 -37.846  37.330  1.00  0.00     0.140 C 
ATOM     14  O   UNL     1     -12.705 -37.463  36.168  1.00  0.00    -0.299 OA
BRANCH  13  15
ATOM     15  C   UNL     1     -11.998 -39.157  37.663  1.00  0.00     0.106 CG0
ATOM     16  G   UNL     1     -12.968 -40.329  37.649  1.00  0.00     0.000 G0
ENDBRANCH  13  15
ENDBRANCH  12  13
BRANCH  12  17
ATOM     17  C   UNL     1     -13.821 -35.651  37.853  1.00  0.00    -0.006 C 
ATOM     18  C   UNL     1     -12.650 -34.652  37.813  1.00  0.00     0.008 C 
ATOM     19  C   UNL     1     -14.958 -35.045  38.700  1.00  0.00     0.008 C 
ENDBRANCH  12  17
ENDBRANCH  11  12
ENDBRANCH   1  11
TORSDOF 1
ENDMDL
MODEL 8
REMARK VINA RESULT:    -4.781      1.855      3.864
REMARK INTER + INTRA:          -7.520
REMARK INTER:                  -7.656
REMARK INTRA:                   0.136
REMARK UNBOUND:                -0.224
REMARK SMILES CC1=CCC[C@H](C)C(=O)C[C@@H](C(C)C)C(=O)C1
REMARK SMILES IDX 8 1 9 2 6 3 7 4 5 5 4 6 3 7 2 8 1 9 10 11 11 12 15 13 16 14
REMARK SMILES IDX 17 15 12 17 13 18 14 19
REMARK H PARENT
REMARK Flexibility Score: 70.00
ROOT
ATOM      1  C   UNL     1     -12.649 -41.022  40.079  1.00  0.00     0.136 C 
ATOM      2  O   UNL     1     -13.549 -41.417  40.808  1.00  0.00    -0.299 OA
ENDROOT
BRANCH   1   3
ATOM      3  C   UNL     1     -12.665 -41.357  38.598  1.00  0.00     0.053 C 
ATOM      4  C   UNL     1     -13.119 -42.801  38.332  1.00  0.00     0.016 C 
BRANCH   3   5
ATOM      5  C   UNL     1     -13.501 -40.338  37.797  1.00  0.00     0.015 C 
BRANCH   5   6
ATOM      6  C   UNL     1     -12.658 -39.382  36.927  1.00  0.00     0.028 C 
BRANCH   6   7
ATOM      7  C   UNL     1     -12.886 -37.944  37.319  1.00  0.00    -0.028 C 
ATOM      8  C   UNL     1     -11.975 -37.161  37.945  1.00  0.00    -0.070 CG0
ATOM      9  C   UNL     1     -12.350 -35.729  38.229  1.00  0.00     0.039 C 
ATOM     10  G   UNL     1     -10.605 -37.661  38.379  1.00  0.00     0.000 G0
ENDBRANCH   6   7
ENDBRANCH   5   6
ENDBRANCH   3   5
ENDBRANCH   1   3
BRANCH   1  11
ATOM     11  C   UNL     1     -11.533 -40.201  40.677  1.00  0.00     0.087 C 
BRANCH  11  12
ATOM     12  C   UNL     1     -11.774 -38.678  40.510  1.00  0.00     0.066 C 
BRANCH  12  13
ATOM     13  C   UNL     1     -10.563 -38.042  39.847  1.00  0.00     0.140 C 
ATOM     14  O   UNL     1      -9.583 -37.762  40.526  1.00  0.00    -0.299 OA
BRANCH  13  15
ATOM     15  C   UNL     1     -10.598 -37.656  38.389  1.00  0.00     0.106 CG0
ATOM     16  G   UNL     1     -11.968 -37.158  37.951  1.00  0.00     0.000 G0
ENDBRANCH  13  15
ENDBRANCH  12  13
BRANCH  12  17
ATOM     17  C   UNL     1     -12.094 -37.966  41.866  1.00  0.00    -0.006 C 
ATOM     18  C   UNL     1     -12.171 -38.955  43.044  1.00  0.00     0.008 C 
ATOM     19  C   UNL     1     -13.423 -37.188  41.786  1.00  0.00     0.008 C 
ENDBRANCH  12  17
ENDBRANCH  11  12
ENDBRANCH   1  11
TORSDOF 1
ENDMDL
MODEL 9
REMARK VINA RESULT:    -4.730      2.231      4.121
REMARK INTER + INTRA:          -7.442
REMARK INTER:                  -7.183
REMARK INTRA:                  -0.260
REMARK UNBOUND:                -0.224
REMARK SMILES CC1=CCC[C@H](C)C(=O)C[C@@H](C(C)C)C(=O)C1
REMARK SMILES IDX 8 1 9 2 6 3 7 4 5 5 4 6 3 7 2 8 1 9 10 11 11 12 15 13 16 14
REMARK SMILES IDX 17 15 12 17 13 18 14 19
REMARK H PARENT
REMARK Flexibility Score: 70.00
ROOT
ATOM      1  C   UNL     1     -12.590 -40.659  40.468  1.00  0.00     0.136 C 
ATOM      2  O   UNL     1     -13.458 -40.999  41.260  1.00  0.00    -0.299 OA
ENDROOT
BRANCH   1   3
ATOM      3  C   UNL     1     -12.101 -41.631  39.408  1.00  0.00     0.053 C 
ATOM      4  C   UNL     1     -11.381 -42.844  40.018  1.00  0.00     0.016 C 
BRANCH   3   5
ATOM      5  C   UNL     1     -13.242 -42.058  38.464  1.00  0.00     0.015 C 
BRANCH   5   6
ATOM      6  C   UNL     1     -13.834 -40.900  37.632  1.00  0.00     0.028 C 
BRANCH   6   7
ATOM      7  C   UNL     1     -12.753 -40.146  36.899  1.00  0.00    -0.028 C 
ATOM      8  C   UNL     1     -12.567 -38.806  36.963  1.00  0.00    -0.070 CG0
ATOM      9  C   UNL     1     -11.410 -38.215  36.198  1.00  0.00     0.039 C 
ATOM     10  G   UNL     1     -13.474 -37.877  37.756  1.00  0.00     0.000 G0
ENDBRANCH   6   7
ENDBRANCH   5   6
ENDBRANCH   3   5
ENDBRANCH   1   3
BRANCH   1  11
ATOM     11  C   UNL     1     -12.020 -39.265  40.564  1.00  0.00     0.087 C 
BRANCH  11  12
ATOM     12  C   UNL     1     -13.104 -38.175  40.353  1.00  0.00     0.066 C 
BRANCH  12  13
ATOM     13  C   UNL     1     -12.830 -37.433  39.055  1.00  0.00     0.140 C 
ATOM     14  O   UNL     1     -12.146 -36.418  39.074  1.00  0.00    -0.299 OA
BRANCH  13  15
ATOM     15  C   UNL     1     -13.480 -37.872  37.766  1.00  0.00     0.106 CG0
ATOM     16  G   UNL     1     -12.594 -38.804  36.954  1.00  0.00     0.000 G0
ENDBRANCH  13  15
ENDBRANCH  12  13
BRANCH  12  17
ATOM     17  C   UNL     1     -13.192 -37.172  41.550  1.00  0.00    -0.006 C 
ATOM     18  C   UNL     1     -12.655 -37.775  42.862  1.00  0.00     0.008 C 
ATOM     19  C   UNL     1     -14.643 -36.706  41.779  1.00  0.00     0.008 C 
ENDBRANCH  12  17
ENDBRANCH  11  12
ENDBRANCH   1  11
TORSDOF 1
ENDMDL
