MODEL 1
REMARK VINA RESULT:    15.682      0.000      0.000
REMARK INTER + INTRA:          25.553
REMARK INTER:                  23.475
REMARK INTRA:                   2.078
REMARK UNBOUND:                 2.078
REMARK SMILES COC(=O)C1=CO[C@@H](O[C@@H]2O[C@H](CO)[C@H](O)[C@@H](O)[C@@H]2O)[C@@H]2C(CO)=CC[C@H]12
REMARK SMILES IDX 9 1 8 2 5 3 6 4 27 5 7 6 21 7 26 8 22 9 25 10 3 11 4 12 2 13
REMARK SMILES IDX 1 14 23 15 24 16 10 18 19 19 11 20 17 21 12 22 15 23 20 24
REMARK SMILES IDX 18 26 13 28 14 29 16 31
REMARK H PARENT 24 17 20 25 18 27 14 30 16 32
REMARK Flexibility Score: inf
ROOT
ATOM      1  O   UNL     1      -7.687 -14.732  -6.779  1.00  0.00    -0.310 OA
ENDROOT
BRANCH   1   2
ATOM      2  C   UNL     1      -8.316 -15.493  -5.758  1.00  0.00     0.316 C 
ATOM      3  C   UNL     1     -10.414 -16.881  -4.389  1.00  0.00     0.076 C 
ATOM      4  C   UNL     1      -9.900 -17.368  -5.529  1.00  0.00     0.202 C 
ATOM      5  C   UNL     1     -10.139 -15.444  -3.979  1.00  0.00     0.047 C 
ATOM      6  O   UNL     1      -9.028 -16.603  -6.306  1.00  0.00    -0.471 OA
ATOM      7  C   UNL     1      -9.318 -14.608  -4.988  1.00  0.00     0.094 C 
ATOM      8  C   UNL     1      -9.361 -15.325  -2.661  1.00  0.00     0.037 C 
ATOM      9  C   UNL     1      -8.619 -13.636  -4.089  1.00  0.00    -0.039 C 
ATOM     10  C   UNL     1      -8.623 -14.043  -2.824  1.00  0.00    -0.024 C 
BRANCH   3  11
ATOM     11  C   UNL     1     -11.325 -17.707  -3.561  1.00  0.00     0.337 C 
ATOM     12  O   UNL     1     -12.316 -18.288  -4.084  1.00  0.00    -0.246 OA
BRANCH  11  13
ATOM     13  O   UNL     1     -11.078 -17.842  -2.191  1.00  0.00    -0.466 OA
ATOM     14  C   UNL     1     -11.646 -18.884  -1.407  1.00  0.00     0.282 C 
ENDBRANCH  11  13
ENDBRANCH   3  11
BRANCH   9  15
ATOM     15  C   UNL     1      -8.118 -12.288  -4.519  1.00  0.00     0.187 C 
BRANCH  15  16
ATOM     16  O   UNL     1      -9.206 -11.435  -4.735  1.00  0.00    -0.392 OA
ATOM     17  H   UNL     1      -9.039 -10.994  -5.609  1.00  0.00     0.211 HD
ENDBRANCH  15  16
ENDBRANCH   9  15
ENDBRANCH   1   2
BRANCH   1  18
ATOM     18  C   UNL     1      -6.298 -15.024  -6.877  1.00  0.00     0.286 C 
ATOM     19  C   UNL     1      -5.928 -16.197  -5.945  1.00  0.00     0.202 C 
ATOM     20  O   UNL     1      -5.878 -15.216  -8.226  1.00  0.00    -0.341 OA
ATOM     21  C   UNL     1      -6.426 -17.526  -6.514  1.00  0.00     0.179 C 
ATOM     22  C   UNL     1      -6.252 -16.462  -8.807  1.00  0.00     0.178 C 
ATOM     23  C   UNL     1      -5.877 -17.682  -7.933  1.00  0.00     0.177 C 
BRANCH  19  24
ATOM     24  O   UNL     1      -6.485 -15.995  -4.670  1.00  0.00    -0.385 OA
ATOM     25  H   UNL     1      -6.699 -16.893  -4.305  1.00  0.00     0.211 HD
ENDBRANCH  19  24
BRANCH  21  26
ATOM     26  O   UNL     1      -5.963 -18.587  -5.718  1.00  0.00    -0.387 OA
ATOM     27  H   UNL     1      -5.884 -18.240  -4.791  1.00  0.00     0.211 HD
ENDBRANCH  21  26
BRANCH  22  28
ATOM     28  C   UNL     1      -7.713 -16.466  -9.289  1.00  0.00     0.191 C 
BRANCH  28  29
ATOM     29  O   UNL     1      -7.773 -16.890 -10.623  1.00  0.00    -0.394 OA
ATOM     30  H   UNL     1      -8.022 -16.090 -11.157  1.00  0.00     0.210 HD
ENDBRANCH  28  29
ENDBRANCH  22  28
BRANCH  23  31
ATOM     31  O   UNL     1      -6.359 -18.866  -8.516  1.00  0.00    -0.387 OA
ATOM     32  H   UNL     1      -6.604 -18.650  -9.454  1.00  0.00     0.211 HD
ENDBRANCH  23  31
ENDBRANCH   1  18
TORSDOF 11
ENDMDL
