MODEL 1
REMARK VINA RESULT:    -2.137      0.000      0.000
REMARK INTER + INTRA:          -2.137
REMARK INTER:                  -2.137
REMARK INTRA:                   0.000
REMARK UNBOUND:                 0.000
REMARK SMILES CC(=O)[O-]
REMARK SMILES IDX 1 1 2 2 3 3 4 4
REMARK H PARENT
REMARK Flexibility Score: inf
ROOT
ATOM      1  C   UNL     1       6.323   7.027  16.678  1.00  0.00     0.063 C 
ATOM      2  C   UNL     1       5.931   5.590  16.724  1.00  0.00     0.038 C 
ATOM      3  O   UNL     1       5.337   5.064  15.746  1.00  0.00    -0.550 OA
ATOM      4  O   UNL     1       6.171   4.839  17.868  1.00  0.00    -0.550 OA
ENDROOT
TORSDOF 0
ENDMDL
MODEL 2
REMARK VINA RESULT:    -2.128      0.088      1.619
REMARK INTER + INTRA:          -2.128
REMARK INTER:                  -2.128
REMARK INTRA:                   0.000
REMARK UNBOUND:                 0.000
REMARK SMILES CC(=O)[O-]
REMARK SMILES IDX 1 1 2 2 3 3 4 4
REMARK H PARENT
REMARK Flexibility Score: inf
ROOT
ATOM      1  C   UNL     1       6.325   7.048  16.700  1.00  0.00     0.063 C 
ATOM      2  C   UNL     1       5.919   5.618  16.801  1.00  0.00     0.038 C 
ATOM      3  O   UNL     1       6.200   4.953  17.833  1.00  0.00    -0.550 OA
ATOM      4  O   UNL     1       5.278   4.998  15.736  1.00  0.00    -0.550 OA
ENDROOT
TORSDOF 0
ENDMDL
MODEL 3
REMARK VINA RESULT:    -2.094      1.585      2.263
REMARK INTER + INTRA:          -2.094
REMARK INTER:                  -2.094
REMARK INTRA:                   0.000
REMARK UNBOUND:                 0.000
REMARK SMILES CC(=O)[O-]
REMARK SMILES IDX 1 1 2 2 3 3 4 4
REMARK H PARENT
REMARK Flexibility Score: inf
ROOT
ATOM      1  C   UNL     1       5.606   5.211  15.936  1.00  0.00     0.063 C 
ATOM      2  C   UNL     1       6.099   6.167  16.968  1.00  0.00     0.038 C 
ATOM      3  O   UNL     1       6.171   5.813  18.175  1.00  0.00    -0.550 OA
ATOM      4  O   UNL     1       6.430   7.468  16.612  1.00  0.00    -0.550 OA
ENDROOT
TORSDOF 0
ENDMDL
MODEL 4
REMARK VINA RESULT:    -2.083      9.874     10.162
REMARK INTER + INTRA:          -2.083
REMARK INTER:                  -2.083
REMARK INTRA:                   0.000
REMARK UNBOUND:                 0.000
REMARK SMILES CC(=O)[O-]
REMARK SMILES IDX 1 1 2 2 3 3 4 4
REMARK H PARENT
REMARK Flexibility Score: inf
ROOT
ATOM      1  C   UNL     1       6.198  12.536  22.240  1.00  0.00     0.063 C 
ATOM      2  C   UNL     1       5.390  13.697  22.712  1.00  0.00     0.038 C 
ATOM      3  O   UNL     1       5.445  14.796  22.098  1.00  0.00    -0.550 OA
ATOM      4  O   UNL     1       4.619  13.587  23.861  1.00  0.00    -0.550 OA
ENDROOT
TORSDOF 0
ENDMDL
MODEL 5
REMARK VINA RESULT:    -2.060      9.336      9.851
REMARK INTER + INTRA:          -2.060
REMARK INTER:                  -2.060
REMARK INTRA:                   0.000
REMARK UNBOUND:                 0.000
REMARK SMILES CC(=O)[O-]
REMARK SMILES IDX 1 1 2 2 3 3 4 4
REMARK H PARENT
REMARK Flexibility Score: inf
ROOT
ATOM      1  C   UNL     1       5.277  14.542  22.002  1.00  0.00     0.063 C 
ATOM      2  C   UNL     1       5.334  13.282  22.797  1.00  0.00     0.038 C 
ATOM      3  O   UNL     1       5.976  12.289  22.363  1.00  0.00    -0.550 OA
ATOM      4  O   UNL     1       4.635  13.180  23.993  1.00  0.00    -0.550 OA
ENDROOT
TORSDOF 0
ENDMDL
MODEL 6
REMARK VINA RESULT:    -2.029      9.494      9.989
REMARK INTER + INTRA:          -2.029
REMARK INTER:                  -2.029
REMARK INTRA:                   0.000
REMARK UNBOUND:                 0.000
REMARK SMILES CC(=O)[O-]
REMARK SMILES IDX 1 1 2 2 3 3 4 4
REMARK H PARENT
REMARK Flexibility Score: inf
ROOT
ATOM      1  C   UNL     1       4.413  13.071  23.584  1.00  0.00     0.063 C 
ATOM      2  C   UNL     1       5.365  13.484  22.514  1.00  0.00     0.038 C 
ATOM      3  O   UNL     1       6.126  12.633  21.982  1.00  0.00    -0.550 OA
ATOM      4  O   UNL     1       5.454  14.818  22.138  1.00  0.00    -0.550 OA
ENDROOT
TORSDOF 0
ENDMDL
MODEL 7
REMARK VINA RESULT:    -1.912     17.712     17.985
REMARK INTER + INTRA:          -1.912
REMARK INTER:                  -1.912
REMARK INTRA:                   0.000
REMARK UNBOUND:                 0.000
REMARK SMILES CC(=O)[O-]
REMARK SMILES IDX 1 1 2 2 3 3 4 4
REMARK H PARENT
REMARK Flexibility Score: inf
ROOT
ATOM      1  C   UNL     1       6.075  21.432   9.479  1.00  0.00     0.063 C 
ATOM      2  C   UNL     1       6.676  21.363   8.116  1.00  0.00     0.038 C 
ATOM      3  O   UNL     1       5.946  21.476   7.097  1.00  0.00    -0.550 OA
ATOM      4  O   UNL     1       8.035  21.118   7.967  1.00  0.00    -0.550 OA
ENDROOT
TORSDOF 0
ENDMDL
MODEL 8
REMARK VINA RESULT:    -1.909     17.742     17.903
REMARK INTER + INTRA:          -1.909
REMARK INTER:                  -1.909
REMARK INTRA:                   0.000
REMARK UNBOUND:                 0.000
REMARK SMILES CC(=O)[O-]
REMARK SMILES IDX 1 1 2 2 3 3 4 4
REMARK H PARENT
REMARK Flexibility Score: inf
ROOT
ATOM      1  C   UNL     1       6.334  20.983   6.959  1.00  0.00     0.063 C 
ATOM      2  C   UNL     1       6.646  21.327   8.375  1.00  0.00     0.038 C 
ATOM      3  O   UNL     1       7.822  21.209   8.810  1.00  0.00    -0.550 OA
ATOM      4  O   UNL     1       5.631  21.726   9.235  1.00  0.00    -0.550 OA
ENDROOT
TORSDOF 0
ENDMDL
MODEL 9
REMARK VINA RESULT:    -1.894      2.229      2.525
REMARK INTER + INTRA:          -1.894
REMARK INTER:                  -1.894
REMARK INTRA:                   0.000
REMARK UNBOUND:                 0.000
REMARK SMILES CC(=O)[O-]
REMARK SMILES IDX 1 1 2 2 3 3 4 4
REMARK H PARENT
REMARK Flexibility Score: inf
ROOT
ATOM      1  C   UNL     1       6.003   6.074  16.315  1.00  0.00     0.063 C 
ATOM      2  C   UNL     1       7.363   5.756  15.795  1.00  0.00     0.038 C 
ATOM      3  O   UNL     1       8.329   6.527  16.039  1.00  0.00    -0.550 OA
ATOM      4  O   UNL     1       7.559   4.639  14.993  1.00  0.00    -0.550 OA
ENDROOT
TORSDOF 0
ENDMDL
