MODEL 1
REMARK VINA RESULT:    -4.523      0.000      0.000
REMARK INTER + INTRA:          -6.062
REMARK INTER:                  -5.448
REMARK INTRA:                  -0.614
REMARK UNBOUND:                -0.614
REMARK SMILES O=c1ccn([C@H]2O[C@H](CO)[C@H](O)[C@@H]2O)c(=O)[nH]1
REMARK SMILES IDX 6 1 13 2 11 3 8 4 7 5 5 6 3 7 4 8 2 9 17 10 1 11 15 12 16 14
REMARK SMILES IDX 14 15 12 17 9 19 10 20
REMARK H PARENT 17 13 14 16 12 18 10 21
REMARK Flexibility Score: inf
ROOT
ATOM      1  C   UNL     1      39.891  21.220  36.025  1.00  0.00     0.255 C 
ATOM      2  C   UNL     1      40.063  20.615  37.424  1.00  0.00     0.196 C 
ATOM      3  C   UNL     1      40.074  21.832  38.318  1.00  0.00     0.179 C 
ATOM      4  C   UNL     1      39.172  22.788  37.529  1.00  0.00     0.178 C 
ATOM      5  O   UNL     1      39.302  22.503  36.150  1.00  0.00    -0.347 OA
ENDROOT
BRANCH   1   6
ATOM      6  N   UNL     1      39.063  20.343  35.171  1.00  0.00    -0.271 N 
ATOM      7  C   UNL     1      37.113  18.977  34.876  1.00  0.00     0.090 A 
ATOM      8  C   UNL     1      37.891  19.829  35.655  1.00  0.00     0.099 A 
ATOM      9  C   UNL     1      37.560  18.644  33.603  1.00  0.00     0.253 A 
ATOM     10  N   UNL     1      38.738  19.144  33.148  1.00  0.00    -0.274 N 
ATOM     11  O   UNL     1      36.875  17.875  32.875  1.00  0.00    -0.269 OA
ATOM     12  C   UNL     1      39.493  19.976  33.917  1.00  0.00     0.330 A 
ATOM     13  H   UNL     1      39.072  18.881  32.193  1.00  0.00     0.175 HD
ATOM     14  O   UNL     1      40.591  20.402  33.464  1.00  0.00    -0.248 OA
ENDBRANCH   1   6
BRANCH   2  15
ATOM     15  O   UNL     1      41.211  19.807  37.558  1.00  0.00    -0.386 OA
ATOM     16  H   UNL     1      41.887  20.297  38.092  1.00  0.00     0.211 HD
ENDBRANCH   2  15
BRANCH   3  17
ATOM     17  O   UNL     1      41.374  22.344  38.515  1.00  0.00    -0.387 OA
ATOM     18  H   UNL     1      41.301  23.304  38.759  1.00  0.00     0.211 HD
ENDBRANCH   3  17
BRANCH   4  19
ATOM     19  C   UNL     1      39.454  24.274  37.799  1.00  0.00     0.191 C 
BRANCH  19  20
ATOM     20  O   UNL     1      40.615  24.679  37.126  1.00  0.00    -0.394 OA
ATOM     21  H   UNL     1      40.670  25.666  37.223  1.00  0.00     0.210 HD
ENDBRANCH  19  20
ENDBRANCH   4  19
TORSDOF 5
ENDMDL
MODEL 2
REMARK VINA RESULT:    -4.057      2.387      3.451
REMARK INTER + INTRA:          -5.501
REMARK INTER:                  -5.110
REMARK INTRA:                  -0.392
REMARK UNBOUND:                -0.614
REMARK SMILES O=c1ccn([C@H]2O[C@H](CO)[C@H](O)[C@@H]2O)c(=O)[nH]1
REMARK SMILES IDX 6 1 13 2 11 3 8 4 7 5 5 6 3 7 4 8 2 9 17 10 1 11 15 12 16 14
REMARK SMILES IDX 14 15 12 17 9 19 10 20
REMARK H PARENT 17 13 14 16 12 18 10 21
REMARK Flexibility Score: inf
ROOT
ATOM      1  C   UNL     1      39.873  20.185  36.821  1.00  0.00     0.255 C 
ATOM      2  C   UNL     1      38.460  20.358  36.252  1.00  0.00     0.196 C 
ATOM      3  C   UNL     1      37.992  21.641  36.899  1.00  0.00     0.179 C 
ATOM      4  C   UNL     1      39.318  22.391  37.063  1.00  0.00     0.178 C 
ATOM      5  O   UNL     1      40.357  21.449  37.242  1.00  0.00    -0.347 OA
ENDROOT
BRANCH   1   6
ATOM      6  N   UNL     1      40.776  19.585  35.816  1.00  0.00    -0.271 N 
ATOM      7  C   UNL     1      41.564  19.456  33.554  1.00  0.00     0.090 A 
ATOM      8  C   UNL     1      40.744  20.029  34.521  1.00  0.00     0.099 A 
ATOM      9  C   UNL     1      42.404  18.413  33.924  1.00  0.00     0.253 A 
ATOM     10  N   UNL     1      42.405  17.970  35.208  1.00  0.00    -0.274 N 
ATOM     11  O   UNL     1      43.159  17.876  33.069  1.00  0.00    -0.269 OA
ATOM     12  C   UNL     1      41.598  18.535  36.148  1.00  0.00     0.330 A 
ATOM     13  H   UNL     1      43.032  17.177  35.477  1.00  0.00     0.175 HD
ATOM     14  O   UNL     1      41.615  18.080  37.326  1.00  0.00    -0.248 OA
ENDBRANCH   1   6
BRANCH   2  15
ATOM     15  O   UNL     1      37.609  19.261  36.496  1.00  0.00    -0.386 OA
ATOM     16  H   UNL     1      36.935  19.210  35.769  1.00  0.00     0.211 HD
ENDBRANCH   2  15
BRANCH   3  17
ATOM     17  O   UNL     1      37.336  21.416  38.127  1.00  0.00    -0.387 OA
ATOM     18  H   UNL     1      36.359  21.531  37.987  1.00  0.00     0.211 HD
ENDBRANCH   3  17
BRANCH   4  19
ATOM     19  C   UNL     1      39.317  23.414  38.209  1.00  0.00     0.191 C 
BRANCH  19  20
ATOM     20  O   UNL     1      40.615  23.587  38.709  1.00  0.00    -0.394 OA
ATOM     21  H   UNL     1      40.885  24.515  38.485  1.00  0.00     0.210 HD
ENDBRANCH  19  20
ENDBRANCH   4  19
TORSDOF 5
ENDMDL
MODEL 3
REMARK VINA RESULT:    -3.933      2.869      4.277
REMARK INTER + INTRA:          -5.351
REMARK INTER:                  -4.986
REMARK INTRA:                  -0.365
REMARK UNBOUND:                -0.614
REMARK SMILES O=c1ccn([C@H]2O[C@H](CO)[C@H](O)[C@@H]2O)c(=O)[nH]1
REMARK SMILES IDX 6 1 13 2 11 3 8 4 7 5 5 6 3 7 4 8 2 9 17 10 1 11 15 12 16 14
REMARK SMILES IDX 14 15 12 17 9 19 10 20
REMARK H PARENT 17 13 14 16 12 18 10 21
REMARK Flexibility Score: inf
ROOT
ATOM      1  C   UNL     1      39.557  19.926  36.032  1.00  0.00     0.255 C 
ATOM      2  C   UNL     1      39.850  20.977  37.109  1.00  0.00     0.196 C 
ATOM      3  C   UNL     1      38.706  20.792  38.078  1.00  0.00     0.179 C 
ATOM      4  C   UNL     1      38.413  19.298  37.911  1.00  0.00     0.178 C 
ATOM      5  O   UNL     1      38.734  18.915  36.588  1.00  0.00    -0.347 OA
ENDROOT
BRANCH   1   6
ATOM      6  N   UNL     1      40.812  19.350  35.504  1.00  0.00    -0.271 N 
ATOM      7  C   UNL     1      42.786  18.027  35.835  1.00  0.00     0.090 A 
ATOM      8  C   UNL     1      41.586  18.554  36.304  1.00  0.00     0.099 A 
ATOM      9  C   UNL     1      43.191  18.339  34.543  1.00  0.00     0.253 A 
ATOM     10  N   UNL     1      42.422  19.150  33.771  1.00  0.00    -0.274 N 
ATOM     11  O   UNL     1      44.273  17.875  34.092  1.00  0.00    -0.269 OA
ATOM     12  C   UNL     1      41.250  19.662  34.239  1.00  0.00     0.330 A 
ATOM     13  H   UNL     1      42.739  19.389  32.803  1.00  0.00     0.175 HD
ATOM     14  O   UNL     1      40.575  20.428  33.496  1.00  0.00    -0.248 OA
ENDBRANCH   1   6
BRANCH   2  15
ATOM     15  O   UNL     1      39.960  22.290  36.610  1.00  0.00    -0.386 OA
ATOM     16  H   UNL     1      39.202  22.464  35.994  1.00  0.00     0.211 HD
ENDBRANCH   2  15
BRANCH   3  17
ATOM     17  O   UNL     1      37.597  21.606  37.763  1.00  0.00    -0.387 OA
ATOM     18  H   UNL     1      36.892  21.455  38.445  1.00  0.00     0.211 HD
ENDBRANCH   3  17
BRANCH   4  19
ATOM     19  C   UNL     1      36.966  18.906  38.247  1.00  0.00     0.191 C 
BRANCH  19  20
ATOM     20  O   UNL     1      36.910  18.278  39.500  1.00  0.00    -0.394 OA
ATOM     21  H   UNL     1      36.889  17.301  39.327  1.00  0.00     0.210 HD
ENDBRANCH  19  20
ENDBRANCH   4  19
TORSDOF 5
ENDMDL
MODEL 4
REMARK VINA RESULT:    -3.803      1.825      5.484
REMARK INTER + INTRA:          -5.195
REMARK INTER:                  -4.503
REMARK INTRA:                  -0.692
REMARK UNBOUND:                -0.614
REMARK SMILES O=c1ccn([C@H]2O[C@H](CO)[C@H](O)[C@@H]2O)c(=O)[nH]1
REMARK SMILES IDX 6 1 13 2 11 3 8 4 7 5 5 6 3 7 4 8 2 9 17 10 1 11 15 12 16 14
REMARK SMILES IDX 14 15 12 17 9 19 10 20
REMARK H PARENT 17 13 14 16 12 18 10 21
REMARK Flexibility Score: inf
ROOT
ATOM      1  C   UNL     1      39.412  19.954  35.813  1.00  0.00     0.255 C 
ATOM      2  C   UNL     1      40.467  19.889  34.702  1.00  0.00     0.196 C 
ATOM      3  C   UNL     1      39.695  19.308  33.540  1.00  0.00     0.179 C 
ATOM      4  C   UNL     1      38.286  19.838  33.825  1.00  0.00     0.178 C 
ATOM      5  O   UNL     1      38.124  19.976  35.222  1.00  0.00    -0.347 OA
ENDROOT
BRANCH   1   6
ATOM      6  N   UNL     1      39.619  21.144  36.666  1.00  0.00    -0.271 N 
ATOM      7  C   UNL     1      39.260  23.478  37.089  1.00  0.00     0.090 A 
ATOM      8  C   UNL     1      39.051  22.340  36.316  1.00  0.00     0.099 A 
ATOM      9  C   UNL     1      40.070  23.381  38.215  1.00  0.00     0.253 A 
ATOM     10  N   UNL     1      40.644  22.192  38.533  1.00  0.00    -0.274 N 
ATOM     11  O   UNL     1      40.275  24.396  38.934  1.00  0.00    -0.269 OA
ATOM     12  C   UNL     1      40.435  21.083  37.770  1.00  0.00     0.330 A 
ATOM     13  H   UNL     1      41.260  22.129  39.375  1.00  0.00     0.175 HD
ATOM     14  O   UNL     1      41.004  20.002  38.089  1.00  0.00    -0.248 OA
ENDBRANCH   1   6
BRANCH   2  15
ATOM     15  O   UNL     1      41.613  19.144  35.047  1.00  0.00    -0.386 OA
ATOM     16  H   UNL     1      41.383  18.179  35.037  1.00  0.00     0.211 HD
ENDBRANCH   2  15
BRANCH   3  17
ATOM     17  O   UNL     1      39.753  17.899  33.507  1.00  0.00    -0.387 OA
ATOM     18  H   UNL     1      39.694  17.560  34.439  1.00  0.00     0.211 HD
ENDBRANCH   3  17
BRANCH   4  19
ATOM     19  C   UNL     1      37.164  18.969  33.236  1.00  0.00     0.191 C 
BRANCH  19  20
ATOM     20  O   UNL     1      36.875  17.900  34.096  1.00  0.00    -0.394 OA
ATOM     21  H   UNL     1      35.913  17.975  34.330  1.00  0.00     0.210 HD
ENDBRANCH  19  20
ENDBRANCH   4  19
TORSDOF 5
ENDMDL
MODEL 5
REMARK VINA RESULT:    -3.511      3.011      4.603
REMARK INTER + INTRA:          -4.844
REMARK INTER:                  -4.375
REMARK INTRA:                  -0.469
REMARK UNBOUND:                -0.614
REMARK SMILES O=c1ccn([C@H]2O[C@H](CO)[C@H](O)[C@@H]2O)c(=O)[nH]1
REMARK SMILES IDX 6 1 13 2 11 3 8 4 7 5 5 6 3 7 4 8 2 9 17 10 1 11 15 12 16 14
REMARK SMILES IDX 14 15 12 17 9 19 10 20
REMARK H PARENT 17 13 14 16 12 18 10 21
REMARK Flexibility Score: inf
ROOT
ATOM      1  C   UNL     1      40.205  18.870  35.749  1.00  0.00     0.255 C 
ATOM      2  C   UNL     1      39.015  19.087  34.805  1.00  0.00     0.196 C 
ATOM      3  C   UNL     1      38.078  19.933  35.635  1.00  0.00     0.179 C 
ATOM      4  C   UNL     1      39.071  20.708  36.507  1.00  0.00     0.178 C 
ATOM      5  O   UNL     1      40.217  19.906  36.716  1.00  0.00    -0.347 OA
ENDROOT
BRANCH   1   6
ATOM      6  N   UNL     1      41.476  18.841  34.995  1.00  0.00    -0.271 N 
ATOM      7  C   UNL     1      42.688  19.224  32.960  1.00  0.00     0.090 A 
ATOM      8  C   UNL     1      41.508  19.272  33.696  1.00  0.00     0.099 A 
ATOM      9  C   UNL     1      43.830  18.713  33.565  1.00  0.00     0.253 A 
ATOM     10  N   UNL     1      43.774  18.268  34.847  1.00  0.00    -0.274 N 
ATOM     11  O   UNL     1      44.914  18.659  32.922  1.00  0.00    -0.269 OA
ATOM     12  C   UNL     1      42.615  18.318  35.559  1.00  0.00     0.330 A 
ATOM     13  H   UNL     1      44.635  17.876  35.292  1.00  0.00     0.175 HD
ATOM     14  O   UNL     1      42.601  17.875  36.741  1.00  0.00    -0.248 OA
ENDBRANCH   1   6
BRANCH   2  15
ATOM     15  O   UNL     1      38.432  17.891  34.340  1.00  0.00    -0.386 OA
ATOM     16  H   UNL     1      38.704  17.747  33.397  1.00  0.00     0.211 HD
ENDBRANCH   2  15
BRANCH   3  17
ATOM     17  O   UNL     1      37.177  19.155  36.391  1.00  0.00    -0.387 OA
ATOM     18  H   UNL     1      37.677  18.730  37.136  1.00  0.00     0.211 HD
ENDBRANCH   3  17
BRANCH   4  19
ATOM     19  C   UNL     1      38.488  21.173  37.850  1.00  0.00     0.191 C 
BRANCH  19  20
ATOM     20  O   UNL     1      37.176  21.635  37.677  1.00  0.00    -0.394 OA
ATOM     21  H   UNL     1      37.176  22.594  37.932  1.00  0.00     0.210 HD
ENDBRANCH  19  20
ENDBRANCH   4  19
TORSDOF 5
ENDMDL
MODEL 6
REMARK VINA RESULT:    -3.507      2.827      5.046
REMARK INTER + INTRA:          -4.838
REMARK INTER:                  -4.216
REMARK INTRA:                  -0.622
REMARK UNBOUND:                -0.614
REMARK SMILES O=c1ccn([C@H]2O[C@H](CO)[C@H](O)[C@@H]2O)c(=O)[nH]1
REMARK SMILES IDX 6 1 13 2 11 3 8 4 7 5 5 6 3 7 4 8 2 9 17 10 1 11 15 12 16 14
REMARK SMILES IDX 14 15 12 17 9 19 10 20
REMARK H PARENT 17 13 14 16 12 18 10 21
REMARK Flexibility Score: inf
ROOT
ATOM      1  C   UNL     1      40.497  19.374  36.061  1.00  0.00     0.255 C 
ATOM      2  C   UNL     1      39.932  20.509  35.200  1.00  0.00     0.196 C 
ATOM      3  C   UNL     1      40.509  20.215  33.835  1.00  0.00     0.179 C 
ATOM      4  C   UNL     1      40.617  18.687  33.882  1.00  0.00     0.178 C 
ATOM      5  O   UNL     1      40.841  18.287  35.219  1.00  0.00    -0.347 OA
ENDROOT
BRANCH   1   6
ATOM      6  N   UNL     1      39.519  18.955  37.087  1.00  0.00    -0.271 N 
ATOM      7  C   UNL     1      37.245  18.751  37.822  1.00  0.00     0.090 A 
ATOM      8  C   UNL     1      38.179  19.112  36.856  1.00  0.00     0.099 A 
ATOM      9  C   UNL     1      37.699  18.245  39.034  1.00  0.00     0.253 A 
ATOM     10  N   UNL     1      39.034  18.118  39.255  1.00  0.00    -0.274 N 
ATOM     11  O   UNL     1      36.875  17.909  39.926  1.00  0.00    -0.269 OA
ATOM     12  C   UNL     1      39.941  18.474  38.304  1.00  0.00     0.330 A 
ATOM     13  H   UNL     1      39.369  17.745  40.173  1.00  0.00     0.175 HD
ATOM     14  O   UNL     1      41.173  18.359  38.558  1.00  0.00    -0.248 OA
ENDBRANCH   1   6
BRANCH   2  15
ATOM     15  O   UNL     1      40.245  21.798  35.678  1.00  0.00    -0.386 OA
ATOM     16  H   UNL     1      39.415  22.228  36.009  1.00  0.00     0.211 HD
ENDBRANCH   2  15
BRANCH   3  17
ATOM     17  O   UNL     1      41.753  20.846  33.629  1.00  0.00    -0.387 OA
ATOM     18  H   UNL     1      42.273  20.311  32.973  1.00  0.00     0.211 HD
ENDBRANCH   3  17
BRANCH   4  19
ATOM     19  C   UNL     1      41.704  18.112  32.960  1.00  0.00     0.191 C 
BRANCH  19  20
ATOM     20  O   UNL     1      42.958  18.185  33.582  1.00  0.00    -0.394 OA
ATOM     21  H   UNL     1      43.165  19.150  33.692  1.00  0.00     0.210 HD
ENDBRANCH  19  20
ENDBRANCH   4  19
TORSDOF 5
ENDMDL
MODEL 7
REMARK VINA RESULT:    -3.145      2.070      5.561
REMARK INTER + INTRA:          -4.402
REMARK INTER:                  -4.578
REMARK INTRA:                   0.176
REMARK UNBOUND:                -0.614
REMARK SMILES O=c1ccn([C@H]2O[C@H](CO)[C@H](O)[C@@H]2O)c(=O)[nH]1
REMARK SMILES IDX 6 1 13 2 11 3 8 4 7 5 5 6 3 7 4 8 2 9 17 10 1 11 15 12 16 14
REMARK SMILES IDX 14 15 12 17 9 19 10 20
REMARK H PARENT 17 13 14 16 12 18 10 21
REMARK Flexibility Score: inf
ROOT
ATOM      1  C   UNL     1      39.002  21.005  35.953  1.00  0.00     0.255 C 
ATOM      2  C   UNL     1      38.405  19.837  36.748  1.00  0.00     0.196 C 
ATOM      3  C   UNL     1      38.864  18.628  35.966  1.00  0.00     0.179 C 
ATOM      4  C   UNL     1      40.192  19.132  35.393  1.00  0.00     0.178 C 
ATOM      5  O   UNL     1      40.105  20.530  35.200  1.00  0.00    -0.347 OA
ENDROOT
BRANCH   1   6
ATOM      6  N   UNL     1      39.414  22.100  36.855  1.00  0.00    -0.271 N 
ATOM      7  C   UNL     1      39.425  24.434  37.412  1.00  0.00     0.090 A 
ATOM      8  C   UNL     1      39.022  23.385  36.591  1.00  0.00     0.099 A 
ATOM      9  C   UNL     1      40.248  24.153  38.497  1.00  0.00     0.253 A 
ATOM     10  N   UNL     1      40.646  22.876  38.730  1.00  0.00    -0.274 N 
ATOM     11  O   UNL     1      40.627  25.084  39.258  1.00  0.00    -0.269 OA
ATOM     12  C   UNL     1      40.248  21.856  37.920  1.00  0.00     0.330 A 
ATOM     13  H   UNL     1      41.274  22.674  39.541  1.00  0.00     0.175 HD
ATOM     14  O   UNL     1      40.658  20.686  38.160  1.00  0.00    -0.248 OA
ENDBRANCH   1   6
BRANCH   2  15
ATOM     15  O   UNL     1      37.006  19.910  36.904  1.00  0.00    -0.386 OA
ATOM     16  H   UNL     1      36.576  19.748  36.025  1.00  0.00     0.211 HD
ENDBRANCH   2  15
BRANCH   3  17
ATOM     17  O   UNL     1      37.942  18.255  34.965  1.00  0.00    -0.387 OA
ATOM     18  H   UNL     1      37.436  19.062  34.686  1.00  0.00     0.211 HD
ENDBRANCH   3  17
BRANCH   4  19
ATOM     19  C   UNL     1      40.612  18.435  34.090  1.00  0.00     0.191 C 
BRANCH  19  20
ATOM     20  O   UNL     1      39.982  19.037  32.991  1.00  0.00    -0.394 OA
ATOM     21  H   UNL     1      40.689  19.519  32.487  1.00  0.00     0.210 HD
ENDBRANCH  19  20
ENDBRANCH   4  19
TORSDOF 5
ENDMDL
MODEL 8
REMARK VINA RESULT:    -3.100      2.103      5.616
REMARK INTER + INTRA:          -4.348
REMARK INTER:                  -3.951
REMARK INTRA:                  -0.397
REMARK UNBOUND:                -0.614
REMARK SMILES O=c1ccn([C@H]2O[C@H](CO)[C@H](O)[C@@H]2O)c(=O)[nH]1
REMARK SMILES IDX 6 1 13 2 11 3 8 4 7 5 5 6 3 7 4 8 2 9 17 10 1 11 15 12 16 14
REMARK SMILES IDX 14 15 12 17 9 19 10 20
REMARK H PARENT 17 13 14 16 12 18 10 21
REMARK Flexibility Score: inf
ROOT
ATOM      1  C   UNL     1      39.605  20.509  36.386  1.00  0.00     0.255 C 
ATOM      2  C   UNL     1      39.749  20.615  34.863  1.00  0.00     0.196 C 
ATOM      3  C   UNL     1      38.775  19.574  34.361  1.00  0.00     0.179 C 
ATOM      4  C   UNL     1      37.717  19.599  35.468  1.00  0.00     0.178 C 
ATOM      5  O   UNL     1      38.342  19.942  36.689  1.00  0.00    -0.347 OA
ENDROOT
BRANCH   1   6
ATOM      6  N   UNL     1      39.750  21.836  37.021  1.00  0.00    -0.271 N 
ATOM      7  C   UNL     1      39.659  24.229  36.868  1.00  0.00     0.090 A 
ATOM      8  C   UNL     1      39.499  22.970  36.297  1.00  0.00     0.099 A 
ATOM      9  C   UNL     1      40.097  24.312  38.185  1.00  0.00     0.253 A 
ATOM     10  N   UNL     1      40.364  23.177  38.881  1.00  0.00    -0.274 N 
ATOM     11  O   UNL     1      40.250  25.439  38.728  1.00  0.00    -0.269 OA
ATOM     12  C   UNL     1      40.205  21.949  38.313  1.00  0.00     0.330 A 
ATOM     13  H   UNL     1      40.703  23.248  39.868  1.00  0.00     0.175 HD
ATOM     14  O   UNL     1      40.485  20.920  38.989  1.00  0.00    -0.248 OA
ENDBRANCH   1   6
BRANCH   2  15
ATOM     15  O   UNL     1      41.066  20.424  34.400  1.00  0.00    -0.386 OA
ATOM     16  H   UNL     1      41.053  20.360  33.410  1.00  0.00     0.211 HD
ENDBRANCH   2  15
BRANCH   3  17
ATOM     17  O   UNL     1      39.375  18.307  34.205  1.00  0.00    -0.387 OA
ATOM     18  H   UNL     1      39.970  18.336  33.410  1.00  0.00     0.211 HD
ENDBRANCH   3  17
BRANCH   4  19
ATOM     19  C   UNL     1      36.939  18.282  35.614  1.00  0.00     0.191 C 
BRANCH  19  20
ATOM     20  O   UNL     1      36.915  17.876  36.956  1.00  0.00    -0.394 OA
ATOM     21  H   UNL     1      36.013  17.498  37.123  1.00  0.00     0.210 HD
ENDBRANCH  19  20
ENDBRANCH   4  19
TORSDOF 5
ENDMDL
MODEL 9
REMARK VINA RESULT:    -3.035      2.918      5.154
REMARK INTER + INTRA:          -4.269
REMARK INTER:                  -3.635
REMARK INTRA:                  -0.635
REMARK UNBOUND:                -0.614
REMARK SMILES O=c1ccn([C@H]2O[C@H](CO)[C@H](O)[C@@H]2O)c(=O)[nH]1
REMARK SMILES IDX 6 1 13 2 11 3 8 4 7 5 5 6 3 7 4 8 2 9 17 10 1 11 15 12 16 14
REMARK SMILES IDX 14 15 12 17 9 19 10 20
REMARK H PARENT 17 13 14 16 12 18 10 21
REMARK Flexibility Score: inf
ROOT
ATOM      1  C   UNL     1      40.321  19.557  35.848  1.00  0.00     0.255 C 
ATOM      2  C   UNL     1      39.862  18.861  34.561  1.00  0.00     0.196 C 
ATOM      3  C   UNL     1      41.166  18.515  33.882  1.00  0.00     0.179 C 
ATOM      4  C   UNL     1      42.086  18.313  35.091  1.00  0.00     0.178 C 
ATOM      5  O   UNL     1      41.645  19.147  36.144  1.00  0.00    -0.347 OA
ENDROOT
BRANCH   1   6
ATOM      6  N   UNL     1      39.411  19.244  36.970  1.00  0.00    -0.271 N 
ATOM      7  C   UNL     1      38.840  17.877  38.857  1.00  0.00     0.090 A 
ATOM      8  C   UNL     1      39.701  18.206  37.813  1.00  0.00     0.099 A 
ATOM      9  C   UNL     1      37.672  18.612  39.015  1.00  0.00     0.253 A 
ATOM     10  N   UNL     1      37.389  19.624  38.154  1.00  0.00    -0.274 N 
ATOM     11  O   UNL     1      36.875  18.336  39.952  1.00  0.00    -0.269 OA
ATOM     12  C   UNL     1      38.236  19.938  37.135  1.00  0.00     0.330 A 
ATOM     13  H   UNL     1      36.502  20.166  38.273  1.00  0.00     0.175 HD
ATOM     14  O   UNL     1      37.925  20.873  36.344  1.00  0.00    -0.248 OA
ENDBRANCH   1   6
BRANCH   2  15
ATOM     15  O   UNL     1      39.002  19.643  33.765  1.00  0.00    -0.386 OA
ATOM     16  H   UNL     1      39.078  20.591  34.046  1.00  0.00     0.211 HD
ENDBRANCH   2  15
BRANCH   3  17
ATOM     17  O   UNL     1      41.612  19.539  33.021  1.00  0.00    -0.387 OA
ATOM     18  H   UNL     1      42.563  19.367  32.791  1.00  0.00     0.211 HD
ENDBRANCH   3  17
BRANCH   4  19
ATOM     19  C   UNL     1      43.571  18.566  34.792  1.00  0.00     0.191 C 
BRANCH  19  20
ATOM     20  O   UNL     1      43.936  17.952  33.585  1.00  0.00    -0.394 OA
ATOM     21  H   UNL     1      44.724  18.447  33.240  1.00  0.00     0.210 HD
ENDBRANCH  19  20
ENDBRANCH   4  19
TORSDOF 5
ENDMDL
