MODEL 1
REMARK VINA RESULT:    -3.745      0.000      0.000
REMARK INTER + INTRA:          -3.745
REMARK INTER:                  -3.745
REMARK INTRA:                   0.000
REMARK UNBOUND:                 0.000
REMARK SMILES CC1(C)C(=O)[C@]2(C)CC[C@H]1C2
REMARK SMILES IDX 1 1 2 2 10 3 9 4 8 5 6 6 11 7 4 8 5 9 7 10 3 11
REMARK H PARENT
REMARK Flexibility Score: inf
ROOT
ATOM      1  C   UNL     1     116.164 114.370 119.746  1.00  0.00     0.020 C 
ATOM      2  C   UNL     1     115.264 115.549 120.175  1.00  0.00     0.027 C 
ATOM      3  C   UNL     1     115.769 116.910 119.576  1.00  0.00     0.003 C 
ATOM      4  C   UNL     1     114.762 118.054 119.859  1.00  0.00     0.005 C 
ATOM      5  C   UNL     1     114.865 118.239 121.390  1.00  0.00     0.015 C 
ATOM      6  C   UNL     1     115.986 117.253 121.773  1.00  0.00     0.027 C 
ATOM      7  C   UNL     1     116.876 117.313 120.547  1.00  0.00     0.019 C 
ATOM      8  C   UNL     1     115.435 115.861 121.633  1.00  0.00     0.144 C 
ATOM      9  O   UNL     1     115.109 115.130 122.557  1.00  0.00    -0.298 OA
ATOM     10  C   UNL     1     116.696 117.548 123.095  1.00  0.00     0.020 C 
ATOM     11  C   UNL     1     113.795 115.212 119.837  1.00  0.00     0.020 C 
ENDROOT
TORSDOF 0
ENDMDL
MODEL 2
REMARK VINA RESULT:    -3.715      2.229      3.737
REMARK INTER + INTRA:          -3.715
REMARK INTER:                  -3.715
REMARK INTRA:                   0.000
REMARK UNBOUND:                 0.000
REMARK SMILES CC1(C)C(=O)[C@]2(C)CC[C@H]1C2
REMARK SMILES IDX 1 1 2 2 10 3 9 4 8 5 6 6 11 7 4 8 5 9 7 10 3 11
REMARK H PARENT
REMARK Flexibility Score: inf
ROOT
ATOM      1  C   UNL     1     117.066 118.867 119.733  1.00  0.00     0.020 C 
ATOM      2  C   UNL     1     117.945 117.664 120.138  1.00  0.00     0.027 C 
ATOM      3  C   UNL     1     117.430 116.328 119.493  1.00  0.00     0.003 C 
ATOM      4  C   UNL     1     118.418 115.163 119.755  1.00  0.00     0.005 C 
ATOM      5  C   UNL     1     118.294 114.934 121.278  1.00  0.00     0.015 C 
ATOM      6  C   UNL     1     117.182 115.924 121.676  1.00  0.00     0.027 C 
ATOM      7  C   UNL     1     116.306 115.911 120.440  1.00  0.00     0.019 C 
ATOM      8  C   UNL     1     117.752 117.312 121.585  1.00  0.00     0.144 C 
ATOM      9  O   UNL     1     118.077 118.011 122.533  1.00  0.00    -0.298 OA
ATOM     10  C   UNL     1     116.452 115.600 122.982  1.00  0.00     0.020 C 
ATOM     11  C   UNL     1     119.423 117.991 119.828  1.00  0.00     0.020 C 
ENDROOT
TORSDOF 0
ENDMDL
MODEL 3
REMARK VINA RESULT:    -3.715      1.697      2.644
REMARK INTER + INTRA:          -3.715
REMARK INTER:                  -3.715
REMARK INTRA:                   0.000
REMARK UNBOUND:                 0.000
REMARK SMILES CC1(C)C(=O)[C@]2(C)CC[C@H]1C2
REMARK SMILES IDX 1 1 2 2 10 3 9 4 8 5 6 6 11 7 4 8 5 9 7 10 3 11
REMARK H PARENT
REMARK Flexibility Score: inf
ROOT
ATOM      1  C   UNL     1     114.374 117.037 119.729  1.00  0.00     0.020 C 
ATOM      2  C   UNL     1     115.556 117.932 120.160  1.00  0.00     0.027 C 
ATOM      3  C   UNL     1     116.916 117.424 119.560  1.00  0.00     0.003 C 
ATOM      4  C   UNL     1     118.063 118.427 119.846  1.00  0.00     0.005 C 
ATOM      5  C   UNL     1     118.247 118.320 121.377  1.00  0.00     0.015 C 
ATOM      6  C   UNL     1     117.258 117.202 121.757  1.00  0.00     0.027 C 
ATOM      7  C   UNL     1     117.315 116.314 120.530  1.00  0.00     0.019 C 
ATOM      8  C   UNL     1     115.867 117.757 121.618  1.00  0.00     0.144 C 
ATOM      9  O   UNL     1     115.138 118.084 122.543  1.00  0.00    -0.298 OA
ATOM     10  C   UNL     1     117.550 116.488 123.078  1.00  0.00     0.020 C 
ATOM     11  C   UNL     1     115.224 119.403 119.825  1.00  0.00     0.020 C 
ENDROOT
TORSDOF 0
ENDMDL
MODEL 4
REMARK VINA RESULT:    -3.706      1.715      2.667
REMARK INTER + INTRA:          -3.706
REMARK INTER:                  -3.706
REMARK INTRA:                   0.000
REMARK UNBOUND:                 0.000
REMARK SMILES CC1(C)C(=O)[C@]2(C)CC[C@H]1C2
REMARK SMILES IDX 1 1 2 2 10 3 9 4 8 5 6 6 11 7 4 8 5 9 7 10 3 11
REMARK H PARENT
REMARK Flexibility Score: inf
ROOT
ATOM      1  C   UNL     1     118.876 116.238 119.754  1.00  0.00     0.020 C 
ATOM      2  C   UNL     1     117.699 115.312 120.131  1.00  0.00     0.027 C 
ATOM      3  C   UNL     1     116.349 115.807 119.500  1.00  0.00     0.003 C 
ATOM      4  C   UNL     1     115.213 114.778 119.730  1.00  0.00     0.005 C 
ATOM      5  C   UNL     1     114.981 114.849 121.257  1.00  0.00     0.015 C 
ATOM      6  C   UNL     1     115.937 115.978 121.689  1.00  0.00     0.027 C 
ATOM      7  C   UNL     1     115.899 116.890 120.480  1.00  0.00     0.019 C 
ATOM      8  C   UNL     1     117.341 115.452 121.582  1.00  0.00     0.144 C 
ATOM      9  O   UNL     1     118.049 115.119 122.521  1.00  0.00    -0.298 OA
ATOM     10  C   UNL     1     115.591 116.658 123.016  1.00  0.00     0.020 C 
ATOM     11  C   UNL     1     118.069 113.855 119.776  1.00  0.00     0.020 C 
ENDROOT
TORSDOF 0
ENDMDL
MODEL 5
REMARK VINA RESULT:    -3.610      1.855      3.325
REMARK INTER + INTRA:          -3.610
REMARK INTER:                  -3.610
REMARK INTRA:                   0.000
REMARK UNBOUND:                 0.000
REMARK SMILES CC1(C)C(=O)[C@]2(C)CC[C@H]1C2
REMARK SMILES IDX 1 1 2 2 10 3 9 4 8 5 6 6 11 7 4 8 5 9 7 10 3 11
REMARK H PARENT
REMARK Flexibility Score: inf
ROOT
ATOM      1  C   UNL     1     114.765 118.163 120.922  1.00  0.00     0.020 C 
ATOM      2  C   UNL     1     114.989 117.100 119.825  1.00  0.00     0.027 C 
ATOM      3  C   UNL     1     114.337 115.724 120.211  1.00  0.00     0.003 C 
ATOM      4  C   UNL     1     114.407 114.720 119.031  1.00  0.00     0.005 C 
ATOM      5  C   UNL     1     115.919 114.419 118.918  1.00  0.00     0.015 C 
ATOM      6  C   UNL     1     116.507 115.204 120.106  1.00  0.00     0.027 C 
ATOM      7  C   UNL     1     115.390 115.099 121.125  1.00  0.00     0.019 C 
ATOM      8  C   UNL     1     116.425 116.668 119.771  1.00  0.00     0.144 C 
ATOM      9  O   UNL     1     117.365 117.373 119.434  1.00  0.00    -0.298 OA
ATOM     10  C   UNL     1     117.872 114.721 120.600  1.00  0.00     0.020 C 
ATOM     11  C   UNL     1     114.517 117.667 118.468  1.00  0.00     0.020 C 
ENDROOT
TORSDOF 0
ENDMDL
MODEL 6
REMARK VINA RESULT:    -3.588      2.223      3.282
REMARK INTER + INTRA:          -3.588
REMARK INTER:                  -3.588
REMARK INTRA:                   0.000
REMARK UNBOUND:                 0.000
REMARK SMILES CC1(C)C(=O)[C@]2(C)CC[C@H]1C2
REMARK SMILES IDX 1 1 2 2 10 3 9 4 8 5 6 6 11 7 4 8 5 9 7 10 3 11
REMARK H PARENT
REMARK Flexibility Score: inf
ROOT
ATOM      1  C   UNL     1     115.025 114.799 120.863  1.00  0.00     0.020 C 
ATOM      2  C   UNL     1     116.090 115.004 119.764  1.00  0.00     0.027 C 
ATOM      3  C   UNL     1     117.460 114.340 120.153  1.00  0.00     0.003 C 
ATOM      4  C   UNL     1     118.463 114.392 118.973  1.00  0.00     0.005 C 
ATOM      5  C   UNL     1     118.780 115.900 118.851  1.00  0.00     0.015 C 
ATOM      6  C   UNL     1     118.002 116.505 120.035  1.00  0.00     0.027 C 
ATOM      7  C   UNL     1     118.095 115.392 121.061  1.00  0.00     0.019 C 
ATOM      8  C   UNL     1     116.538 116.436 119.701  1.00  0.00     0.144 C 
ATOM      9  O   UNL     1     115.842 117.381 119.359  1.00  0.00    -0.298 OA
ATOM     10  C   UNL     1     118.500 117.867 120.521  1.00  0.00     0.020 C 
ATOM     11  C   UNL     1     115.517 114.530 118.410  1.00  0.00     0.020 C 
ENDROOT
TORSDOF 0
ENDMDL
MODEL 7
REMARK VINA RESULT:    -3.584      1.721      3.159
REMARK INTER + INTRA:          -3.584
REMARK INTER:                  -3.584
REMARK INTRA:                   0.000
REMARK UNBOUND:                 0.000
REMARK SMILES CC1(C)C(=O)[C@]2(C)CC[C@H]1C2
REMARK SMILES IDX 1 1 2 2 10 3 9 4 8 5 6 6 11 7 4 8 5 9 7 10 3 11
REMARK H PARENT
REMARK Flexibility Score: inf
ROOT
ATOM      1  C   UNL     1     118.172 118.350 120.920  1.00  0.00     0.020 C 
ATOM      2  C   UNL     1     117.076 118.050 119.875  1.00  0.00     0.027 C 
ATOM      3  C   UNL     1     115.698 118.684 120.284  1.00  0.00     0.003 C 
ATOM      4  C   UNL     1     114.654 118.535 119.148  1.00  0.00     0.005 C 
ATOM      5  C   UNL     1     114.390 117.012 119.114  1.00  0.00     0.015 C 
ATOM      6  C   UNL     1     115.234 116.498 120.295  1.00  0.00     0.027 C 
ATOM      7  C   UNL     1     115.137 117.657 121.267  1.00  0.00     0.019 C 
ATOM      8  C   UNL     1     116.681 116.602 119.901  1.00  0.00     0.144 C 
ATOM      9  O   UNL     1     117.399 115.667 119.579  1.00  0.00    -0.298 OA
ATOM     10  C   UNL     1     114.807 115.145 120.867  1.00  0.00     0.020 C 
ATOM     11  C   UNL     1     117.580 118.475 118.478  1.00  0.00     0.020 C 
ENDROOT
TORSDOF 0
ENDMDL
MODEL 8
REMARK VINA RESULT:    -3.562      2.116      3.120
REMARK INTER + INTRA:          -3.562
REMARK INTER:                  -3.562
REMARK INTRA:                   0.000
REMARK UNBOUND:                 0.000
REMARK SMILES CC1(C)C(=O)[C@]2(C)CC[C@H]1C2
REMARK SMILES IDX 1 1 2 2 10 3 9 4 8 5 6 6 11 7 4 8 5 9 7 10 3 11
REMARK H PARENT
REMARK Flexibility Score: inf
ROOT
ATOM      1  C   UNL     1     118.383 115.056 120.866  1.00  0.00     0.020 C 
ATOM      2  C   UNL     1     118.113 116.124 119.784  1.00  0.00     0.027 C 
ATOM      3  C   UNL     1     118.778 117.499 120.150  1.00  0.00     0.003 C 
ATOM      4  C   UNL     1     118.658 118.508 118.980  1.00  0.00     0.005 C 
ATOM      5  C   UNL     1     117.142 118.808 118.930  1.00  0.00     0.015 C 
ATOM      6  C   UNL     1     116.604 118.015 120.137  1.00  0.00     0.027 C 
ATOM      7  C   UNL     1     117.762 118.117 121.110  1.00  0.00     0.019 C 
ATOM      8  C   UNL     1     116.675 116.554 119.791  1.00  0.00     0.144 C 
ATOM      9  O   UNL     1     115.723 115.848 119.490  1.00  0.00    -0.298 OA
ATOM     10  C   UNL     1     115.260 118.494 120.690  1.00  0.00     0.020 C 
ATOM     11  C   UNL     1     118.529 115.564 118.406  1.00  0.00     0.020 C 
ENDROOT
TORSDOF 0
ENDMDL
MODEL 9
REMARK VINA RESULT:    -3.541      2.072      3.202
REMARK INTER + INTRA:          -3.541
REMARK INTER:                  -3.541
REMARK INTRA:                   0.000
REMARK UNBOUND:                 0.000
REMARK SMILES CC1(C)C(=O)[C@]2(C)CC[C@H]1C2
REMARK SMILES IDX 1 1 2 2 10 3 9 4 8 5 6 6 11 7 4 8 5 9 7 10 3 11
REMARK H PARENT
REMARK Flexibility Score: inf
ROOT
ATOM      1  C   UNL     1     113.674 115.881 119.715  1.00  0.00     0.020 C 
ATOM      2  C   UNL     1     115.062 116.546 119.582  1.00  0.00     0.027 C 
ATOM      3  C   UNL     1     115.581 117.082 120.964  1.00  0.00     0.003 C 
ATOM      4  C   UNL     1     117.045 117.581 120.857  1.00  0.00     0.005 C 
ATOM      5  C   UNL     1     116.921 118.840 119.970  1.00  0.00     0.015 C 
ATOM      6  C   UNL     1     115.398 118.960 119.768  1.00  0.00     0.027 C 
ATOM      7  C   UNL     1     114.873 118.430 121.087  1.00  0.00     0.019 C 
ATOM      8  C   UNL     1     114.972 117.851 118.847  1.00  0.00     0.144 C 
ATOM      9  O   UNL     1     114.673 117.981 117.669  1.00  0.00    -0.298 OA
ATOM     10  C   UNL     1     114.894 120.355 119.391  1.00  0.00     0.020 C 
ATOM     11  C   UNL     1     116.025 115.565 118.879  1.00  0.00     0.020 C 
ENDROOT
TORSDOF 0
ENDMDL
