MODEL 1
REMARK VINA RESULT:    -3.906      0.000      0.000
REMARK INTER + INTRA:          -5.335
REMARK INTER:                  -5.048
REMARK INTRA:                  -0.287
REMARK UNBOUND:                -0.287
REMARK SMILES C=CC(=O)CCCCC
REMARK SMILES IDX 6 1 7 2 8 3 9 4 5 5 3 6 4 7 2 8 1 9
REMARK H PARENT
REMARK Flexibility Score: inf
ROOT
ATOM      1  C   UNL     1     -26.064 -55.049  26.248  1.00  0.00     0.008 C 
ENDROOT
BRANCH   1   2
ATOM      2  C   UNL     1     -24.542 -54.875  26.118  1.00  0.00     0.000 C 
BRANCH   2   3
ATOM      3  C   UNL     1     -23.997 -55.417  24.789  1.00  0.00    -0.003 C 
ATOM      4  C   UNL     1     -22.830 -56.373  25.023  1.00  0.00     0.004 C 
ENDBRANCH   2   3
ENDBRANCH   1   2
BRANCH   1   5
ATOM      5  C   UNL     1     -26.775 -55.055  24.889  1.00  0.00     0.080 C 
BRANCH   5   6
ATOM      6  C   UNL     1     -27.333 -53.696  24.583  1.00  0.00     0.155 C 
ATOM      7  O   UNL     1     -27.280 -53.257  23.402  1.00  0.00    -0.295 OA
BRANCH   6   8
ATOM      8  C   UNL     1     -27.978 -52.905  25.650  1.00  0.00     0.039 C 
ATOM      9  C   UNL     1     -29.204 -53.172  26.096  1.00  0.00     0.012 C 
ENDBRANCH   6   8
ENDBRANCH   5   6
ENDBRANCH   1   5
TORSDOF 5
ENDMDL
MODEL 2
REMARK VINA RESULT:    -3.812      1.575      4.696
REMARK INTER + INTRA:          -5.214
REMARK INTER:                  -4.921
REMARK INTRA:                  -0.293
REMARK UNBOUND:                -0.287
REMARK SMILES C=CC(=O)CCCCC
REMARK SMILES IDX 6 1 7 2 8 3 9 4 5 5 3 6 4 7 2 8 1 9
REMARK H PARENT
REMARK Flexibility Score: inf
ROOT
ATOM      1  C   UNL     1     -26.936 -53.849  24.104  1.00  0.00     0.008 C 
ENDROOT
BRANCH   1   2
ATOM      2  C   UNL     1     -27.729 -52.842  24.952  1.00  0.00     0.000 C 
BRANCH   2   3
ATOM      3  C   UNL     1     -28.875 -53.500  25.733  1.00  0.00    -0.003 C 
ATOM      4  C   UNL     1     -29.159 -52.746  27.030  1.00  0.00     0.004 C 
ENDBRANCH   2   3
ENDBRANCH   1   2
BRANCH   1   5
ATOM      5  C   UNL     1     -26.642 -55.152  24.858  1.00  0.00     0.080 C 
BRANCH   5   6
ATOM      6  C   UNL     1     -25.371 -55.026  25.646  1.00  0.00     0.155 C 
ATOM      7  O   UNL     1     -25.429 -54.940  26.902  1.00  0.00    -0.295 OA
BRANCH   6   8
ATOM      8  C   UNL     1     -24.067 -55.049  24.954  1.00  0.00     0.039 C 
ATOM      9  C   UNL     1     -23.379 -56.173  24.764  1.00  0.00     0.012 C 
ENDBRANCH   6   8
ENDBRANCH   5   6
ENDBRANCH   1   5
TORSDOF 5
ENDMDL
MODEL 3
REMARK VINA RESULT:    -3.795      3.874      5.566
REMARK INTER + INTRA:          -5.191
REMARK INTER:                  -4.861
REMARK INTRA:                  -0.330
REMARK UNBOUND:                -0.287
REMARK SMILES C=CC(=O)CCCCC
REMARK SMILES IDX 6 1 7 2 8 3 9 4 5 5 3 6 4 7 2 8 1 9
REMARK H PARENT
REMARK Flexibility Score: inf
ROOT
ATOM      1  C   UNL     1     -20.593 -53.727  23.540  1.00  0.00     0.008 C 
ENDROOT
BRANCH   1   2
ATOM      2  C   UNL     1     -20.049 -52.463  22.857  1.00  0.00     0.000 C 
BRANCH   2   3
ATOM      3  C   UNL     1     -19.732 -51.341  23.857  1.00  0.00    -0.003 C 
ATOM      4  C   UNL     1     -20.085 -51.759  25.282  1.00  0.00     0.004 C 
ENDBRANCH   2   3
ENDBRANCH   1   2
BRANCH   1   5
ATOM      5  C   UNL     1     -21.957 -54.158  22.985  1.00  0.00     0.080 C 
BRANCH   5   6
ATOM      6  C   UNL     1     -23.022 -53.997  24.030  1.00  0.00     0.155 C 
ATOM      7  O   UNL     1     -23.444 -52.842  24.309  1.00  0.00    -0.295 OA
BRANCH   6   8
ATOM      8  C   UNL     1     -23.599 -55.187  24.686  1.00  0.00     0.039 C 
ATOM      9  C   UNL     1     -22.961 -56.355  24.736  1.00  0.00     0.012 C 
ENDBRANCH   6   8
ENDBRANCH   5   6
ENDBRANCH   1   5
TORSDOF 5
ENDMDL
MODEL 4
REMARK VINA RESULT:    -3.785      4.582      5.807
REMARK INTER + INTRA:          -5.179
REMARK INTER:                  -4.851
REMARK INTRA:                  -0.328
REMARK UNBOUND:                -0.287
REMARK SMILES C=CC(=O)CCCCC
REMARK SMILES IDX 6 1 7 2 8 3 9 4 5 5 3 6 4 7 2 8 1 9
REMARK H PARENT
REMARK Flexibility Score: inf
ROOT
ATOM      1  C   UNL     1     -20.357 -53.539  23.510  1.00  0.00     0.008 C 
ENDROOT
BRANCH   1   2
ATOM      2  C   UNL     1     -19.972 -52.075  23.246  1.00  0.00     0.000 C 
BRANCH   2   3
ATOM      3  C   UNL     1     -19.892 -51.243  24.534  1.00  0.00    -0.003 C 
ATOM      4  C   UNL     1     -18.507 -50.624  24.703  1.00  0.00     0.004 C 
ENDBRANCH   2   3
ENDBRANCH   1   2
BRANCH   1   5
ATOM      5  C   UNL     1     -21.560 -53.993  22.674  1.00  0.00     0.080 C 
BRANCH   5   6
ATOM      6  C   UNL     1     -22.694 -54.404  23.566  1.00  0.00     0.155 C 
ATOM      7  O   UNL     1     -22.709 -55.569  24.048  1.00  0.00    -0.295 OA
BRANCH   6   8
ATOM      8  C   UNL     1     -23.753 -53.434  23.910  1.00  0.00     0.039 C 
ATOM      9  C   UNL     1     -23.571 -52.466  24.806  1.00  0.00     0.012 C 
ENDBRANCH   6   8
ENDBRANCH   5   6
ENDBRANCH   1   5
TORSDOF 5
ENDMDL
MODEL 5
REMARK VINA RESULT:    -3.767      6.354      7.694
REMARK INTER + INTRA:          -5.155
REMARK INTER:                  -4.978
REMARK INTRA:                  -0.177
REMARK UNBOUND:                -0.287
REMARK SMILES C=CC(=O)CCCCC
REMARK SMILES IDX 6 1 7 2 8 3 9 4 5 5 3 6 4 7 2 8 1 9
REMARK H PARENT
REMARK Flexibility Score: inf
ROOT
ATOM      1  C   UNL     1     -20.186 -51.780  23.527  1.00  0.00     0.008 C 
ENDROOT
BRANCH   1   2
ATOM      2  C   UNL     1     -20.201 -53.317  23.523  1.00  0.00     0.000 C 
BRANCH   2   3
ATOM      3  C   UNL     1     -21.297 -53.895  22.616  1.00  0.00    -0.003 C 
ATOM      4  C   UNL     1     -22.455 -54.451  23.441  1.00  0.00     0.004 C 
ENDBRANCH   2   3
ENDBRANCH   1   2
BRANCH   1   5
ATOM      5  C   UNL     1     -20.346 -51.192  24.935  1.00  0.00     0.080 C 
BRANCH   5   6
ATOM      6  C   UNL     1     -19.101 -50.458  25.341  1.00  0.00     0.155 C 
ATOM      7  O   UNL     1     -18.068 -50.550  24.624  1.00  0.00    -0.295 OA
BRANCH   6   8
ATOM      8  C   UNL     1     -19.107 -49.602  26.544  1.00  0.00     0.039 C 
ATOM      9  C   UNL     1     -19.740 -48.431  26.584  1.00  0.00     0.012 C 
ENDBRANCH   6   8
ENDBRANCH   5   6
ENDBRANCH   1   5
TORSDOF 5
ENDMDL
MODEL 6
REMARK VINA RESULT:    -3.752      1.569      3.604
REMARK INTER + INTRA:          -5.135
REMARK INTER:                  -4.555
REMARK INTRA:                  -0.580
REMARK UNBOUND:                -0.287
REMARK SMILES C=CC(=O)CCCCC
REMARK SMILES IDX 6 1 7 2 8 3 9 4 5 5 3 6 4 7 2 8 1 9
REMARK H PARENT
REMARK Flexibility Score: inf
ROOT
ATOM      1  C   UNL     1     -28.158 -51.992  26.372  1.00  0.00     0.008 C 
ENDROOT
BRANCH   1   2
ATOM      2  C   UNL     1     -26.945 -52.220  27.287  1.00  0.00     0.000 C 
BRANCH   2   3
ATOM      3  C   UNL     1     -27.266 -53.134  28.479  1.00  0.00    -0.003 C 
ATOM      4  C   UNL     1     -26.283 -54.300  28.557  1.00  0.00     0.004 C 
ENDBRANCH   2   3
ENDBRANCH   1   2
BRANCH   1   5
ATOM      5  C   UNL     1     -28.653 -53.287  25.715  1.00  0.00     0.080 C 
BRANCH   5   6
ATOM      6  C   UNL     1     -27.742 -53.685  24.591  1.00  0.00     0.155 C 
ATOM      7  O   UNL     1     -27.541 -52.879  23.643  1.00  0.00    -0.295 OA
BRANCH   6   8
ATOM      8  C   UNL     1     -27.055 -54.992  24.624  1.00  0.00     0.039 C 
ATOM      9  C   UNL     1     -25.781 -55.120  24.991  1.00  0.00     0.012 C 
ENDBRANCH   6   8
ENDBRANCH   5   6
ENDBRANCH   1   5
TORSDOF 5
ENDMDL
MODEL 7
REMARK VINA RESULT:    -3.711      9.345     10.929
REMARK INTER + INTRA:          -5.083
REMARK INTER:                  -4.808
REMARK INTRA:                  -0.274
REMARK UNBOUND:                -0.287
REMARK SMILES C=CC(=O)CCCCC
REMARK SMILES IDX 6 1 7 2 8 3 9 4 5 5 3 6 4 7 2 8 1 9
REMARK H PARENT
REMARK Flexibility Score: inf
ROOT
ATOM      1  C   UNL     1     -18.563 -49.768  29.376  1.00  0.00     0.008 C 
ENDROOT
BRANCH   1   2
ATOM      2  C   UNL     1     -18.859 -50.180  27.925  1.00  0.00     0.000 C 
BRANCH   2   3
ATOM      3  C   UNL     1     -19.953 -49.318  27.278  1.00  0.00    -0.003 C 
ATOM      4  C   UNL     1     -19.344 -48.175  26.468  1.00  0.00     0.004 C 
ENDBRANCH   2   3
ENDBRANCH   1   2
BRANCH   1   5
ATOM      5  C   UNL     1     -17.061 -49.741  29.687  1.00  0.00     0.080 C 
BRANCH   5   6
ATOM      6  C   UNL     1     -16.585 -51.105  30.093  1.00  0.00     0.155 C 
ATOM      7  O   UNL     1     -15.790 -51.731  29.340  1.00  0.00    -0.295 OA
BRANCH   6   8
ATOM      8  C   UNL     1     -17.010 -51.682  31.383  1.00  0.00     0.039 C 
ATOM      9  C   UNL     1     -17.764 -52.777  31.462  1.00  0.00     0.012 C 
ENDBRANCH   6   8
ENDBRANCH   5   6
ENDBRANCH   1   5
TORSDOF 5
ENDMDL
MODEL 8
REMARK VINA RESULT:    -3.703      5.169      6.628
REMARK INTER + INTRA:          -5.072
REMARK INTER:                  -4.563
REMARK INTRA:                  -0.510
REMARK UNBOUND:                -0.287
REMARK SMILES C=CC(=O)CCCCC
REMARK SMILES IDX 6 1 7 2 8 3 9 4 5 5 3 6 4 7 2 8 1 9
REMARK H PARENT
REMARK Flexibility Score: inf
ROOT
ATOM      1  C   UNL     1     -20.302 -53.511  23.456  1.00  0.00     0.008 C 
ENDROOT
BRANCH   1   2
ATOM      2  C   UNL     1     -21.585 -53.980  22.752  1.00  0.00     0.000 C 
BRANCH   2   3
ATOM      3  C   UNL     1     -22.627 -54.538  23.733  1.00  0.00    -0.003 C 
ATOM      4  C   UNL     1     -23.784 -53.560  23.920  1.00  0.00     0.004 C 
ENDBRANCH   2   3
ENDBRANCH   1   2
BRANCH   1   5
ATOM      5  C   UNL     1     -19.908 -52.079  23.072  1.00  0.00     0.080 C 
BRANCH   5   6
ATOM      6  C   UNL     1     -19.785 -51.223  24.298  1.00  0.00     0.155 C 
ATOM      7  O   UNL     1     -18.714 -50.591  24.506  1.00  0.00    -0.295 OA
BRANCH   6   8
ATOM      8  C   UNL     1     -20.927 -51.090  25.225  1.00  0.00     0.039 C 
ATOM      9  C   UNL     1     -22.053 -50.464  24.887  1.00  0.00     0.012 C 
ENDBRANCH   6   8
ENDBRANCH   5   6
ENDBRANCH   1   5
TORSDOF 5
ENDMDL
MODEL 9
REMARK VINA RESULT:    -3.619      3.071      4.615
REMARK INTER + INTRA:          -4.964
REMARK INTER:                  -4.506
REMARK INTRA:                  -0.459
REMARK UNBOUND:                -0.287
REMARK SMILES C=CC(=O)CCCCC
REMARK SMILES IDX 6 1 7 2 8 3 9 4 5 5 3 6 4 7 2 8 1 9
REMARK H PARENT
REMARK Flexibility Score: inf
ROOT
ATOM      1  C   UNL     1     -22.831 -52.363  24.621  1.00  0.00     0.008 C 
ENDROOT
BRANCH   1   2
ATOM      2  C   UNL     1     -21.367 -52.748  24.887  1.00  0.00     0.000 C 
BRANCH   2   3
ATOM      3  C   UNL     1     -20.686 -53.367  23.658  1.00  0.00    -0.003 C 
ATOM      4  C   UNL     1     -19.896 -52.317  22.881  1.00  0.00     0.004 C 
ENDBRANCH   2   3
ENDBRANCH   1   2
BRANCH   1   5
ATOM      5  C   UNL     1     -23.622 -53.488  23.941  1.00  0.00     0.080 C 
BRANCH   5   6
ATOM      6  C   UNL     1     -24.303 -54.345  24.967  1.00  0.00     0.155 C 
ATOM      7  O   UNL     1     -25.379 -53.946  25.490  1.00  0.00    -0.295 OA
BRANCH   6   8
ATOM      8  C   UNL     1     -23.738 -55.661  25.324  1.00  0.00     0.039 C 
ATOM      9  C   UNL     1     -22.913 -56.327  24.517  1.00  0.00     0.012 C 
ENDBRANCH   6   8
ENDBRANCH   5   6
ENDBRANCH   1   5
TORSDOF 5
ENDMDL
