MODEL 1
REMARK VINA RESULT:    -4.578      0.000      0.000
REMARK INTER + INTRA:         -10.870
REMARK INTER:                  -9.664
REMARK INTRA:                  -1.207
REMARK UNBOUND:                -1.207
REMARK SMILES CCC(=O)CCCCC[C@H]1NC(=O)[C@H]2CCCCN2C(=O)[C@@H]([C@@H](C)CC)NC(=O)[C@H](Cc2cn(OC)c3ccccc23)NC1=O
REMARK SMILES IDX 9 1 10 2 44 3 43 4 45 6 30 7 28 8 27 9 29 11 22 12 23 14
REMARK SMILES IDX 24 15 25 16 26 17 31 18 32 19 33 20 42 21 34 22 37 23 41 24
REMARK SMILES IDX 38 25 40 26 39 27 35 28 36 29 11 30 12 31 13 33 14 34 19 35
REMARK SMILES IDX 15 36 18 37 16 38 17 39 20 40 21 41 8 43 7 44 6 45 5 46 3 47
REMARK SMILES IDX 4 48 2 49 1 50
REMARK H PARENT 43 5 27 10 11 32
REMARK Flexibility Score: 80.00
ROOT
ATOM      1  C   UNL     1      66.155  29.712  60.271  1.00  0.00     0.035 C 
ENDROOT
BRANCH   1   2
ATOM      2  C   UNL     1      65.069  29.499  61.346  1.00  0.00     0.171 C 
BRANCH   2   3
ATOM      3  C   UNL     1      64.228  28.282  61.052  1.00  0.00     0.243 C 
ATOM      4  N   UNL     1      62.882  28.422  60.598  1.00  0.00    -0.342 N 
ATOM      5  H   UNL     1      62.284  29.120  61.082  1.00  0.00     0.164 HD
ATOM      6  O   UNL     1      64.746  27.131  61.072  1.00  0.00    -0.273 OA
BRANCH   4   7
ATOM      7  C   UNL     1      62.515  28.048  59.229  1.00  0.00     0.175 C 
BRANCH   7   8
ATOM      8  C   UNL     1      62.316  29.304  58.420  1.00  0.00     0.243 C 
ATOM      9  N   UNL     1      61.102  30.057  58.504  1.00  0.00    -0.342 N 
ATOM     10  H   UNL     1      60.281  29.616  58.047  1.00  0.00     0.164 HD
ATOM     11  O   UNL     1      63.254  29.704  57.671  1.00  0.00    -0.273 OA
BRANCH   9  12
ATOM     12  C   UNL     1      61.055  31.533  58.623  1.00  0.00     0.174 CG0
ATOM     13  G   UNL     1      61.531  31.969  60.028  1.00  0.00     0.000 G0
BRANCH  12  14
ATOM     14  C   UNL     1      61.683  32.214  57.349  1.00  0.00     0.018 C 
ATOM     15  C   UNL     1      60.988  31.663  56.071  1.00  0.00     0.010 C 
BRANCH  14  16
ATOM     16  C   UNL     1      61.588  33.767  57.288  1.00  0.00     0.002 C 
ATOM     17  C   UNL     1      62.729  34.477  56.538  1.00  0.00     0.004 C 
ENDBRANCH  14  16
ENDBRANCH  12  14
ENDBRANCH   9  12
ENDBRANCH   7   8
BRANCH   7  18
ATOM     18  C   UNL     1      61.303  27.124  59.240  1.00  0.00     0.073 C 
BRANCH  18  19
ATOM     19  C   UNL     1      60.411  27.197  60.461  1.00  0.00    -0.016 A 
ATOM     20  C   UNL     1      60.641  26.421  61.592  1.00  0.00     0.134 A 
ATOM     21  C   UNL     1      59.065  27.554  60.532  1.00  0.00     0.006 A 
ATOM     22  N   UNL     1      59.520  26.261  62.331  1.00  0.00    -0.191 N 
ATOM     23  C   UNL     1      58.556  26.984  61.685  1.00  0.00     0.087 A 
ATOM     24  C   UNL     1      58.233  28.234  59.628  1.00  0.00     0.011 A 
ATOM     25  C   UNL     1      57.217  27.160  62.041  1.00  0.00     0.030 A 
ATOM     26  C   UNL     1      56.888  28.418  59.978  1.00  0.00     0.001 A 
ATOM     27  C   UNL     1      56.382  27.883  61.174  1.00  0.00     0.002 A 
BRANCH  22  28
ATOM     28  O   UNL     1      59.359  25.111  63.073  1.00  0.00    -0.417 OA
ATOM     29  C   UNL     1      59.258  23.799  62.536  1.00  0.00     0.313 C 
ENDBRANCH  22  28
ENDBRANCH  18  19
ENDBRANCH   7  18
ENDBRANCH   4   7
ENDBRANCH   2   3
BRANCH   2  30
ATOM     30  N   UNL     1      64.226  30.705  61.496  1.00  0.00    -0.343 N 
ATOM     31  C   UNL     1      64.305  31.874  60.646  1.00  0.00     0.243 C 
ATOM     32  H   UNL     1      63.674  30.788  62.377  1.00  0.00     0.164 HD
ATOM     33  O   UNL     1      65.059  31.880  59.643  1.00  0.00    -0.273 OA
BRANCH  31  34
ATOM     34  C   UNL     1      63.563  33.121  60.995  1.00  0.00     0.174 C 
ATOM     35  N   UNL     1      62.226  33.214  60.355  1.00  0.00    -0.329 N 
ATOM     36  C   UNL     1      64.392  34.353  60.587  1.00  0.00     0.035 C 
ATOM     37  C   UNL     1      61.460  34.384  60.820  1.00  0.00     0.120 C 
ATOM     38  C   UNL     1      63.672  35.635  61.020  1.00  0.00     0.004 C 
ATOM     39  C   UNL     1      62.223  35.679  60.492  1.00  0.00     0.022 C 
BRANCH  35  40
ATOM     40  C   UNL     1      61.501  31.994  60.055  1.00  0.00     0.246 CG0
ATOM     41  O   UNL     1      61.120  31.300  61.033  1.00  0.00    -0.272 OA
ATOM     42  G   UNL     1      61.065  31.527  58.646  1.00  0.00     0.000 G0
ENDBRANCH  35  40
ENDBRANCH  31  34
ENDBRANCH   2  30
ENDBRANCH   1   2
BRANCH   1  43
ATOM     43  C   UNL     1      67.536  29.183  60.714  1.00  0.00     0.003 C 
BRANCH  43  44
ATOM     44  C   UNL     1      68.391  28.701  59.527  1.00  0.00     0.001 C 
BRANCH  44  45
ATOM     45  C   UNL     1      69.915  28.720  59.771  1.00  0.00     0.008 C 
BRANCH  45  46
ATOM     46  C   UNL     1      70.393  29.686  60.874  1.00  0.00     0.075 C 
BRANCH  46  47
ATOM     47  C   UNL     1      71.856  30.070  60.779  1.00  0.00     0.132 C 
ATOM     48  O   UNL     1      72.692  29.203  60.551  1.00  0.00    -0.300 OA
BRANCH  47  49
ATOM     49  C   UNL     1      72.348  31.483  61.019  1.00  0.00     0.072 C 
ATOM     50  C   UNL     1      71.479  32.575  60.401  1.00  0.00     0.012 C 
ENDBRANCH  47  49
ENDBRANCH  46  47
ENDBRANCH  45  46
ENDBRANCH  44  45
ENDBRANCH  43  44
ENDBRANCH   1  43
TORSDOF 12
ENDMDL
MODEL 2
REMARK VINA RESULT:    -4.407      8.771     13.425
REMARK INTER + INTRA:         -10.508
REMARK INTER:                  -7.991
REMARK INTRA:                  -2.517
REMARK UNBOUND:                -1.207
REMARK SMILES CCC(=O)CCCCC[C@H]1NC(=O)[C@H]2CCCCN2C(=O)[C@@H]([C@@H](C)CC)NC(=O)[C@H](Cc2cn(OC)c3ccccc23)NC1=O
REMARK SMILES IDX 9 1 10 2 44 3 43 4 45 6 30 7 28 8 27 9 29 11 22 12 23 14
REMARK SMILES IDX 24 15 25 16 26 17 31 18 32 19 33 20 42 21 34 22 37 23 41 24
REMARK SMILES IDX 38 25 40 26 39 27 35 28 36 29 11 30 12 31 13 33 14 34 19 35
REMARK SMILES IDX 15 36 18 37 16 38 17 39 20 40 21 41 8 43 7 44 6 45 5 46 3 47
REMARK SMILES IDX 4 48 2 49 1 50
REMARK H PARENT 43 5 27 10 11 32
REMARK Flexibility Score: 80.00
ROOT
ATOM      1  C   UNL     1      59.574  26.795  49.651  1.00  0.00     0.035 C 
ENDROOT
BRANCH   1   2
ATOM      2  C   UNL     1      60.783  27.702  49.959  1.00  0.00     0.171 C 
BRANCH   2   3
ATOM      3  C   UNL     1      62.059  27.142  49.380  1.00  0.00     0.243 C 
ATOM      4  N   UNL     1      62.686  27.770  48.262  1.00  0.00    -0.342 N 
ATOM      5  H   UNL     1      62.076  28.066  47.476  1.00  0.00     0.164 HD
ATOM      6  O   UNL     1      62.659  26.195  49.961  1.00  0.00    -0.273 OA
BRANCH   4   7
ATOM      7  C   UNL     1      63.972  28.456  48.418  1.00  0.00     0.175 C 
BRANCH   7   8
ATOM      8  C   UNL     1      63.755  29.723  49.203  1.00  0.00     0.243 C 
ATOM      9  N   UNL     1      63.368  29.688  50.580  1.00  0.00    -0.342 N 
ATOM     10  H   UNL     1      62.387  29.396  50.752  1.00  0.00     0.164 HD
ATOM     11  O   UNL     1      63.941  30.837  48.631  1.00  0.00    -0.273 OA
BRANCH   9  12
ATOM     12  C   UNL     1      63.980  30.536  51.630  1.00  0.00     0.174 CG0
ATOM     13  G   UNL     1      62.920  30.922  52.687  1.00  0.00     0.000 G0
BRANCH  12  14
ATOM     14  C   UNL     1      65.357  29.933  52.101  1.00  0.00     0.018 C 
ATOM     15  C   UNL     1      65.277  28.380  52.078  1.00  0.00     0.010 C 
BRANCH  14  16
ATOM     16  C   UNL     1      66.604  30.340  51.262  1.00  0.00     0.002 C 
ATOM     17  C   UNL     1      67.542  29.190  50.859  1.00  0.00     0.004 C 
ENDBRANCH  14  16
ENDBRANCH  12  14
ENDBRANCH   9  12
ENDBRANCH   7   8
BRANCH   7  18
ATOM     18  C   UNL     1      64.621  28.679  47.056  1.00  0.00     0.073 C 
BRANCH  18  19
ATOM     19  C   UNL     1      66.063  28.239  46.916  1.00  0.00    -0.016 A 
ATOM     20  C   UNL     1      66.447  26.909  47.052  1.00  0.00     0.134 A 
ATOM     21  C   UNL     1      67.221  28.979  47.150  1.00  0.00     0.006 A 
ATOM     22  N   UNL     1      67.754  26.793  47.377  1.00  0.00    -0.191 N 
ATOM     23  C   UNL     1      68.233  28.073  47.412  1.00  0.00     0.087 A 
ATOM     24  C   UNL     1      67.437  30.362  47.260  1.00  0.00     0.011 A 
ATOM     25  C   UNL     1      69.531  28.508  47.688  1.00  0.00     0.030 A 
ATOM     26  C   UNL     1      68.737  30.808  47.535  1.00  0.00     0.001 A 
ATOM     27  C   UNL     1      69.777  29.889  47.750  1.00  0.00     0.002 A 
BRANCH  22  28
ATOM     28  O   UNL     1      68.169  25.714  48.130  1.00  0.00    -0.417 OA
ATOM     29  C   UNL     1      69.115  24.741  47.710  1.00  0.00     0.313 C 
ENDBRANCH  22  28
ENDBRANCH  18  19
ENDBRANCH   7  18
ENDBRANCH   4   7
ENDBRANCH   2   3
BRANCH   2  30
ATOM     30  N   UNL     1      60.916  27.935  51.413  1.00  0.00    -0.343 N 
ATOM     31  C   UNL     1      60.669  29.202  52.068  1.00  0.00     0.243 C 
ATOM     32  H   UNL     1      61.394  27.193  51.968  1.00  0.00     0.164 HD
ATOM     33  O   UNL     1      60.220  30.177  51.418  1.00  0.00    -0.273 OA
BRANCH  31  34
ATOM     34  C   UNL     1      61.025  29.400  53.504  1.00  0.00     0.174 C 
ATOM     35  N   UNL     1      62.369  30.001  53.704  1.00  0.00    -0.329 N 
ATOM     36  C   UNL     1      60.972  28.052  54.247  1.00  0.00     0.035 C 
ATOM     37  C   UNL     1      62.641  30.312  55.118  1.00  0.00     0.120 C 
ATOM     38  C   UNL     1      61.254  28.265  55.738  1.00  0.00     0.004 C 
ATOM     39  C   UNL     1      62.577  29.028  55.964  1.00  0.00     0.022 C 
BRANCH  35  40
ATOM     40  C   UNL     1      62.901  30.892  52.690  1.00  0.00     0.246 CG0
ATOM     41  O   UNL     1      62.511  32.088  52.719  1.00  0.00    -0.272 OA
ATOM     42  G   UNL     1      63.983  30.528  51.647  1.00  0.00     0.000 G0
ENDBRANCH  35  40
ENDBRANCH  31  34
ENDBRANCH   2  30
ENDBRANCH   1   2
BRANCH   1  43
ATOM     43  C   UNL     1      59.364  25.706  50.725  1.00  0.00     0.003 C 
BRANCH  43  44
ATOM     44  C   UNL     1      57.886  25.299  50.870  1.00  0.00     0.001 C 
BRANCH  44  45
ATOM     45  C   UNL     1      56.878  26.466  50.800  1.00  0.00     0.008 C 
BRANCH  45  46
ATOM     46  C   UNL     1      55.683  26.246  49.849  1.00  0.00     0.075 C 
BRANCH  46  47
ATOM     47  C   UNL     1      54.587  27.285  49.972  1.00  0.00     0.132 C 
ATOM     48  O   UNL     1      53.584  27.188  49.274  1.00  0.00    -0.300 OA
BRANCH  47  49
ATOM     49  C   UNL     1      54.701  28.491  50.883  1.00  0.00     0.072 C 
ATOM     50  C   UNL     1      53.829  29.678  50.484  1.00  0.00     0.012 C 
ENDBRANCH  47  49
ENDBRANCH  46  47
ENDBRANCH  45  46
ENDBRANCH  44  45
ENDBRANCH  43  44
ENDBRANCH   1  43
TORSDOF 12
ENDMDL
MODEL 3
REMARK VINA RESULT:    -4.355      7.864     10.741
REMARK INTER + INTRA:         -10.398
REMARK INTER:                  -7.956
REMARK INTRA:                  -2.443
REMARK UNBOUND:                -1.207
REMARK SMILES CCC(=O)CCCCC[C@H]1NC(=O)[C@H]2CCCCN2C(=O)[C@@H]([C@@H](C)CC)NC(=O)[C@H](Cc2cn(OC)c3ccccc23)NC1=O
REMARK SMILES IDX 9 1 10 2 44 3 43 4 45 6 30 7 28 8 27 9 29 11 22 12 23 14
REMARK SMILES IDX 24 15 25 16 26 17 31 18 32 19 33 20 42 21 34 22 37 23 41 24
REMARK SMILES IDX 38 25 40 26 39 27 35 28 36 29 11 30 12 31 13 33 14 34 19 35
REMARK SMILES IDX 15 36 18 37 16 38 17 39 20 40 21 41 8 43 7 44 6 45 5 46 3 47
REMARK SMILES IDX 4 48 2 49 1 50
REMARK H PARENT 43 5 27 10 11 32
REMARK Flexibility Score: 80.00
ROOT
ATOM      1  C   UNL     1      63.508  31.430  49.193  1.00  0.00     0.035 C 
ENDROOT
BRANCH   1   2
ATOM      2  C   UNL     1      62.847  30.130  49.698  1.00  0.00     0.171 C 
BRANCH   2   3
ATOM      3  C   UNL     1      61.449  30.380  50.205  1.00  0.00     0.243 C 
ATOM      4  N   UNL     1      60.322  29.818  49.533  1.00  0.00    -0.342 N 
ATOM      5  H   UNL     1      60.306  29.875  48.496  1.00  0.00     0.164 HD
ATOM      6  O   UNL     1      61.267  30.973  51.304  1.00  0.00    -0.273 OA
BRANCH   4   7
ATOM      7  C   UNL     1      59.528  28.760  50.165  1.00  0.00     0.175 C 
BRANCH   7   8
ATOM      8  C   UNL     1      60.231  27.442  49.966  1.00  0.00     0.243 C 
ATOM      9  N   UNL     1      61.485  27.165  50.597  1.00  0.00    -0.342 N 
ATOM     10  H   UNL     1      62.297  27.674  50.199  1.00  0.00     0.164 HD
ATOM     11  O   UNL     1      59.682  26.559  49.243  1.00  0.00    -0.273 OA
BRANCH   9  12
ATOM     12  C   UNL     1      61.799  25.889  51.282  1.00  0.00     0.174 CG0
ATOM     13  G   UNL     1      63.330  25.687  51.355  1.00  0.00     0.000 G0
BRANCH  12  14
ATOM     14  C   UNL     1      60.935  25.732  52.590  1.00  0.00     0.018 C 
ATOM     15  C   UNL     1      60.606  27.139  53.166  1.00  0.00     0.010 C 
BRANCH  14  16
ATOM     16  C   UNL     1      59.584  24.975  52.430  1.00  0.00     0.002 C 
ATOM     17  C   UNL     1      58.316  25.834  52.575  1.00  0.00     0.004 C 
ENDBRANCH  14  16
ENDBRANCH  12  14
ENDBRANCH   9  12
ENDBRANCH   7   8
BRANCH   7  18
ATOM     18  C   UNL     1      58.099  28.782  49.635  1.00  0.00     0.073 C 
BRANCH  18  19
ATOM     19  C   UNL     1      56.996  28.793  50.672  1.00  0.00    -0.016 A 
ATOM     20  C   UNL     1      57.128  29.458  51.886  1.00  0.00     0.134 A 
ATOM     21  C   UNL     1      55.994  27.847  50.883  1.00  0.00     0.006 A 
ATOM     22  N   UNL     1      56.294  28.961  52.827  1.00  0.00    -0.191 N 
ATOM     23  C   UNL     1      55.578  27.983  52.194  1.00  0.00     0.087 A 
ATOM     24  C   UNL     1      55.500  26.817  50.066  1.00  0.00     0.011 A 
ATOM     25  C   UNL     1      54.572  27.167  52.717  1.00  0.00     0.030 A 
ATOM     26  C   UNL     1      54.488  25.993  50.581  1.00  0.00     0.001 A 
ATOM     27  C   UNL     1      54.028  26.165  51.897  1.00  0.00     0.002 A 
BRANCH  22  28
ATOM     28  O   UNL     1      56.665  29.013  54.154  1.00  0.00    -0.417 OA
ATOM     29  C   UNL     1      58.004  28.998  54.629  1.00  0.00     0.313 C 
ENDBRANCH  22  28
ENDBRANCH  18  19
ENDBRANCH   7  18
ENDBRANCH   4   7
ENDBRANCH   2   3
BRANCH   2  30
ATOM     30  N   UNL     1      63.679  29.477  50.731  1.00  0.00    -0.343 N 
ATOM     31  C   UNL     1      64.393  28.232  50.546  1.00  0.00     0.243 C 
ATOM     32  H   UNL     1      63.594  29.842  51.705  1.00  0.00     0.164 HD
ATOM     33  O   UNL     1      64.417  27.675  49.422  1.00  0.00    -0.273 OA
BRANCH  31  34
ATOM     34  C   UNL     1      65.038  27.543  51.702  1.00  0.00     0.174 C 
ATOM     35  N   UNL     1      64.227  26.429  52.255  1.00  0.00    -0.329 N 
ATOM     36  C   UNL     1      65.314  28.558  52.827  1.00  0.00     0.035 C 
ATOM     37  C   UNL     1      64.942  25.680  53.303  1.00  0.00     0.120 C 
ATOM     38  C   UNL     1      66.053  27.871  53.981  1.00  0.00     0.004 C 
ATOM     39  C   UNL     1      65.301  26.615  54.471  1.00  0.00     0.022 C 
BRANCH  35  40
ATOM     40  C   UNL     1      63.339  25.696  51.372  1.00  0.00     0.246 CG0
ATOM     41  O   UNL     1      63.850  24.773  50.686  1.00  0.00    -0.272 OA
ATOM     42  G   UNL     1      61.807  25.880  51.278  1.00  0.00     0.000 G0
ENDBRANCH  35  40
ENDBRANCH  31  34
ENDBRANCH   2  30
ENDBRANCH   1   2
BRANCH   1  43
ATOM     43  C   UNL     1      65.007  31.509  49.555  1.00  0.00     0.003 C 
BRANCH  43  44
ATOM     44  C   UNL     1      65.516  32.959  49.644  1.00  0.00     0.001 C 
BRANCH  44  45
ATOM     45  C   UNL     1      65.391  33.610  51.038  1.00  0.00     0.008 C 
BRANCH  45  46
ATOM     46  C   UNL     1      64.726  35.002  51.057  1.00  0.00     0.075 C 
BRANCH  46  47
ATOM     47  C   UNL     1      63.320  35.016  51.622  1.00  0.00     0.132 C 
ATOM     48  O   UNL     1      62.676  36.059  51.608  1.00  0.00    -0.300 OA
BRANCH  47  49
ATOM     49  C   UNL     1      62.687  33.801  52.269  1.00  0.00     0.072 C 
ATOM     50  C   UNL     1      62.091  34.052  53.652  1.00  0.00     0.012 C 
ENDBRANCH  47  49
ENDBRANCH  46  47
ENDBRANCH  45  46
ENDBRANCH  44  45
ENDBRANCH  43  44
ENDBRANCH   1  43
TORSDOF 12
ENDMDL
MODEL 4
REMARK VINA RESULT:    -4.298      8.979     13.966
REMARK INTER + INTRA:         -10.279
REMARK INTER:                  -8.434
REMARK INTRA:                  -1.845
REMARK UNBOUND:                -1.207
REMARK SMILES CCC(=O)CCCCC[C@H]1NC(=O)[C@H]2CCCCN2C(=O)[C@@H]([C@@H](C)CC)NC(=O)[C@H](Cc2cn(OC)c3ccccc23)NC1=O
REMARK SMILES IDX 9 1 10 2 44 3 43 4 45 6 30 7 28 8 27 9 29 11 22 12 23 14
REMARK SMILES IDX 24 15 25 16 26 17 31 18 32 19 33 20 42 21 34 22 37 23 41 24
REMARK SMILES IDX 38 25 40 26 39 27 35 28 36 29 11 30 12 31 13 33 14 34 19 35
REMARK SMILES IDX 15 36 18 37 16 38 17 39 20 40 21 41 8 43 7 44 6 45 5 46 3 47
REMARK SMILES IDX 4 48 2 49 1 50
REMARK H PARENT 43 5 27 10 11 32
REMARK Flexibility Score: 80.00
ROOT
ATOM      1  C   UNL     1      58.728  28.814  49.656  1.00  0.00     0.035 C 
ENDROOT
BRANCH   1   2
ATOM      2  C   UNL     1      59.980  28.330  50.419  1.00  0.00     0.171 C 
BRANCH   2   3
ATOM      3  C   UNL     1      61.170  28.195  49.502  1.00  0.00     0.243 C 
ATOM      4  N   UNL     1      62.189  29.195  49.484  1.00  0.00    -0.342 N 
ATOM      5  H   UNL     1      61.885  30.187  49.476  1.00  0.00     0.164 HD
ATOM      6  O   UNL     1      61.348  27.134  48.842  1.00  0.00    -0.273 OA
BRANCH   4   7
ATOM      7  C   UNL     1      63.530  28.901  49.996  1.00  0.00     0.175 C 
BRANCH   7   8
ATOM      8  C   UNL     1      63.413  28.444  51.427  1.00  0.00     0.243 C 
ATOM      9  N   UNL     1      62.732  27.232  51.767  1.00  0.00    -0.342 N 
ATOM     10  H   UNL     1      61.699  27.272  51.681  1.00  0.00     0.164 HD
ATOM     11  O   UNL     1      63.950  29.140  52.338  1.00  0.00    -0.273 OA
BRANCH   9  12
ATOM     12  C   UNL     1      63.259  26.232  52.725  1.00  0.00     0.174 CG0
ATOM     13  G   UNL     1      62.156  25.824  53.729  1.00  0.00     0.000 G0
BRANCH  12  14
ATOM     14  C   UNL     1      64.069  25.112  51.970  1.00  0.00     0.018 C 
ATOM     15  C   UNL     1      63.788  25.208  50.443  1.00  0.00     0.010 C 
BRANCH  14  16
ATOM     16  C   UNL     1      65.615  25.144  52.155  1.00  0.00     0.002 C 
ATOM     17  C   UNL     1      66.438  24.538  51.005  1.00  0.00     0.004 C 
ENDBRANCH  14  16
ENDBRANCH  12  14
ENDBRANCH   9  12
ENDBRANCH   7   8
BRANCH   7  18
ATOM     18  C   UNL     1      64.445  30.106  49.808  1.00  0.00     0.073 C 
BRANCH  18  19
ATOM     19  C   UNL     1      65.141  30.221  48.469  1.00  0.00    -0.016 A 
ATOM     20  C   UNL     1      65.203  29.160  47.573  1.00  0.00     0.134 A 
ATOM     21  C   UNL     1      66.192  31.064  48.108  1.00  0.00     0.006 A 
ATOM     22  N   UNL     1      66.236  29.287  46.710  1.00  0.00    -0.191 N 
ATOM     23  C   UNL     1      66.828  30.477  47.029  1.00  0.00     0.087 A 
ATOM     24  C   UNL     1      66.700  32.228  48.706  1.00  0.00     0.011 A 
ATOM     25  C   UNL     1      67.934  31.085  46.430  1.00  0.00     0.030 A 
ATOM     26  C   UNL     1      67.809  32.847  48.111  1.00  0.00     0.001 A 
ATOM     27  C   UNL     1      68.423  32.279  46.983  1.00  0.00     0.002 A 
BRANCH  22  28
ATOM     28  O   UNL     1      66.834  28.153  46.202  1.00  0.00    -0.417 OA
ATOM     29  C   UNL     1      67.781  27.351  46.892  1.00  0.00     0.313 C 
ENDBRANCH  22  28
ENDBRANCH  18  19
ENDBRANCH   7  18
ENDBRANCH   4   7
ENDBRANCH   2   3
BRANCH   2  30
ATOM     30  N   UNL     1      59.711  27.063  51.131  1.00  0.00    -0.343 N 
ATOM     31  C   UNL     1      59.768  26.900  52.569  1.00  0.00     0.243 C 
ATOM     32  H   UNL     1      59.659  26.198  50.551  1.00  0.00     0.164 HD
ATOM     33  O   UNL     1      59.964  27.891  53.313  1.00  0.00    -0.273 OA
BRANCH  31  34
ATOM     34  C   UNL     1      59.685  25.544  53.186  1.00  0.00     0.174 C 
ATOM     35  N   UNL     1      61.011  24.933  53.454  1.00  0.00    -0.329 N 
ATOM     36  C   UNL     1      58.882  24.601  52.271  1.00  0.00     0.035 C 
ATOM     37  C   UNL     1      60.906  23.658  54.186  1.00  0.00     0.120 C 
ATOM     38  C   UNL     1      58.722  23.232  52.941  1.00  0.00     0.004 C 
ATOM     39  C   UNL     1      60.084  22.646  53.369  1.00  0.00     0.022 C 
BRANCH  35  40
ATOM     40  C   UNL     1      62.142  25.796  53.739  1.00  0.00     0.246 CG0
ATOM     41  O   UNL     1      62.297  26.159  54.933  1.00  0.00    -0.272 OA
ATOM     42  G   UNL     1      63.230  26.220  52.725  1.00  0.00     0.000 G0
ENDBRANCH  35  40
ENDBRANCH  31  34
ENDBRANCH   2  30
ENDBRANCH   1   2
BRANCH   1  43
ATOM     43  C   UNL     1      57.415  28.408  50.359  1.00  0.00     0.003 C 
BRANCH  43  44
ATOM     44  C   UNL     1      57.113  29.280  51.592  1.00  0.00     0.001 C 
BRANCH  44  45
ATOM     45  C   UNL     1      55.819  28.913  52.350  1.00  0.00     0.008 C 
BRANCH  45  46
ATOM     46  C   UNL     1      55.233  27.525  52.016  1.00  0.00     0.075 C 
BRANCH  46  47
ATOM     47  C   UNL     1      53.966  27.565  51.186  1.00  0.00     0.132 C 
ATOM     48  O   UNL     1      52.922  27.949  51.701  1.00  0.00    -0.300 OA
BRANCH  47  49
ATOM     49  C   UNL     1      53.914  27.086  49.750  1.00  0.00     0.072 C 
ATOM     50  C   UNL     1      54.852  25.926  49.429  1.00  0.00     0.012 C 
ENDBRANCH  47  49
ENDBRANCH  46  47
ENDBRANCH  45  46
ENDBRANCH  44  45
ENDBRANCH  43  44
ENDBRANCH   1  43
TORSDOF 12
ENDMDL
MODEL 5
REMARK VINA RESULT:    -4.267      1.391      2.296
REMARK INTER + INTRA:         -10.213
REMARK INTER:                  -8.790
REMARK INTRA:                  -1.423
REMARK UNBOUND:                -1.207
REMARK SMILES CCC(=O)CCCCC[C@H]1NC(=O)[C@H]2CCCCN2C(=O)[C@@H]([C@@H](C)CC)NC(=O)[C@H](Cc2cn(OC)c3ccccc23)NC1=O
REMARK SMILES IDX 9 1 10 2 44 3 43 4 45 6 30 7 28 8 27 9 29 11 22 12 23 14
REMARK SMILES IDX 24 15 25 16 26 17 31 18 32 19 33 20 42 21 34 22 37 23 41 24
REMARK SMILES IDX 38 25 40 26 39 27 35 28 36 29 11 30 12 31 13 33 14 34 19 35
REMARK SMILES IDX 15 36 18 37 16 38 17 39 20 40 21 41 8 43 7 44 6 45 5 46 3 47
REMARK SMILES IDX 4 48 2 49 1 50
REMARK H PARENT 43 5 27 10 11 32
REMARK Flexibility Score: 80.00
ROOT
ATOM      1  C   UNL     1      65.296  29.249  59.509  1.00  0.00     0.035 C 
ENDROOT
BRANCH   1   2
ATOM      2  C   UNL     1      64.787  29.395  60.959  1.00  0.00     0.171 C 
BRANCH   2   3
ATOM      3  C   UNL     1      63.758  28.344  61.293  1.00  0.00     0.243 C 
ATOM      4  N   UNL     1      62.401  28.711  61.543  1.00  0.00    -0.342 N 
ATOM      5  H   UNL     1      62.233  29.534  62.153  1.00  0.00     0.164 HD
ATOM      6  O   UNL     1      64.053  27.119  61.221  1.00  0.00    -0.273 OA
BRANCH   4   7
ATOM      7  C   UNL     1      61.343  28.338  60.600  1.00  0.00     0.175 C 
BRANCH   7   8
ATOM      8  C   UNL     1      61.204  29.429  59.570  1.00  0.00     0.243 C 
ATOM      9  N   UNL     1      60.238  30.474  59.720  1.00  0.00    -0.342 N 
ATOM     10  H   UNL     1      59.253  30.185  59.567  1.00  0.00     0.164 HD
ATOM     11  O   UNL     1      61.976  29.426  58.567  1.00  0.00    -0.273 OA
BRANCH   9  12
ATOM     12  C   UNL     1      60.532  31.907  59.484  1.00  0.00     0.174 CG0
ATOM     13  G   UNL     1      61.488  32.441  60.574  1.00  0.00     0.000 G0
BRANCH  12  14
ATOM     14  C   UNL     1      60.869  32.164  57.967  1.00  0.00     0.018 C 
ATOM     15  C   UNL     1      59.793  31.480  57.074  1.00  0.00     0.010 C 
BRANCH  14  16
ATOM     16  C   UNL     1      60.949  33.655  57.527  1.00  0.00     0.002 C 
ATOM     17  C   UNL     1      62.297  34.107  56.941  1.00  0.00     0.004 C 
ENDBRANCH  14  16
ENDBRANCH  12  14
ENDBRANCH   9  12
ENDBRANCH   7   8
BRANCH   7  18
ATOM     18  C   UNL     1      60.051  28.031  61.349  1.00  0.00     0.073 C 
BRANCH  18  19
ATOM     19  C   UNL     1      59.736  26.569  61.580  1.00  0.00    -0.016 A 
ATOM     20  C   UNL     1      58.509  26.012  61.234  1.00  0.00     0.134 A 
ATOM     21  C   UNL     1      60.269  25.707  62.538  1.00  0.00     0.006 A 
ATOM     22  N   UNL     1      58.250  24.887  61.936  1.00  0.00    -0.191 N 
ATOM     23  C   UNL     1      59.351  24.689  62.722  1.00  0.00     0.087 A 
ATOM     24  C   UNL     1      61.423  25.798  63.332  1.00  0.00     0.011 A 
ATOM     25  C   UNL     1      59.597  23.657  63.630  1.00  0.00     0.030 A 
ATOM     26  C   UNL     1      61.680  24.766  64.245  1.00  0.00     0.001 A 
ATOM     27  C   UNL     1      60.773  23.703  64.396  1.00  0.00     0.002 A 
BRANCH  22  28
ATOM     28  O   UNL     1      56.942  24.551  62.214  1.00  0.00    -0.417 OA
ATOM     29  C   UNL     1      56.372  23.263  62.031  1.00  0.00     0.313 C 
ENDBRANCH  22  28
ENDBRANCH  18  19
ENDBRANCH   7  18
ENDBRANCH   4   7
ENDBRANCH   2   3
BRANCH   2  30
ATOM     30  N   UNL     1      64.259  30.754  61.203  1.00  0.00    -0.343 N 
ATOM     31  C   UNL     1      64.253  31.821  60.225  1.00  0.00     0.243 C 
ATOM     32  H   UNL     1      64.050  31.008  62.193  1.00  0.00     0.164 HD
ATOM     33  O   UNL     1      64.625  31.605  59.047  1.00  0.00    -0.273 OA
BRANCH  31  34
ATOM     34  C   UNL     1      63.891  33.214  60.620  1.00  0.00     0.174 C 
ATOM     35  N   UNL     1      62.446  33.519  60.460  1.00  0.00    -0.329 N 
ATOM     36  C   UNL     1      64.703  34.222  59.784  1.00  0.00     0.035 C 
ATOM     37  C   UNL     1      62.092  34.851  60.983  1.00  0.00     0.120 C 
ATOM     38  C   UNL     1      64.397  35.651  60.246  1.00  0.00     0.004 C 
ATOM     39  C   UNL     1      62.881  35.939  60.235  1.00  0.00     0.022 C 
BRANCH  35  40
ATOM     40  C   UNL     1      61.479  32.447  60.601  1.00  0.00     0.246 CG0
ATOM     41  O   UNL     1      61.309  31.978  61.756  1.00  0.00    -0.272 OA
ATOM     42  G   UNL     1      60.566  31.904  59.477  1.00  0.00     0.000 G0
ENDBRANCH  35  40
ENDBRANCH  31  34
ENDBRANCH   2  30
ENDBRANCH   1   2
BRANCH   1  43
ATOM     43  C   UNL     1      66.813  28.965  59.442  1.00  0.00     0.003 C 
BRANCH  43  44
ATOM     44  C   UNL     1      67.416  28.659  60.825  1.00  0.00     0.001 C 
BRANCH  44  45
ATOM     45  C   UNL     1      68.946  28.455  60.839  1.00  0.00     0.008 C 
BRANCH  45  46
ATOM     46  C   UNL     1      69.739  29.480  61.677  1.00  0.00     0.075 C 
BRANCH  46  47
ATOM     47  C   UNL     1      70.758  30.278  60.888  1.00  0.00     0.132 C 
ATOM     48  O   UNL     1      70.561  30.497  59.699  1.00  0.00    -0.300 OA
BRANCH  47  49
ATOM     49  C   UNL     1      72.057  30.770  61.494  1.00  0.00     0.072 C 
ATOM     50  C   UNL     1      72.666  31.985  60.800  1.00  0.00     0.012 C 
ENDBRANCH  47  49
ENDBRANCH  46  47
ENDBRANCH  45  46
ENDBRANCH  44  45
ENDBRANCH  43  44
ENDBRANCH   1  43
TORSDOF 12
ENDMDL
MODEL 6
REMARK VINA RESULT:    -4.225      2.919      7.389
REMARK INTER + INTRA:         -10.125
REMARK INTER:                  -7.111
REMARK INTRA:                  -3.013
REMARK UNBOUND:                -1.207
REMARK SMILES CCC(=O)CCCCC[C@H]1NC(=O)[C@H]2CCCCN2C(=O)[C@@H]([C@@H](C)CC)NC(=O)[C@H](Cc2cn(OC)c3ccccc23)NC1=O
REMARK SMILES IDX 9 1 10 2 44 3 43 4 45 6 30 7 28 8 27 9 29 11 22 12 23 14
REMARK SMILES IDX 24 15 25 16 26 17 31 18 32 19 33 20 42 21 34 22 37 23 41 24
REMARK SMILES IDX 38 25 40 26 39 27 35 28 36 29 11 30 12 31 13 33 14 34 19 35
REMARK SMILES IDX 15 36 18 37 16 38 17 39 20 40 21 41 8 43 7 44 6 45 5 46 3 47
REMARK SMILES IDX 4 48 2 49 1 50
REMARK H PARENT 43 5 27 10 11 32
REMARK Flexibility Score: 80.00
ROOT
ATOM      1  C   UNL     1      66.704  28.816  61.118  1.00  0.00     0.035 C 
ENDROOT
BRANCH   1   2
ATOM      2  C   UNL     1      65.497  29.217  60.243  1.00  0.00     0.171 C 
BRANCH   2   3
ATOM      3  C   UNL     1      65.216  30.696  60.330  1.00  0.00     0.243 C 
ATOM      4  N   UNL     1      65.610  31.573  59.276  1.00  0.00    -0.342 N 
ATOM      5  H   UNL     1      66.562  31.448  58.880  1.00  0.00     0.164 HD
ATOM      6  O   UNL     1      64.509  31.155  61.270  1.00  0.00    -0.273 OA
BRANCH   4   7
ATOM      7  C   UNL     1      64.604  32.221  58.429  1.00  0.00     0.175 C 
BRANCH   7   8
ATOM      8  C   UNL     1      63.691  31.162  57.865  1.00  0.00     0.243 C 
ATOM      9  N   UNL     1      62.745  30.479  58.693  1.00  0.00    -0.342 N 
ATOM     10  H   UNL     1      63.156  29.792  59.354  1.00  0.00     0.164 HD
ATOM     11  O   UNL     1      63.755  30.894  56.630  1.00  0.00    -0.273 OA
BRANCH   9  12
ATOM     12  C   UNL     1      61.337  30.232  58.303  1.00  0.00     0.174 CG0
ATOM     13  G   UNL     1      61.022  28.720  58.378  1.00  0.00     0.000 G0
BRANCH  12  14
ATOM     14  C   UNL     1      60.375  31.257  59.012  1.00  0.00     0.018 C 
ATOM     15  C   UNL     1      61.119  31.929  60.202  1.00  0.00     0.010 C 
BRANCH  14  16
ATOM     16  C   UNL     1      59.815  32.401  58.117  1.00  0.00     0.002 C 
ATOM     17  C   UNL     1      58.325  32.296  57.752  1.00  0.00     0.004 C 
ENDBRANCH  14  16
ENDBRANCH  12  14
ENDBRANCH   9  12
ENDBRANCH   7   8
BRANCH   7  18
ATOM     18  C   UNL     1      65.279  33.080  57.367  1.00  0.00     0.073 C 
BRANCH  18  19
ATOM     19  C   UNL     1      66.786  32.973  57.271  1.00  0.00    -0.016 A 
ATOM     20  C   UNL     1      67.621  34.062  57.500  1.00  0.00     0.134 A 
ATOM     21  C   UNL     1      67.546  32.085  56.511  1.00  0.00     0.006 A 
ATOM     22  N   UNL     1      68.827  33.905  56.908  1.00  0.00    -0.191 N 
ATOM     23  C   UNL     1      68.784  32.672  56.320  1.00  0.00     0.087 A 
ATOM     24  C   UNL     1      67.213  30.872  55.888  1.00  0.00     0.011 A 
ATOM     25  C   UNL     1      69.781  32.023  55.589  1.00  0.00     0.030 A 
ATOM     26  C   UNL     1      68.208  30.211  55.153  1.00  0.00     0.001 A 
ATOM     27  C   UNL     1      69.482  30.783  55.002  1.00  0.00     0.002 A 
BRANCH  22  28
ATOM     28  O   UNL     1      69.521  35.020  56.486  1.00  0.00    -0.417 OA
ATOM     29  C   UNL     1      70.511  35.701  57.243  1.00  0.00     0.313 C 
ENDBRANCH  22  28
ENDBRANCH  18  19
ENDBRANCH   7  18
ENDBRANCH   4   7
ENDBRANCH   2   3
BRANCH   2  30
ATOM     30  N   UNL     1      64.299  28.426  60.595  1.00  0.00    -0.343 N 
ATOM     31  C   UNL     1      63.457  27.740  59.638  1.00  0.00     0.243 C 
ATOM     32  H   UNL     1      63.939  28.523  61.569  1.00  0.00     0.164 HD
ATOM     33  O   UNL     1      63.772  27.705  58.424  1.00  0.00    -0.273 OA
BRANCH  31  34
ATOM     34  C   UNL     1      62.157  27.139  60.060  1.00  0.00     0.174 C 
ATOM     35  N   UNL     1      60.973  27.919  59.618  1.00  0.00    -0.329 N 
ATOM     36  C   UNL     1      62.115  27.005  61.593  1.00  0.00     0.035 C 
ATOM     37  C   UNL     1      59.703  27.237  59.926  1.00  0.00     0.120 C 
ATOM     38  C   UNL     1      60.818  26.311  62.023  1.00  0.00     0.004 C 
ATOM     39  C   UNL     1      59.575  27.019  61.444  1.00  0.00     0.022 C 
BRANCH  35  40
ATOM     40  C   UNL     1      61.055  28.696  58.395  1.00  0.00     0.246 CG0
ATOM     41  O   UNL     1      60.785  28.100  57.320  1.00  0.00    -0.272 OA
ATOM     42  G   UNL     1      61.343  30.212  58.308  1.00  0.00     0.000 G0
ENDBRANCH  35  40
ENDBRANCH  31  34
ENDBRANCH   2  30
ENDBRANCH   1   2
BRANCH   1  43
ATOM     43  C   UNL     1      67.815  28.116  60.306  1.00  0.00     0.003 C 
BRANCH  43  44
ATOM     44  C   UNL     1      68.013  28.746  58.915  1.00  0.00     0.001 C 
BRANCH  44  45
ATOM     45  C   UNL     1      69.444  29.246  58.622  1.00  0.00     0.008 C 
BRANCH  45  46
ATOM     46  C   UNL     1      69.773  30.652  59.165  1.00  0.00     0.075 C 
BRANCH  46  47
ATOM     47  C   UNL     1      70.576  30.654  60.450  1.00  0.00     0.132 C 
ATOM     48  O   UNL     1      70.182  30.000  61.408  1.00  0.00    -0.300 OA
BRANCH  47  49
ATOM     49  C   UNL     1      71.828  31.489  60.630  1.00  0.00     0.072 C 
ATOM     50  C   UNL     1      71.620  32.993  60.477  1.00  0.00     0.012 C 
ENDBRANCH  47  49
ENDBRANCH  46  47
ENDBRANCH  45  46
ENDBRANCH  44  45
ENDBRANCH  43  44
ENDBRANCH   1  43
TORSDOF 12
ENDMDL
MODEL 7
REMARK VINA RESULT:    -4.195      5.929     10.687
REMARK INTER + INTRA:         -10.061
REMARK INTER:                  -7.721
REMARK INTRA:                  -2.340
REMARK UNBOUND:                -1.207
REMARK SMILES CCC(=O)CCCCC[C@H]1NC(=O)[C@H]2CCCCN2C(=O)[C@@H]([C@@H](C)CC)NC(=O)[C@H](Cc2cn(OC)c3ccccc23)NC1=O
REMARK SMILES IDX 9 1 10 2 44 3 43 4 45 6 30 7 28 8 27 9 29 11 22 12 23 14
REMARK SMILES IDX 24 15 25 16 26 17 31 18 32 19 33 20 42 21 34 22 37 23 41 24
REMARK SMILES IDX 38 25 40 26 39 27 35 28 36 29 11 30 12 31 13 33 14 34 19 35
REMARK SMILES IDX 15 36 18 37 16 38 17 39 20 40 21 41 8 43 7 44 6 45 5 46 3 47
REMARK SMILES IDX 4 48 2 49 1 50
REMARK H PARENT 43 5 27 10 11 32
REMARK Flexibility Score: 80.00
ROOT
ATOM      1  C   UNL     1      58.742  29.211  50.228  1.00  0.00     0.035 C 
ENDROOT
BRANCH   1   2
ATOM      2  C   UNL     1      59.874  29.596  51.203  1.00  0.00     0.171 C 
BRANCH   2   3
ATOM      3  C   UNL     1      59.328  30.103  52.514  1.00  0.00     0.243 C 
ATOM      4  N   UNL     1      59.720  29.498  53.746  1.00  0.00    -0.342 N 
ATOM      5  H   UNL     1      59.741  28.461  53.784  1.00  0.00     0.164 HD
ATOM      6  O   UNL     1      58.628  31.153  52.548  1.00  0.00    -0.273 OA
BRANCH   4   7
ATOM      7  C   UNL     1      60.557  30.228  54.702  1.00  0.00     0.175 C 
BRANCH   7   8
ATOM      8  C   UNL     1      61.993  29.816  54.503  1.00  0.00     0.243 C 
ATOM      9  N   UNL     1      62.687  30.105  53.285  1.00  0.00    -0.342 N 
ATOM     10  H   UNL     1      62.395  29.534  52.469  1.00  0.00     0.164 HD
ATOM     11  O   UNL     1      62.596  29.222  55.444  1.00  0.00    -0.273 OA
BRANCH   9  12
ATOM     12  C   UNL     1      64.065  30.646  53.231  1.00  0.00     0.174 CG0
ATOM     13  G   UNL     1      64.538  30.753  51.763  1.00  0.00     0.000 G0
BRANCH  12  14
ATOM     14  C   UNL     1      64.212  31.892  54.183  1.00  0.00     0.018 C 
ATOM     15  C   UNL     1      65.638  32.494  54.033  1.00  0.00     0.010 C 
BRANCH  14  16
ATOM     16  C   UNL     1      63.199  33.052  53.951  1.00  0.00     0.002 C 
ATOM     17  C   UNL     1      63.141  34.119  55.058  1.00  0.00     0.004 C 
ENDBRANCH  14  16
ENDBRANCH  12  14
ENDBRANCH   9  12
ENDBRANCH   7   8
BRANCH   7  18
ATOM     18  C   UNL     1      60.048  30.015  56.123  1.00  0.00     0.073 C 
BRANCH  18  19
ATOM     19  C   UNL     1      59.880  31.257  56.972  1.00  0.00    -0.016 A 
ATOM     20  C   UNL     1      59.343  32.435  56.463  1.00  0.00     0.134 A 
ATOM     21  C   UNL     1      60.611  31.646  58.094  1.00  0.00     0.006 A 
ATOM     22  N   UNL     1      59.720  33.514  57.184  1.00  0.00    -0.191 N 
ATOM     23  C   UNL     1      60.482  33.018  58.205  1.00  0.00     0.087 A 
ATOM     24  C   UNL     1      61.457  30.923  58.950  1.00  0.00     0.011 A 
ATOM     25  C   UNL     1      61.106  33.716  59.242  1.00  0.00     0.030 A 
ATOM     26  C   UNL     1      62.087  31.614  59.995  1.00  0.00     0.001 A 
ATOM     27  C   UNL     1      61.915  33.001  60.139  1.00  0.00     0.002 A 
BRANCH  22  28
ATOM     28  O   UNL     1      59.838  34.737  56.558  1.00  0.00    -0.417 OA
ATOM     29  C   UNL     1      59.707  34.954  55.160  1.00  0.00     0.313 C 
ENDBRANCH  22  28
ENDBRANCH  18  19
ENDBRANCH   7  18
ENDBRANCH   4   7
ENDBRANCH   2   3
BRANCH   2  30
ATOM     30  N   UNL     1      60.791  30.581  50.591  1.00  0.00    -0.343 N 
ATOM     31  C   UNL     1      62.152  30.298  50.188  1.00  0.00     0.243 C 
ATOM     32  H   UNL     1      60.497  31.581  50.624  1.00  0.00     0.164 HD
ATOM     33  O   UNL     1      62.604  29.130  50.255  1.00  0.00    -0.273 OA
BRANCH  31  34
ATOM     34  C   UNL     1      63.068  31.400  49.771  1.00  0.00     0.174 C 
ATOM     35  N   UNL     1      64.066  31.765  50.808  1.00  0.00    -0.329 N 
ATOM     36  C   UNL     1      62.249  32.653  49.411  1.00  0.00     0.035 C 
ATOM     37  C   UNL     1      65.043  32.757  50.324  1.00  0.00     0.120 C 
ATOM     38  C   UNL     1      63.180  33.759  48.901  1.00  0.00     0.004 C 
ATOM     39  C   UNL     1      64.320  34.047  49.900  1.00  0.00     0.022 C 
BRANCH  35  40
ATOM     40  C   UNL     1      64.523  30.749  51.737  1.00  0.00     0.246 CG0
ATOM     41  O   UNL     1      65.403  29.951  51.323  1.00  0.00    -0.272 OA
ATOM     42  G   UNL     1      64.101  30.627  53.219  1.00  0.00     0.000 G0
ENDBRANCH  35  40
ENDBRANCH  31  34
ENDBRANCH   2  30
ENDBRANCH   1   2
BRANCH   1  43
ATOM     43  C   UNL     1      59.167  28.105  49.237  1.00  0.00     0.003 C 
BRANCH  43  44
ATOM     44  C   UNL     1      59.709  26.853  49.949  1.00  0.00     0.001 C 
BRANCH  44  45
ATOM     45  C   UNL     1      58.731  25.660  50.007  1.00  0.00     0.008 C 
BRANCH  45  46
ATOM     46  C   UNL     1      57.939  25.522  51.324  1.00  0.00     0.075 C 
BRANCH  46  47
ATOM     47  C   UNL     1      56.493  25.967  51.233  1.00  0.00     0.132 C 
ATOM     48  O   UNL     1      55.733  25.737  52.167  1.00  0.00    -0.300 OA
BRANCH  47  49
ATOM     49  C   UNL     1      55.919  26.634  50.000  1.00  0.00     0.072 C 
ATOM     50  C   UNL     1      54.500  26.201  49.641  1.00  0.00     0.012 C 
ENDBRANCH  47  49
ENDBRANCH  46  47
ENDBRANCH  45  46
ENDBRANCH  44  45
ENDBRANCH  43  44
ENDBRANCH   1  43
TORSDOF 12
ENDMDL
MODEL 8
REMARK VINA RESULT:    -4.146      8.056     11.608
REMARK INTER + INTRA:          -9.958
REMARK INTER:                  -6.411
REMARK INTRA:                  -3.547
REMARK UNBOUND:                -1.207
REMARK SMILES CCC(=O)CCCCC[C@H]1NC(=O)[C@H]2CCCCN2C(=O)[C@@H]([C@@H](C)CC)NC(=O)[C@H](Cc2cn(OC)c3ccccc23)NC1=O
REMARK SMILES IDX 9 1 10 2 44 3 43 4 45 6 30 7 28 8 27 9 29 11 22 12 23 14
REMARK SMILES IDX 24 15 25 16 26 17 31 18 32 19 33 20 42 21 34 22 37 23 41 24
REMARK SMILES IDX 38 25 40 26 39 27 35 28 36 29 11 30 12 31 13 33 14 34 19 35
REMARK SMILES IDX 15 36 18 37 16 38 17 39 20 40 21 41 8 43 7 44 6 45 5 46 3 47
REMARK SMILES IDX 4 48 2 49 1 50
REMARK H PARENT 43 5 27 10 11 32
REMARK Flexibility Score: 80.00
ROOT
ATOM      1  C   UNL     1      58.102  32.016  54.328  1.00  0.00     0.035 C 
ENDROOT
BRANCH   1   2
ATOM      2  C   UNL     1      58.455  30.625  53.759  1.00  0.00     0.171 C 
BRANCH   2   3
ATOM      3  C   UNL     1      59.672  30.683  52.869  1.00  0.00     0.243 C 
ATOM      4  N   UNL     1      60.942  30.239  53.347  1.00  0.00    -0.342 N 
ATOM      5  H   UNL     1      61.224  30.536  54.301  1.00  0.00     0.164 HD
ATOM      6  O   UNL     1      59.556  30.994  51.651  1.00  0.00    -0.273 OA
BRANCH   4   7
ATOM      7  C   UNL     1      61.560  29.027  52.803  1.00  0.00     0.175 C 
BRANCH   7   8
ATOM      8  C   UNL     1      60.591  27.882  52.946  1.00  0.00     0.243 C 
ATOM      9  N   UNL     1      59.368  27.846  52.205  1.00  0.00    -0.342 N 
ATOM     10  H   UNL     1      58.643  28.518  52.523  1.00  0.00     0.164 HD
ATOM     11  O   UNL     1      60.883  26.926  53.723  1.00  0.00    -0.273 OA
BRANCH   9  12
ATOM     12  C   UNL     1      58.864  26.642  51.504  1.00  0.00     0.174 CG0
ATOM     13  G   UNL     1      57.406  26.350  51.928  1.00  0.00     0.000 G0
BRANCH  12  14
ATOM     14  C   UNL     1      59.226  26.698  49.972  1.00  0.00     0.018 C 
ATOM     15  C   UNL     1      58.979  28.136  49.433  1.00  0.00     0.010 C 
BRANCH  14  16
ATOM     16  C   UNL     1      60.688  26.314  49.600  1.00  0.00     0.002 C 
ATOM     17  C   UNL     1      61.605  27.483  49.201  1.00  0.00     0.004 C 
ENDBRANCH  14  16
ENDBRANCH  12  14
ENDBRANCH   9  12
ENDBRANCH   7   8
BRANCH   7  18
ATOM     18  C   UNL     1      62.910  28.777  53.467  1.00  0.00     0.073 C 
BRANCH  18  19
ATOM     19  C   UNL     1      64.082  28.533  52.540  1.00  0.00    -0.016 A 
ATOM     20  C   UNL     1      64.782  29.575  51.942  1.00  0.00     0.134 A 
ATOM     21  C   UNL     1      64.342  27.416  51.747  1.00  0.00     0.006 A 
ATOM     22  N   UNL     1      65.426  29.172  50.824  1.00  0.00    -0.191 N 
ATOM     23  C   UNL     1      65.172  27.833  50.722  1.00  0.00     0.087 A 
ATOM     24  C   UNL     1      63.830  26.109  51.782  1.00  0.00     0.011 A 
ATOM     25  C   UNL     1      65.616  26.935  49.748  1.00  0.00     0.030 A 
ATOM     26  C   UNL     1      64.272  25.200  50.811  1.00  0.00     0.001 A 
ATOM     27  C   UNL     1      65.157  25.610  49.799  1.00  0.00     0.002 A 
BRANCH  22  28
ATOM     28  O   UNL     1      65.631  30.074  49.801  1.00  0.00    -0.417 OA
ATOM     29  C   UNL     1      65.588  31.487  49.937  1.00  0.00     0.313 C 
ENDBRANCH  22  28
ENDBRANCH  18  19
ENDBRANCH   7  18
ENDBRANCH   4   7
ENDBRANCH   2   3
BRANCH   2  30
ATOM     30  N   UNL     1      57.303  30.035  53.046  1.00  0.00    -0.343 N 
ATOM     31  C   UNL     1      56.695  28.764  53.378  1.00  0.00     0.243 C 
ATOM     32  H   UNL     1      57.034  30.473  52.139  1.00  0.00     0.164 HD
ATOM     33  O   UNL     1      57.074  28.122  54.388  1.00  0.00    -0.273 OA
BRANCH  31  34
ATOM     34  C   UNL     1      55.672  28.150  52.481  1.00  0.00     0.174 C 
ATOM     35  N   UNL     1      56.232  27.141  51.546  1.00  0.00    -0.329 N 
ATOM     36  C   UNL     1      54.971  29.248  51.660  1.00  0.00     0.035 C 
ATOM     37  C   UNL     1      55.187  26.454  50.768  1.00  0.00     0.120 C 
ATOM     38  C   UNL     1      53.862  28.631  50.800  1.00  0.00     0.004 C 
ATOM     39  C   UNL     1      54.394  27.473  49.931  1.00  0.00     0.022 C 
BRANCH  35  40
ATOM     40  C   UNL     1      57.402  26.382  51.945  1.00  0.00     0.246 CG0
ATOM     41  O   UNL     1      57.205  25.354  52.645  1.00  0.00    -0.272 OA
ATOM     42  G   UNL     1      58.855  26.664  51.500  1.00  0.00     0.000 G0
ENDBRANCH  35  40
ENDBRANCH  31  34
ENDBRANCH   2  30
ENDBRANCH   1   2
BRANCH   1  43
ATOM     43  C   UNL     1      59.356  32.851  54.666  1.00  0.00     0.003 C 
BRANCH  43  44
ATOM     44  C   UNL     1      59.291  34.274  54.080  1.00  0.00     0.001 C 
BRANCH  44  45
ATOM     45  C   UNL     1      59.754  34.397  52.612  1.00  0.00     0.008 C 
BRANCH  45  46
ATOM     46  C   UNL     1      61.265  34.640  52.418  1.00  0.00     0.075 C 
BRANCH  46  47
ATOM     47  C   UNL     1      62.046  33.415  51.987  1.00  0.00     0.132 C 
ATOM     48  O   UNL     1      62.664  32.769  52.825  1.00  0.00    -0.300 OA
BRANCH  47  49
ATOM     49  C   UNL     1      62.152  32.981  50.539  1.00  0.00     0.072 C 
ATOM     50  C   UNL     1      62.316  34.122  49.540  1.00  0.00     0.012 C 
ENDBRANCH  47  49
ENDBRANCH  46  47
ENDBRANCH  45  46
ENDBRANCH  44  45
ENDBRANCH  43  44
ENDBRANCH   1  43
TORSDOF 12
ENDMDL
MODEL 9
REMARK VINA RESULT:    -3.990      2.718      7.550
REMARK INTER + INTRA:          -9.628
REMARK INTER:                  -7.585
REMARK INTRA:                  -2.042
REMARK UNBOUND:                -1.207
REMARK SMILES CCC(=O)CCCCC[C@H]1NC(=O)[C@H]2CCCCN2C(=O)[C@@H]([C@@H](C)CC)NC(=O)[C@H](Cc2cn(OC)c3ccccc23)NC1=O
REMARK SMILES IDX 9 1 10 2 44 3 43 4 45 6 30 7 28 8 27 9 29 11 22 12 23 14
REMARK SMILES IDX 24 15 25 16 26 17 31 18 32 19 33 20 42 21 34 22 37 23 41 24
REMARK SMILES IDX 38 25 40 26 39 27 35 28 36 29 11 30 12 31 13 33 14 34 19 35
REMARK SMILES IDX 15 36 18 37 16 38 17 39 20 40 21 41 8 43 7 44 6 45 5 46 3 47
REMARK SMILES IDX 4 48 2 49 1 50
REMARK H PARENT 43 5 27 10 11 32
REMARK Flexibility Score: 80.00
ROOT
ATOM      1  C   UNL     1      58.502  30.475  58.365  1.00  0.00     0.035 C 
ENDROOT
BRANCH   1   2
ATOM      2  C   UNL     1      60.022  30.292  58.562  1.00  0.00     0.171 C 
BRANCH   2   3
ATOM      3  C   UNL     1      60.329  29.106  59.442  1.00  0.00     0.243 C 
ATOM      4  N   UNL     1      60.848  27.901  58.879  1.00  0.00    -0.342 N 
ATOM      5  H   UNL     1      60.407  27.552  58.006  1.00  0.00     0.164 HD
ATOM      6  O   UNL     1      60.260  29.210  60.698  1.00  0.00    -0.273 OA
BRANCH   4   7
ATOM      7  C   UNL     1      62.224  27.480  59.158  1.00  0.00     0.175 C 
BRANCH   7   8
ATOM      8  C   UNL     1      63.170  28.492  58.564  1.00  0.00     0.243 C 
ATOM      9  N   UNL     1      63.208  29.842  59.036  1.00  0.00    -0.342 N 
ATOM     10  H   UNL     1      62.392  30.424  58.764  1.00  0.00     0.164 HD
ATOM     11  O   UNL     1      63.959  28.125  57.644  1.00  0.00    -0.273 OA
BRANCH   9  12
ATOM     12  C   UNL     1      64.460  30.582  59.317  1.00  0.00     0.174 CG0
ATOM     13  G   UNL     1      64.334  32.044  58.833  1.00  0.00     0.000 G0
BRANCH  12  14
ATOM     14  C   UNL     1      64.960  30.293  60.783  1.00  0.00     0.018 C 
ATOM     15  C   UNL     1      63.735  30.058  61.712  1.00  0.00     0.010 C 
BRANCH  14  16
ATOM     16  C   UNL     1      65.906  29.068  60.953  1.00  0.00     0.002 C 
ATOM     17  C   UNL     1      67.173  29.075  60.081  1.00  0.00     0.004 C 
ENDBRANCH  14  16
ENDBRANCH  12  14
ENDBRANCH   9  12
ENDBRANCH   7   8
BRANCH   7  18
ATOM     18  C   UNL     1      62.453  26.057  58.662  1.00  0.00     0.073 C 
BRANCH  18  19
ATOM     19  C   UNL     1      62.447  24.968  59.713  1.00  0.00    -0.016 A 
ATOM     20  C   UNL     1      61.648  25.039  60.849  1.00  0.00     0.134 A 
ATOM     21  C   UNL     1      63.466  24.073  60.041  1.00  0.00     0.006 A 
ATOM     22  N   UNL     1      62.127  24.270  61.852  1.00  0.00    -0.191 N 
ATOM     23  C   UNL     1      63.235  23.656  61.339  1.00  0.00     0.087 A 
ATOM     24  C   UNL     1      64.622  23.685  59.347  1.00  0.00     0.011 A 
ATOM     25  C   UNL     1      64.092  22.747  61.963  1.00  0.00     0.030 A 
ATOM     26  C   UNL     1      65.488  22.770  59.964  1.00  0.00     0.001 A 
ATOM     27  C   UNL     1      65.226  22.306  61.264  1.00  0.00     0.002 A 
BRANCH  22  28
ATOM     28  O   UNL     1      61.896  24.645  63.159  1.00  0.00    -0.417 OA
ATOM     29  C   UNL     1      60.857  25.514  63.588  1.00  0.00     0.313 C 
ENDBRANCH  22  28
ENDBRANCH  18  19
ENDBRANCH   7  18
ENDBRANCH   4   7
ENDBRANCH   2   3
BRANCH   2  30
ATOM     30  N   UNL     1      60.641  31.524  59.097  1.00  0.00    -0.343 N 
ATOM     31  C   UNL     1      61.513  32.400  58.343  1.00  0.00     0.243 C 
ATOM     32  H   UNL     1      60.592  31.667  60.129  1.00  0.00     0.164 HD
ATOM     33  O   UNL     1      61.717  32.196  57.122  1.00  0.00    -0.273 OA
BRANCH  31  34
ATOM     34  C   UNL     1      62.254  33.505  59.020  1.00  0.00     0.174 C 
ATOM     35  N   UNL     1      63.593  33.101  59.519  1.00  0.00    -0.329 N 
ATOM     36  C   UNL     1      61.427  34.041  60.203  1.00  0.00     0.035 C 
ATOM     37  C   UNL     1      64.358  34.239  60.059  1.00  0.00     0.120 C 
ATOM     38  C   UNL     1      62.147  35.231  60.848  1.00  0.00     0.004 C 
ATOM     39  C   UNL     1      63.598  34.876  61.235  1.00  0.00     0.022 C 
BRANCH  35  40
ATOM     40  C   UNL     1      64.319  32.053  58.825  1.00  0.00     0.246 CG0
ATOM     41  O   UNL     1      64.962  32.389  57.797  1.00  0.00    -0.272 OA
ATOM     42  G   UNL     1      64.456  30.587  59.297  1.00  0.00     0.000 G0
ENDBRANCH  35  40
ENDBRANCH  31  34
ENDBRANCH   2  30
ENDBRANCH   1   2
BRANCH   1  43
ATOM     43  C   UNL     1      58.059  30.205  56.911  1.00  0.00     0.003 C 
BRANCH  43  44
ATOM     44  C   UNL     1      57.492  28.786  56.722  1.00  0.00     0.001 C 
BRANCH  44  45
ATOM     45  C   UNL     1      57.083  28.068  58.026  1.00  0.00     0.008 C 
BRANCH  45  46
ATOM     46  C   UNL     1      55.663  28.388  58.535  1.00  0.00     0.075 C 
BRANCH  46  47
ATOM     47  C   UNL     1      55.558  28.547  60.039  1.00  0.00     0.132 C 
ATOM     48  O   UNL     1      54.735  29.325  60.506  1.00  0.00    -0.300 OA
BRANCH  47  49
ATOM     49  C   UNL     1      56.479  27.827  61.003  1.00  0.00     0.072 C 
ATOM     50  C   UNL     1      56.237  28.143  62.476  1.00  0.00     0.012 C 
ENDBRANCH  47  49
ENDBRANCH  46  47
ENDBRANCH  45  46
ENDBRANCH  44  45
ENDBRANCH  43  44
ENDBRANCH   1  43
TORSDOF 12
ENDMDL
