MODEL 1
REMARK VINA RESULT:    -7.225      0.000      0.000
REMARK INTER + INTRA:          -7.858
REMARK INTER:                  -7.858
REMARK INTRA:                   0.000
REMARK UNBOUND:                 0.000
REMARK SMILES Cc1cc(O)c2c(c1)C(=O)c1cc(O)cc(O)c1C2=O
REMARK SMILES IDX 1 1 2 2 8 3 7 4 6 5 4 6 3 7 19 8 20 9 18 10 11 11 9 12 10 13
REMARK SMILES IDX 12 14 13 15 15 16 16 17 5 18 17 20 14 22
REMARK H PARENT 5 19 17 21 14 23
REMARK Flexibility Score: inf
ROOT
ATOM      1  C   UNL     1       8.714 -21.702  17.550  1.00  0.00     0.044 C 
ATOM      2  C   UNL     1       9.857 -22.575  17.119  1.00  0.00    -0.047 A 
ATOM      3  C   UNL     1      10.519 -23.378  18.052  1.00  0.00     0.016 A 
ATOM      4  C   UNL     1      11.559 -24.234  17.652  1.00  0.00     0.038 A 
ATOM      5  C   UNL     1      11.925 -24.310  16.287  1.00  0.00     0.076 A 
ATOM      6  C   UNL     1      11.287 -23.446  15.356  1.00  0.00     0.127 A 
ATOM      7  C   UNL     1      10.238 -22.622  15.776  1.00  0.00     0.050 A 
ATOM      8  C   UNL     1      12.921 -25.340  15.877  1.00  0.00     0.201 C 
ATOM      9  O   UNL     1      12.973 -25.729  14.679  1.00  0.00    -0.288 OA
ATOM     10  C   UNL     1      13.778 -25.999  16.898  1.00  0.00     0.076 A 
ATOM     11  C   UNL     1      13.444 -25.868  18.263  1.00  0.00     0.041 A 
ATOM     12  C   UNL     1      12.276 -25.051  18.661  1.00  0.00     0.194 C 
ATOM     13  O   UNL     1      11.900 -25.036  19.865  1.00  0.00    -0.289 OA
ATOM     14  C   UNL     1      14.222 -26.517  19.237  1.00  0.00     0.059 A 
ATOM     15  C   UNL     1      15.326 -27.285  18.868  1.00  0.00     0.120 A 
ATOM     16  C   UNL     1      15.666 -27.410  17.518  1.00  0.00     0.093 A 
ATOM     17  C   UNL     1      14.903 -26.774  16.531  1.00  0.00     0.131 A 
ENDROOT
BRANCH   6  18
ATOM     18  O   UNL     1      11.680 -23.345  14.019  1.00  0.00    -0.507 OA
ATOM     19  H   UNL     1      12.284 -22.617  13.665  1.00  0.00     0.293 HD
ENDBRANCH   6  18
BRANCH  17  20
ATOM     20  O   UNL     1      15.272 -26.904  15.192  1.00  0.00    -0.507 OA
ATOM     21  H   UNL     1      14.895 -27.637  14.604  1.00  0.00     0.293 HD
ENDBRANCH  17  20
BRANCH  15  22
ATOM     22  O   UNL     1      16.083 -27.917  19.852  1.00  0.00    -0.508 OA
ATOM     23  H   UNL     1      15.663 -28.564  20.510  1.00  0.00     0.293 HD
ENDBRANCH  15  22
TORSDOF 3
ENDMDL
MODEL 2
REMARK VINA RESULT:    -6.784      1.900      6.088
REMARK INTER + INTRA:          -7.379
REMARK INTER:                  -7.379
REMARK INTRA:                   0.000
REMARK UNBOUND:                 0.000
REMARK SMILES Cc1cc(O)c2c(c1)C(=O)c1cc(O)cc(O)c1C2=O
REMARK SMILES IDX 1 1 2 2 8 3 7 4 6 5 4 6 3 7 19 8 20 9 18 10 11 11 9 12 10 13
REMARK SMILES IDX 12 14 13 15 15 16 16 17 5 18 17 20 14 22
REMARK H PARENT 5 19 17 21 14 23
REMARK Flexibility Score: inf
ROOT
ATOM      1  C   UNL     1      16.234 -27.122  12.721  1.00  0.00     0.044 C 
ATOM      2  C   UNL     1      15.497 -26.593  13.917  1.00  0.00    -0.047 A 
ATOM      3  C   UNL     1      14.287 -25.912  13.753  1.00  0.00     0.016 A 
ATOM      4  C   UNL     1      13.564 -25.454  14.867  1.00  0.00     0.038 A 
ATOM      5  C   UNL     1      14.046 -25.707  16.173  1.00  0.00     0.076 A 
ATOM      6  C   UNL     1      15.306 -26.347  16.328  1.00  0.00     0.127 A 
ATOM      7  C   UNL     1      15.992 -26.816  15.204  1.00  0.00     0.050 A 
ATOM      8  C   UNL     1      13.178 -25.347  17.331  1.00  0.00     0.201 C 
ATOM      9  O   UNL     1      13.350 -25.905  18.448  1.00  0.00    -0.288 OA
ATOM     10  C   UNL     1      12.033 -24.418  17.145  1.00  0.00     0.076 A 
ATOM     11  C   UNL     1      11.596 -24.119  15.837  1.00  0.00     0.041 A 
ATOM     12  C   UNL     1      12.302 -24.701  14.673  1.00  0.00     0.194 C 
ATOM     13  O   UNL     1      11.838 -24.538  13.511  1.00  0.00    -0.289 OA
ATOM     14  C   UNL     1      10.490 -23.272  15.647  1.00  0.00     0.059 A 
ATOM     15  C   UNL     1       9.824 -22.718  16.740  1.00  0.00     0.120 A 
ATOM     16  C   UNL     1      10.258 -23.004  18.037  1.00  0.00     0.093 A 
ATOM     17  C   UNL     1      11.357 -23.847  18.249  1.00  0.00     0.131 A 
ENDROOT
BRANCH   6  18
ATOM     18  O   UNL     1      15.929 -26.509  17.569  1.00  0.00    -0.507 OA
ATOM     19  H   UNL     1      16.907 -26.733  17.680  1.00  0.00     0.293 HD
ENDBRANCH   6  18
BRANCH  17  20
ATOM     20  O   UNL     1      11.779 -24.106  19.553  1.00  0.00    -0.507 OA
ATOM     21  H   UNL     1      11.981 -25.046  19.872  1.00  0.00     0.293 HD
ENDBRANCH  17  20
BRANCH  15  22
ATOM     22  O   UNL     1       8.731 -21.881  16.526  1.00  0.00    -0.508 OA
ATOM     23  H   UNL     1       8.227 -21.459  17.298  1.00  0.00     0.293 HD
ENDBRANCH  15  22
TORSDOF 3
ENDMDL
MODEL 3
REMARK VINA RESULT:    -6.728     13.930     15.797
REMARK INTER + INTRA:          -7.317
REMARK INTER:                  -7.317
REMARK INTRA:                   0.000
REMARK UNBOUND:                 0.000
REMARK SMILES Cc1cc(O)c2c(c1)C(=O)c1cc(O)cc(O)c1C2=O
REMARK SMILES IDX 1 1 2 2 8 3 7 4 6 5 4 6 3 7 19 8 20 9 18 10 11 11 9 12 10 13
REMARK SMILES IDX 12 14 13 15 15 16 16 17 5 18 17 20 14 22
REMARK H PARENT 5 19 17 21 14 23
REMARK Flexibility Score: inf
ROOT
ATOM      1  C   UNL     1       0.895 -13.631  19.517  1.00  0.00     0.044 C 
ATOM      2  C   UNL     1       0.932 -13.759  18.023  1.00  0.00    -0.047 A 
ATOM      3  C   UNL     1       2.136 -14.038  17.370  1.00  0.00     0.016 A 
ATOM      4  C   UNL     1       2.175 -14.207  15.976  1.00  0.00     0.038 A 
ATOM      5  C   UNL     1       0.981 -14.125  15.222  1.00  0.00     0.076 A 
ATOM      6  C   UNL     1      -0.228 -13.782  15.886  1.00  0.00     0.127 A 
ATOM      7  C   UNL     1      -0.244 -13.644  17.277  1.00  0.00     0.050 A 
ATOM      8  C   UNL     1       1.034 -14.464  13.771  1.00  0.00     0.201 C 
ATOM      9  O   UNL     1      -0.015 -14.808  13.163  1.00  0.00    -0.288 OA
ATOM     10  C   UNL     1       2.340 -14.513  13.063  1.00  0.00     0.076 A 
ATOM     11  C   UNL     1       3.531 -14.532  13.819  1.00  0.00     0.041 A 
ATOM     12  C   UNL     1       3.468 -14.465  15.296  1.00  0.00     0.194 C 
ATOM     13  O   UNL     1       4.520 -14.609  15.978  1.00  0.00    -0.289 OA
ATOM     14  C   UNL     1       4.772 -14.617  13.164  1.00  0.00     0.059 A 
ATOM     15  C   UNL     1       4.838 -14.676  11.772  1.00  0.00     0.120 A 
ATOM     16  C   UNL     1       3.661 -14.649  11.019  1.00  0.00     0.093 A 
ATOM     17  C   UNL     1       2.414 -14.567  11.651  1.00  0.00     0.131 A 
ENDROOT
BRANCH   6  18
ATOM     18  O   UNL     1      -1.425 -13.535  15.208  1.00  0.00    -0.507 OA
ATOM     19  H   UNL     1      -1.808 -14.148  14.503  1.00  0.00     0.293 HD
ENDBRANCH   6  18
BRANCH  17  20
ATOM     20  O   UNL     1       1.255 -14.527  10.875  1.00  0.00    -0.507 OA
ATOM     21  H   UNL     1       0.696 -13.686  10.793  1.00  0.00     0.293 HD
ENDBRANCH  17  20
BRANCH  15  22
ATOM     22  O   UNL     1       6.080 -14.758  11.146  1.00  0.00    -0.508 OA
ATOM     23  H   UNL     1       6.936 -14.871  11.679  1.00  0.00     0.293 HD
ENDBRANCH  15  22
TORSDOF 3
ENDMDL
MODEL 4
REMARK VINA RESULT:    -6.712      1.574      3.431
REMARK INTER + INTRA:          -7.301
REMARK INTER:                  -7.301
REMARK INTRA:                   0.000
REMARK UNBOUND:                 0.000
REMARK SMILES Cc1cc(O)c2c(c1)C(=O)c1cc(O)cc(O)c1C2=O
REMARK SMILES IDX 1 1 2 2 8 3 7 4 6 5 4 6 3 7 19 8 20 9 18 10 11 11 9 12 10 13
REMARK SMILES IDX 12 14 13 15 15 16 16 17 5 18 17 20 14 22
REMARK H PARENT 5 19 17 21 14 23
REMARK Flexibility Score: inf
ROOT
ATOM      1  C   UNL     1      11.206 -22.228  12.156  1.00  0.00     0.044 C 
ATOM      2  C   UNL     1      11.261 -22.824  13.532  1.00  0.00    -0.047 A 
ATOM      3  C   UNL     1      12.389 -23.539  13.945  1.00  0.00     0.016 A 
ATOM      4  C   UNL     1      12.471 -24.061  15.247  1.00  0.00     0.038 A 
ATOM      5  C   UNL     1      11.416 -23.840  16.163  1.00  0.00     0.076 A 
ATOM      6  C   UNL     1      10.248 -23.165  15.716  1.00  0.00     0.127 A 
ATOM      7  C   UNL     1      10.202 -22.633  14.424  1.00  0.00     0.050 A 
ATOM      8  C   UNL     1      11.604 -24.271  17.578  1.00  0.00     0.201 C 
ATOM      9  O   UNL     1      10.915 -23.750  18.495  1.00  0.00    -0.288 OA
ATOM     10  C   UNL     1      12.684 -25.230  17.929  1.00  0.00     0.076 A 
ATOM     11  C   UNL     1      13.701 -25.495  16.987  1.00  0.00     0.041 A 
ATOM     12  C   UNL     1      13.660 -24.848  15.656  1.00  0.00     0.194 C 
ATOM     13  O   UNL     1      14.630 -24.982  14.861  1.00  0.00    -0.289 OA
ATOM     14  C   UNL     1      14.750 -26.370  17.318  1.00  0.00     0.059 A 
ATOM     15  C   UNL     1      14.792 -26.986  18.569  1.00  0.00     0.120 A 
ATOM     16  C   UNL     1      13.783 -26.734  19.502  1.00  0.00     0.093 A 
ATOM     17  C   UNL     1      12.729 -25.864  19.193  1.00  0.00     0.131 A 
ENDROOT
BRANCH   6  18
ATOM     18  O   UNL     1       9.100 -23.029  16.502  1.00  0.00    -0.507 OA
ATOM     19  H   UNL     1       8.956 -23.516  17.374  1.00  0.00     0.293 HD
ENDBRANCH   6  18
BRANCH  17  20
ATOM     20  O   UNL     1      11.727 -25.640  20.137  1.00  0.00    -0.507 OA
ATOM     21  H   UNL     1      10.751 -25.810  19.929  1.00  0.00     0.293 HD
ENDBRANCH  17  20
BRANCH  15  22
ATOM     22  O   UNL     1      15.841 -27.851  18.874  1.00  0.00    -0.508 OA
ATOM     23  H   UNL     1      15.830 -28.424  19.710  1.00  0.00     0.293 HD
ENDBRANCH  15  22
TORSDOF 3
ENDMDL
MODEL 5
REMARK VINA RESULT:    -6.663      1.843      3.975
REMARK INTER + INTRA:          -7.247
REMARK INTER:                  -7.247
REMARK INTRA:                   0.000
REMARK UNBOUND:                 0.000
REMARK SMILES Cc1cc(O)c2c(c1)C(=O)c1cc(O)cc(O)c1C2=O
REMARK SMILES IDX 1 1 2 2 8 3 7 4 6 5 4 6 3 7 19 8 20 9 18 10 11 11 9 12 10 13
REMARK SMILES IDX 12 14 13 15 15 16 16 17 5 18 17 20 14 22
REMARK H PARENT 5 19 17 21 14 23
REMARK Flexibility Score: inf
ROOT
ATOM      1  C   UNL     1       8.933 -21.844  17.409  1.00  0.00     0.044 C 
ATOM      2  C   UNL     1      10.042 -22.841  17.240  1.00  0.00    -0.047 A 
ATOM      3  C   UNL     1      10.463 -23.215  15.961  1.00  0.00     0.016 A 
ATOM      4  C   UNL     1      11.532 -24.112  15.790  1.00  0.00     0.038 A 
ATOM      5  C   UNL     1      12.211 -24.623  16.921  1.00  0.00     0.076 A 
ATOM      6  C   UNL     1      11.737 -24.285  18.218  1.00  0.00     0.127 A 
ATOM      7  C   UNL     1      10.689 -23.371  18.360  1.00  0.00     0.050 A 
ATOM      8  C   UNL     1      13.435 -25.445  16.701  1.00  0.00     0.201 C 
ATOM      9  O   UNL     1      14.288 -25.569  17.620  1.00  0.00    -0.288 OA
ATOM     10  C   UNL     1      13.715 -26.024  15.361  1.00  0.00     0.076 A 
ATOM     11  C   UNL     1      12.990 -25.554  14.244  1.00  0.00     0.041 A 
ATOM     12  C   UNL     1      11.942 -24.526  14.426  1.00  0.00     0.194 C 
ATOM     13  O   UNL     1      11.381 -24.013  13.418  1.00  0.00    -0.289 OA
ATOM     14  C   UNL     1      13.270 -26.065  12.965  1.00  0.00     0.059 A 
ATOM     15  C   UNL     1      14.253 -27.038  12.789  1.00  0.00     0.120 A 
ATOM     16  C   UNL     1      14.968 -27.512  13.892  1.00  0.00     0.093 A 
ATOM     17  C   UNL     1      14.707 -27.016  15.176  1.00  0.00     0.131 A 
ENDROOT
BRANCH   6  18
ATOM     18  O   UNL     1      12.249 -24.853  19.387  1.00  0.00    -0.507 OA
ATOM     19  H   UNL     1      13.182 -25.231  19.466  1.00  0.00     0.293 HD
ENDBRANCH   6  18
BRANCH  17  20
ATOM     20  O   UNL     1      15.424 -27.516  16.262  1.00  0.00    -0.507 OA
ATOM     21  H   UNL     1      15.374 -27.086  17.178  1.00  0.00     0.293 HD
ENDBRANCH  17  20
BRANCH  15  22
ATOM     22  O   UNL     1      14.512 -27.530  11.511  1.00  0.00    -0.508 OA
ATOM     23  H   UNL     1      14.033 -27.165  10.695  1.00  0.00     0.293 HD
ENDBRANCH  15  22
TORSDOF 3
ENDMDL
MODEL 6
REMARK VINA RESULT:    -6.605      2.066      3.771
REMARK INTER + INTRA:          -7.185
REMARK INTER:                  -7.185
REMARK INTRA:                   0.000
REMARK UNBOUND:                 0.000
REMARK SMILES Cc1cc(O)c2c(c1)C(=O)c1cc(O)cc(O)c1C2=O
REMARK SMILES IDX 1 1 2 2 8 3 7 4 6 5 4 6 3 7 19 8 20 9 18 10 11 11 9 12 10 13
REMARK SMILES IDX 12 14 13 15 15 16 16 17 5 18 17 20 14 22
REMARK H PARENT 5 19 17 21 14 23
REMARK Flexibility Score: inf
ROOT
ATOM      1  C   UNL     1      12.075 -21.547  11.723  1.00  0.00     0.044 C 
ATOM      2  C   UNL     1      12.497 -22.490  12.812  1.00  0.00    -0.047 A 
ATOM      3  C   UNL     1      11.813 -22.507  14.031  1.00  0.00     0.016 A 
ATOM      4  C   UNL     1      12.169 -23.418  15.041  1.00  0.00     0.038 A 
ATOM      5  C   UNL     1      13.210 -24.349  14.816  1.00  0.00     0.076 A 
ATOM      6  C   UNL     1      13.939 -24.283  13.598  1.00  0.00     0.127 A 
ATOM      7  C   UNL     1      13.548 -23.385  12.600  1.00  0.00     0.050 A 
ATOM      8  C   UNL     1      13.455 -25.399  15.845  1.00  0.00     0.201 C 
ATOM      9  O   UNL     1      14.051 -26.465  15.532  1.00  0.00    -0.288 OA
ATOM     10  C   UNL     1      12.896 -25.249  17.214  1.00  0.00     0.076 A 
ATOM     11  C   UNL     1      11.901 -24.276  17.447  1.00  0.00     0.041 A 
ATOM     12  C   UNL     1      11.457 -23.397  16.342  1.00  0.00     0.194 C 
ATOM     13  O   UNL     1      10.482 -22.615  16.514  1.00  0.00    -0.289 OA
ATOM     14  C   UNL     1      11.336 -24.148  18.727  1.00  0.00     0.059 A 
ATOM     15  C   UNL     1      11.754 -24.970  19.773  1.00  0.00     0.120 A 
ATOM     16  C   UNL     1      12.745 -25.930  19.550  1.00  0.00     0.093 A 
ATOM     17  C   UNL     1      13.320 -26.076  18.281  1.00  0.00     0.131 A 
ENDROOT
BRANCH   6  18
ATOM     18  O   UNL     1      15.073 -25.061  13.346  1.00  0.00    -0.507 OA
ATOM     19  H   UNL     1      15.954 -24.938  13.823  1.00  0.00     0.293 HD
ENDBRANCH   6  18
BRANCH  17  20
ATOM     20  O   UNL     1      14.317 -27.032  18.088  1.00  0.00    -0.507 OA
ATOM     21  H   UNL     1      14.948 -27.302  18.833  1.00  0.00     0.293 HD
ENDBRANCH  17  20
BRANCH  15  22
ATOM     22  O   UNL     1      11.179 -24.823  21.034  1.00  0.00    -0.508 OA
ATOM     23  H   UNL     1      10.174 -24.854  21.166  1.00  0.00     0.293 HD
ENDBRANCH  15  22
TORSDOF 3
ENDMDL
MODEL 7
REMARK VINA RESULT:    -6.602      1.352      5.500
REMARK INTER + INTRA:          -7.181
REMARK INTER:                  -7.181
REMARK INTRA:                   0.000
REMARK UNBOUND:                 0.000
REMARK SMILES Cc1cc(O)c2c(c1)C(=O)c1cc(O)cc(O)c1C2=O
REMARK SMILES IDX 1 1 2 2 8 3 7 4 6 5 4 6 3 7 19 8 20 9 18 10 11 11 9 12 10 13
REMARK SMILES IDX 12 14 13 15 15 16 16 17 5 18 17 20 14 22
REMARK H PARENT 5 19 17 21 14 23
REMARK Flexibility Score: inf
ROOT
ATOM      1  C   UNL     1      16.061 -27.984  19.118  1.00  0.00     0.044 C 
ATOM      2  C   UNL     1      15.213 -27.158  18.196  1.00  0.00    -0.047 A 
ATOM      3  C   UNL     1      14.166 -26.386  18.705  1.00  0.00     0.016 A 
ATOM      4  C   UNL     1      13.396 -25.571  17.858  1.00  0.00     0.038 A 
ATOM      5  C   UNL     1      13.698 -25.505  16.477  1.00  0.00     0.076 A 
ATOM      6  C   UNL     1      14.725 -26.339  15.958  1.00  0.00     0.127 A 
ATOM      7  C   UNL     1      15.493 -27.121  16.827  1.00  0.00     0.050 A 
ATOM      8  C   UNL     1      12.965 -24.515  15.638  1.00  0.00     0.201 C 
ATOM      9  O   UNL     1      13.456 -24.124  14.545  1.00  0.00    -0.288 OA
ATOM     10  C   UNL     1      11.710 -23.895  16.139  1.00  0.00     0.076 A 
ATOM     11  C   UNL     1      11.381 -24.017  17.506  1.00  0.00     0.041 A 
ATOM     12  C   UNL     1      12.264 -24.787  18.410  1.00  0.00     0.194 C 
ATOM     13  O   UNL     1      12.042 -24.792  19.653  1.00  0.00    -0.289 OA
ATOM     14  C   UNL     1      10.218 -23.404  18.002  1.00  0.00     0.059 A 
ATOM     15  C   UNL     1       9.380 -22.680  17.154  1.00  0.00     0.120 A 
ATOM     16  C   UNL     1       9.696 -22.564  15.797  1.00  0.00     0.093 A 
ATOM     17  C   UNL     1      10.852 -23.165  15.282  1.00  0.00     0.131 A 
ENDROOT
BRANCH   6  18
ATOM     18  O   UNL     1      14.997 -26.451  14.592  1.00  0.00    -0.507 OA
ATOM     19  H   UNL     1      15.630 -27.133  14.200  1.00  0.00     0.293 HD
ENDBRANCH   6  18
BRANCH  17  20
ATOM     20  O   UNL     1      11.137 -23.046  13.922  1.00  0.00    -0.507 OA
ATOM     21  H   UNL     1      11.106 -22.151  13.448  1.00  0.00     0.293 HD
ENDBRANCH  17  20
BRANCH  15  22
ATOM     22  O   UNL     1       8.231 -22.083  17.668  1.00  0.00    -0.508 OA
ATOM     23  H   UNL     1       7.367 -22.053  17.140  1.00  0.00     0.293 HD
ENDBRANCH  15  22
TORSDOF 3
ENDMDL
MODEL 8
REMARK VINA RESULT:    -6.586      2.301      4.624
REMARK INTER + INTRA:          -7.164
REMARK INTER:                  -7.164
REMARK INTRA:                   0.000
REMARK UNBOUND:                 0.000
REMARK SMILES Cc1cc(O)c2c(c1)C(=O)c1cc(O)cc(O)c1C2=O
REMARK SMILES IDX 1 1 2 2 8 3 7 4 6 5 4 6 3 7 19 8 20 9 18 10 11 11 9 12 10 13
REMARK SMILES IDX 12 14 13 15 15 16 16 17 5 18 17 20 14 22
REMARK H PARENT 5 19 17 21 14 23
REMARK Flexibility Score: inf
ROOT
ATOM      1  C   UNL     1      15.873 -25.209  11.663  1.00  0.00     0.044 C 
ATOM      2  C   UNL     1      14.974 -24.802  12.793  1.00  0.00    -0.047 A 
ATOM      3  C   UNL     1      14.962 -25.537  13.982  1.00  0.00     0.016 A 
ATOM      4  C   UNL     1      14.159 -25.137  15.065  1.00  0.00     0.038 A 
ATOM      5  C   UNL     1      13.375 -23.963  14.966  1.00  0.00     0.076 A 
ATOM      6  C   UNL     1      13.348 -23.257  13.733  1.00  0.00     0.127 A 
ATOM      7  C   UNL     1      14.175 -23.661  12.681  1.00  0.00     0.050 A 
ATOM      8  C   UNL     1      12.660 -23.485  16.183  1.00  0.00     0.201 C 
ATOM      9  O   UNL     1      12.308 -22.278  16.277  1.00  0.00    -0.288 OA
ATOM     10  C   UNL     1      12.464 -24.396  17.341  1.00  0.00     0.076 A 
ATOM     11  C   UNL     1      13.203 -25.597  17.403  1.00  0.00     0.041 A 
ATOM     12  C   UNL     1      14.130 -25.949  16.305  1.00  0.00     0.194 C 
ATOM     13  O   UNL     1      14.884 -26.955  16.417  1.00  0.00    -0.289 OA
ATOM     14  C   UNL     1      13.055 -26.451  18.510  1.00  0.00     0.059 A 
ATOM     15  C   UNL     1      12.180 -26.125  19.546  1.00  0.00     0.120 A 
ATOM     16  C   UNL     1      11.440 -24.942  19.485  1.00  0.00     0.093 A 
ATOM     17  C   UNL     1      11.572 -24.076  18.392  1.00  0.00     0.131 A 
ENDROOT
BRANCH   6  18
ATOM     18  O   UNL     1      12.496 -22.175  13.494  1.00  0.00    -0.507 OA
ATOM     19  H   UNL     1      12.733 -21.395  12.899  1.00  0.00     0.293 HD
ENDBRANCH   6  18
BRANCH  17  20
ATOM     20  O   UNL     1      10.811 -22.907  18.349  1.00  0.00    -0.507 OA
ATOM     21  H   UNL     1       9.900 -22.848  18.788  1.00  0.00     0.293 HD
ENDBRANCH  17  20
BRANCH  15  22
ATOM     22  O   UNL     1      12.051 -26.989  20.632  1.00  0.00    -0.508 OA
ATOM     23  H   UNL     1      11.214 -27.545  20.771  1.00  0.00     0.293 HD
ENDBRANCH  15  22
TORSDOF 3
ENDMDL
MODEL 9
REMARK VINA RESULT:    -6.206      2.430      6.177
REMARK INTER + INTRA:          -6.750
REMARK INTER:                  -6.750
REMARK INTRA:                   0.000
REMARK UNBOUND:                 0.000
REMARK SMILES Cc1cc(O)c2c(c1)C(=O)c1cc(O)cc(O)c1C2=O
REMARK SMILES IDX 1 1 2 2 8 3 7 4 6 5 4 6 3 7 19 8 20 9 18 10 11 11 9 12 10 13
REMARK SMILES IDX 12 14 13 15 15 16 16 17 5 18 17 20 14 22
REMARK H PARENT 5 19 17 21 14 23
REMARK Flexibility Score: inf
ROOT
ATOM      1  C   UNL     1      13.253 -26.371  18.958  1.00  0.00     0.044 C 
ATOM      2  C   UNL     1      13.277 -25.668  17.632  1.00  0.00    -0.047 A 
ATOM      3  C   UNL     1      12.135 -25.013  17.163  1.00  0.00     0.016 A 
ATOM      4  C   UNL     1      12.160 -24.312  15.945  1.00  0.00     0.038 A 
ATOM      5  C   UNL     1      13.358 -24.242  15.195  1.00  0.00     0.076 A 
ATOM      6  C   UNL     1      14.496 -24.961  15.650  1.00  0.00     0.127 A 
ATOM      7  C   UNL     1      14.453 -25.629  16.878  1.00  0.00     0.050 A 
ATOM      8  C   UNL     1      13.390 -23.362  13.992  1.00  0.00     0.201 C 
ATOM      9  O   UNL     1      14.490 -22.941  13.545  1.00  0.00    -0.288 OA
ATOM     10  C   UNL     1      12.122 -22.882  13.384  1.00  0.00     0.076 A 
ATOM     11  C   UNL     1      10.919 -23.012  14.110  1.00  0.00     0.041 A 
ATOM     12  C   UNL     1      10.929 -23.654  15.444  1.00  0.00     0.194 C 
ATOM     13  O   UNL     1       9.882 -23.657  16.148  1.00  0.00    -0.289 OA
ATOM     14  C   UNL     1       9.717 -22.528  13.564  1.00  0.00     0.059 A 
ATOM     15  C   UNL     1       9.701 -21.926  12.306  1.00  0.00     0.120 A 
ATOM     16  C   UNL     1      10.888 -21.803  11.579  1.00  0.00     0.093 A 
ATOM     17  C   UNL     1      12.097 -22.277  12.105  1.00  0.00     0.131 A 
ENDROOT
BRANCH   6  18
ATOM     18  O   UNL     1      15.674 -25.071  14.907  1.00  0.00    -0.507 OA
ATOM     19  H   UNL     1      16.294 -25.867  14.951  1.00  0.00     0.293 HD
ENDBRANCH   6  18
BRANCH  17  20
ATOM     20  O   UNL     1      13.265 -22.154  11.353  1.00  0.00    -0.507 OA
ATOM     21  H   UNL     1      13.281 -22.344  10.358  1.00  0.00     0.293 HD
ENDBRANCH  17  20
BRANCH  15  22
ATOM     22  O   UNL     1       8.498 -21.455  11.785  1.00  0.00    -0.508 OA
ATOM     23  H   UNL     1       8.475 -20.803  11.009  1.00  0.00     0.293 HD
ENDBRANCH  15  22
TORSDOF 3
ENDMDL
