MODEL 1
REMARK VINA RESULT:    -3.772      0.000      0.000
REMARK INTER + INTRA:          -4.103
REMARK INTER:                  -4.103
REMARK INTRA:                   0.000
REMARK UNBOUND:                 0.000
REMARK SMILES [NH3+]CC(=O)[O-]
REMARK SMILES IDX 2 1 1 2 3 6 4 7 5 8
REMARK H PARENT 1 3 1 4 1 5
REMARK Flexibility Score: inf
ROOT
ATOM      1  C   UNL     1      12.221  15.400  45.909  1.00  0.00     0.312 C 
ENDROOT
BRANCH   1   2
ATOM      2  N   UNL     1      11.478  14.881  44.763  1.00  0.00    -0.353 N 
ATOM      3  H   UNL     1      11.142  13.910  44.962  1.00  0.00     0.344 HD
ATOM      4  H   UNL     1      10.650  15.495  44.585  1.00  0.00     0.344 HD
ATOM      5  H   UNL     1      12.086  14.878  43.912  1.00  0.00     0.344 HD
ENDBRANCH   1   2
BRANCH   1   6
ATOM      6  C   UNL     1      12.473  14.316  46.910  1.00  0.00     0.096 C 
ATOM      7  O   UNL     1      12.609  13.123  46.532  1.00  0.00    -0.544 OA
ATOM      8  O   UNL     1      12.610  14.631  48.256  1.00  0.00    -0.544 OA
ENDBRANCH   1   6
TORSDOF 2
ENDMDL
MODEL 2
REMARK VINA RESULT:    -3.700      2.683      2.814
REMARK INTER + INTRA:          -4.024
REMARK INTER:                  -4.024
REMARK INTRA:                   0.000
REMARK UNBOUND:                 0.000
REMARK SMILES [NH3+]CC(=O)[O-]
REMARK SMILES IDX 2 1 1 2 3 6 4 7 5 8
REMARK H PARENT 1 3 1 4 1 5
REMARK Flexibility Score: inf
ROOT
ATOM      1  C   UNL     1      12.420  14.655  47.942  1.00  0.00     0.312 C 
ENDROOT
BRANCH   1   2
ATOM      2  N   UNL     1      13.301  15.066  49.033  1.00  0.00    -0.353 N 
ATOM      3  H   UNL     1      12.889  14.783  49.953  1.00  0.00     0.344 HD
ATOM      4  H   UNL     1      14.229  14.597  48.919  1.00  0.00     0.344 HD
ATOM      5  H   UNL     1      13.439  16.102  49.011  1.00  0.00     0.344 HD
ENDBRANCH   1   2
BRANCH   1   6
ATOM      6  C   UNL     1      12.896  15.216  46.638  1.00  0.00     0.096 C 
ATOM      7  O   UNL     1      12.127  15.246  45.642  1.00  0.00    -0.544 OA
ATOM      8  O   UNL     1      14.173  15.755  46.538  1.00  0.00    -0.544 OA
ENDBRANCH   1   6
TORSDOF 2
ENDMDL
MODEL 3
REMARK VINA RESULT:    -3.568      1.939      2.415
REMARK INTER + INTRA:          -3.881
REMARK INTER:                  -3.881
REMARK INTRA:                   0.000
REMARK UNBOUND:                 0.000
REMARK SMILES [NH3+]CC(=O)[O-]
REMARK SMILES IDX 2 1 1 2 3 6 4 7 5 8
REMARK H PARENT 1 3 1 4 1 5
REMARK Flexibility Score: inf
ROOT
ATOM      1  C   UNL     1      13.500  15.566  46.308  1.00  0.00     0.312 C 
ENDROOT
BRANCH   1   2
ATOM      2  N   UNL     1      14.802  16.043  46.769  1.00  0.00    -0.353 N 
ATOM      3  H   UNL     1      14.711  17.004  47.171  1.00  0.00     0.344 HD
ATOM      4  H   UNL     1      15.160  15.398  47.511  1.00  0.00     0.344 HD
ATOM      5  H   UNL     1      15.482  16.054  45.974  1.00  0.00     0.344 HD
ENDBRANCH   1   2
BRANCH   1   6
ATOM      6  C   UNL     1      12.981  14.491  47.212  1.00  0.00     0.096 C 
ATOM      7  O   UNL     1      12.890  14.694  48.451  1.00  0.00    -0.544 OA
ATOM      8  O   UNL     1      12.549  13.283  46.679  1.00  0.00    -0.544 OA
ENDBRANCH   1   6
TORSDOF 2
ENDMDL
MODEL 4
REMARK VINA RESULT:    -3.436      2.136      2.511
REMARK INTER + INTRA:          -3.738
REMARK INTER:                  -3.738
REMARK INTRA:                   0.000
REMARK UNBOUND:                 0.000
REMARK SMILES [NH3+]CC(=O)[O-]
REMARK SMILES IDX 2 1 1 2 3 6 4 7 5 8
REMARK H PARENT 1 3 1 4 1 5
REMARK Flexibility Score: inf
ROOT
ATOM      1  C   UNL     1      12.633  13.745  47.057  1.00  0.00     0.312 C 
ENDROOT
BRANCH   1   2
ATOM      2  N   UNL     1      12.710  12.601  46.151  1.00  0.00    -0.353 N 
ATOM      3  H   UNL     1      12.838  12.930  45.166  1.00  0.00     0.344 HD
ATOM      4  H   UNL     1      13.529  12.007  46.419  1.00  0.00     0.344 HD
ATOM      5  H   UNL     1      11.838  12.028  46.223  1.00  0.00     0.344 HD
ENDBRANCH   1   2
BRANCH   1   6
ATOM      6  C   UNL     1      12.745  15.030  46.295  1.00  0.00     0.096 C 
ATOM      7  O   UNL     1      13.772  15.749  46.411  1.00  0.00    -0.544 OA
ATOM      8  O   UNL     1      11.737  15.408  45.417  1.00  0.00    -0.544 OA
ENDBRANCH   1   6
TORSDOF 2
ENDMDL
MODEL 5
REMARK VINA RESULT:    -2.518     19.867     20.155
REMARK INTER + INTRA:          -2.739
REMARK INTER:                  -2.739
REMARK INTRA:                   0.000
REMARK UNBOUND:                 0.000
REMARK SMILES [NH3+]CC(=O)[O-]
REMARK SMILES IDX 2 1 1 2 3 6 4 7 5 8
REMARK H PARENT 1 3 1 4 1 5
REMARK Flexibility Score: inf
ROOT
ATOM      1  C   UNL     1      27.272   4.416  38.049  1.00  0.00     0.312 C 
ENDROOT
BRANCH   1   2
ATOM      2  N   UNL     1      28.152   3.783  37.069  1.00  0.00    -0.353 N 
ATOM      3  H   UNL     1      28.566   2.909  37.469  1.00  0.00     0.344 HD
ATOM      4  H   UNL     1      27.596   3.535  36.219  1.00  0.00     0.344 HD
ATOM      5  H   UNL     1      28.915   4.443  36.794  1.00  0.00     0.344 HD
ENDBRANCH   1   2
BRANCH   1   6
ATOM      6  C   UNL     1      28.065   5.224  39.029  1.00  0.00     0.096 C 
ATOM      7  O   UNL     1      27.858   5.104  40.265  1.00  0.00    -0.544 OA
ATOM      8  O   UNL     1      29.070   6.071  38.579  1.00  0.00    -0.544 OA
ENDBRANCH   1   6
TORSDOF 2
ENDMDL
MODEL 6
REMARK VINA RESULT:    -2.499     19.863     20.113
REMARK INTER + INTRA:          -2.718
REMARK INTER:                  -2.718
REMARK INTRA:                   0.000
REMARK UNBOUND:                 0.000
REMARK SMILES [NH3+]CC(=O)[O-]
REMARK SMILES IDX 2 1 1 2 3 6 4 7 5 8
REMARK H PARENT 1 3 1 4 1 5
REMARK Flexibility Score: inf
ROOT
ATOM      1  C   UNL     1      27.248   4.482  38.060  1.00  0.00     0.312 C 
ENDROOT
BRANCH   1   2
ATOM      2  N   UNL     1      28.064   3.765  37.082  1.00  0.00    -0.353 N 
ATOM      3  H   UNL     1      27.837   4.095  36.115  1.00  0.00     0.344 HD
ATOM      4  H   UNL     1      29.074   3.954  37.275  1.00  0.00     0.344 HD
ATOM      5  H   UNL     1      27.890   2.737  37.155  1.00  0.00     0.344 HD
ENDBRANCH   1   2
BRANCH   1   6
ATOM      6  C   UNL     1      28.116   5.225  39.028  1.00  0.00     0.096 C 
ATOM      7  O   UNL     1      29.015   6.000  38.608  1.00  0.00    -0.544 OA
ATOM      8  O   UNL     1      27.897   5.101  40.395  1.00  0.00    -0.544 OA
ENDBRANCH   1   6
TORSDOF 2
ENDMDL
MODEL 7
REMARK VINA RESULT:    -2.381     19.445     19.674
REMARK INTER + INTRA:          -2.589
REMARK INTER:                  -2.589
REMARK INTRA:                   0.000
REMARK UNBOUND:                 0.000
REMARK SMILES [NH3+]CC(=O)[O-]
REMARK SMILES IDX 2 1 1 2 3 6 4 7 5 8
REMARK H PARENT 1 3 1 4 1 5
REMARK Flexibility Score: inf
ROOT
ATOM      1  C   UNL     1      27.958   5.004  40.421  1.00  0.00     0.312 C 
ENDROOT
BRANCH   1   2
ATOM      2  N   UNL     1      27.941   6.257  41.172  1.00  0.00    -0.353 N 
ATOM      3  H   UNL     1      27.102   6.290  41.797  1.00  0.00     0.344 HD
ATOM      4  H   UNL     1      28.804   6.315  41.761  1.00  0.00     0.344 HD
ATOM      5  H   UNL     1      27.925   7.070  40.514  1.00  0.00     0.344 HD
ENDBRANCH   1   2
BRANCH   1   6
ATOM      6  C   UNL     1      28.097   5.268  38.954  1.00  0.00     0.096 C 
ATOM      7  O   UNL     1      29.000   6.037  38.531  1.00  0.00    -0.544 OA
ATOM      8  O   UNL     1      27.262   4.625  38.050  1.00  0.00    -0.544 OA
ENDBRANCH   1   6
TORSDOF 2
ENDMDL
MODEL 8
REMARK VINA RESULT:    -2.360     20.351     20.695
REMARK INTER + INTRA:          -2.567
REMARK INTER:                  -2.567
REMARK INTRA:                   0.000
REMARK UNBOUND:                 0.000
REMARK SMILES [NH3+]CC(=O)[O-]
REMARK SMILES IDX 2 1 1 2 3 6 4 7 5 8
REMARK H PARENT 1 3 1 4 1 5
REMARK Flexibility Score: inf
ROOT
ATOM      1  C   UNL     1      28.652   3.360  37.826  1.00  0.00     0.312 C 
ENDROOT
BRANCH   1   2
ATOM      2  N   UNL     1      27.629   2.621  37.090  1.00  0.00    -0.353 N 
ATOM      3  H   UNL     1      26.719   3.138  37.121  1.00  0.00     0.344 HD
ATOM      4  H   UNL     1      27.928   2.524  36.092  1.00  0.00     0.344 HD
ATOM      5  H   UNL     1      27.509   1.667  37.502  1.00  0.00     0.344 HD
ENDBRANCH   1   2
BRANCH   1   6
ATOM      6  C   UNL     1      28.123   4.686  38.278  1.00  0.00     0.096 C 
ATOM      7  O   UNL     1      26.882   4.894  38.318  1.00  0.00    -0.544 OA
ATOM      8  O   UNL     1      29.000   5.675  38.706  1.00  0.00    -0.544 OA
ENDBRANCH   1   6
TORSDOF 2
ENDMDL
MODEL 9
REMARK VINA RESULT:    -1.954     20.267     20.600
REMARK INTER + INTRA:          -2.125
REMARK INTER:                  -2.125
REMARK INTRA:                   0.000
REMARK UNBOUND:                 0.000
REMARK SMILES [NH3+]CC(=O)[O-]
REMARK SMILES IDX 2 1 1 2 3 6 4 7 5 8
REMARK H PARENT 1 3 1 4 1 5
REMARK Flexibility Score: inf
ROOT
ATOM      1  C   UNL     1      28.738   3.793  38.271  1.00  0.00     0.312 C 
ENDROOT
BRANCH   1   2
ATOM      2  N   UNL     1      28.994   5.214  38.045  1.00  0.00    -0.353 N 
ATOM      3  H   UNL     1      28.722   5.768  38.890  1.00  0.00     0.344 HD
ATOM      4  H   UNL     1      30.015   5.353  37.864  1.00  0.00     0.344 HD
ATOM      5  H   UNL     1      28.454   5.548  37.214  1.00  0.00     0.344 HD
ENDBRANCH   1   2
BRANCH   1   6
ATOM      6  C   UNL     1      28.253   3.560  39.669  1.00  0.00     0.096 C 
ATOM      7  O   UNL     1      28.367   2.423  40.198  1.00  0.00    -0.544 OA
ATOM      8  O   UNL     1      27.724   4.612  40.406  1.00  0.00    -0.544 OA
ENDBRANCH   1   6
TORSDOF 2
ENDMDL
