MODEL 1
REMARK VINA RESULT:    -4.230      0.000      0.000
REMARK INTER + INTRA:          -6.034
REMARK INTER:                  -5.714
REMARK INTRA:                  -0.320
REMARK UNBOUND:                -0.320
REMARK SMILES CCCCCCCC(=O)[O-]
REMARK SMILES IDX 5 1 6 2 7 3 8 4 9 5 10 6 4 7 3 8 2 9 1 10
REMARK H PARENT
REMARK Flexibility Score: inf
ROOT
ATOM      1  C   UNL     1       2.174 -38.172  18.125  1.00  0.00     0.000 C 
ENDROOT
BRANCH   1   2
ATOM      2  C   UNL     1       3.665 -37.905  18.405  1.00  0.00     0.006 C 
BRANCH   2   3
ATOM      3  C   UNL     1       4.005 -37.716  19.892  1.00  0.00     0.053 C 
BRANCH   3   4
ATOM      4  C   UNL     1       5.012 -36.627  20.103  1.00  0.00     0.041 C 
ATOM      5  O   UNL     1       5.617 -36.527  21.202  1.00  0.00    -0.550 OA
ATOM      6  O   UNL     1       5.257 -35.701  19.096  1.00  0.00    -0.550 OA
ENDBRANCH   3   4
ENDBRANCH   2   3
ENDBRANCH   1   2
BRANCH   1   7
ATOM      7  C   UNL     1       1.663 -37.443  16.873  1.00  0.00     0.000 C 
BRANCH   7   8
ATOM      8  C   UNL     1       2.827 -36.851  16.070  1.00  0.00    -0.000 C 
BRANCH   8   9
ATOM      9  C   UNL     1       2.711 -37.213  14.584  1.00  0.00    -0.003 C 
ATOM     10  C   UNL     1       3.759 -38.248  14.186  1.00  0.00     0.004 C 
ENDBRANCH   8   9
ENDBRANCH   7   8
ENDBRANCH   1   7
TORSDOF 6
ENDMDL
MODEL 2
REMARK VINA RESULT:    -4.187      0.992      1.341
REMARK INTER + INTRA:          -5.976
REMARK INTER:                  -5.759
REMARK INTRA:                  -0.217
REMARK UNBOUND:                -0.320
REMARK SMILES CCCCCCCC(=O)[O-]
REMARK SMILES IDX 5 1 6 2 7 3 8 4 9 5 10 6 4 7 3 8 2 9 1 10
REMARK H PARENT
REMARK Flexibility Score: inf
ROOT
ATOM      1  C   UNL     1       2.605 -37.910  18.389  1.00  0.00     0.000 C 
ENDROOT
BRANCH   1   2
ATOM      2  C   UNL     1       3.981 -37.831  19.077  1.00  0.00     0.006 C 
BRANCH   2   3
ATOM      3  C   UNL     1       4.182 -36.582  19.950  1.00  0.00     0.053 C 
BRANCH   3   4
ATOM      4  C   UNL     1       5.178 -36.816  21.044  1.00  0.00     0.041 C 
ATOM      5  O   UNL     1       6.125 -36.006  21.223  1.00  0.00    -0.550 OA
ATOM      6  O   UNL     1       5.080 -37.948  21.844  1.00  0.00    -0.550 OA
ENDBRANCH   3   4
ENDBRANCH   2   3
ENDBRANCH   1   2
BRANCH   1   7
ATOM      7  C   UNL     1       2.709 -38.175  16.879  1.00  0.00     0.000 C 
BRANCH   7   8
ATOM      8  C   UNL     1       2.715 -36.861  16.091  1.00  0.00    -0.000 C 
BRANCH   8   9
ATOM      9  C   UNL     1       2.767 -37.125  14.581  1.00  0.00    -0.003 C 
ATOM     10  C   UNL     1       3.757 -38.236  14.250  1.00  0.00     0.004 C 
ENDBRANCH   8   9
ENDBRANCH   7   8
ENDBRANCH   1   7
TORSDOF 6
ENDMDL
MODEL 3
REMARK VINA RESULT:    -4.096      3.178      6.450
REMARK INTER + INTRA:          -5.853
REMARK INTER:                  -5.692
REMARK INTRA:                  -0.161
REMARK UNBOUND:                -0.320
REMARK SMILES CCCCCCCC(=O)[O-]
REMARK SMILES IDX 5 1 6 2 7 3 8 4 9 5 10 6 4 7 3 8 2 9 1 10
REMARK H PARENT
REMARK Flexibility Score: inf
ROOT
ATOM      1  C   UNL     1       5.679 -36.357  20.965  1.00  0.00     0.000 C 
ENDROOT
BRANCH   1   2
ATOM      2  C   UNL     1       4.671 -36.479  19.807  1.00  0.00     0.006 C 
BRANCH   2   3
ATOM      3  C   UNL     1       4.238 -37.920  19.494  1.00  0.00     0.053 C 
BRANCH   3   4
ATOM      4  C   UNL     1       3.065 -37.964  18.563  1.00  0.00     0.041 C 
ATOM      5  O   UNL     1       3.161 -37.495  17.399  1.00  0.00    -0.550 OA
ATOM      6  O   UNL     1       1.855 -38.494  18.994  1.00  0.00    -0.550 OA
ENDBRANCH   3   4
ENDBRANCH   2   3
ENDBRANCH   1   2
BRANCH   1   7
ATOM      7  C   UNL     1       5.000 -36.165  22.329  1.00  0.00     0.000 C 
BRANCH   7   8
ATOM      8  C   UNL     1       5.151 -37.418  23.199  1.00  0.00    -0.000 C 
BRANCH   8   9
ATOM      9  C   UNL     1       5.267 -37.048  24.682  1.00  0.00    -0.003 C 
ATOM     10  C   UNL     1       4.775 -38.185  25.573  1.00  0.00     0.004 C 
ENDBRANCH   8   9
ENDBRANCH   7   8
ENDBRANCH   1   7
TORSDOF 6
ENDMDL
MODEL 4
REMARK VINA RESULT:    -4.072      2.763      5.633
REMARK INTER + INTRA:          -5.821
REMARK INTER:                  -5.605
REMARK INTRA:                  -0.215
REMARK UNBOUND:                -0.320
REMARK SMILES CCCCCCCC(=O)[O-]
REMARK SMILES IDX 5 1 6 2 7 3 8 4 9 5 10 6 4 7 3 8 2 9 1 10
REMARK H PARENT
REMARK Flexibility Score: inf
ROOT
ATOM      1  C   UNL     1       3.958 -36.831  19.763  1.00  0.00     0.000 C 
ENDROOT
BRANCH   1   2
ATOM      2  C   UNL     1       3.745 -37.942  18.718  1.00  0.00     0.006 C 
BRANCH   2   3
ATOM      3  C   UNL     1       2.329 -37.989  18.124  1.00  0.00     0.053 C 
BRANCH   3   4
ATOM      4  C   UNL     1       2.328 -37.714  16.651  1.00  0.00     0.041 C 
ATOM      5  O   UNL     1       3.103 -38.347  15.887  1.00  0.00    -0.550 OA
ATOM      6  O   UNL     1       1.495 -36.733  16.127  1.00  0.00    -0.550 OA
ENDBRANCH   3   4
ENDBRANCH   2   3
ENDBRANCH   1   2
BRANCH   1   7
ATOM      7  C   UNL     1       5.163 -37.097  20.679  1.00  0.00     0.000 C 
BRANCH   7   8
ATOM      8  C   UNL     1       5.007 -36.365  22.016  1.00  0.00    -0.000 C 
BRANCH   8   9
ATOM      9  C   UNL     1       5.075 -37.347  23.192  1.00  0.00    -0.003 C 
ATOM     10  C   UNL     1       4.936 -38.789  22.715  1.00  0.00     0.004 C 
ENDBRANCH   8   9
ENDBRANCH   7   8
ENDBRANCH   1   7
TORSDOF 6
ENDMDL
MODEL 5
REMARK VINA RESULT:    -4.065      2.802      5.590
REMARK INTER + INTRA:          -5.811
REMARK INTER:                  -5.530
REMARK INTRA:                  -0.281
REMARK UNBOUND:                -0.320
REMARK SMILES CCCCCCCC(=O)[O-]
REMARK SMILES IDX 5 1 6 2 7 3 8 4 9 5 10 6 4 7 3 8 2 9 1 10
REMARK H PARENT
REMARK Flexibility Score: inf
ROOT
ATOM      1  C   UNL     1       4.053 -36.643  19.428  1.00  0.00     0.000 C 
ENDROOT
BRANCH   1   2
ATOM      2  C   UNL     1       3.704 -37.949  18.690  1.00  0.00     0.006 C 
BRANCH   2   3
ATOM      3  C   UNL     1       2.295 -37.973  18.077  1.00  0.00     0.053 C 
BRANCH   3   4
ATOM      4  C   UNL     1       2.314 -37.662  16.611  1.00  0.00     0.041 C 
ATOM      5  O   UNL     1       1.555 -36.776  16.141  1.00  0.00    -0.550 OA
ATOM      6  O   UNL     1       3.149 -38.377  15.760  1.00  0.00    -0.550 OA
ENDBRANCH   3   4
ENDBRANCH   2   3
ENDBRANCH   1   2
BRANCH   1   7
ATOM      7  C   UNL     1       4.722 -36.889  20.789  1.00  0.00     0.000 C 
BRANCH   7   8
ATOM      8  C   UNL     1       4.955 -38.386  21.023  1.00  0.00    -0.000 C 
BRANCH   8   9
ATOM      9  C   UNL     1       4.843 -38.734  22.512  1.00  0.00    -0.003 C 
ATOM     10  C   UNL     1       5.085 -37.507  23.385  1.00  0.00     0.004 C 
ENDBRANCH   8   9
ENDBRANCH   7   8
ENDBRANCH   1   7
TORSDOF 6
ENDMDL
MODEL 6
REMARK VINA RESULT:    -4.059      2.103      3.297
REMARK INTER + INTRA:          -5.803
REMARK INTER:                  -5.591
REMARK INTRA:                  -0.212
REMARK UNBOUND:                -0.320
REMARK SMILES CCCCCCCC(=O)[O-]
REMARK SMILES IDX 5 1 6 2 7 3 8 4 9 5 10 6 4 7 3 8 2 9 1 10
REMARK H PARENT
REMARK Flexibility Score: inf
ROOT
ATOM      1  C   UNL     1       4.244 -36.595  19.778  1.00  0.00     0.000 C 
ENDROOT
BRANCH   1   2
ATOM      2  C   UNL     1       5.398 -36.669  20.796  1.00  0.00     0.006 C 
BRANCH   2   3
ATOM      3  C   UNL     1       4.994 -36.319  22.237  1.00  0.00     0.053 C 
BRANCH   3   4
ATOM      4  C   UNL     1       5.033 -37.515  23.138  1.00  0.00     0.041 C 
ATOM      5  O   UNL     1       4.941 -38.674  22.657  1.00  0.00    -0.550 OA
ATOM      6  O   UNL     1       5.137 -37.346  24.514  1.00  0.00    -0.550 OA
ENDBRANCH   3   4
ENDBRANCH   2   3
ENDBRANCH   1   2
BRANCH   1   7
ATOM      7  C   UNL     1       3.955 -37.945  19.106  1.00  0.00     0.000 C 
BRANCH   7   8
ATOM      8  C   UNL     1       2.634 -37.899  18.330  1.00  0.00    -0.000 C 
BRANCH   8   9
ATOM      9  C   UNL     1       2.885 -37.802  16.820  1.00  0.00    -0.003 C 
ATOM     10  C   UNL     1       1.720 -37.118  16.111  1.00  0.00     0.004 C 
ENDBRANCH   8   9
ENDBRANCH   7   8
ENDBRANCH   1   7
TORSDOF 6
ENDMDL
MODEL 7
REMARK VINA RESULT:    -3.988      2.884      4.406
REMARK INTER + INTRA:          -5.707
REMARK INTER:                  -5.516
REMARK INTRA:                  -0.191
REMARK UNBOUND:                -0.320
REMARK SMILES CCCCCCCC(=O)[O-]
REMARK SMILES IDX 5 1 6 2 7 3 8 4 9 5 10 6 4 7 3 8 2 9 1 10
REMARK H PARENT
REMARK Flexibility Score: inf
ROOT
ATOM      1  C   UNL     1       5.395 -36.499  21.020  1.00  0.00     0.000 C 
ENDROOT
BRANCH   1   2
ATOM      2  C   UNL     1       5.124 -37.624  22.036  1.00  0.00     0.006 C 
BRANCH   2   3
ATOM      3  C   UNL     1       5.084 -37.159  23.500  1.00  0.00     0.053 C 
BRANCH   3   4
ATOM      4  C   UNL     1       4.871 -38.300  24.447  1.00  0.00     0.041 C 
ATOM      5  O   UNL     1       4.585 -38.080  25.652  1.00  0.00    -0.550 OA
ATOM      6  O   UNL     1       5.022 -39.609  24.003  1.00  0.00    -0.550 OA
ENDBRANCH   3   4
ENDBRANCH   2   3
ENDBRANCH   1   2
BRANCH   1   7
ATOM      7  C   UNL     1       4.393 -36.494  19.855  1.00  0.00     0.000 C 
BRANCH   7   8
ATOM      8  C   UNL     1       4.119 -37.920  19.362  1.00  0.00    -0.000 C 
BRANCH   8   9
ATOM      9  C   UNL     1       2.746 -38.014  18.686  1.00  0.00    -0.003 C 
ATOM     10  C   UNL     1       2.858 -37.811  17.179  1.00  0.00     0.004 C 
ENDBRANCH   8   9
ENDBRANCH   7   8
ENDBRANCH   1   7
TORSDOF 6
ENDMDL
MODEL 8
REMARK VINA RESULT:    -3.897      3.247      6.263
REMARK INTER + INTRA:          -5.584
REMARK INTER:                  -5.249
REMARK INTRA:                  -0.335
REMARK UNBOUND:                -0.320
REMARK SMILES CCCCCCCC(=O)[O-]
REMARK SMILES IDX 5 1 6 2 7 3 8 4 9 5 10 6 4 7 3 8 2 9 1 10
REMARK H PARENT
REMARK Flexibility Score: inf
ROOT
ATOM      1  C   UNL     1       5.165 -36.030  22.526  1.00  0.00     0.000 C 
ENDROOT
BRANCH   1   2
ATOM      2  C   UNL     1       5.504 -36.354  21.059  1.00  0.00     0.006 C 
BRANCH   2   3
ATOM      3  C   UNL     1       4.295 -36.335  20.110  1.00  0.00     0.053 C 
BRANCH   3   4
ATOM      4  C   UNL     1       4.026 -37.684  19.516  1.00  0.00     0.041 C 
ATOM      5  O   UNL     1       4.926 -38.564  19.508  1.00  0.00    -0.550 OA
ATOM      6  O   UNL     1       2.792 -37.957  18.939  1.00  0.00    -0.550 OA
ENDBRANCH   3   4
ENDBRANCH   2   3
ENDBRANCH   1   2
BRANCH   1   7
ATOM      7  C   UNL     1       5.949 -36.896  23.524  1.00  0.00     0.000 C 
BRANCH   7   8
ATOM      8  C   UNL     1       5.005 -37.564  24.530  1.00  0.00    -0.000 C 
BRANCH   8   9
ATOM      9  C   UNL     1       5.019 -39.089  24.368  1.00  0.00    -0.003 C 
ATOM     10  C   UNL     1       4.643 -39.496  22.947  1.00  0.00     0.004 C 
ENDBRANCH   8   9
ENDBRANCH   7   8
ENDBRANCH   1   7
TORSDOF 6
ENDMDL
MODEL 9
REMARK VINA RESULT:    -3.553      3.760      5.802
REMARK INTER + INTRA:          -5.119
REMARK INTER:                  -4.784
REMARK INTRA:                  -0.336
REMARK UNBOUND:                -0.320
REMARK SMILES CCCCCCCC(=O)[O-]
REMARK SMILES IDX 5 1 6 2 7 3 8 4 9 5 10 6 4 7 3 8 2 9 1 10
REMARK H PARENT
REMARK Flexibility Score: inf
ROOT
ATOM      1  C   UNL     1       6.090 -37.151  23.454  1.00  0.00     0.000 C 
ENDROOT
BRANCH   1   2
ATOM      2  C   UNL     1       4.949 -37.815  24.247  1.00  0.00     0.006 C 
BRANCH   2   3
ATOM      3  C   UNL     1       5.005 -39.351  24.271  1.00  0.00     0.053 C 
BRANCH   3   4
ATOM      4  C   UNL     1       4.809 -39.940  22.908  1.00  0.00     0.041 C 
ATOM      5  O   UNL     1       3.992 -39.422  22.103  1.00  0.00    -0.550 OA
ATOM      6  O   UNL     1       5.505 -41.086  22.539  1.00  0.00    -0.550 OA
ENDBRANCH   3   4
ENDBRANCH   2   3
ENDBRANCH   1   2
BRANCH   1   7
ATOM      7  C   UNL     1       5.676 -35.813  22.822  1.00  0.00     0.000 C 
BRANCH   7   8
ATOM      8  C   UNL     1       4.658 -36.030  21.697  1.00  0.00    -0.000 C 
BRANCH   8   9
ATOM      9  C   UNL     1       5.339 -36.576  20.436  1.00  0.00    -0.003 C 
ATOM     10  C   UNL     1       4.621 -36.107  19.174  1.00  0.00     0.004 C 
ENDBRANCH   8   9
ENDBRANCH   7   8
ENDBRANCH   1   7
TORSDOF 6
ENDMDL
