MODEL 1
REMARK VINA RESULT:    92.495      0.000      0.000
REMARK INTER + INTRA:         100.878
REMARK INTER:                 100.606
REMARK INTRA:                   0.272
REMARK UNBOUND:                 0.272
REMARK SMILES C[C@H]1[C@H]2C3=CC[C@@H]4[C@@]5(C)CC[C@@H](O)C(C)(C)[C@H]5CC[C@]4(C)[C@]3(C)CC[C@@]2(C(=O)[O-])CC[C@@H]1C
REMARK SMILES IDX 26 1 30 2 25 3 3 4 31 5 24 6 4 7 2 8 32 9 22 10 5 11 1 12
REMARK SMILES IDX 33 13 23 14 20 15 6 16 7 17 19 18 21 19 8 20 18 21 17 22
REMARK SMILES IDX 10 23 9 24 14 25 11 26 12 27 15 28 16 29 27 30 28 31 29 32
REMARK SMILES IDX 13 33
REMARK H PARENT 13 34
REMARK Flexibility Score: inf
ROOT
ATOM      1  C   UNL     1     -42.608  48.627  14.036  1.00  0.00     0.017 C 
ATOM      2  C   UNL     1     -42.968  50.101  14.404  1.00  0.00     0.014 C 
ATOM      3  C   UNL     1     -41.128  48.582  13.622  1.00  0.00     0.014 C 
ATOM      4  C   UNL     1     -43.516  48.098  12.861  1.00  0.00     0.030 C 
ATOM      5  C   UNL     1     -44.465  50.361  14.270  1.00  0.00     0.004 C 
ATOM      6  C   UNL     1     -40.673  47.169  13.267  1.00  0.00     0.013 C 
ATOM      7  C   UNL     1     -42.918  46.931  12.047  1.00  0.00    -0.063 C 
ATOM      8  C   UNL     1     -44.139  49.221  11.955  1.00  0.00    -0.003 C 
ATOM      9  C   UNL     1     -44.897  50.312  12.790  1.00  0.00    -0.011 C 
ATOM     10  C   UNL     1     -41.438  46.509  12.063  1.00  0.00    -0.006 C 
ATOM     11  C   UNL     1     -43.780  46.210  11.311  1.00  0.00    -0.027 C 
ATOM     12  C   UNL     1     -43.145  49.859  10.972  1.00  0.00     0.008 C 
ATOM     13  C   UNL     1     -46.420  50.126  12.703  1.00  0.00     0.008 C 
ATOM     14  C   UNL     1     -40.787  47.066  10.761  1.00  0.00     0.017 C 
ATOM     15  C   UNL     1     -41.334  44.892  12.090  1.00  0.00    -0.020 C 
ATOM     16  C   UNL     1     -43.418  44.994  10.517  1.00  0.00     0.032 C 
ATOM     17  C   UNL     1     -42.040  44.283  10.805  1.00  0.00     0.006 C 
ATOM     18  C   UNL     1     -42.077  44.299  13.326  1.00  0.00     0.008 C 
ATOM     19  C   UNL     1     -39.819  44.490  12.146  1.00  0.00     0.012 C 
ATOM     20  C   UNL     1     -42.206  42.682  10.734  1.00  0.00    -0.025 C 
ATOM     21  C   UNL     1     -42.198  42.768  13.324  1.00  0.00     0.005 C 
ATOM     22  C   UNL     1     -42.877  42.145  12.064  1.00  0.00     0.003 C 
ATOM     23  C   UNL     1     -40.847  41.942  10.509  1.00  0.00     0.010 C 
ATOM     24  C   UNL     1     -43.079  42.378   9.459  1.00  0.00     0.012 C 
ATOM     25  C   UNL     1     -42.954  40.551  12.168  1.00  0.00    -0.006 C 
ATOM     26  C   UNL     1     -40.948  40.404  10.533  1.00  0.00     0.033 C 
ATOM     27  C   UNL     1     -41.580  39.875  11.833  1.00  0.00     0.120 C 
ATOM     28  C   UNL     1     -44.054  39.981  11.224  1.00  0.00     0.014 C 
ATOM     29  C   UNL     1     -43.394  40.101  13.593  1.00  0.00     0.014 C 
ENDROOT
BRANCH   1  30
ATOM     30  C   UNL     1     -42.777  47.774  15.299  1.00  0.00     0.048 C 
ATOM     31  O   UNL     1     -42.967  46.529  15.233  1.00  0.00    -0.550 OA
ATOM     32  O   UNL     1     -42.654  48.360  16.555  1.00  0.00    -0.550 OA
ENDBRANCH   1  30
BRANCH  27  33
ATOM     33  O   UNL     1     -40.668  40.041  12.891  1.00  0.00    -0.393 OA
ATOM     34  H   UNL     1     -40.443  41.007  12.936  1.00  0.00     0.210 HD
ENDBRANCH  27  33
TORSDOF 2
ENDMDL
