MODEL 1
REMARK VINA RESULT:    -4.095      0.000      0.000
REMARK INTER + INTRA:          -4.482
REMARK INTER:                  -4.455
REMARK INTRA:                  -0.027
REMARK UNBOUND:                -0.027
REMARK SMILES O=C([O-])c1ccc(O)cc1
REMARK SMILES IDX 4 1 5 2 10 3 6 4 9 5 7 6 2 7 1 8 3 9 8 10
REMARK H PARENT 8 11
REMARK Flexibility Score: inf
ROOT
ATOM      1  C   UNL     1      -2.713 -18.694 -21.783  1.00  0.00    -0.003 A 
ATOM      2  C   UNL     1      -2.153 -18.628 -20.493  1.00  0.00     0.014 A 
ATOM      3  C   UNL     1      -1.952 -19.243 -22.830  1.00  0.00     0.014 A 
ATOM      4  C   UNL     1      -0.858 -19.103 -20.259  1.00  0.00     0.047 A 
ATOM      5  C   UNL     1      -0.658 -19.717 -22.591  1.00  0.00     0.047 A 
ATOM      6  C   UNL     1      -0.108 -19.649 -21.308  1.00  0.00     0.115 A 
ENDROOT
BRANCH   1   7
ATOM      7  C   UNL     1      -4.082 -18.193 -22.037  1.00  0.00     0.071 C 
ATOM      8  O   UNL     1      -5.086 -18.868 -21.689  1.00  0.00    -0.545 OA
ATOM      9  O   UNL     1      -4.279 -16.967 -22.663  1.00  0.00    -0.545 OA
ENDBRANCH   1   7
BRANCH   6  10
ATOM     10  O   UNL     1       1.183 -20.125 -21.086  1.00  0.00    -0.508 OA
ATOM     11  H   UNL     1       1.877 -19.566 -20.604  1.00  0.00     0.293 HD
ENDBRANCH   6  10
TORSDOF 2
ENDMDL
MODEL 2
REMARK VINA RESULT:    -4.039      4.000      6.792
REMARK INTER + INTRA:          -4.420
REMARK INTER:                  -4.388
REMARK INTRA:                  -0.032
REMARK UNBOUND:                -0.027
REMARK SMILES O=C([O-])c1ccc(O)cc1
REMARK SMILES IDX 4 1 5 2 10 3 6 4 9 5 7 6 2 7 1 8 3 9 8 10
REMARK H PARENT 8 11
REMARK Flexibility Score: inf
ROOT
ATOM      1  C   UNL     1      -6.181 -16.672 -22.464  1.00  0.00    -0.003 A 
ATOM      2  C   UNL     1      -7.520 -16.818 -22.872  1.00  0.00     0.014 A 
ATOM      3  C   UNL     1      -5.803 -15.513 -21.762  1.00  0.00     0.014 A 
ATOM      4  C   UNL     1      -8.460 -15.824 -22.581  1.00  0.00     0.047 A 
ATOM      5  C   UNL     1      -6.746 -14.522 -21.474  1.00  0.00     0.047 A 
ATOM      6  C   UNL     1      -8.075 -14.673 -21.881  1.00  0.00     0.115 A 
ENDROOT
BRANCH   1   7
ATOM      7  C   UNL     1      -5.182 -17.721 -22.768  1.00  0.00     0.071 C 
ATOM      8  O   UNL     1      -5.494 -18.939 -22.712  1.00  0.00    -0.545 OA
ATOM      9  O   UNL     1      -3.882 -17.374 -23.121  1.00  0.00    -0.545 OA
ENDBRANCH   1   7
BRANCH   6  10
ATOM     10  O   UNL     1      -9.003 -13.676 -21.587  1.00  0.00    -0.508 OA
ATOM     11  H   UNL     1      -9.972 -13.897 -21.393  1.00  0.00     0.293 HD
ENDBRANCH   6  10
TORSDOF 2
ENDMDL
MODEL 3
REMARK VINA RESULT:    -3.923      3.059      4.184
REMARK INTER + INTRA:          -4.294
REMARK INTER:                  -4.258
REMARK INTRA:                  -0.036
REMARK UNBOUND:                -0.027
REMARK SMILES O=C([O-])c1ccc(O)cc1
REMARK SMILES IDX 4 1 5 2 10 3 6 4 9 5 7 6 2 7 1 8 3 9 8 10
REMARK H PARENT 8 11
REMARK Flexibility Score: inf
ROOT
ATOM      1  C   UNL     1      -6.136 -17.057 -22.376  1.00  0.00    -0.003 A 
ATOM      2  C   UNL     1      -4.828 -16.733 -21.970  1.00  0.00     0.014 A 
ATOM      3  C   UNL     1      -6.433 -18.388 -22.723  1.00  0.00     0.014 A 
ATOM      4  C   UNL     1      -3.840 -17.721 -21.912  1.00  0.00     0.047 A 
ATOM      5  C   UNL     1      -5.442 -19.372 -22.664  1.00  0.00     0.047 A 
ATOM      6  C   UNL     1      -4.145 -19.044 -22.259  1.00  0.00     0.115 A 
ENDROOT
BRANCH   1   7
ATOM      7  C   UNL     1      -7.186 -16.016 -22.439  1.00  0.00     0.071 C 
ATOM      8  O   UNL     1      -6.948 -14.842 -22.051  1.00  0.00    -0.545 OA
ATOM      9  O   UNL     1      -8.451 -16.321 -22.928  1.00  0.00    -0.545 OA
ENDBRANCH   1   7
BRANCH   6  10
ATOM     10  O   UNL     1      -3.168 -20.035 -22.206  1.00  0.00    -0.508 OA
ATOM     11  H   UNL     1      -2.585 -20.160 -21.387  1.00  0.00     0.293 HD
ENDBRANCH   6  10
TORSDOF 2
ENDMDL
MODEL 4
REMARK VINA RESULT:    -3.827      3.189      6.231
REMARK INTER + INTRA:          -4.190
REMARK INTER:                  -4.155
REMARK INTRA:                  -0.035
REMARK UNBOUND:                -0.027
REMARK SMILES O=C([O-])c1ccc(O)cc1
REMARK SMILES IDX 4 1 5 2 10 3 6 4 9 5 7 6 2 7 1 8 3 9 8 10
REMARK H PARENT 8 11
REMARK Flexibility Score: inf
ROOT
ATOM      1  C   UNL     1      -5.470 -17.180 -22.352  1.00  0.00    -0.003 A 
ATOM      2  C   UNL     1      -5.490 -15.877 -21.818  1.00  0.00     0.014 A 
ATOM      3  C   UNL     1      -6.640 -17.696 -22.937  1.00  0.00     0.014 A 
ATOM      4  C   UNL     1      -6.658 -15.109 -21.871  1.00  0.00     0.047 A 
ATOM      5  C   UNL     1      -7.805 -16.924 -22.987  1.00  0.00     0.047 A 
ATOM      6  C   UNL     1      -7.818 -15.631 -22.456  1.00  0.00     0.115 A 
ENDROOT
BRANCH   1   7
ATOM      7  C   UNL     1      -4.237 -17.997 -22.299  1.00  0.00     0.071 C 
ATOM      8  O   UNL     1      -3.118 -17.457 -22.098  1.00  0.00    -0.545 OA
ATOM      9  O   UNL     1      -4.299 -19.376 -22.470  1.00  0.00    -0.545 OA
ENDBRANCH   1   7
BRANCH   6  10
ATOM     10  O   UNL     1      -8.987 -14.875 -22.514  1.00  0.00    -0.508 OA
ATOM     11  H   UNL     1      -9.577 -14.750 -21.700  1.00  0.00     0.293 HD
ENDBRANCH   6  10
TORSDOF 2
ENDMDL
MODEL 5
REMARK VINA RESULT:    -3.785     21.876     22.995
REMARK INTER + INTRA:          -4.144
REMARK INTER:                  -4.117
REMARK INTRA:                  -0.027
REMARK UNBOUND:                -0.027
REMARK SMILES O=C([O-])c1ccc(O)cc1
REMARK SMILES IDX 4 1 5 2 10 3 6 4 9 5 7 6 2 7 1 8 3 9 8 10
REMARK H PARENT 8 11
REMARK Flexibility Score: inf
ROOT
ATOM      1  C   UNL     1      -3.571  -2.159  -6.690  1.00  0.00    -0.003 A 
ATOM      2  C   UNL     1      -4.708  -2.766  -7.254  1.00  0.00     0.014 A 
ATOM      3  C   UNL     1      -3.478  -2.049  -5.291  1.00  0.00     0.014 A 
ATOM      4  C   UNL     1      -5.730  -3.254  -6.432  1.00  0.00     0.047 A 
ATOM      5  C   UNL     1      -4.503  -2.538  -4.474  1.00  0.00     0.047 A 
ATOM      6  C   UNL     1      -5.629  -3.141  -5.040  1.00  0.00     0.115 A 
ENDROOT
BRANCH   1   7
ATOM      7  C   UNL     1      -2.486  -1.640  -7.553  1.00  0.00     0.071 C 
ATOM      8  O   UNL     1      -2.555  -0.482  -8.042  1.00  0.00    -0.545 OA
ATOM      9  O   UNL     1      -1.375  -2.426  -7.836  1.00  0.00    -0.545 OA
ENDBRANCH   1   7
BRANCH   6  10
ATOM     10  O   UNL     1      -6.641  -3.624  -4.213  1.00  0.00    -0.508 OA
ATOM     11  H   UNL     1      -6.595  -4.549  -3.805  1.00  0.00     0.293 HD
ENDBRANCH   6  10
TORSDOF 2
ENDMDL
MODEL 6
REMARK VINA RESULT:    -3.780      3.552      4.936
REMARK INTER + INTRA:          -4.139
REMARK INTER:                  -4.103
REMARK INTRA:                  -0.036
REMARK UNBOUND:                -0.027
REMARK SMILES O=C([O-])c1ccc(O)cc1
REMARK SMILES IDX 4 1 5 2 10 3 6 4 9 5 7 6 2 7 1 8 3 9 8 10
REMARK H PARENT 8 11
REMARK Flexibility Score: inf
ROOT
ATOM      1  C   UNL     1      -6.526 -16.485 -22.329  1.00  0.00    -0.003 A 
ATOM      2  C   UNL     1      -7.072 -17.649 -22.900  1.00  0.00     0.014 A 
ATOM      3  C   UNL     1      -5.162 -16.467 -21.988  1.00  0.00     0.014 A 
ATOM      4  C   UNL     1      -6.268 -18.771 -23.125  1.00  0.00     0.047 A 
ATOM      5  C   UNL     1      -4.362 -17.591 -22.214  1.00  0.00     0.047 A 
ATOM      6  C   UNL     1      -4.910 -18.744 -22.782  1.00  0.00     0.115 A 
ENDROOT
BRANCH   1   7
ATOM      7  C   UNL     1      -7.372 -15.295 -22.089  1.00  0.00     0.071 C 
ATOM      8  O   UNL     1      -8.587 -15.295 -22.421  1.00  0.00    -0.545 OA
ATOM      9  O   UNL     1      -6.837 -14.159 -21.492  1.00  0.00    -0.545 OA
ENDBRANCH   1   7
BRANCH   6  10
ATOM     10  O   UNL     1      -4.099 -19.856 -23.001  1.00  0.00    -0.508 OA
ATOM     11  H   UNL     1      -3.414 -19.872 -23.747  1.00  0.00     0.293 HD
ENDBRANCH   6  10
TORSDOF 2
ENDMDL
MODEL 7
REMARK VINA RESULT:    -3.757     22.271     23.144
REMARK INTER + INTRA:          -4.113
REMARK INTER:                  -4.085
REMARK INTRA:                  -0.028
REMARK UNBOUND:                -0.027
REMARK SMILES O=C([O-])c1ccc(O)cc1
REMARK SMILES IDX 4 1 5 2 10 3 6 4 9 5 7 6 2 7 1 8 3 9 8 10
REMARK H PARENT 8 11
REMARK Flexibility Score: inf
ROOT
ATOM      1  C   UNL     1      -5.353  -3.517  -4.904  1.00  0.00    -0.003 A 
ATOM      2  C   UNL     1      -5.633  -3.641  -6.278  1.00  0.00     0.014 A 
ATOM      3  C   UNL     1      -4.446  -2.531  -4.479  1.00  0.00     0.014 A 
ATOM      4  C   UNL     1      -5.017  -2.793  -7.205  1.00  0.00     0.047 A 
ATOM      5  C   UNL     1      -3.832  -1.686  -5.409  1.00  0.00     0.047 A 
ATOM      6  C   UNL     1      -4.114  -1.814  -6.771  1.00  0.00     0.115 A 
ENDROOT
BRANCH   1   7
ATOM      7  C   UNL     1      -6.002  -4.411  -3.919  1.00  0.00     0.071 C 
ATOM      8  O   UNL     1      -7.233  -4.310  -3.676  1.00  0.00    -0.545 OA
ATOM      9  O   UNL     1      -5.260  -5.376  -3.248  1.00  0.00    -0.545 OA
ENDBRANCH   1   7
BRANCH   6  10
ATOM     10  O   UNL     1      -3.495  -0.964  -7.686  1.00  0.00    -0.508 OA
ATOM     11  H   UNL     1      -4.033  -0.364  -8.298  1.00  0.00     0.293 HD
ENDBRANCH   6  10
TORSDOF 2
ENDMDL
MODEL 8
REMARK VINA RESULT:    -3.589      2.407      5.160
REMARK INTER + INTRA:          -3.931
REMARK INTER:                  -3.904
REMARK INTRA:                  -0.027
REMARK UNBOUND:                -0.027
REMARK SMILES O=C([O-])c1ccc(O)cc1
REMARK SMILES IDX 4 1 5 2 10 3 6 4 9 5 7 6 2 7 1 8 3 9 8 10
REMARK H PARENT 8 11
REMARK Flexibility Score: inf
ROOT
ATOM      1  C   UNL     1      -4.165 -18.204 -22.085  1.00  0.00    -0.003 A 
ATOM      2  C   UNL     1      -4.510 -16.840 -22.119  1.00  0.00     0.014 A 
ATOM      3  C   UNL     1      -5.144 -19.164 -22.402  1.00  0.00     0.014 A 
ATOM      4  C   UNL     1      -5.807 -16.447 -22.465  1.00  0.00     0.047 A 
ATOM      5  C   UNL     1      -6.439 -18.766 -22.746  1.00  0.00     0.047 A 
ATOM      6  C   UNL     1      -6.775 -17.409 -22.779  1.00  0.00     0.115 A 
ENDROOT
BRANCH   1   7
ATOM      7  C   UNL     1      -2.795 -18.627 -21.720  1.00  0.00     0.071 C 
ATOM      8  O   UNL     1      -2.432 -18.651 -20.514  1.00  0.00    -0.545 OA
ATOM      9  O   UNL     1      -1.889 -19.004 -22.704  1.00  0.00    -0.545 OA
ENDBRANCH   1   7
BRANCH   6  10
ATOM     10  O   UNL     1      -8.070 -17.029 -23.125  1.00  0.00    -0.508 OA
ATOM     11  H   UNL     1      -8.756 -16.788 -22.420  1.00  0.00     0.293 HD
ENDBRANCH   6  10
TORSDOF 2
ENDMDL
MODEL 9
REMARK VINA RESULT:    -3.583     12.074     13.032
REMARK INTER + INTRA:          -3.925
REMARK INTER:                  -3.889
REMARK INTRA:                  -0.036
REMARK UNBOUND:                -0.027
REMARK SMILES O=C([O-])c1ccc(O)cc1
REMARK SMILES IDX 4 1 5 2 10 3 6 4 9 5 7 6 2 7 1 8 3 9 8 10
REMARK H PARENT 8 11
REMARK Flexibility Score: inf
ROOT
ATOM      1  C   UNL     1      -6.000 -18.817  -9.835  1.00  0.00    -0.003 A 
ATOM      2  C   UNL     1      -6.433 -17.913  -8.846  1.00  0.00     0.014 A 
ATOM      3  C   UNL     1      -4.720 -19.389  -9.724  1.00  0.00     0.014 A 
ATOM      4  C   UNL     1      -5.601 -17.591  -7.769  1.00  0.00     0.047 A 
ATOM      5  C   UNL     1      -3.891 -19.063  -8.645  1.00  0.00     0.047 A 
ATOM      6  C   UNL     1      -4.327 -18.165  -7.667  1.00  0.00     0.115 A 
ENDROOT
BRANCH   1   7
ATOM      7  C   UNL     1      -6.876 -19.163 -10.976  1.00  0.00     0.071 C 
ATOM      8  O   UNL     1      -7.988 -18.590 -11.127  1.00  0.00    -0.545 OA
ATOM      9  O   UNL     1      -6.484 -20.125 -11.899  1.00  0.00    -0.545 OA
ENDBRANCH   1   7
BRANCH   6  10
ATOM     10  O   UNL     1      -3.490 -17.850  -6.599  1.00  0.00    -0.508 OA
ATOM     11  H   UNL     1      -3.760 -18.041  -5.641  1.00  0.00     0.293 HD
ENDBRANCH   6  10
TORSDOF 2
ENDMDL
