MODEL 1
REMARK VINA RESULT:    -5.120      0.000      0.000
REMARK INTER + INTRA:          -5.419
REMARK INTER:                  -5.419
REMARK INTRA:                   0.000
REMARK UNBOUND:                 0.000
REMARK SMILES O=c1ccc2cc(O)c(O)cc2o1
REMARK SMILES IDX 4 1 3 2 2 3 1 4 13 5 12 6 11 7 9 8 7 9 6 10 5 11 8 12 10 14
REMARK H PARENT 8 13 10 15
REMARK Flexibility Score: inf
ROOT
ATOM      1  C   UNL     1       1.042 -18.206  -7.381  1.00  0.00     0.019 A 
ATOM      2  C   UNL     1       2.171 -18.033  -6.582  1.00  0.00     0.094 A 
ATOM      3  C   UNL     1       2.354 -16.813  -5.922  1.00  0.00     0.336 A 
ATOM      4  O   UNL     1       3.368 -16.637  -5.197  1.00  0.00    -0.246 OA
ATOM      5  O   UNL     1       1.463 -15.834  -6.056  1.00  0.00    -0.423 OA
ATOM      6  C   UNL     1       0.371 -15.958  -6.809  1.00  0.00     0.142 A 
ATOM      7  C   UNL     1      -0.531 -14.895  -6.913  1.00  0.00     0.098 A 
ATOM      8  C   UNL     1      -1.682 -15.021  -7.704  1.00  0.00     0.161 A 
ATOM      9  C   UNL     1      -1.932 -16.216  -8.395  1.00  0.00     0.158 A 
ATOM     10  C   UNL     1      -1.030 -17.285  -8.295  1.00  0.00     0.062 A 
ATOM     11  C   UNL     1       0.121 -17.161  -7.505  1.00  0.00     0.022 A 
ENDROOT
BRANCH   9  12
ATOM     12  O   UNL     1      -3.078 -16.331  -9.179  1.00  0.00    -0.504 OA
ATOM     13  H   UNL     1      -3.955 -16.662  -8.791  1.00  0.00     0.293 HD
ENDBRANCH   9  12
BRANCH   8  14
ATOM     14  O   UNL     1      -2.583 -13.963  -7.808  1.00  0.00    -0.504 OA
ATOM     15  H   UNL     1      -2.526 -13.155  -7.199  1.00  0.00     0.293 HD
ENDBRANCH   8  14
TORSDOF 2
ENDMDL
MODEL 2
REMARK VINA RESULT:    -4.976      1.694      2.691
REMARK INTER + INTRA:          -5.267
REMARK INTER:                  -5.267
REMARK INTRA:                   0.000
REMARK UNBOUND:                 0.000
REMARK SMILES O=c1ccc2cc(O)c(O)cc2o1
REMARK SMILES IDX 4 1 3 2 2 3 1 4 13 5 12 6 11 7 9 8 7 9 6 10 5 11 8 12 10 14
REMARK H PARENT 8 13 10 15
REMARK Flexibility Score: inf
ROOT
ATOM      1  C   UNL     1       1.794 -16.535  -5.592  1.00  0.00     0.019 A 
ATOM      2  C   UNL     1       2.236 -17.733  -6.153  1.00  0.00     0.094 A 
ATOM      3  C   UNL     1       1.565 -18.248  -7.267  1.00  0.00     0.336 A 
ATOM      4  O   UNL     1       1.949 -19.329  -7.787  1.00  0.00    -0.246 OA
ATOM      5  O   UNL     1       0.519 -17.606  -7.781  1.00  0.00    -0.423 OA
ATOM      6  C   UNL     1       0.064 -16.461  -7.276  1.00  0.00     0.142 A 
ATOM      7  C   UNL     1      -1.039 -15.830  -7.858  1.00  0.00     0.098 A 
ATOM      8  C   UNL     1      -1.522 -14.623  -7.330  1.00  0.00     0.161 A 
ATOM      9  C   UNL     1      -0.898 -14.046  -6.214  1.00  0.00     0.158 A 
ATOM     10  C   UNL     1       0.209 -14.675  -5.626  1.00  0.00     0.062 A 
ATOM     11  C   UNL     1       0.692 -15.881  -6.152  1.00  0.00     0.022 A 
ENDROOT
BRANCH   9  12
ATOM     12  O   UNL     1      -1.385 -12.847  -5.696  1.00  0.00    -0.504 OA
ATOM     13  H   UNL     1      -1.887 -12.815  -4.816  1.00  0.00     0.293 HD
ENDBRANCH   9  12
BRANCH   8  14
ATOM     14  O   UNL     1      -2.622 -13.992  -7.909  1.00  0.00    -0.504 OA
ATOM     15  H   UNL     1      -2.753 -13.972  -8.914  1.00  0.00     0.293 HD
ENDBRANCH   8  14
TORSDOF 2
ENDMDL
MODEL 3
REMARK VINA RESULT:    -4.856      2.646      4.256
REMARK INTER + INTRA:          -5.140
REMARK INTER:                  -5.140
REMARK INTRA:                   0.000
REMARK UNBOUND:                 0.000
REMARK SMILES O=c1ccc2cc(O)c(O)cc2o1
REMARK SMILES IDX 4 1 3 2 2 3 1 4 13 5 12 6 11 7 9 8 7 9 6 10 5 11 8 12 10 14
REMARK H PARENT 8 13 10 15
REMARK Flexibility Score: inf
ROOT
ATOM      1  C   UNL     1      -0.221 -13.568  -5.234  1.00  0.00     0.019 A 
ATOM      2  C   UNL     1      -1.091 -13.286  -4.182  1.00  0.00     0.094 A 
ATOM      3  C   UNL     1      -2.358 -13.880  -4.172  1.00  0.00     0.336 A 
ATOM      4  O   UNL     1      -3.157 -13.638  -3.230  1.00  0.00    -0.246 OA
ATOM      5  O   UNL     1      -2.725 -14.700  -5.153  1.00  0.00    -0.423 OA
ATOM      6  C   UNL     1      -1.926 -14.996  -6.176  1.00  0.00     0.142 A 
ATOM      7  C   UNL     1      -2.366 -15.865  -7.179  1.00  0.00     0.098 A 
ATOM      8  C   UNL     1      -1.527 -16.179  -8.258  1.00  0.00     0.161 A 
ATOM      9  C   UNL     1      -0.242 -15.621  -8.335  1.00  0.00     0.158 A 
ATOM     10  C   UNL     1       0.204 -14.748  -7.332  1.00  0.00     0.062 A 
ATOM     11  C   UNL     1      -0.633 -14.433  -6.253  1.00  0.00     0.022 A 
ENDROOT
BRANCH   9  12
ATOM     12  O   UNL     1       0.584 -15.939  -9.412  1.00  0.00    -0.504 OA
ATOM     13  H   UNL     1       1.542 -15.613  -9.459  1.00  0.00     0.293 HD
ENDBRANCH   9  12
BRANCH   8  14
ATOM     14  O   UNL     1      -1.963 -17.046  -9.259  1.00  0.00    -0.504 OA
ATOM     15  H   UNL     1      -1.434 -17.873  -9.512  1.00  0.00     0.293 HD
ENDBRANCH   8  14
TORSDOF 2
ENDMDL
MODEL 4
REMARK VINA RESULT:    -4.838      2.561      3.828
REMARK INTER + INTRA:          -5.121
REMARK INTER:                  -5.121
REMARK INTRA:                   0.000
REMARK UNBOUND:                 0.000
REMARK SMILES O=c1ccc2cc(O)c(O)cc2o1
REMARK SMILES IDX 4 1 3 2 2 3 1 4 13 5 12 6 11 7 9 8 7 9 6 10 5 11 8 12 10 14
REMARK H PARENT 8 13 10 15
REMARK Flexibility Score: inf
ROOT
ATOM      1  C   UNL     1      -2.491 -14.154  -5.126  1.00  0.00     0.019 A 
ATOM      2  C   UNL     1      -1.878 -13.249  -4.261  1.00  0.00     0.094 A 
ATOM      3  C   UNL     1      -0.551 -12.874  -4.501  1.00  0.00     0.336 A 
ATOM      4  O   UNL     1       0.020 -12.058  -3.731  1.00  0.00    -0.246 OA
ATOM      5  O   UNL     1       0.114 -13.377  -5.537  1.00  0.00    -0.423 OA
ATOM      6  C   UNL     1      -0.433 -14.244  -6.387  1.00  0.00     0.142 A 
ATOM      7  C   UNL     1       0.314 -14.739  -7.460  1.00  0.00     0.098 A 
ATOM      8  C   UNL     1      -0.258 -15.652  -8.357  1.00  0.00     0.161 A 
ATOM      9  C   UNL     1      -1.584 -16.072  -8.181  1.00  0.00     0.158 A 
ATOM     10  C   UNL     1      -2.339 -15.580  -7.106  1.00  0.00     0.062 A 
ATOM     11  C   UNL     1      -1.768 -14.667  -6.208  1.00  0.00     0.022 A 
ENDROOT
BRANCH   9  12
ATOM     12  O   UNL     1      -2.145 -16.980  -9.077  1.00  0.00    -0.504 OA
ATOM     13  H   UNL     1      -1.799 -17.930  -9.156  1.00  0.00     0.293 HD
ENDBRANCH   9  12
BRANCH   8  14
ATOM     14  O   UNL     1       0.485 -16.146  -9.428  1.00  0.00    -0.504 OA
ATOM     15  H   UNL     1       1.435 -16.477  -9.306  1.00  0.00     0.293 HD
ENDBRANCH   8  14
TORSDOF 2
ENDMDL
MODEL 5
REMARK VINA RESULT:    -4.819      1.197      1.620
REMARK INTER + INTRA:          -5.101
REMARK INTER:                  -5.101
REMARK INTRA:                   0.000
REMARK UNBOUND:                 0.000
REMARK SMILES O=c1ccc2cc(O)c(O)cc2o1
REMARK SMILES IDX 4 1 3 2 2 3 1 4 13 5 12 6 11 7 9 8 7 9 6 10 5 11 8 12 10 14
REMARK H PARENT 8 13 10 15
REMARK Flexibility Score: inf
ROOT
ATOM      1  C   UNL     1       0.475 -17.759  -8.025  1.00  0.00     0.019 A 
ATOM      2  C   UNL     1       1.530 -18.433  -7.412  1.00  0.00     0.094 A 
ATOM      3  C   UNL     1       2.080 -17.905  -6.238  1.00  0.00     0.336 A 
ATOM      4  O   UNL     1       3.034 -18.500  -5.670  1.00  0.00    -0.246 OA
ATOM      5  O   UNL     1       1.603 -16.778  -5.718  1.00  0.00    -0.423 OA
ATOM      6  C   UNL     1       0.597 -16.103  -6.271  1.00  0.00     0.142 A 
ATOM      7  C   UNL     1       0.138 -14.923  -5.679  1.00  0.00     0.098 A 
ATOM      8  C   UNL     1      -0.921 -14.209  -6.258  1.00  0.00     0.161 A 
ATOM      9  C   UNL     1      -1.523 -14.677  -7.435  1.00  0.00     0.158 A 
ATOM     10  C   UNL     1      -1.066 -15.860  -8.034  1.00  0.00     0.062 A 
ATOM     11  C   UNL     1      -0.007 -16.575  -7.457  1.00  0.00     0.022 A 
ENDROOT
BRANCH   9  12
ATOM     12  O   UNL     1      -2.575 -13.961  -8.004  1.00  0.00    -0.504 OA
ATOM     13  H   UNL     1      -2.538 -13.637  -8.964  1.00  0.00     0.293 HD
ENDBRANCH   9  12
BRANCH   8  14
ATOM     14  O   UNL     1      -1.382 -13.032  -5.670  1.00  0.00    -0.504 OA
ATOM     15  H   UNL     1      -1.887 -12.335  -6.205  1.00  0.00     0.293 HD
ENDBRANCH   8  14
TORSDOF 2
ENDMDL
MODEL 6
REMARK VINA RESULT:    -4.818      1.076      5.027
REMARK INTER + INTRA:          -5.100
REMARK INTER:                  -5.100
REMARK INTRA:                   0.000
REMARK UNBOUND:                 0.000
REMARK SMILES O=c1ccc2cc(O)c(O)cc2o1
REMARK SMILES IDX 4 1 3 2 2 3 1 4 13 5 12 6 11 7 9 8 7 9 6 10 5 11 8 12 10 14
REMARK H PARENT 8 13 10 15
REMARK Flexibility Score: inf
ROOT
ATOM      1  C   UNL     1      -0.833 -14.489  -6.946  1.00  0.00     0.019 A 
ATOM      2  C   UNL     1      -2.017 -14.715  -7.647  1.00  0.00     0.094 A 
ATOM      3  C   UNL     1      -2.251 -15.982  -8.192  1.00  0.00     0.336 A 
ATOM      4  O   UNL     1      -3.315 -16.204  -8.828  1.00  0.00    -0.246 OA
ATOM      5  O   UNL     1      -1.356 -16.955  -8.046  1.00  0.00    -0.423 OA
ATOM      6  C   UNL     1      -0.213 -16.782  -7.385  1.00  0.00     0.142 A 
ATOM      7  C   UNL     1       0.691 -17.841  -7.262  1.00  0.00     0.098 A 
ATOM      8  C   UNL     1       1.896 -17.664  -6.567  1.00  0.00     0.161 A 
ATOM      9  C   UNL     1       2.199 -16.421  -5.992  1.00  0.00     0.158 A 
ATOM     10  C   UNL     1       1.296 -15.355  -6.113  1.00  0.00     0.062 A 
ATOM     11  C   UNL     1       0.091 -15.530  -6.807  1.00  0.00     0.022 A 
ENDROOT
BRANCH   9  12
ATOM     12  O   UNL     1       3.399 -16.254  -5.304  1.00  0.00    -0.504 OA
ATOM     13  H   UNL     1       4.015 -17.037  -5.114  1.00  0.00     0.293 HD
ENDBRANCH   9  12
BRANCH   8  14
ATOM     14  O   UNL     1       2.799 -18.719  -6.443  1.00  0.00    -0.504 OA
ATOM     15  H   UNL     1       3.703 -18.700  -6.902  1.00  0.00     0.293 HD
ENDBRANCH   8  14
TORSDOF 2
ENDMDL
MODEL 7
REMARK VINA RESULT:    -4.784      1.724      4.512
REMARK INTER + INTRA:          -5.064
REMARK INTER:                  -5.064
REMARK INTRA:                   0.000
REMARK UNBOUND:                 0.000
REMARK SMILES O=c1ccc2cc(O)c(O)cc2o1
REMARK SMILES IDX 4 1 3 2 2 3 1 4 13 5 12 6 11 7 9 8 7 9 6 10 5 11 8 12 10 14
REMARK H PARENT 8 13 10 15
REMARK Flexibility Score: inf
ROOT
ATOM      1  C   UNL     1      -1.162 -17.960  -8.859  1.00  0.00     0.019 A 
ATOM      2  C   UNL     1      -2.284 -18.244  -9.636  1.00  0.00     0.094 A 
ATOM      3  C   UNL     1      -3.348 -17.335  -9.647  1.00  0.00     0.336 A 
ATOM      4  O   UNL     1      -4.369 -17.574 -10.343  1.00  0.00    -0.246 OA
ATOM      5  O   UNL     1      -3.289 -16.219  -8.925  1.00  0.00    -0.423 OA
ATOM      6  C   UNL     1      -2.237 -15.910  -8.169  1.00  0.00     0.142 A 
ATOM      7  C   UNL     1      -2.231 -14.723  -7.431  1.00  0.00     0.098 A 
ATOM      8  C   UNL     1      -1.126 -14.393  -6.634  1.00  0.00     0.161 A 
ATOM      9  C   UNL     1      -0.021 -15.256  -6.574  1.00  0.00     0.158 A 
ATOM     10  C   UNL     1      -0.022 -16.448  -7.312  1.00  0.00     0.062 A 
ATOM     11  C   UNL     1      -1.126 -16.780  -8.109  1.00  0.00     0.022 A 
ENDROOT
BRANCH   9  12
ATOM     12  O   UNL     1       1.073 -14.920  -5.778  1.00  0.00    -0.504 OA
ATOM     13  H   UNL     1       1.110 -14.043  -5.271  1.00  0.00     0.293 HD
ENDBRANCH   9  12
BRANCH   8  14
ATOM     14  O   UNL     1      -1.117 -13.210  -5.898  1.00  0.00    -0.504 OA
ATOM     15  H   UNL     1      -1.854 -12.991  -5.238  1.00  0.00     0.293 HD
ENDBRANCH   8  14
TORSDOF 2
ENDMDL
MODEL 8
REMARK VINA RESULT:    -4.530      2.072      4.750
REMARK INTER + INTRA:          -4.795
REMARK INTER:                  -4.795
REMARK INTRA:                   0.000
REMARK UNBOUND:                 0.000
REMARK SMILES O=c1ccc2cc(O)c(O)cc2o1
REMARK SMILES IDX 4 1 3 2 2 3 1 4 13 5 12 6 11 7 9 8 7 9 6 10 5 11 8 12 10 14
REMARK H PARENT 8 13 10 15
REMARK Flexibility Score: inf
ROOT
ATOM      1  C   UNL     1       0.530 -15.507  -6.588  1.00  0.00     0.019 A 
ATOM      2  C   UNL     1      -0.541 -14.686  -6.938  1.00  0.00     0.094 A 
ATOM      3  C   UNL     1      -1.531 -15.191  -7.789  1.00  0.00     0.336 A 
ATOM      4  O   UNL     1      -2.506 -14.464  -8.116  1.00  0.00    -0.246 OA
ATOM      5  O   UNL     1      -1.449 -16.433  -8.256  1.00  0.00    -0.423 OA
ATOM      6  C   UNL     1      -0.444 -17.250  -7.946  1.00  0.00     0.142 A 
ATOM      7  C   UNL     1      -0.410 -18.547  -8.467  1.00  0.00     0.098 A 
ATOM      8  C   UNL     1       0.646 -19.410  -8.143  1.00  0.00     0.161 A 
ATOM      9  C   UNL     1       1.675 -18.974  -7.295  1.00  0.00     0.158 A 
ATOM     10  C   UNL     1       1.647 -17.674  -6.771  1.00  0.00     0.062 A 
ATOM     11  C   UNL     1       0.592 -16.809  -7.093  1.00  0.00     0.022 A 
ENDROOT
BRANCH   9  12
ATOM     12  O   UNL     1       2.721 -19.839  -6.980  1.00  0.00    -0.504 OA
ATOM     13  H   UNL     1       2.554 -20.731  -6.527  1.00  0.00     0.293 HD
ENDBRANCH   9  12
BRANCH   8  14
ATOM     14  O   UNL     1       0.682 -20.704  -8.660  1.00  0.00    -0.504 OA
ATOM     15  H   UNL     1       1.551 -21.220  -8.738  1.00  0.00     0.293 HD
ENDBRANCH   8  14
TORSDOF 2
ENDMDL
MODEL 9
REMARK VINA RESULT:    -4.510      1.571      4.785
REMARK INTER + INTRA:          -4.773
REMARK INTER:                  -4.773
REMARK INTRA:                   0.000
REMARK UNBOUND:                 0.000
REMARK SMILES O=c1ccc2cc(O)c(O)cc2o1
REMARK SMILES IDX 4 1 3 2 2 3 1 4 13 5 12 6 11 7 9 8 7 9 6 10 5 11 8 12 10 14
REMARK H PARENT 8 13 10 15
REMARK Flexibility Score: inf
ROOT
ATOM      1  C   UNL     1      -1.959 -18.898  -9.300  1.00  0.00     0.019 A 
ATOM      2  C   UNL     1      -3.225 -18.450  -9.671  1.00  0.00     0.094 A 
ATOM      3  C   UNL     1      -3.606 -17.144  -9.343  1.00  0.00     0.336 A 
ATOM      4  O   UNL     1      -4.746 -16.722  -9.670  1.00  0.00    -0.246 OA
ATOM      5  O   UNL     1      -2.771 -16.344  -8.685  1.00  0.00    -0.423 OA
ATOM      6  C   UNL     1      -1.553 -16.732  -8.312  1.00  0.00     0.142 A 
ATOM      7  C   UNL     1      -0.718 -15.847  -7.622  1.00  0.00     0.098 A 
ATOM      8  C   UNL     1       0.565 -16.251  -7.227  1.00  0.00     0.161 A 
ATOM      9  C   UNL     1       1.016 -17.546  -7.522  1.00  0.00     0.158 A 
ATOM     10  C   UNL     1       0.182 -18.437  -8.213  1.00  0.00     0.062 A 
ATOM     11  C   UNL     1      -1.101 -18.036  -8.609  1.00  0.00     0.022 A 
ENDROOT
BRANCH   9  12
ATOM     12  O   UNL     1       2.293 -17.938  -7.125  1.00  0.00    -0.504 OA
ATOM     13  H   UNL     1       2.445 -18.462  -6.270  1.00  0.00     0.293 HD
ENDBRANCH   9  12
BRANCH   8  14
ATOM     14  O   UNL     1       1.400 -15.371  -6.540  1.00  0.00    -0.504 OA
ATOM     15  H   UNL     1       1.730 -14.512  -6.966  1.00  0.00     0.293 HD
ENDBRANCH   8  14
TORSDOF 2
ENDMDL
