MODEL 1
REMARK VINA RESULT:    -4.500      0.000      0.000
REMARK INTER + INTRA:         -10.113
REMARK INTER:                  -8.709
REMARK INTRA:                  -1.404
REMARK UNBOUND:                -1.404
REMARK SMILES CCCCCCCCCCCCCCCCCC(=O)[O-]
REMARK SMILES IDX 10 1 11 2 12 3 13 4 14 5 15 6 16 7 17 8 18 9 19 10 20 11
REMARK SMILES IDX 9 12 8 13 7 14 6 15 5 16 4 17 3 18 2 19 1 20
REMARK H PARENT
REMARK Flexibility Score: inf
ROOT
ATOM      1  C   UNL     1      -4.408  36.308  20.520  1.00  0.00     0.000 C 
ENDROOT
BRANCH   1   2
ATOM      2  C   UNL     1      -5.599  36.788  21.366  1.00  0.00     0.000 C 
BRANCH   2   3
ATOM      3  C   UNL     1      -6.125  35.701  22.321  1.00  0.00     0.000 C 
BRANCH   3   4
ATOM      4  C   UNL     1      -5.368  35.675  23.658  1.00  0.00     0.000 C 
BRANCH   4   5
ATOM      5  C   UNL     1      -5.863  36.746  24.642  1.00  0.00     0.000 C 
BRANCH   5   6
ATOM      6  C   UNL     1      -4.687  37.518  25.253  1.00  0.00     0.000 C 
BRANCH   6   7
ATOM      7  C   UNL     1      -4.766  39.011  24.901  1.00  0.00     0.006 C 
BRANCH   7   8
ATOM      8  C   UNL     1      -5.742  39.285  23.749  1.00  0.00     0.053 C 
BRANCH   8   9
ATOM      9  C   UNL     1      -5.070  39.984  22.606  1.00  0.00     0.041 C 
ATOM     10  O   UNL     1      -3.818  39.946  22.488  1.00  0.00    -0.550 OA
ATOM     11  O   UNL     1      -5.831  40.652  21.654  1.00  0.00    -0.550 OA
ENDBRANCH   8   9
ENDBRANCH   7   8
ENDBRANCH   6   7
ENDBRANCH   5   6
ENDBRANCH   4   5
ENDBRANCH   3   4
ENDBRANCH   2   3
ENDBRANCH   1   2
BRANCH   1  12
ATOM     12  C   UNL     1      -4.483  36.792  19.061  1.00  0.00     0.000 C 
BRANCH  12  13
ATOM     13  C   UNL     1      -3.846  38.178  18.868  1.00  0.00    -0.000 C 
BRANCH  13  14
ATOM     14  C   UNL     1      -2.439  38.271  19.486  1.00  0.00    -0.000 C 
BRANCH  14  15
ATOM     15  C   UNL     1      -1.360  37.612  18.610  1.00  0.00    -0.000 C 
BRANCH  15  16
ATOM     16  C   UNL     1      -1.297  38.212  17.195  1.00  0.00    -0.000 C 
BRANCH  16  17
ATOM     17  C   UNL     1      -1.604  37.180  16.096  1.00  0.00    -0.000 C 
BRANCH  17  18
ATOM     18  C   UNL     1      -3.058  37.185  15.584  1.00  0.00    -0.000 C 
BRANCH  18  19
ATOM     19  C   UNL     1      -3.219  37.788  14.173  1.00  0.00    -0.003 C 
ATOM     20  C   UNL     1      -3.855  39.179  14.202  1.00  0.00     0.004 C 
ENDBRANCH  18  19
ENDBRANCH  17  18
ENDBRANCH  16  17
ENDBRANCH  15  16
ENDBRANCH  14  15
ENDBRANCH  13  14
ENDBRANCH  12  13
ENDBRANCH   1  12
TORSDOF 16
ENDMDL
MODEL 2
REMARK VINA RESULT:    -4.265      2.737      7.261
REMARK INTER + INTRA:          -9.659
REMARK INTER:                  -8.261
REMARK INTRA:                  -1.398
REMARK UNBOUND:                -1.404
REMARK SMILES CCCCCCCCCCCCCCCCCC(=O)[O-]
REMARK SMILES IDX 10 1 11 2 12 3 13 4 14 5 15 6 16 7 17 8 18 9 19 10 20 11
REMARK SMILES IDX 9 12 8 13 7 14 6 15 5 16 4 17 3 18 2 19 1 20
REMARK H PARENT
REMARK Flexibility Score: inf
ROOT
ATOM      1  C   UNL     1      -4.913  36.306  21.166  1.00  0.00     0.000 C 
ENDROOT
BRANCH   1   2
ATOM      2  C   UNL     1      -5.353  36.505  19.706  1.00  0.00     0.000 C 
BRANCH   2   3
ATOM      3  C   UNL     1      -4.728  35.472  18.752  1.00  0.00     0.000 C 
BRANCH   3   4
ATOM      4  C   UNL     1      -3.827  36.120  17.688  1.00  0.00     0.000 C 
BRANCH   4   5
ATOM      5  C   UNL     1      -3.351  37.524  18.090  1.00  0.00     0.000 C 
BRANCH   5   6
ATOM      6  C   UNL     1      -2.245  38.019  17.150  1.00  0.00     0.000 C 
BRANCH   6   7
ATOM      7  C   UNL     1      -1.911  36.960  16.088  1.00  0.00     0.006 C 
BRANCH   7   8
ATOM      8  C   UNL     1      -2.018  37.515  14.661  1.00  0.00     0.053 C 
BRANCH   8   9
ATOM      9  C   UNL     1      -3.368  38.109  14.396  1.00  0.00     0.041 C 
ATOM     10  O   UNL     1      -3.576  39.331  14.619  1.00  0.00    -0.550 OA
ATOM     11  O   UNL     1      -4.387  37.321  13.875  1.00  0.00    -0.550 OA
ENDBRANCH   8   9
ENDBRANCH   7   8
ENDBRANCH   6   7
ENDBRANCH   5   6
ENDBRANCH   4   5
ENDBRANCH   3   4
ENDBRANCH   2   3
ENDBRANCH   1   2
BRANCH   1  12
ATOM     12  C   UNL     1      -6.102  36.086  22.119  1.00  0.00     0.000 C 
BRANCH  12  13
ATOM     13  C   UNL     1      -5.681  35.427  23.442  1.00  0.00    -0.000 C 
BRANCH  13  14
ATOM     14  C   UNL     1      -5.753  36.398  24.634  1.00  0.00    -0.000 C 
BRANCH  14  15
ATOM     15  C   UNL     1      -6.122  37.830  24.212  1.00  0.00    -0.000 C 
BRANCH  15  16
ATOM     16  C   UNL     1      -5.389  38.900  25.039  1.00  0.00    -0.000 C 
BRANCH  16  17
ATOM     17  C   UNL     1      -4.246  39.574  24.261  1.00  0.00    -0.000 C 
BRANCH  17  18
ATOM     18  C   UNL     1      -4.358  39.484  22.727  1.00  0.00    -0.000 C 
BRANCH  18  19
ATOM     19  C   UNL     1      -5.477  40.365  22.132  1.00  0.00    -0.003 C 
ATOM     20  C   UNL     1      -5.743  40.055  20.659  1.00  0.00     0.004 C 
ENDBRANCH  18  19
ENDBRANCH  17  18
ENDBRANCH  16  17
ENDBRANCH  15  16
ENDBRANCH  14  15
ENDBRANCH  13  14
ENDBRANCH  12  13
ENDBRANCH   1  12
TORSDOF 16
ENDMDL
MODEL 3
REMARK VINA RESULT:    -4.055      1.142      2.004
REMARK INTER + INTRA:          -9.251
REMARK INTER:                  -7.899
REMARK INTRA:                  -1.353
REMARK UNBOUND:                -1.404
REMARK SMILES CCCCCCCCCCCCCCCCCC(=O)[O-]
REMARK SMILES IDX 10 1 11 2 12 3 13 4 14 5 15 6 16 7 17 8 18 9 19 10 20 11
REMARK SMILES IDX 9 12 8 13 7 14 6 15 5 16 4 17 3 18 2 19 1 20
REMARK H PARENT
REMARK Flexibility Score: inf
ROOT
ATOM      1  C   UNL     1      -5.222  35.724  22.372  1.00  0.00     0.000 C 
ENDROOT
BRANCH   1   2
ATOM      2  C   UNL     1      -6.099  35.253  23.545  1.00  0.00     0.000 C 
BRANCH   2   3
ATOM      3  C   UNL     1      -5.995  36.178  24.771  1.00  0.00     0.000 C 
BRANCH   3   4
ATOM      4  C   UNL     1      -4.725  37.042  24.752  1.00  0.00     0.000 C 
BRANCH   4   5
ATOM      5  C   UNL     1      -4.860  38.315  25.603  1.00  0.00     0.000 C 
BRANCH   5   6
ATOM      6  C   UNL     1      -4.962  39.561  24.715  1.00  0.00     0.000 C 
BRANCH   6   7
ATOM      7  C   UNL     1      -5.951  39.336  23.562  1.00  0.00     0.006 C 
BRANCH   7   8
ATOM      8  C   UNL     1      -5.703  40.293  22.388  1.00  0.00     0.053 C 
BRANCH   8   9
ATOM      9  C   UNL     1      -4.956  39.625  21.274  1.00  0.00     0.041 C 
ATOM     10  O   UNL     1      -3.830  39.105  21.489  1.00  0.00    -0.550 OA
ATOM     11  O   UNL     1      -5.517  39.551  20.005  1.00  0.00    -0.550 OA
ENDBRANCH   8   9
ENDBRANCH   7   8
ENDBRANCH   6   7
ENDBRANCH   5   6
ENDBRANCH   4   5
ENDBRANCH   3   4
ENDBRANCH   2   3
ENDBRANCH   1   2
BRANCH   1  12
ATOM     12  C   UNL     1      -6.045  36.353  21.233  1.00  0.00     0.000 C 
BRANCH  12  13
ATOM     13  C   UNL     1      -5.435  36.078  19.848  1.00  0.00    -0.000 C 
BRANCH  13  14
ATOM     14  C   UNL     1      -3.913  36.305  19.818  1.00  0.00    -0.000 C 
BRANCH  14  15
ATOM     15  C   UNL     1      -3.461  37.142  18.610  1.00  0.00    -0.000 C 
BRANCH  15  16
ATOM     16  C   UNL     1      -3.316  36.304  17.328  1.00  0.00    -0.000 C 
BRANCH  16  17
ATOM     17  C   UNL     1      -2.002  36.583  16.578  1.00  0.00    -0.000 C 
BRANCH  17  18
ATOM     18  C   UNL     1      -2.056  37.762  15.586  1.00  0.00    -0.000 C 
BRANCH  18  19
ATOM     19  C   UNL     1      -3.125  37.600  14.485  1.00  0.00    -0.003 C 
ATOM     20  C   UNL     1      -3.871  38.904  14.199  1.00  0.00     0.004 C 
ENDBRANCH  18  19
ENDBRANCH  17  18
ENDBRANCH  16  17
ENDBRANCH  15  16
ENDBRANCH  14  15
ENDBRANCH  13  14
ENDBRANCH  12  13
ENDBRANCH   1  12
TORSDOF 16
ENDMDL
MODEL 4
REMARK VINA RESULT:    -3.891      1.893      6.734
REMARK INTER + INTRA:          -8.934
REMARK INTER:                  -7.134
REMARK INTRA:                  -1.800
REMARK UNBOUND:                -1.404
REMARK SMILES CCCCCCCCCCCCCCCCCC(=O)[O-]
REMARK SMILES IDX 10 1 11 2 12 3 13 4 14 5 15 6 16 7 17 8 18 9 19 10 20 11
REMARK SMILES IDX 9 12 8 13 7 14 6 15 5 16 4 17 3 18 2 19 1 20
REMARK H PARENT
REMARK Flexibility Score: inf
ROOT
ATOM      1  C   UNL     1      -4.186  35.691  21.847  1.00  0.00     0.000 C 
ENDROOT
BRANCH   1   2
ATOM      2  C   UNL     1      -3.911  36.114  20.395  1.00  0.00     0.000 C 
BRANCH   2   3
ATOM      3  C   UNL     1      -5.196  36.225  19.556  1.00  0.00     0.000 C 
BRANCH   3   4
ATOM      4  C   UNL     1      -5.025  35.662  18.136  1.00  0.00     0.000 C 
BRANCH   4   5
ATOM      5  C   UNL     1      -3.594  35.828  17.600  1.00  0.00     0.000 C 
BRANCH   5   6
ATOM      6  C   UNL     1      -3.554  36.839  16.448  1.00  0.00     0.000 C 
BRANCH   6   7
ATOM      7  C   UNL     1      -2.618  38.012  16.776  1.00  0.00     0.006 C 
BRANCH   7   8
ATOM      8  C   UNL     1      -1.306  37.544  17.421  1.00  0.00     0.053 C 
BRANCH   8   9
ATOM      9  C   UNL     1      -1.064  38.215  18.739  1.00  0.00     0.041 C 
ATOM     10  O   UNL     1       0.078  38.183  19.266  1.00  0.00    -0.550 OA
ATOM     11  O   UNL     1      -2.095  38.900  19.371  1.00  0.00    -0.550 OA
ENDBRANCH   8   9
ENDBRANCH   7   8
ENDBRANCH   6   7
ENDBRANCH   5   6
ENDBRANCH   4   5
ENDBRANCH   3   4
ENDBRANCH   2   3
ENDBRANCH   1   2
BRANCH   1  12
ATOM     12  C   UNL     1      -5.629  35.995  22.289  1.00  0.00     0.000 C 
BRANCH  12  13
ATOM     13  C   UNL     1      -6.023  35.242  23.571  1.00  0.00    -0.000 C 
BRANCH  13  14
ATOM     14  C   UNL     1      -6.083  36.164  24.802  1.00  0.00    -0.000 C 
BRANCH  14  15
ATOM     15  C   UNL     1      -4.968  37.222  24.807  1.00  0.00    -0.000 C 
BRANCH  15  16
ATOM     16  C   UNL     1      -5.451  38.591  25.315  1.00  0.00    -0.000 C 
BRANCH  16  17
ATOM     17  C   UNL     1      -5.009  39.753  24.409  1.00  0.00    -0.000 C 
BRANCH  17  18
ATOM     18  C   UNL     1      -4.248  39.335  23.136  1.00  0.00    -0.000 C 
BRANCH  18  19
ATOM     19  C   UNL     1      -5.112  39.361  21.858  1.00  0.00    -0.003 C 
ATOM     20  C   UNL     1      -5.887  40.671  21.704  1.00  0.00     0.004 C 
ENDBRANCH  18  19
ENDBRANCH  17  18
ENDBRANCH  16  17
ENDBRANCH  15  16
ENDBRANCH  14  15
ENDBRANCH  13  14
ENDBRANCH  12  13
ENDBRANCH   1  12
TORSDOF 16
ENDMDL
MODEL 5
REMARK VINA RESULT:    -3.858      1.970      6.954
REMARK INTER + INTRA:          -8.871
REMARK INTER:                  -6.647
REMARK INTRA:                  -2.224
REMARK UNBOUND:                -1.404
REMARK SMILES CCCCCCCCCCCCCCCCCC(=O)[O-]
REMARK SMILES IDX 10 1 11 2 12 3 13 4 14 5 15 6 16 7 17 8 18 9 19 10 20 11
REMARK SMILES IDX 9 12 8 13 7 14 6 15 5 16 4 17 3 18 2 19 1 20
REMARK H PARENT
REMARK Flexibility Score: inf
ROOT
ATOM      1  C   UNL     1      -4.029  37.797  20.775  1.00  0.00     0.000 C 
ENDROOT
BRANCH   1   2
ATOM      2  C   UNL     1      -3.780  36.455  20.066  1.00  0.00     0.000 C 
BRANCH   2   3
ATOM      3  C   UNL     1      -5.016  35.952  19.299  1.00  0.00     0.000 C 
BRANCH   3   4
ATOM      4  C   UNL     1      -4.646  35.231  17.993  1.00  0.00     0.000 C 
BRANCH   4   5
ATOM      5  C   UNL     1      -3.316  35.722  17.400  1.00  0.00     0.000 C 
BRANCH   5   6
ATOM      6  C   UNL     1      -3.540  36.918  16.466  1.00  0.00     0.000 C 
BRANCH   6   7
ATOM      7  C   UNL     1      -2.748  38.144  16.943  1.00  0.00     0.006 C 
BRANCH   7   8
ATOM      8  C   UNL     1      -1.292  37.799  17.285  1.00  0.00     0.053 C 
BRANCH   8   9
ATOM      9  C   UNL     1      -0.891  38.342  18.623  1.00  0.00     0.041 C 
ATOM     10  O   UNL     1      -1.563  39.261  19.160  1.00  0.00    -0.550 OA
ATOM     11  O   UNL     1       0.208  37.812  19.289  1.00  0.00    -0.550 OA
ENDBRANCH   8   9
ENDBRANCH   7   8
ENDBRANCH   6   7
ENDBRANCH   5   6
ENDBRANCH   4   5
ENDBRANCH   3   4
ENDBRANCH   2   3
ENDBRANCH   1   2
BRANCH   1  12
ATOM     12  C   UNL     1      -5.029  38.690  20.018  1.00  0.00     0.000 C 
BRANCH  12  13
ATOM     13  C   UNL     1      -5.639  39.781  20.914  1.00  0.00    -0.000 C 
BRANCH  13  14
ATOM     14  C   UNL     1      -4.739  40.127  22.115  1.00  0.00    -0.000 C 
BRANCH  14  15
ATOM     15  C   UNL     1      -5.375  39.747  23.462  1.00  0.00    -0.000 C 
BRANCH  15  16
ATOM     16  C   UNL     1      -4.413  38.962  24.371  1.00  0.00    -0.000 C 
BRANCH  16  17
ATOM     17  C   UNL     1      -5.131  38.275  25.545  1.00  0.00    -0.000 C 
BRANCH  17  18
ATOM     18  C   UNL     1      -6.125  37.167  25.145  1.00  0.00    -0.000 C 
BRANCH  18  19
ATOM     19  C   UNL     1      -5.492  36.037  24.306  1.00  0.00    -0.003 C 
ATOM     20  C   UNL     1      -6.125  35.915  22.919  1.00  0.00     0.004 C 
ENDBRANCH  18  19
ENDBRANCH  17  18
ENDBRANCH  16  17
ENDBRANCH  15  16
ENDBRANCH  14  15
ENDBRANCH  13  14
ENDBRANCH  12  13
ENDBRANCH   1  12
TORSDOF 16
ENDMDL
MODEL 6
REMARK VINA RESULT:    -3.732      1.969      2.884
REMARK INTER + INTRA:          -8.627
REMARK INTER:                  -7.381
REMARK INTRA:                  -1.246
REMARK UNBOUND:                -1.404
REMARK SMILES CCCCCCCCCCCCCCCCCC(=O)[O-]
REMARK SMILES IDX 10 1 11 2 12 3 13 4 14 5 15 6 16 7 17 8 18 9 19 10 20 11
REMARK SMILES IDX 9 12 8 13 7 14 6 15 5 16 4 17 3 18 2 19 1 20
REMARK H PARENT
REMARK Flexibility Score: inf
ROOT
ATOM      1  C   UNL     1      -5.139  35.993  20.596  1.00  0.00     0.000 C 
ENDROOT
BRANCH   1   2
ATOM      2  C   UNL     1      -5.597  37.283  21.296  1.00  0.00     0.000 C 
BRANCH   2   3
ATOM      3  C   UNL     1      -4.729  38.498  20.926  1.00  0.00     0.000 C 
BRANCH   3   4
ATOM      4  C   UNL     1      -5.528  39.811  20.910  1.00  0.00     0.000 C 
BRANCH   4   5
ATOM      5  C   UNL     1      -5.290  40.667  22.164  1.00  0.00     0.000 C 
BRANCH   5   6
ATOM      6  C   UNL     1      -4.287  39.992  23.107  1.00  0.00     0.000 C 
BRANCH   6   7
ATOM      7  C   UNL     1      -4.891  39.798  24.505  1.00  0.00     0.006 C 
BRANCH   7   8
ATOM      8  C   UNL     1      -5.844  38.597  24.564  1.00  0.00     0.053 C 
BRANCH   8   9
ATOM      9  C   UNL     1      -5.146  37.354  25.026  1.00  0.00     0.041 C 
ATOM     10  O   UNL     1      -4.239  37.423  25.895  1.00  0.00    -0.550 OA
ATOM     11  O   UNL     1      -5.517  36.116  24.516  1.00  0.00    -0.550 OA
ENDBRANCH   8   9
ENDBRANCH   7   8
ENDBRANCH   6   7
ENDBRANCH   5   6
ENDBRANCH   4   5
ENDBRANCH   3   4
ENDBRANCH   2   3
ENDBRANCH   1   2
BRANCH   1  12
ATOM     12  C   UNL     1      -5.592  35.923  19.126  1.00  0.00     0.000 C 
BRANCH  12  13
ATOM     13  C   UNL     1      -4.736  34.955  18.292  1.00  0.00    -0.000 C 
BRANCH  13  14
ATOM     14  C   UNL     1      -3.724  35.688  17.394  1.00  0.00    -0.000 C 
BRANCH  14  15
ATOM     15  C   UNL     1      -3.129  36.937  18.064  1.00  0.00    -0.000 C 
BRANCH  15  16
ATOM     16  C   UNL     1      -2.716  38.016  17.048  1.00  0.00    -0.000 C 
BRANCH  16  17
ATOM     17  C   UNL     1      -1.649  37.523  16.056  1.00  0.00    -0.000 C 
BRANCH  17  18
ATOM     18  C   UNL     1      -2.091  37.503  14.580  1.00  0.00    -0.000 C 
BRANCH  18  19
ATOM     19  C   UNL     1      -3.586  37.826  14.373  1.00  0.00    -0.003 C 
ATOM     20  C   UNL     1      -3.829  39.310  14.096  1.00  0.00     0.004 C 
ENDBRANCH  18  19
ENDBRANCH  17  18
ENDBRANCH  16  17
ENDBRANCH  15  16
ENDBRANCH  14  15
ENDBRANCH  13  14
ENDBRANCH  12  13
ENDBRANCH   1  12
TORSDOF 16
ENDMDL
MODEL 7
REMARK VINA RESULT:    -3.669      2.016      3.908
REMARK INTER + INTRA:          -8.504
REMARK INTER:                  -7.925
REMARK INTRA:                  -0.579
REMARK UNBOUND:                -1.404
REMARK SMILES CCCCCCCCCCCCCCCCCC(=O)[O-]
REMARK SMILES IDX 10 1 11 2 12 3 13 4 14 5 15 6 16 7 17 8 18 9 19 10 20 11
REMARK SMILES IDX 9 12 8 13 7 14 6 15 5 16 4 17 3 18 2 19 1 20
REMARK H PARENT
REMARK Flexibility Score: inf
ROOT
ATOM      1  C   UNL     1      -1.524  38.284  19.112  1.00  0.00     0.000 C 
ENDROOT
BRANCH   1   2
ATOM      2  C   UNL     1      -2.912  38.189  19.767  1.00  0.00     0.000 C 
BRANCH   2   3
ATOM      3  C   UNL     1      -3.971  37.585  18.827  1.00  0.00     0.000 C 
BRANCH   3   4
ATOM      4  C   UNL     1      -5.005  36.730  19.576  1.00  0.00     0.000 C 
BRANCH   4   5
ATOM      5  C   UNL     1      -4.675  36.570  21.068  1.00  0.00     0.000 C 
BRANCH   5   6
ATOM      6  C   UNL     1      -5.571  37.470  21.928  1.00  0.00     0.000 C 
BRANCH   6   7
ATOM      7  C   UNL     1      -5.314  37.234  23.424  1.00  0.00     0.006 C 
BRANCH   7   8
ATOM      8  C   UNL     1      -4.753  38.481  24.120  1.00  0.00     0.053 C 
BRANCH   8   9
ATOM      9  C   UNL     1      -4.715  38.316  25.609  1.00  0.00     0.041 C 
ATOM     10  O   UNL     1      -3.669  37.902  26.174  1.00  0.00    -0.550 OA
ATOM     11  O   UNL     1      -5.826  38.647  26.376  1.00  0.00    -0.550 OA
ENDBRANCH   8   9
ENDBRANCH   7   8
ENDBRANCH   6   7
ENDBRANCH   5   6
ENDBRANCH   4   5
ENDBRANCH   3   4
ENDBRANCH   2   3
ENDBRANCH   1   2
BRANCH   1  12
ATOM     12  C   UNL     1      -1.600  38.571  17.602  1.00  0.00     0.000 C 
BRANCH  12  13
ATOM     13  C   UNL     1      -1.699  37.286  16.763  1.00  0.00    -0.000 C 
BRANCH  13  14
ATOM     14  C   UNL     1      -1.927  37.574  15.268  1.00  0.00    -0.000 C 
BRANCH  14  15
ATOM     15  C   UNL     1      -3.354  37.232  14.808  1.00  0.00    -0.000 C 
BRANCH  15  16
ATOM     16  C   UNL     1      -3.967  38.323  13.914  1.00  0.00    -0.000 C 
BRANCH  16  17
ATOM     17  C   UNL     1      -3.917  39.719  14.559  1.00  0.00    -0.000 C 
BRANCH  17  18
ATOM     18  C   UNL     1      -4.811  40.780  13.888  1.00  0.00    -0.000 C 
BRANCH  18  19
ATOM     19  C   UNL     1      -4.688  42.184  14.516  1.00  0.00    -0.003 C 
ATOM     20  C   UNL     1      -6.043  42.877  14.667  1.00  0.00     0.004 C 
ENDBRANCH  18  19
ENDBRANCH  17  18
ENDBRANCH  16  17
ENDBRANCH  15  16
ENDBRANCH  14  15
ENDBRANCH  13  14
ENDBRANCH  12  13
ENDBRANCH   1  12
TORSDOF 16
ENDMDL
MODEL 8
REMARK VINA RESULT:    -3.599      1.453      2.591
REMARK INTER + INTRA:          -8.370
REMARK INTER:                  -6.980
REMARK INTRA:                  -1.390
REMARK UNBOUND:                -1.404
REMARK SMILES CCCCCCCCCCCCCCCCCC(=O)[O-]
REMARK SMILES IDX 10 1 11 2 12 3 13 4 14 5 15 6 16 7 17 8 18 9 19 10 20 11
REMARK SMILES IDX 9 12 8 13 7 14 6 15 5 16 4 17 3 18 2 19 1 20
REMARK H PARENT
REMARK Flexibility Score: inf
ROOT
ATOM      1  C   UNL     1      -4.006  35.697  21.827  1.00  0.00     0.000 C 
ENDROOT
BRANCH   1   2
ATOM      2  C   UNL     1      -5.408  36.116  22.299  1.00  0.00     0.000 C 
BRANCH   2   3
ATOM      3  C   UNL     1      -5.816  35.439  23.620  1.00  0.00     0.000 C 
BRANCH   3   4
ATOM      4  C   UNL     1      -6.055  36.451  24.752  1.00  0.00     0.000 C 
BRANCH   4   5
ATOM      5  C   UNL     1      -4.922  37.481  24.877  1.00  0.00     0.000 C 
BRANCH   5   6
ATOM      6  C   UNL     1      -5.481  38.908  24.929  1.00  0.00     0.000 C 
BRANCH   6   7
ATOM      7  C   UNL     1      -4.681  39.847  24.014  1.00  0.00     0.006 C 
BRANCH   7   8
ATOM      8  C   UNL     1      -4.396  39.219  22.644  1.00  0.00     0.053 C 
BRANCH   8   9
ATOM      9  C   UNL     1      -5.275  39.792  21.575  1.00  0.00     0.041 C 
ATOM     10  O   UNL     1      -5.923  40.850  21.788  1.00  0.00    -0.550 OA
ATOM     11  O   UNL     1      -5.356  39.174  20.333  1.00  0.00    -0.550 OA
ENDBRANCH   8   9
ENDBRANCH   7   8
ENDBRANCH   6   7
ENDBRANCH   5   6
ENDBRANCH   4   5
ENDBRANCH   3   4
ENDBRANCH   2   3
ENDBRANCH   1   2
BRANCH   1  12
ATOM     12  C   UNL     1      -3.688  36.189  20.404  1.00  0.00     0.000 C 
BRANCH  12  13
ATOM     13  C   UNL     1      -4.843  35.935  19.422  1.00  0.00    -0.000 C 
BRANCH  13  14
ATOM     14  C   UNL     1      -4.367  35.304  18.102  1.00  0.00    -0.000 C 
BRANCH  14  15
ATOM     15  C   UNL     1      -3.878  36.349  17.086  1.00  0.00    -0.000 C 
BRANCH  15  16
ATOM     16  C   UNL     1      -2.420  36.119  16.652  1.00  0.00    -0.000 C 
BRANCH  16  17
ATOM     17  C   UNL     1      -1.680  37.428  16.330  1.00  0.00    -0.000 C 
BRANCH  17  18
ATOM     18  C   UNL     1      -2.011  38.611  17.261  1.00  0.00    -0.000 C 
BRANCH  18  19
ATOM     19  C   UNL     1      -1.705  38.337  18.748  1.00  0.00    -0.003 C 
ATOM     20  C   UNL     1      -0.207  38.379  19.053  1.00  0.00     0.004 C 
ENDBRANCH  18  19
ENDBRANCH  17  18
ENDBRANCH  16  17
ENDBRANCH  15  16
ENDBRANCH  14  15
ENDBRANCH  13  14
ENDBRANCH  12  13
ENDBRANCH   1  12
TORSDOF 16
ENDMDL
