MODEL 1
REMARK VINA RESULT:    -5.056      0.000      0.000
REMARK INTER + INTRA:          -5.450
REMARK INTER:                  -5.351
REMARK INTRA:                  -0.098
REMARK UNBOUND:                -0.098
REMARK SMILES C=C(C)[C@H]1CC=C(C)C(=O)C1
REMARK SMILES IDX 8 1 7 2 6 3 5 4 4 5 11 6 9 7 10 8 2 9 1 10 3 11
REMARK H PARENT
REMARK Flexibility Score: inf
ROOT
ATOM      1  C   UNL     1      17.719 -17.406 -18.565  1.00  0.00     0.048 C 
ATOM      2  C   UNL     1      16.286 -17.723 -18.891  1.00  0.00    -0.012 C 
ATOM      3  C   UNL     1      15.450 -18.123 -17.917  1.00  0.00    -0.019 C 
ATOM      4  C   UNL     1      14.011 -18.471 -18.191  1.00  0.00     0.036 C 
ATOM      5  C   UNL     1      13.444 -17.615 -19.339  1.00  0.00     0.025 C 
ATOM      6  C   UNL     1      14.325 -17.750 -20.593  1.00  0.00     0.089 C 
ATOM      7  C   UNL     1      15.766 -17.476 -20.260  1.00  0.00     0.158 C 
ATOM      8  O   UNL     1      16.540 -17.068 -21.167  1.00  0.00    -0.295 OA
ENDROOT
BRANCH   5   9
ATOM      9  C   UNL     1      11.994 -17.972 -19.636  1.00  0.00    -0.077 C 
ATOM     10  C   UNL     1      11.688 -18.687 -20.731  1.00  0.00     0.008 C 
ATOM     11  C   UNL     1      10.874 -17.540 -18.722  1.00  0.00     0.039 C 
ENDBRANCH   5   9
TORSDOF 1
ENDMDL
MODEL 2
REMARK VINA RESULT:    -5.050      7.360      7.899
REMARK INTER + INTRA:          -5.444
REMARK INTER:                  -5.352
REMARK INTRA:                  -0.091
REMARK UNBOUND:                -0.098
REMARK SMILES C=C(C)[C@H]1CC=C(C)C(=O)C1
REMARK SMILES IDX 8 1 7 2 6 3 5 4 4 5 11 6 9 7 10 8 2 9 1 10 3 11
REMARK H PARENT
REMARK Flexibility Score: inf
ROOT
ATOM      1  C   UNL     1      19.662 -26.125 -23.712  1.00  0.00     0.048 C 
ATOM      2  C   UNL     1      18.508 -25.173 -23.563  1.00  0.00    -0.012 C 
ATOM      3  C   UNL     1      17.684 -25.280 -22.506  1.00  0.00    -0.019 C 
ATOM      4  C   UNL     1      16.503 -24.366 -22.318  1.00  0.00     0.036 C 
ATOM      5  C   UNL     1      16.793 -22.963 -22.881  1.00  0.00     0.025 C 
ATOM      6  C   UNL     1      17.228 -23.058 -24.355  1.00  0.00     0.089 C 
ATOM      7  C   UNL     1      18.354 -24.042 -24.513  1.00  0.00     0.158 C 
ATOM      8  O   UNL     1      19.146 -23.919 -25.485  1.00  0.00    -0.295 OA
ENDROOT
BRANCH   5   9
ATOM      9  C   UNL     1      15.598 -22.035 -22.712  1.00  0.00    -0.077 C 
ATOM     10  C   UNL     1      15.227 -21.631 -21.487  1.00  0.00     0.008 C 
ATOM     11  C   UNL     1      14.807 -21.548 -23.901  1.00  0.00     0.039 C 
ENDBRANCH   5   9
TORSDOF 1
ENDMDL
MODEL 3
REMARK VINA RESULT:    -4.805      8.290      9.470
REMARK INTER + INTRA:          -5.184
REMARK INTER:                  -5.090
REMARK INTRA:                  -0.094
REMARK UNBOUND:                -0.098
REMARK SMILES C=C(C)[C@H]1CC=C(C)C(=O)C1
REMARK SMILES IDX 8 1 7 2 6 3 5 4 4 5 11 6 9 7 10 8 2 9 1 10 3 11
REMARK H PARENT
REMARK Flexibility Score: inf
ROOT
ATOM      1  C   UNL     1      17.257 -25.353 -21.927  1.00  0.00     0.048 C 
ATOM      2  C   UNL     1      17.610 -24.579 -23.166  1.00  0.00    -0.012 C 
ATOM      3  C   UNL     1      16.934 -23.458 -23.470  1.00  0.00    -0.019 C 
ATOM      4  C   UNL     1      17.233 -22.655 -24.708  1.00  0.00     0.036 C 
ATOM      5  C   UNL     1      18.728 -22.731 -25.069  1.00  0.00     0.025 C 
ATOM      6  C   UNL     1      19.172 -24.199 -25.205  1.00  0.00     0.089 C 
ATOM      7  C   UNL     1      18.781 -24.985 -23.984  1.00  0.00     0.158 C 
ATOM      8  O   UNL     1      19.438 -26.017 -23.680  1.00  0.00    -0.295 OA
ENDROOT
BRANCH   5   9
ATOM      9  C   UNL     1      19.038 -21.937 -26.331  1.00  0.00    -0.077 C 
ATOM     10  C   UNL     1      20.312 -21.744 -26.709  1.00  0.00     0.008 C 
ATOM     11  C   UNL     1      17.938 -21.353 -27.182  1.00  0.00     0.039 C 
ENDBRANCH   5   9
TORSDOF 1
ENDMDL
MODEL 4
REMARK VINA RESULT:    -4.777      1.528      2.476
REMARK INTER + INTRA:          -5.155
REMARK INTER:                  -5.056
REMARK INTRA:                  -0.099
REMARK UNBOUND:                -0.098
REMARK SMILES C=C(C)[C@H]1CC=C(C)C(=O)C1
REMARK SMILES IDX 8 1 7 2 6 3 5 4 4 5 11 6 9 7 10 8 2 9 1 10 3 11
REMARK H PARENT
REMARK Flexibility Score: inf
ROOT
ATOM      1  C   UNL     1      16.841 -17.592 -20.960  1.00  0.00     0.048 C 
ATOM      2  C   UNL     1      15.373 -17.518 -20.646  1.00  0.00    -0.012 C 
ATOM      3  C   UNL     1      14.474 -17.528 -21.646  1.00  0.00    -0.019 C 
ATOM      4  C   UNL     1      12.993 -17.437 -21.389  1.00  0.00     0.036 C 
ATOM      5  C   UNL     1      12.618 -18.117 -20.060  1.00  0.00     0.025 C 
ATOM      6  C   UNL     1      13.447 -17.526 -18.905  1.00  0.00     0.089 C 
ATOM      7  C   UNL     1      14.915 -17.560 -19.235  1.00  0.00     0.158 C 
ATOM      8  O   UNL     1      15.755 -17.587 -18.297  1.00  0.00    -0.295 OA
ENDROOT
BRANCH   5   9
ATOM      9  C   UNL     1      11.125 -18.014 -19.782  1.00  0.00    -0.077 C 
ATOM     10  C   UNL     1      10.690 -17.546 -18.601  1.00  0.00     0.008 C 
ATOM     11  C   UNL     1      10.104 -18.430 -20.812  1.00  0.00     0.039 C 
ENDBRANCH   5   9
TORSDOF 1
ENDMDL
MODEL 5
REMARK VINA RESULT:    -4.759      2.336      5.034
REMARK INTER + INTRA:          -5.136
REMARK INTER:                  -5.038
REMARK INTRA:                  -0.098
REMARK UNBOUND:                -0.098
REMARK SMILES C=C(C)[C@H]1CC=C(C)C(=O)C1
REMARK SMILES IDX 8 1 7 2 6 3 5 4 4 5 11 6 9 7 10 8 2 9 1 10 3 11
REMARK H PARENT
REMARK Flexibility Score: inf
ROOT
ATOM      1  C   UNL     1       8.788 -18.585 -21.478  1.00  0.00     0.048 C 
ATOM      2  C   UNL     1      10.175 -18.181 -21.060  1.00  0.00    -0.012 C 
ATOM      3  C   UNL     1      10.505 -18.168 -19.757  1.00  0.00    -0.019 C 
ATOM      4  C   UNL     1      11.873 -17.754 -19.283  1.00  0.00     0.036 C 
ATOM      5  C   UNL     1      12.954 -18.140 -20.309  1.00  0.00     0.025 C 
ATOM      6  C   UNL     1      12.614 -17.553 -21.691  1.00  0.00     0.089 C 
ATOM      7  C   UNL     1      11.211 -17.919 -22.091  1.00  0.00     0.158 C 
ATOM      8  O   UNL     1      10.913 -17.966 -23.315  1.00  0.00    -0.295 OA
ENDROOT
BRANCH   5   9
ATOM      9  C   UNL     1      14.339 -17.710 -19.848  1.00  0.00    -0.077 C 
ATOM     10  C   UNL     1      14.577 -17.488 -18.545  1.00  0.00     0.008 C 
ATOM     11  C   UNL     1      15.472 -17.524 -20.828  1.00  0.00     0.039 C 
ENDBRANCH   5   9
TORSDOF 1
ENDMDL
MODEL 6
REMARK VINA RESULT:    -4.758      7.212      7.925
REMARK INTER + INTRA:          -5.135
REMARK INTER:                  -5.036
REMARK INTRA:                  -0.098
REMARK UNBOUND:                -0.098
REMARK SMILES C=C(C)[C@H]1CC=C(C)C(=O)C1
REMARK SMILES IDX 8 1 7 2 6 3 5 4 4 5 11 6 9 7 10 8 2 9 1 10 3 11
REMARK H PARENT
REMARK Flexibility Score: inf
ROOT
ATOM      1  C   UNL     1      19.364 -25.756 -24.088  1.00  0.00     0.048 C 
ATOM      2  C   UNL     1      18.354 -24.665 -23.867  1.00  0.00    -0.012 C 
ATOM      3  C   UNL     1      18.189 -23.708 -24.796  1.00  0.00    -0.019 C 
ATOM      4  C   UNL     1      17.205 -22.581 -24.617  1.00  0.00     0.036 C 
ATOM      5  C   UNL     1      15.976 -23.042 -23.813  1.00  0.00     0.025 C 
ATOM      6  C   UNL     1      16.415 -23.652 -22.469  1.00  0.00     0.089 C 
ATOM      7  C   UNL     1      17.457 -24.715 -22.684  1.00  0.00     0.158 C 
ATOM      8  O   UNL     1      17.587 -25.631 -21.830  1.00  0.00    -0.295 OA
ENDROOT
BRANCH   5   9
ATOM      9  C   UNL     1      14.984 -21.905 -23.610  1.00  0.00    -0.077 C 
ATOM     10  C   UNL     1      14.882 -21.306 -22.413  1.00  0.00     0.008 C 
ATOM     11  C   UNL     1      14.100 -21.425 -24.734  1.00  0.00     0.039 C 
ENDBRANCH   5   9
TORSDOF 1
ENDMDL
MODEL 7
REMARK VINA RESULT:    -4.672      2.956      4.048
REMARK INTER + INTRA:          -5.044
REMARK INTER:                  -4.947
REMARK INTRA:                  -0.097
REMARK UNBOUND:                -0.098
REMARK SMILES C=C(C)[C@H]1CC=C(C)C(=O)C1
REMARK SMILES IDX 8 1 7 2 6 3 5 4 4 5 11 6 9 7 10 8 2 9 1 10 3 11
REMARK H PARENT
REMARK Flexibility Score: inf
ROOT
ATOM      1  C   UNL     1      15.384 -22.338 -22.846  1.00  0.00     0.048 C 
ATOM      2  C   UNL     1      15.178 -21.279 -21.798  1.00  0.00    -0.012 C 
ATOM      3  C   UNL     1      14.016 -21.221 -21.125  1.00  0.00    -0.019 C 
ATOM      4  C   UNL     1      13.751 -20.170 -20.080  1.00  0.00     0.036 C 
ATOM      5  C   UNL     1      15.046 -19.784 -19.342  1.00  0.00     0.025 C 
ATOM      6  C   UNL     1      16.124 -19.345 -20.348  1.00  0.00     0.089 C 
ATOM      7  C   UNL     1      16.301 -20.383 -21.422  1.00  0.00     0.158 C 
ATOM      8  O   UNL     1      17.403 -20.460 -22.028  1.00  0.00    -0.295 OA
ENDROOT
BRANCH   5   9
ATOM      9  C   UNL     1      14.791 -18.709 -18.294  1.00  0.00    -0.077 C 
ATOM     10  C   UNL     1      14.659 -17.425 -18.665  1.00  0.00     0.008 C 
ATOM     11  C   UNL     1      14.681 -19.050 -16.829  1.00  0.00     0.039 C 
ENDBRANCH   5   9
TORSDOF 1
ENDMDL
MODEL 8
REMARK VINA RESULT:    -4.668      2.721      5.093
REMARK INTER + INTRA:          -5.039
REMARK INTER:                  -4.952
REMARK INTRA:                  -0.087
REMARK UNBOUND:                -0.098
REMARK SMILES C=C(C)[C@H]1CC=C(C)C(=O)C1
REMARK SMILES IDX 8 1 7 2 6 3 5 4 4 5 11 6 9 7 10 8 2 9 1 10 3 11
REMARK H PARENT
REMARK Flexibility Score: inf
ROOT
ATOM      1  C   UNL     1      10.102 -16.914 -23.169  1.00  0.00     0.048 C 
ATOM      2  C   UNL     1      11.161 -17.436 -22.239  1.00  0.00    -0.012 C 
ATOM      3  C   UNL     1      12.453 -17.141 -22.461  1.00  0.00    -0.019 C 
ATOM      4  C   UNL     1      13.555 -17.653 -21.572  1.00  0.00     0.036 C 
ATOM      5  C   UNL     1      13.074 -17.787 -20.115  1.00  0.00     0.025 C 
ATOM      6  C   UNL     1      11.813 -18.667 -20.048  1.00  0.00     0.089 C 
ATOM      7  C   UNL     1      10.768 -18.172 -21.010  1.00  0.00     0.158 C 
ATOM      8  O   UNL     1       9.554 -18.420 -20.781  1.00  0.00    -0.295 OA
ENDROOT
BRANCH   5   9
ATOM      9  C   UNL     1      14.175 -18.322 -19.211  1.00  0.00    -0.077 C 
ATOM     10  C   UNL     1      14.884 -17.480 -18.442  1.00  0.00     0.008 C 
ATOM     11  C   UNL     1      14.498 -19.795 -19.153  1.00  0.00     0.039 C 
ENDBRANCH   5   9
TORSDOF 1
ENDMDL
MODEL 9
REMARK VINA RESULT:    -4.637      2.148      3.616
REMARK INTER + INTRA:          -5.007
REMARK INTER:                  -4.908
REMARK INTRA:                  -0.098
REMARK UNBOUND:                -0.098
REMARK SMILES C=C(C)[C@H]1CC=C(C)C(=O)C1
REMARK SMILES IDX 8 1 7 2 6 3 5 4 4 5 11 6 9 7 10 8 2 9 1 10 3 11
REMARK H PARENT
REMARK Flexibility Score: inf
ROOT
ATOM      1  C   UNL     1      14.142 -17.434 -18.883  1.00  0.00     0.048 C 
ATOM      2  C   UNL     1      12.963 -17.797 -19.741  1.00  0.00    -0.012 C 
ATOM      3  C   UNL     1      11.736 -17.874 -19.196  1.00  0.00    -0.019 C 
ATOM      4  C   UNL     1      10.524 -18.251 -20.005  1.00  0.00     0.036 C 
ATOM      5  C   UNL     1      10.651 -17.753 -21.457  1.00  0.00     0.025 C 
ATOM      6  C   UNL     1      11.956 -18.270 -22.087  1.00  0.00     0.089 C 
ATOM      7  C   UNL     1      13.134 -17.946 -21.209  1.00  0.00     0.158 C 
ATOM      8  O   UNL     1      14.277 -17.839 -21.727  1.00  0.00    -0.295 OA
ENDROOT
BRANCH   5   9
ATOM      9  C   UNL     1       9.438 -18.146 -22.289  1.00  0.00    -0.077 C 
ATOM     10  C   UNL     1       8.343 -18.643 -21.691  1.00  0.00     0.008 C 
ATOM     11  C   UNL     1       9.430 -17.990 -23.789  1.00  0.00     0.039 C 
ENDBRANCH   5   9
TORSDOF 1
ENDMDL
