MODEL 1
REMARK VINA RESULT:    -1.435      0.000      0.000
REMARK INTER + INTRA:          -7.761
REMARK INTER:                  -3.281
REMARK INTRA:                  -4.480
REMARK UNBOUND:                -4.480
REMARK SMILES CCCCCCCCCCCCCCCCCCCCCCCC(=O)[O-]
REMARK SMILES IDX 13 1 14 2 15 3 16 4 17 5 18 6 19 7 20 8 21 9 22 10 23 11
REMARK SMILES IDX 24 12 25 13 26 14 12 15 11 16 10 17 9 18 8 19 7 20 6 21 5 22
REMARK SMILES IDX 4 23 3 24 2 25 1 26
REMARK H PARENT
REMARK Flexibility Score: inf
ROOT
ATOM      1  C   UNL     1     -18.790 -27.563  27.524  1.00  0.00     0.000 C 
ENDROOT
BRANCH   1   2
ATOM      2  C   UNL     1     -17.539 -28.436  27.716  1.00  0.00     0.000 C 
BRANCH   2   3
ATOM      3  C   UNL     1     -17.854 -29.941  27.649  1.00  0.00     0.000 C 
BRANCH   3   4
ATOM      4  C   UNL     1     -17.125 -30.746  28.738  1.00  0.00     0.000 C 
BRANCH   4   5
ATOM      5  C   UNL     1     -18.076 -31.648  29.544  1.00  0.00     0.000 C 
BRANCH   5   6
ATOM      6  C   UNL     1     -19.551 -31.258  29.362  1.00  0.00     0.000 C 
BRANCH   6   7
ATOM      7  C   UNL     1     -20.362 -31.365  30.665  1.00  0.00     0.000 C 
BRANCH   7   8
ATOM      8  C   UNL     1     -19.623 -32.193  31.740  1.00  0.00     0.000 C 
BRANCH   8   9
ATOM      9  C   UNL     1     -20.346 -33.496  32.125  1.00  0.00     0.000 C 
BRANCH   9  10
ATOM     10  C   UNL     1     -20.150 -34.617  31.095  1.00  0.00     0.006 C 
BRANCH  10  11
ATOM     11  C   UNL     1     -21.478 -34.988  30.424  1.00  0.00     0.053 C 
BRANCH  11  12
ATOM     12  C   UNL     1     -21.500 -34.528  29.000  1.00  0.00     0.041 C 
ATOM     13  O   UNL     1     -22.271 -33.597  28.646  1.00  0.00    -0.550 OA
ATOM     14  O   UNL     1     -20.662 -35.121  28.065  1.00  0.00    -0.550 OA
ENDBRANCH  11  12
ENDBRANCH  10  11
ENDBRANCH   9  10
ENDBRANCH   8   9
ENDBRANCH   7   8
ENDBRANCH   6   7
ENDBRANCH   5   6
ENDBRANCH   4   5
ENDBRANCH   3   4
ENDBRANCH   2   3
ENDBRANCH   1   2
BRANCH   1  15
ATOM     15  C   UNL     1     -19.146 -26.759  28.786  1.00  0.00     0.000 C 
BRANCH  15  16
ATOM     16  C   UNL     1     -19.486 -27.662  29.982  1.00  0.00     0.000 C 
BRANCH  16  17
ATOM     17  C   UNL     1     -18.585 -27.397  31.197  1.00  0.00     0.000 C 
BRANCH  17  18
ATOM     18  C   UNL     1     -18.306 -28.699  31.961  1.00  0.00    -0.000 C 
BRANCH  18  19
ATOM     19  C   UNL     1     -16.823 -29.103  31.942  1.00  0.00    -0.000 C 
BRANCH  19  20
ATOM     20  C   UNL     1     -15.897 -28.155  31.154  1.00  0.00    -0.000 C 
BRANCH  20  21
ATOM     21  C   UNL     1     -14.953 -27.312  32.041  1.00  0.00    -0.000 C 
BRANCH  21  22
ATOM     22  C   UNL     1     -14.893 -25.840  31.591  1.00  0.00    -0.000 C 
BRANCH  22  23
ATOM     23  C   UNL     1     -15.415 -25.628  30.159  1.00  0.00    -0.000 C 
BRANCH  23  24
ATOM     24  C   UNL     1     -16.398 -24.452  29.991  1.00  0.00    -0.000 C 
BRANCH  24  25
ATOM     25  C   UNL     1     -17.152 -24.039  31.268  1.00  0.00    -0.003 C 
ATOM     26  C   UNL     1     -18.614 -23.680  31.014  1.00  0.00     0.004 C 
ENDBRANCH  24  25
ENDBRANCH  23  24
ENDBRANCH  22  23
ENDBRANCH  21  22
ENDBRANCH  20  21
ENDBRANCH  19  20
ENDBRANCH  18  19
ENDBRANCH  17  18
ENDBRANCH  16  17
ENDBRANCH  15  16
ENDBRANCH   1  15
TORSDOF 22
ENDMDL
MODEL 2
REMARK VINA RESULT:    -1.425     18.207     21.864
REMARK INTER + INTRA:          -7.738
REMARK INTER:                  -3.263
REMARK INTRA:                  -4.475
REMARK UNBOUND:                -4.480
REMARK SMILES CCCCCCCCCCCCCCCCCCCCCCCC(=O)[O-]
REMARK SMILES IDX 13 1 14 2 15 3 16 4 17 5 18 6 19 7 20 8 21 9 22 10 23 11
REMARK SMILES IDX 24 12 25 13 26 14 12 15 11 16 10 17 9 18 8 19 7 20 6 21 5 22
REMARK SMILES IDX 4 23 3 24 2 25 1 26
REMARK H PARENT
REMARK Flexibility Score: inf
ROOT
ATOM      1  C   UNL     1     -30.661 -31.123  17.526  1.00  0.00     0.000 C 
ENDROOT
BRANCH   1   2
ATOM      2  C   UNL     1     -32.124 -30.732  17.258  1.00  0.00     0.000 C 
BRANCH   2   3
ATOM      3  C   UNL     1     -33.085 -31.929  17.375  1.00  0.00     0.000 C 
BRANCH   3   4
ATOM      4  C   UNL     1     -34.007 -32.067  16.152  1.00  0.00     0.000 C 
BRANCH   4   5
ATOM      5  C   UNL     1     -33.558 -31.190  14.970  1.00  0.00     0.000 C 
BRANCH   5   6
ATOM      6  C   UNL     1     -34.073 -31.714  13.620  1.00  0.00     0.000 C 
BRANCH   6   7
ATOM      7  C   UNL     1     -33.156 -31.338  12.444  1.00  0.00     0.000 C 
BRANCH   7   8
ATOM      8  C   UNL     1     -31.877 -30.611  12.916  1.00  0.00     0.000 C 
BRANCH   8   9
ATOM      9  C   UNL     1     -30.598 -31.077  12.199  1.00  0.00     0.000 C 
BRANCH   9  10
ATOM     10  C   UNL     1     -29.355 -30.274  12.608  1.00  0.00     0.006 C 
BRANCH  10  11
ATOM     11  C   UNL     1     -29.615 -28.766  12.512  1.00  0.00     0.053 C 
BRANCH  11  12
ATOM     12  C   UNL     1     -28.878 -28.032  13.588  1.00  0.00     0.041 C 
ATOM     13  O   UNL     1     -28.428 -28.654  14.587  1.00  0.00    -0.550 OA
ATOM     14  O   UNL     1     -28.682 -26.661  13.486  1.00  0.00    -0.550 OA
ENDBRANCH  11  12
ENDBRANCH  10  11
ENDBRANCH   9  10
ENDBRANCH   8   9
ENDBRANCH   7   8
ENDBRANCH   6   7
ENDBRANCH   5   6
ENDBRANCH   4   5
ENDBRANCH   3   4
ENDBRANCH   2   3
ENDBRANCH   1   2
BRANCH   1  15
ATOM     15  C   UNL     1     -30.350 -32.568  17.098  1.00  0.00     0.000 C 
BRANCH  15  16
ATOM     16  C   UNL     1     -29.858 -32.657  15.645  1.00  0.00     0.000 C 
BRANCH  16  17
ATOM     17  C   UNL     1     -30.774 -33.519  14.763  1.00  0.00     0.000 C 
BRANCH  17  18
ATOM     18  C   UNL     1     -30.060 -34.810  14.339  1.00  0.00    -0.000 C 
BRANCH  18  19
ATOM     19  C   UNL     1     -30.378 -35.228  12.895  1.00  0.00    -0.000 C 
BRANCH  19  20
ATOM     20  C   UNL     1     -31.669 -34.623  12.308  1.00  0.00    -0.000 C 
BRANCH  20  21
ATOM     21  C   UNL     1     -32.876 -35.589  12.310  1.00  0.00    -0.000 C 
BRANCH  21  22
ATOM     22  C   UNL     1     -33.833 -35.322  13.487  1.00  0.00    -0.000 C 
BRANCH  22  23
ATOM     23  C   UNL     1     -33.463 -36.115  14.752  1.00  0.00    -0.000 C 
BRANCH  23  24
ATOM     24  C   UNL     1     -34.483 -36.016  15.905  1.00  0.00    -0.000 C 
BRANCH  24  25
ATOM     25  C   UNL     1     -33.888 -35.662  17.280  1.00  0.00    -0.003 C 
ATOM     26  C   UNL     1     -32.361 -35.665  17.293  1.00  0.00     0.004 C 
ENDBRANCH  24  25
ENDBRANCH  23  24
ENDBRANCH  22  23
ENDBRANCH  21  22
ENDBRANCH  20  21
ENDBRANCH  19  20
ENDBRANCH  18  19
ENDBRANCH  17  18
ENDBRANCH  16  17
ENDBRANCH  15  16
ENDBRANCH   1  15
TORSDOF 22
ENDMDL
MODEL 3
REMARK VINA RESULT:    -1.352     18.952     21.457
REMARK INTER + INTRA:          -7.572
REMARK INTER:                  -3.591
REMARK INTRA:                  -3.980
REMARK UNBOUND:                -4.480
REMARK SMILES CCCCCCCCCCCCCCCCCCCCCCCC(=O)[O-]
REMARK SMILES IDX 13 1 14 2 15 3 16 4 17 5 18 6 19 7 20 8 21 9 22 10 23 11
REMARK SMILES IDX 24 12 25 13 26 14 12 15 11 16 10 17 9 18 8 19 7 20 6 21 5 22
REMARK SMILES IDX 4 23 3 24 2 25 1 26
REMARK H PARENT
REMARK Flexibility Score: inf
ROOT
ATOM      1  C   UNL     1     -32.679 -29.562  13.913  1.00  0.00     0.000 C 
ENDROOT
BRANCH   1   2
ATOM      2  C   UNL     1     -34.007 -30.031  13.298  1.00  0.00     0.000 C 
BRANCH   2   3
ATOM      3  C   UNL     1     -34.148 -31.564  13.298  1.00  0.00     0.000 C 
BRANCH   3   4
ATOM      4  C   UNL     1     -34.135 -32.157  11.879  1.00  0.00     0.000 C 
BRANCH   4   5
ATOM      5  C   UNL     1     -34.302 -33.687  11.875  1.00  0.00     0.000 C 
BRANCH   5   6
ATOM      6  C   UNL     1     -34.489 -34.261  13.289  1.00  0.00     0.000 C 
BRANCH   6   7
ATOM      7  C   UNL     1     -34.027 -35.724  13.404  1.00  0.00     0.000 C 
BRANCH   7   8
ATOM      8  C   UNL     1     -33.514 -36.059  14.822  1.00  0.00     0.000 C 
BRANCH   8   9
ATOM      9  C   UNL     1     -34.613 -36.044  15.899  1.00  0.00     0.000 C 
BRANCH   9  10
ATOM     10  C   UNL     1     -34.516 -34.833  16.838  1.00  0.00     0.006 C 
BRANCH  10  11
ATOM     11  C   UNL     1     -34.490 -35.273  18.306  1.00  0.00     0.053 C 
BRANCH  11  12
ATOM     12  C   UNL     1     -33.131 -35.063  18.898  1.00  0.00     0.041 C 
ATOM     13  O   UNL     1     -32.968 -34.238  19.835  1.00  0.00    -0.550 OA
ATOM     14  O   UNL     1     -32.045 -35.785  18.419  1.00  0.00    -0.550 OA
ENDBRANCH  11  12
ENDBRANCH  10  11
ENDBRANCH   9  10
ENDBRANCH   8   9
ENDBRANCH   7   8
ENDBRANCH   6   7
ENDBRANCH   5   6
ENDBRANCH   4   5
ENDBRANCH   3   4
ENDBRANCH   2   3
ENDBRANCH   1   2
BRANCH   1  15
ATOM     15  C   UNL     1     -31.577 -30.631  13.820  1.00  0.00     0.000 C 
BRANCH  15  16
ATOM     16  C   UNL     1     -30.176 -30.020  13.660  1.00  0.00     0.000 C 
BRANCH  16  17
ATOM     17  C   UNL     1     -29.070 -30.920  14.230  1.00  0.00     0.000 C 
BRANCH  17  18
ATOM     18  C   UNL     1     -28.059 -31.295  13.138  1.00  0.00    -0.000 C 
BRANCH  18  19
ATOM     19  C   UNL     1     -28.721 -31.869  11.875  1.00  0.00    -0.000 C 
BRANCH  19  20
ATOM     20  C   UNL     1     -28.913 -33.399  11.876  1.00  0.00    -0.000 C 
BRANCH  20  21
ATOM     21  C   UNL     1     -30.379 -33.851  12.060  1.00  0.00    -0.000 C 
BRANCH  21  22
ATOM     22  C   UNL     1     -30.503 -35.048  13.022  1.00  0.00    -0.000 C 
BRANCH  22  23
ATOM     23  C   UNL     1     -29.500 -34.987  14.187  1.00  0.00    -0.000 C 
BRANCH  23  24
ATOM     24  C   UNL     1     -30.130 -34.767  15.578  1.00  0.00    -0.000 C 
BRANCH  24  25
ATOM     25  C   UNL     1     -31.216 -33.678  15.641  1.00  0.00    -0.003 C 
ATOM     26  C   UNL     1     -31.030 -32.708  16.807  1.00  0.00     0.004 C 
ENDBRANCH  24  25
ENDBRANCH  23  24
ENDBRANCH  22  23
ENDBRANCH  21  22
ENDBRANCH  20  21
ENDBRANCH  19  20
ENDBRANCH  18  19
ENDBRANCH  17  18
ENDBRANCH  16  17
ENDBRANCH  15  16
ENDBRANCH   1  15
TORSDOF 22
ENDMDL
MODEL 4
REMARK VINA RESULT:    -1.310     18.255     21.962
REMARK INTER + INTRA:          -7.475
REMARK INTER:                  -3.053
REMARK INTRA:                  -4.422
REMARK UNBOUND:                -4.480
REMARK SMILES CCCCCCCCCCCCCCCCCCCCCCCC(=O)[O-]
REMARK SMILES IDX 13 1 14 2 15 3 16 4 17 5 18 6 19 7 20 8 21 9 22 10 23 11
REMARK SMILES IDX 24 12 25 13 26 14 12 15 11 16 10 17 9 18 8 19 7 20 6 21 5 22
REMARK SMILES IDX 4 23 3 24 2 25 1 26
REMARK H PARENT
REMARK Flexibility Score: inf
ROOT
ATOM      1  C   UNL     1     -32.142 -31.901  15.046  1.00  0.00     0.000 C 
ENDROOT
BRANCH   1   2
ATOM      2  C   UNL     1     -33.587 -31.376  15.079  1.00  0.00     0.000 C 
BRANCH   2   3
ATOM      3  C   UNL     1     -34.309 -31.552  13.731  1.00  0.00     0.000 C 
BRANCH   3   4
ATOM      4  C   UNL     1     -35.007 -30.263  13.263  1.00  0.00     0.000 C 
BRANCH   4   5
ATOM      5  C   UNL     1     -34.073 -29.040  13.292  1.00  0.00     0.000 C 
BRANCH   5   6
ATOM      6  C   UNL     1     -33.319 -28.844  11.968  1.00  0.00     0.000 C 
BRANCH   6   7
ATOM      7  C   UNL     1     -31.834 -28.499  12.172  1.00  0.00     0.000 C 
BRANCH   7   8
ATOM      8  C   UNL     1     -31.435 -28.514  13.665  1.00  0.00     0.000 C 
BRANCH   8   9
ATOM      9  C   UNL     1     -29.929 -28.317  13.906  1.00  0.00     0.000 C 
BRANCH   9  10
ATOM     10  C   UNL     1     -29.275 -29.506  14.625  1.00  0.00     0.006 C 
BRANCH  10  11
ATOM     11  C   UNL     1     -27.852 -29.749  14.108  1.00  0.00     0.053 C 
BRANCH  11  12
ATOM     12  C   UNL     1     -27.299 -31.025  14.661  1.00  0.00     0.041 C 
ATOM     13  O   UNL     1     -27.375 -31.267  15.894  1.00  0.00    -0.550 OA
ATOM     14  O   UNL     1     -26.705 -31.951  13.813  1.00  0.00    -0.550 OA
ENDBRANCH  11  12
ENDBRANCH  10  11
ENDBRANCH   9  10
ENDBRANCH   8   9
ENDBRANCH   7   8
ENDBRANCH   6   7
ENDBRANCH   5   6
ENDBRANCH   4   5
ENDBRANCH   3   4
ENDBRANCH   2   3
ENDBRANCH   1   2
BRANCH   1  15
ATOM     15  C   UNL     1     -31.660 -32.208  13.618  1.00  0.00     0.000 C 
BRANCH  15  16
ATOM     16  C   UNL     1     -30.292 -32.908  13.597  1.00  0.00     0.000 C 
BRANCH  16  17
ATOM     17  C   UNL     1     -30.329 -34.257  12.865  1.00  0.00     0.000 C 
BRANCH  17  18
ATOM     18  C   UNL     1     -31.518 -34.315  11.895  1.00  0.00    -0.000 C 
BRANCH  18  19
ATOM     19  C   UNL     1     -32.505 -35.448  12.219  1.00  0.00    -0.000 C 
BRANCH  19  20
ATOM     20  C   UNL     1     -33.878 -34.988  12.750  1.00  0.00    -0.000 C 
BRANCH  20  21
ATOM     21  C   UNL     1     -34.111 -35.294  14.247  1.00  0.00    -0.000 C 
BRANCH  21  22
ATOM     22  C   UNL     1     -32.964 -36.121  14.857  1.00  0.00    -0.000 C 
BRANCH  22  23
ATOM     23  C   UNL     1     -32.193 -35.362  15.952  1.00  0.00    -0.000 C 
BRANCH  23  24
ATOM     24  C   UNL     1     -32.833 -35.416  17.355  1.00  0.00    -0.000 C 
BRANCH  24  25
ATOM     25  C   UNL     1     -33.137 -34.047  17.990  1.00  0.00    -0.003 C 
ATOM     26  C   UNL     1     -31.888 -33.326  18.492  1.00  0.00     0.004 C 
ENDBRANCH  24  25
ENDBRANCH  23  24
ENDBRANCH  22  23
ENDBRANCH  21  22
ENDBRANCH  20  21
ENDBRANCH  19  20
ENDBRANCH  18  19
ENDBRANCH  17  18
ENDBRANCH  16  17
ENDBRANCH  15  16
ENDBRANCH   1  15
TORSDOF 22
ENDMDL
MODEL 5
REMARK VINA RESULT:    -1.277      4.981      7.341
REMARK INTER + INTRA:          -7.401
REMARK INTER:                  -2.428
REMARK INTRA:                  -4.972
REMARK UNBOUND:                -4.480
REMARK SMILES CCCCCCCCCCCCCCCCCCCCCCCC(=O)[O-]
REMARK SMILES IDX 13 1 14 2 15 3 16 4 17 5 18 6 19 7 20 8 21 9 22 10 23 11
REMARK SMILES IDX 24 12 25 13 26 14 12 15 11 16 10 17 9 18 8 19 7 20 6 21 5 22
REMARK SMILES IDX 4 23 3 24 2 25 1 26
REMARK H PARENT
REMARK Flexibility Score: inf
ROOT
ATOM      1  C   UNL     1     -19.933 -24.213  27.634  1.00  0.00     0.000 C 
ENDROOT
BRANCH   1   2
ATOM      2  C   UNL     1     -19.897 -22.885  26.860  1.00  0.00     0.000 C 
BRANCH   2   3
ATOM      3  C   UNL     1     -18.846 -21.907  27.416  1.00  0.00     0.000 C 
BRANCH   3   4
ATOM      4  C   UNL     1     -18.099 -21.150  26.305  1.00  0.00     0.000 C 
BRANCH   4   5
ATOM      5  C   UNL     1     -16.579 -21.099  26.542  1.00  0.00     0.000 C 
BRANCH   5   6
ATOM      6  C   UNL     1     -16.041 -22.387  27.184  1.00  0.00     0.000 C 
BRANCH   6   7
ATOM      7  C   UNL     1     -15.040 -23.130  26.282  1.00  0.00     0.000 C 
BRANCH   7   8
ATOM      8  C   UNL     1     -15.706 -23.669  24.997  1.00  0.00     0.000 C 
BRANCH   8   9
ATOM      9  C   UNL     1     -16.897 -24.607  25.262  1.00  0.00     0.000 C 
BRANCH   9  10
ATOM     10  C   UNL     1     -16.478 -25.950  25.876  1.00  0.00     0.006 C 
BRANCH  10  11
ATOM     11  C   UNL     1     -17.670 -26.910  25.970  1.00  0.00     0.053 C 
BRANCH  11  12
ATOM     12  C   UNL     1     -17.249 -28.310  25.648  1.00  0.00     0.041 C 
ATOM     13  O   UNL     1     -17.147 -29.169  26.563  1.00  0.00    -0.550 OA
ATOM     14  O   UNL     1     -16.975 -28.669  24.334  1.00  0.00    -0.550 OA
ENDBRANCH  11  12
ENDBRANCH  10  11
ENDBRANCH   9  10
ENDBRANCH   8   9
ENDBRANCH   7   8
ENDBRANCH   6   7
ENDBRANCH   5   6
ENDBRANCH   4   5
ENDBRANCH   3   4
ENDBRANCH   2   3
ENDBRANCH   1   2
BRANCH   1  15
ATOM     15  C   UNL     1     -18.658 -24.445  28.464  1.00  0.00     0.000 C 
BRANCH  15  16
ATOM     16  C   UNL     1     -18.880 -25.438  29.615  1.00  0.00     0.000 C 
BRANCH  16  17
ATOM     17  C   UNL     1     -17.604 -25.690  30.431  1.00  0.00     0.000 C 
BRANCH  17  18
ATOM     18  C   UNL     1     -16.355 -25.361  29.601  1.00  0.00    -0.000 C 
BRANCH  18  19
ATOM     19  C   UNL     1     -15.375 -24.427  30.329  1.00  0.00    -0.000 C 
BRANCH  19  20
ATOM     20  C   UNL     1     -15.706 -24.159  31.811  1.00  0.00    -0.000 C 
BRANCH  20  21
ATOM     21  C   UNL     1     -16.062 -22.688  32.123  1.00  0.00    -0.000 C 
BRANCH  21  22
ATOM     22  C   UNL     1     -16.152 -21.828  30.849  1.00  0.00    -0.000 C 
BRANCH  22  23
ATOM     23  C   UNL     1     -17.554 -21.236  30.622  1.00  0.00    -0.000 C 
BRANCH  23  24
ATOM     24  C   UNL     1     -18.573 -21.527  31.743  1.00  0.00    -0.000 C 
BRANCH  24  25
ATOM     25  C   UNL     1     -19.767 -22.408  31.332  1.00  0.00    -0.003 C 
ATOM     26  C   UNL     1     -20.835 -21.647  30.549  1.00  0.00     0.004 C 
ENDBRANCH  24  25
ENDBRANCH  23  24
ENDBRANCH  22  23
ENDBRANCH  21  22
ENDBRANCH  20  21
ENDBRANCH  19  20
ENDBRANCH  18  19
ENDBRANCH  17  18
ENDBRANCH  16  17
ENDBRANCH  15  16
ENDBRANCH   1  15
TORSDOF 22
ENDMDL
MODEL 6
REMARK VINA RESULT:    -1.274     19.452     22.774
REMARK INTER + INTRA:          -7.392
REMARK INTER:                  -3.625
REMARK INTRA:                  -3.767
REMARK UNBOUND:                -4.480
REMARK SMILES CCCCCCCCCCCCCCCCCCCCCCCC(=O)[O-]
REMARK SMILES IDX 13 1 14 2 15 3 16 4 17 5 18 6 19 7 20 8 21 9 22 10 23 11
REMARK SMILES IDX 24 12 25 13 26 14 12 15 11 16 10 17 9 18 8 19 7 20 6 21 5 22
REMARK SMILES IDX 4 23 3 24 2 25 1 26
REMARK H PARENT
REMARK Flexibility Score: inf
ROOT
ATOM      1  C   UNL     1     -28.880 -33.718  14.470  1.00  0.00     0.000 C 
ENDROOT
BRANCH   1   2
ATOM      2  C   UNL     1     -29.839 -32.548  14.739  1.00  0.00     0.000 C 
BRANCH   2   3
ATOM      3  C   UNL     1     -30.786 -32.821  15.921  1.00  0.00     0.000 C 
BRANCH   3   4
ATOM      4  C   UNL     1     -32.101 -32.029  15.820  1.00  0.00     0.000 C 
BRANCH   4   5
ATOM      5  C   UNL     1     -32.094 -31.018  14.660  1.00  0.00     0.000 C 
BRANCH   5   6
ATOM      6  C   UNL     1     -33.511 -30.581  14.253  1.00  0.00     0.000 C 
BRANCH   6   7
ATOM      7  C   UNL     1     -33.568 -29.992  12.833  1.00  0.00     0.000 C 
BRANCH   7   8
ATOM      8  C   UNL     1     -34.125 -28.552  12.825  1.00  0.00     0.000 C 
BRANCH   8   9
ATOM      9  C   UNL     1     -33.375 -27.602  11.875  1.00  0.00     0.000 C 
BRANCH   9  10
ATOM     10  C   UNL     1     -32.099 -27.016  12.496  1.00  0.00     0.006 C 
BRANCH  10  11
ATOM     11  C   UNL     1     -32.413 -26.254  13.788  1.00  0.00     0.053 C 
BRANCH  11  12
ATOM     12  C   UNL     1     -33.148 -24.984  13.489  1.00  0.00     0.041 C 
ATOM     13  O   UNL     1     -32.591 -24.071  12.825  1.00  0.00    -0.550 OA
ATOM     14  O   UNL     1     -34.452 -24.813  13.936  1.00  0.00    -0.550 OA
ENDBRANCH  11  12
ENDBRANCH  10  11
ENDBRANCH   9  10
ENDBRANCH   8   9
ENDBRANCH   7   8
ENDBRANCH   6   7
ENDBRANCH   5   6
ENDBRANCH   4   5
ENDBRANCH   3   4
ENDBRANCH   2   3
ENDBRANCH   1   2
BRANCH   1  15
ATOM     15  C   UNL     1     -29.555 -35.088  14.660  1.00  0.00     0.000 C 
BRANCH  15  16
ATOM     16  C   UNL     1     -29.784 -35.821  13.329  1.00  0.00     0.000 C 
BRANCH  16  17
ATOM     17  C   UNL     1     -31.269 -35.905  12.948  1.00  0.00     0.000 C 
BRANCH  17  18
ATOM     18  C   UNL     1     -31.617 -34.851  11.887  1.00  0.00    -0.000 C 
BRANCH  18  19
ATOM     19  C   UNL     1     -32.552 -33.750  12.414  1.00  0.00    -0.000 C 
BRANCH  19  20
ATOM     20  C   UNL     1     -34.025 -34.171  12.588  1.00  0.00    -0.000 C 
BRANCH  20  21
ATOM     21  C   UNL     1     -34.494 -34.233  14.060  1.00  0.00    -0.000 C 
BRANCH  21  22
ATOM     22  C   UNL     1     -34.714 -35.679  14.540  1.00  0.00    -0.000 C 
BRANCH  22  23
ATOM     23  C   UNL     1     -34.360 -35.879  16.025  1.00  0.00    -0.000 C 
BRANCH  23  24
ATOM     24  C   UNL     1     -32.850 -35.862  16.342  1.00  0.00    -0.000 C 
BRANCH  24  25
ATOM     25  C   UNL     1     -32.485 -35.412  17.768  1.00  0.00    -0.003 C 
ATOM     26  C   UNL     1     -31.089 -35.854  18.200  1.00  0.00     0.004 C 
ENDBRANCH  24  25
ENDBRANCH  23  24
ENDBRANCH  22  23
ENDBRANCH  21  22
ENDBRANCH  20  21
ENDBRANCH  19  20
ENDBRANCH  18  19
ENDBRANCH  17  18
ENDBRANCH  16  17
ENDBRANCH  15  16
ENDBRANCH   1  15
TORSDOF 22
ENDMDL
MODEL 7
REMARK VINA RESULT:    -1.257      4.199      7.602
REMARK INTER + INTRA:          -7.354
REMARK INTER:                  -2.291
REMARK INTRA:                  -5.062
REMARK UNBOUND:                -4.480
REMARK SMILES CCCCCCCCCCCCCCCCCCCCCCCC(=O)[O-]
REMARK SMILES IDX 13 1 14 2 15 3 16 4 17 5 18 6 19 7 20 8 21 9 22 10 23 11
REMARK SMILES IDX 24 12 25 13 26 14 12 15 11 16 10 17 9 18 8 19 7 20 6 21 5 22
REMARK SMILES IDX 4 23 3 24 2 25 1 26
REMARK H PARENT
REMARK Flexibility Score: inf
ROOT
ATOM      1  C   UNL     1     -15.180 -22.835  29.804  1.00  0.00     0.000 C 
ENDROOT
BRANCH   1   2
ATOM      2  C   UNL     1     -15.803 -23.738  30.880  1.00  0.00     0.000 C 
BRANCH   2   3
ATOM      3  C   UNL     1     -16.279 -22.946  32.111  1.00  0.00     0.000 C 
BRANCH   3   4
ATOM      4  C   UNL     1     -16.821 -21.554  31.743  1.00  0.00     0.000 C 
BRANCH   4   5
ATOM      5  C   UNL     1     -18.356 -21.523  31.643  1.00  0.00     0.000 C 
BRANCH   5   6
ATOM      6  C   UNL     1     -18.854 -21.679  30.197  1.00  0.00     0.000 C 
BRANCH   6   7
ATOM      7  C   UNL     1     -19.700 -22.946  29.990  1.00  0.00     0.000 C 
BRANCH   7   8
ATOM      8  C   UNL     1     -19.940 -23.705  31.314  1.00  0.00     0.000 C 
BRANCH   8   9
ATOM      9  C   UNL     1     -19.297 -25.103  31.354  1.00  0.00     0.000 C 
BRANCH   9  10
ATOM     10  C   UNL     1     -19.672 -25.970  30.144  1.00  0.00     0.006 C 
BRANCH  10  11
ATOM     11  C   UNL     1     -18.549 -26.957  29.803  1.00  0.00     0.053 C 
BRANCH  11  12
ATOM     12  C   UNL     1     -18.960 -27.862  28.684  1.00  0.00     0.041 C 
ATOM     13  O   UNL     1     -20.181 -28.050  28.437  1.00  0.00    -0.550 OA
ATOM     14  O   UNL     1     -17.996 -28.492  27.909  1.00  0.00    -0.550 OA
ENDBRANCH  11  12
ENDBRANCH  10  11
ENDBRANCH   9  10
ENDBRANCH   8   9
ENDBRANCH   7   8
ENDBRANCH   6   7
ENDBRANCH   5   6
ENDBRANCH   4   5
ENDBRANCH   3   4
ENDBRANCH   2   3
ENDBRANCH   1   2
BRANCH   1  15
ATOM     15  C   UNL     1     -15.862 -22.996  28.434  1.00  0.00     0.000 C 
BRANCH  15  16
ATOM     16  C   UNL     1     -16.745 -24.251  28.360  1.00  0.00     0.000 C 
BRANCH  16  17
ATOM     17  C   UNL     1     -16.393 -25.152  27.167  1.00  0.00     0.000 C 
BRANCH  17  18
ATOM     18  C   UNL     1     -17.620 -25.365  26.268  1.00  0.00    -0.000 C 
BRANCH  18  19
ATOM     19  C   UNL     1     -18.860 -24.593  26.748  1.00  0.00    -0.000 C 
BRANCH  19  20
ATOM     20  C   UNL     1     -20.212 -25.197  26.320  1.00  0.00    -0.000 C 
BRANCH  20  21
ATOM     21  C   UNL     1     -21.411 -24.730  27.176  1.00  0.00    -0.000 C 
BRANCH  21  22
ATOM     22  C   UNL     1     -22.354 -23.795  26.395  1.00  0.00    -0.000 C 
BRANCH  22  23
ATOM     23  C   UNL     1     -22.187 -22.315  26.783  1.00  0.00    -0.000 C 
BRANCH  23  24
ATOM     24  C   UNL     1     -21.104 -21.552  25.992  1.00  0.00    -0.000 C 
BRANCH  24  25
ATOM     25  C   UNL     1     -20.079 -20.789  26.851  1.00  0.00    -0.003 C 
ATOM     26  C   UNL     1     -18.633 -21.060  26.443  1.00  0.00     0.004 C 
ENDBRANCH  24  25
ENDBRANCH  23  24
ENDBRANCH  22  23
ENDBRANCH  21  22
ENDBRANCH  20  21
ENDBRANCH  19  20
ENDBRANCH  18  19
ENDBRANCH  17  18
ENDBRANCH  16  17
ENDBRANCH  15  16
ENDBRANCH   1  15
TORSDOF 22
ENDMDL
MODEL 8
REMARK VINA RESULT:    -1.253      4.569      7.285
REMARK INTER + INTRA:          -7.345
REMARK INTER:                  -2.650
REMARK INTRA:                  -4.695
REMARK UNBOUND:                -4.480
REMARK SMILES CCCCCCCCCCCCCCCCCCCCCCCC(=O)[O-]
REMARK SMILES IDX 13 1 14 2 15 3 16 4 17 5 18 6 19 7 20 8 21 9 22 10 23 11
REMARK SMILES IDX 24 12 25 13 26 14 12 15 11 16 10 17 9 18 8 19 7 20 6 21 5 22
REMARK SMILES IDX 4 23 3 24 2 25 1 26
REMARK H PARENT
REMARK Flexibility Score: inf
ROOT
ATOM      1  C   UNL     1     -18.668 -21.923  27.029  1.00  0.00     0.000 C 
ENDROOT
BRANCH   1   2
ATOM      2  C   UNL     1     -19.967 -21.515  27.743  1.00  0.00     0.000 C 
BRANCH   2   3
ATOM      3  C   UNL     1     -19.900 -21.741  29.264  1.00  0.00     0.000 C 
BRANCH   3   4
ATOM      4  C   UNL     1     -21.292 -21.791  29.915  1.00  0.00     0.000 C 
BRANCH   4   5
ATOM      5  C   UNL     1     -21.347 -22.744  31.123  1.00  0.00     0.000 C 
BRANCH   5   6
ATOM      6  C   UNL     1     -20.016 -23.479  31.352  1.00  0.00     0.000 C 
BRANCH   6   7
ATOM      7  C   UNL     1     -20.111 -24.987  31.064  1.00  0.00     0.000 C 
BRANCH   7   8
ATOM      8  C   UNL     1     -21.545 -25.416  30.685  1.00  0.00     0.000 C 
BRANCH   8   9
ATOM      9  C   UNL     1     -21.663 -26.005  29.268  1.00  0.00     0.000 C 
BRANCH   9  10
ATOM     10  C   UNL     1     -21.050 -25.100  28.190  1.00  0.00     0.006 C 
BRANCH  10  11
ATOM     11  C   UNL     1     -20.779 -25.883  26.900  1.00  0.00     0.053 C 
BRANCH  11  12
ATOM     12  C   UNL     1     -20.993 -25.017  25.699  1.00  0.00     0.041 C 
ATOM     13  O   UNL     1     -21.625 -23.933  25.803  1.00  0.00    -0.550 OA
ATOM     14  O   UNL     1     -20.489 -25.403  24.464  1.00  0.00    -0.550 OA
ENDBRANCH  11  12
ENDBRANCH  10  11
ENDBRANCH   9  10
ENDBRANCH   8   9
ENDBRANCH   7   8
ENDBRANCH   6   7
ENDBRANCH   5   6
ENDBRANCH   4   5
ENDBRANCH   3   4
ENDBRANCH   2   3
ENDBRANCH   1   2
BRANCH   1  15
ATOM     15  C   UNL     1     -18.043 -23.196  27.626  1.00  0.00     0.000 C 
BRANCH  15  16
ATOM     16  C   UNL     1     -16.567 -23.003  28.006  1.00  0.00     0.000 C 
BRANCH  16  17
ATOM     17  C   UNL     1     -16.245 -21.558  28.411  1.00  0.00     0.000 C 
BRANCH  17  18
ATOM     18  C   UNL     1     -15.625 -21.513  29.816  1.00  0.00    -0.000 C 
BRANCH  18  19
ATOM     19  C   UNL     1     -16.597 -21.964  30.918  1.00  0.00    -0.000 C 
BRANCH  19  20
ATOM     20  C   UNL     1     -15.940 -22.667  32.122  1.00  0.00    -0.000 C 
BRANCH  20  21
ATOM     21  C   UNL     1     -15.495 -24.120  31.839  1.00  0.00    -0.000 C 
BRANCH  21  22
ATOM     22  C   UNL     1     -16.561 -24.914  31.060  1.00  0.00    -0.000 C 
BRANCH  22  23
ATOM     23  C   UNL     1     -16.049 -26.278  30.564  1.00  0.00    -0.000 C 
BRANCH  23  24
ATOM     24  C   UNL     1     -16.162 -26.501  29.041  1.00  0.00    -0.000 C 
BRANCH  24  25
ATOM     25  C   UNL     1     -17.558 -26.912  28.540  1.00  0.00    -0.003 C 
ATOM     26  C   UNL     1     -18.285 -27.858  29.493  1.00  0.00     0.004 C 
ENDBRANCH  24  25
ENDBRANCH  23  24
ENDBRANCH  22  23
ENDBRANCH  21  22
ENDBRANCH  20  21
ENDBRANCH  19  20
ENDBRANCH  18  19
ENDBRANCH  17  18
ENDBRANCH  16  17
ENDBRANCH  15  16
ENDBRANCH   1  15
TORSDOF 22
ENDMDL
MODEL 9
REMARK VINA RESULT:    -1.234      3.406      5.393
REMARK INTER + INTRA:          -7.300
REMARK INTER:                  -2.791
REMARK INTRA:                  -4.510
REMARK UNBOUND:                -4.480
REMARK SMILES CCCCCCCCCCCCCCCCCCCCCCCC(=O)[O-]
REMARK SMILES IDX 13 1 14 2 15 3 16 4 17 5 18 6 19 7 20 8 21 9 22 10 23 11
REMARK SMILES IDX 24 12 25 13 26 14 12 15 11 16 10 17 9 18 8 19 7 20 6 21 5 22
REMARK SMILES IDX 4 23 3 24 2 25 1 26
REMARK H PARENT
REMARK Flexibility Score: inf
ROOT
ATOM      1  C   UNL     1     -18.728 -24.239  28.723  1.00  0.00     0.000 C 
ENDROOT
BRANCH   1   2
ATOM      2  C   UNL     1     -18.027 -25.350  29.521  1.00  0.00     0.000 C 
BRANCH   2   3
ATOM      3  C   UNL     1     -17.123 -26.229  28.638  1.00  0.00     0.000 C 
BRANCH   3   4
ATOM      4  C   UNL     1     -16.142 -27.080  29.461  1.00  0.00     0.000 C 
BRANCH   4   5
ATOM      5  C   UNL     1     -16.444 -27.040  30.970  1.00  0.00     0.000 C 
BRANCH   5   6
ATOM      6  C   UNL     1     -16.884 -28.407  31.518  1.00  0.00     0.000 C 
BRANCH   6   7
ATOM      7  C   UNL     1     -18.401 -28.493  31.758  1.00  0.00     0.000 C 
BRANCH   7   8
ATOM      8  C   UNL     1     -19.050 -29.644  30.957  1.00  0.00     0.000 C 
BRANCH   8   9
ATOM      9  C   UNL     1     -18.896 -29.503  29.433  1.00  0.00     0.000 C 
BRANCH   9  10
ATOM     10  C   UNL     1     -20.194 -29.072  28.735  1.00  0.00     0.006 C 
BRANCH  10  11
ATOM     11  C   UNL     1     -19.898 -28.330  27.427  1.00  0.00     0.053 C 
BRANCH  11  12
ATOM     12  C   UNL     1     -20.635 -27.028  27.378  1.00  0.00     0.041 C 
ATOM     13  O   UNL     1     -20.569 -26.300  26.353  1.00  0.00    -0.550 OA
ATOM     14  O   UNL     1     -21.402 -26.622  28.463  1.00  0.00    -0.550 OA
ENDBRANCH  11  12
ENDBRANCH  10  11
ENDBRANCH   9  10
ENDBRANCH   8   9
ENDBRANCH   7   8
ENDBRANCH   6   7
ENDBRANCH   5   6
ENDBRANCH   4   5
ENDBRANCH   3   4
ENDBRANCH   2   3
ENDBRANCH   1   2
BRANCH   1  15
ATOM     15  C   UNL     1     -19.425 -23.211  29.632  1.00  0.00     0.000 C 
BRANCH  15  16
ATOM     16  C   UNL     1     -18.557 -21.970  29.890  1.00  0.00     0.000 C 
BRANCH  16  17
ATOM     17  C   UNL     1     -18.320 -21.715  31.386  1.00  0.00     0.000 C 
BRANCH  17  18
ATOM     18  C   UNL     1     -16.817 -21.652  31.694  1.00  0.00    -0.000 C 
BRANCH  18  19
ATOM     19  C   UNL     1     -16.233 -23.007  32.125  1.00  0.00    -0.000 C 
BRANCH  19  20
ATOM     20  C   UNL     1     -15.211 -23.619  31.146  1.00  0.00    -0.000 C 
BRANCH  20  21
ATOM     21  C   UNL     1     -14.875 -22.717  29.937  1.00  0.00    -0.000 C 
BRANCH  21  22
ATOM     22  C   UNL     1     -14.916 -23.490  28.605  1.00  0.00    -0.000 C 
BRANCH  22  23
ATOM     23  C   UNL     1     -15.229 -22.588  27.398  1.00  0.00    -0.000 C 
BRANCH  23  24
ATOM     24  C   UNL     1     -15.781 -21.192  27.753  1.00  0.00    -0.000 C 
BRANCH  24  25
ATOM     25  C   UNL     1     -16.757 -20.592  26.725  1.00  0.00    -0.003 C 
ATOM     26  C   UNL     1     -17.858 -21.562  26.302  1.00  0.00     0.004 C 
ENDBRANCH  24  25
ENDBRANCH  23  24
ENDBRANCH  22  23
ENDBRANCH  21  22
ENDBRANCH  20  21
ENDBRANCH  19  20
ENDBRANCH  18  19
ENDBRANCH  17  18
ENDBRANCH  16  17
ENDBRANCH  15  16
ENDBRANCH   1  15
TORSDOF 22
ENDMDL
