MODEL 1
REMARK VINA RESULT:    -6.418      0.000      0.000
REMARK INTER + INTRA:          -7.836
REMARK INTER:                  -7.543
REMARK INTRA:                  -0.292
REMARK UNBOUND:                -0.292
REMARK SMILES O=c1c(O)c(-c2ccc(O)cc2)oc2cc(O)cc(O)c12
REMARK SMILES IDX 5 1 3 2 2 3 1 4 21 5 19 6 18 7 16 8 15 9 14 10 13 11 6 12
REMARK SMILES IDX 7 13 8 14 9 15 12 16 11 17 10 18 4 20 20 22 17 24
REMARK H PARENT 10 19 4 21 20 23 17 25
REMARK Flexibility Score: inf
ROOT
ATOM      1  C   UNL     1       2.162  26.623  28.590  1.00  0.00     0.180 A 
ATOM      2  C   UNL     1       2.157  26.547  27.186  1.00  0.00     0.208 A 
ATOM      3  C   UNL     1       1.206  25.731  26.552  1.00  0.00     0.238 A 
ATOM      4  O   UNL     1       1.159  25.725  25.295  1.00  0.00    -0.285 OA
ATOM      5  C   UNL     1       0.308  24.960  27.329  1.00  0.00     0.111 A 
ATOM      6  C   UNL     1      -0.668  24.065  26.794  1.00  0.00     0.134 A 
ATOM      7  C   UNL     1      -1.573  23.434  27.656  1.00  0.00     0.093 A 
ATOM      8  C   UNL     1      -1.499  23.614  29.036  1.00  0.00     0.123 A 
ATOM      9  C   UNL     1      -0.514  24.443  29.574  1.00  0.00     0.094 A 
ATOM     10  C   UNL     1       0.379  25.117  28.739  1.00  0.00     0.146 A 
ATOM     11  O   UNL     1       1.286  25.913  29.291  1.00  0.00    -0.452 OA
ENDROOT
BRANCH   1  12
ATOM     12  C   UNL     1       3.124  27.471  29.330  1.00  0.00     0.021 A 
ATOM     13  C   UNL     1       4.363  26.933  29.716  1.00  0.00     0.016 A 
ATOM     14  C   UNL     1       5.278  27.708  30.436  1.00  0.00     0.047 A 
ATOM     15  C   UNL     1       4.958  29.025  30.792  1.00  0.00     0.115 A 
ATOM     16  C   UNL     1       2.802  28.788  29.709  1.00  0.00     0.016 A 
ATOM     17  C   UNL     1       3.718  29.559  30.429  1.00  0.00     0.047 A 
BRANCH  15  18
ATOM     18  O   UNL     1       5.862  29.808  31.508  1.00  0.00    -0.508 OA
ATOM     19  H   UNL     1       6.224  29.509  32.406  1.00  0.00     0.293 HD
ENDBRANCH  15  18
ENDBRANCH   1  12
BRANCH   2  20
ATOM     20  O   UNL     1       3.101  27.256  26.440  1.00  0.00    -0.502 OA
ATOM     21  H   UNL     1       2.862  28.080  25.901  1.00  0.00     0.293 HD
ENDBRANCH   2  20
BRANCH   6  22
ATOM     22  O   UNL     1      -0.774  23.743  25.437  1.00  0.00    -0.507 OA
ATOM     23  H   UNL     1      -0.075  23.250  24.904  1.00  0.00     0.293 HD
ENDBRANCH   6  22
BRANCH   8  24
ATOM     24  O   UNL     1      -2.405  22.956  29.865  1.00  0.00    -0.508 OA
ATOM     25  H   UNL     1      -2.943  22.162  29.537  1.00  0.00     0.293 HD
ENDBRANCH   8  24
TORSDOF 5
ENDMDL
MODEL 2
REMARK VINA RESULT:    -6.388      2.589      6.620
REMARK INTER + INTRA:          -7.801
REMARK INTER:                  -7.514
REMARK INTRA:                  -0.287
REMARK UNBOUND:                -0.292
REMARK SMILES O=c1c(O)c(-c2ccc(O)cc2)oc2cc(O)cc(O)c12
REMARK SMILES IDX 5 1 3 2 2 3 1 4 21 5 19 6 18 7 16 8 15 9 14 10 13 11 6 12
REMARK SMILES IDX 7 13 8 14 9 15 12 16 11 17 10 18 4 20 20 22 17 24
REMARK H PARENT 10 19 4 21 20 23 17 25
REMARK Flexibility Score: inf
ROOT
ATOM      1  C   UNL     1      -1.003  25.001  28.923  1.00  0.00     0.180 A 
ATOM      2  C   UNL     1      -0.466  23.756  28.553  1.00  0.00     0.208 A 
ATOM      3  C   UNL     1       0.899  23.672  28.232  1.00  0.00     0.238 A 
ATOM      4  O   UNL     1       1.389  22.542  27.976  1.00  0.00    -0.285 OA
ATOM      5  C   UNL     1       1.697  24.842  28.231  1.00  0.00     0.111 A 
ATOM      6  C   UNL     1       3.080  24.882  27.878  1.00  0.00     0.134 A 
ATOM      7  C   UNL     1       3.793  26.080  28.015  1.00  0.00     0.093 A 
ATOM      8  C   UNL     1       3.162  27.250  28.429  1.00  0.00     0.123 A 
ATOM      9  C   UNL     1       1.798  27.236  28.723  1.00  0.00     0.094 A 
ATOM     10  C   UNL     1       1.067  26.049  28.633  1.00  0.00     0.146 A 
ATOM     11  O   UNL     1      -0.224  26.075  28.943  1.00  0.00    -0.452 OA
ENDROOT
BRANCH   1  12
ATOM     12  C   UNL     1      -2.428  25.167  29.288  1.00  0.00     0.021 A 
ATOM     13  C   UNL     1      -2.833  24.934  30.613  1.00  0.00     0.016 A 
ATOM     14  C   UNL     1      -4.178  25.063  30.976  1.00  0.00     0.047 A 
ATOM     15  C   UNL     1      -5.136  25.410  30.014  1.00  0.00     0.115 A 
ATOM     16  C   UNL     1      -3.400  25.497  28.324  1.00  0.00     0.016 A 
ATOM     17  C   UNL     1      -4.743  25.624  28.690  1.00  0.00     0.047 A 
BRANCH  15  18
ATOM     18  O   UNL     1      -6.478  25.542  30.364  1.00  0.00    -0.508 OA
ATOM     19  H   UNL     1      -6.924  26.450  30.419  1.00  0.00     0.293 HD
ENDBRANCH  15  18
ENDBRANCH   1  12
BRANCH   2  20
ATOM     20  O   UNL     1      -1.286  22.626  28.487  1.00  0.00    -0.502 OA
ATOM     21  H   UNL     1      -1.709  22.212  29.309  1.00  0.00     0.293 HD
ENDBRANCH   2  20
BRANCH   6  22
ATOM     22  O   UNL     1       3.790  23.790  27.369  1.00  0.00    -0.507 OA
ATOM     23  H   UNL     1       3.571  22.823  27.551  1.00  0.00     0.293 HD
ENDBRANCH   6  22
BRANCH   8  24
ATOM     24  O   UNL     1       3.899  28.428  28.537  1.00  0.00    -0.508 OA
ATOM     25  H   UNL     1       3.613  29.277  28.063  1.00  0.00     0.293 HD
ENDBRANCH   8  24
TORSDOF 5
ENDMDL
MODEL 3
REMARK VINA RESULT:    -6.148      3.474      5.923
REMARK INTER + INTRA:          -7.518
REMARK INTER:                  -7.258
REMARK INTRA:                  -0.260
REMARK UNBOUND:                -0.292
REMARK SMILES O=c1c(O)c(-c2ccc(O)cc2)oc2cc(O)cc(O)c12
REMARK SMILES IDX 5 1 3 2 2 3 1 4 21 5 19 6 18 7 16 8 15 9 14 10 13 11 6 12
REMARK SMILES IDX 7 13 8 14 9 15 12 16 11 17 10 18 4 20 20 22 17 24
REMARK H PARENT 10 19 4 21 20 23 17 25
REMARK Flexibility Score: inf
ROOT
ATOM      1  C   UNL     1      -2.012  24.627  29.360  1.00  0.00     0.180 A 
ATOM      2  C   UNL     1      -2.954  25.442  28.707  1.00  0.00     0.208 A 
ATOM      3  C   UNL     1      -4.226  25.603  29.280  1.00  0.00     0.238 A 
ATOM      4  O   UNL     1      -5.038  26.393  28.731  1.00  0.00    -0.285 OA
ATOM      5  C   UNL     1      -4.560  24.905  30.466  1.00  0.00     0.111 A 
ATOM      6  C   UNL     1      -5.834  24.959  31.109  1.00  0.00     0.134 A 
ATOM      7  C   UNL     1      -6.015  24.309  32.336  1.00  0.00     0.093 A 
ATOM      8  C   UNL     1      -4.993  23.557  32.911  1.00  0.00     0.123 A 
ATOM      9  C   UNL     1      -3.762  23.452  32.264  1.00  0.00     0.094 A 
ATOM     10  C   UNL     1      -3.536  24.119  31.059  1.00  0.00     0.146 A 
ATOM     11  O   UNL     1      -2.343  24.010  30.487  1.00  0.00    -0.452 OA
ENDROOT
BRANCH   1  12
ATOM     12  C   UNL     1      -0.646  24.418  28.826  1.00  0.00     0.021 A 
ATOM     13  C   UNL     1      -0.322  23.195  28.217  1.00  0.00     0.016 A 
ATOM     14  C   UNL     1       0.968  22.967  27.727  1.00  0.00     0.047 A 
ATOM     15  C   UNL     1       1.953  23.956  27.854  1.00  0.00     0.115 A 
ATOM     16  C   UNL     1       0.354  25.399  28.967  1.00  0.00     0.016 A 
ATOM     17  C   UNL     1       1.642  25.168  28.476  1.00  0.00     0.047 A 
BRANCH  15  18
ATOM     18  O   UNL     1       3.242  23.741  27.368  1.00  0.00    -0.508 OA
ATOM     19  H   UNL     1       3.403  23.430  26.418  1.00  0.00     0.293 HD
ENDBRANCH  15  18
ENDBRANCH   1  12
BRANCH   2  20
ATOM     20  O   UNL     1      -2.631  26.062  27.498  1.00  0.00    -0.502 OA
ATOM     21  H   UNL     1      -1.707  26.428  27.303  1.00  0.00     0.293 HD
ENDBRANCH   2  20
BRANCH   6  22
ATOM     22  O   UNL     1      -6.951  25.610  30.578  1.00  0.00    -0.507 OA
ATOM     23  H   UNL     1      -7.874  25.597  30.983  1.00  0.00     0.293 HD
ENDBRANCH   6  22
BRANCH   8  24
ATOM     24  O   UNL     1      -5.216  22.909  34.125  1.00  0.00    -0.508 OA
ATOM     25  H   UNL     1      -6.123  22.522  34.360  1.00  0.00     0.293 HD
ENDBRANCH   8  24
TORSDOF 5
ENDMDL
MODEL 4
REMARK VINA RESULT:    -6.092      3.562      4.670
REMARK INTER + INTRA:          -7.452
REMARK INTER:                  -7.219
REMARK INTRA:                  -0.233
REMARK UNBOUND:                -0.292
REMARK SMILES O=c1c(O)c(-c2ccc(O)cc2)oc2cc(O)cc(O)c12
REMARK SMILES IDX 5 1 3 2 2 3 1 4 21 5 19 6 18 7 16 8 15 9 14 10 13 11 6 12
REMARK SMILES IDX 7 13 8 14 9 15 12 16 11 17 10 18 4 20 20 22 17 24
REMARK H PARENT 10 19 4 21 20 23 17 25
REMARK Flexibility Score: inf
ROOT
ATOM      1  C   UNL     1      -0.644  25.517  27.293  1.00  0.00     0.180 A 
ATOM      2  C   UNL     1      -1.103  24.273  26.826  1.00  0.00     0.208 A 
ATOM      3  C   UNL     1      -1.878  23.470  27.680  1.00  0.00     0.238 A 
ATOM      4  O   UNL     1      -2.349  22.394  27.231  1.00  0.00    -0.285 OA
ATOM      5  C   UNL     1      -2.137  23.895  29.006  1.00  0.00     0.111 A 
ATOM      6  C   UNL     1      -2.872  23.142  29.971  1.00  0.00     0.134 A 
ATOM      7  C   UNL     1      -3.155  23.710  31.220  1.00  0.00     0.093 A 
ATOM      8  C   UNL     1      -2.677  24.974  31.561  1.00  0.00     0.123 A 
ATOM      9  C   UNL     1      -1.911  25.696  30.646  1.00  0.00     0.094 A 
ATOM     10  C   UNL     1      -1.644  25.174  29.379  1.00  0.00     0.146 A 
ATOM     11  O   UNL     1      -0.929  25.903  28.531  1.00  0.00    -0.452 OA
ENDROOT
BRANCH   1  12
ATOM     12  C   UNL     1       0.166  26.425  26.449  1.00  0.00     0.021 A 
ATOM     13  C   UNL     1       1.528  26.147  26.245  1.00  0.00     0.016 A 
ATOM     14  C   UNL     1       2.317  27.003  25.470  1.00  0.00     0.047 A 
ATOM     15  C   UNL     1       1.757  28.156  24.903  1.00  0.00     0.115 A 
ATOM     16  C   UNL     1      -0.384  27.595  25.893  1.00  0.00     0.016 A 
ATOM     17  C   UNL     1       0.408  28.449  25.119  1.00  0.00     0.047 A 
BRANCH  15  18
ATOM     18  O   UNL     1       2.533  29.016  24.129  1.00  0.00    -0.508 OA
ATOM     19  H   UNL     1       2.261  29.980  23.974  1.00  0.00     0.293 HD
ENDBRANCH  15  18
ENDBRANCH   1  12
BRANCH   2  20
ATOM     20  O   UNL     1      -0.774  23.838  25.540  1.00  0.00    -0.502 OA
ATOM     21  H   UNL     1       0.090  24.101  25.081  1.00  0.00     0.293 HD
ENDBRANCH   2  20
BRANCH   6  22
ATOM     22  O   UNL     1      -3.322  21.834  29.766  1.00  0.00    -0.507 OA
ATOM     23  H   UNL     1      -3.740  21.494  28.915  1.00  0.00     0.293 HD
ENDBRANCH   6  22
BRANCH   8  24
ATOM     24  O   UNL     1      -2.964  25.500  32.820  1.00  0.00    -0.508 OA
ATOM     25  H   UNL     1      -3.413  24.942  33.537  1.00  0.00     0.293 HD
ENDBRANCH   8  24
TORSDOF 5
ENDMDL
MODEL 5
REMARK VINA RESULT:    -6.074      3.423      6.429
REMARK INTER + INTRA:          -7.431
REMARK INTER:                  -7.160
REMARK INTRA:                  -0.271
REMARK UNBOUND:                -0.292
REMARK SMILES O=c1c(O)c(-c2ccc(O)cc2)oc2cc(O)cc(O)c12
REMARK SMILES IDX 5 1 3 2 2 3 1 4 21 5 19 6 18 7 16 8 15 9 14 10 13 11 6 12
REMARK SMILES IDX 7 13 8 14 9 15 12 16 11 17 10 18 4 20 20 22 17 24
REMARK H PARENT 10 19 4 21 20 23 17 25
REMARK Flexibility Score: inf
ROOT
ATOM      1  C   UNL     1      -1.690  24.729  29.381  1.00  0.00     0.180 A 
ATOM      2  C   UNL     1      -2.196  25.468  28.297  1.00  0.00     0.208 A 
ATOM      3  C   UNL     1      -1.336  25.797  27.237  1.00  0.00     0.238 A 
ATOM      4  O   UNL     1      -1.813  26.392  26.237  1.00  0.00    -0.285 OA
ATOM      5  C   UNL     1       0.031  25.433  27.299  1.00  0.00     0.111 A 
ATOM      6  C   UNL     1       1.003  25.753  26.303  1.00  0.00     0.134 A 
ATOM      7  C   UNL     1       2.305  25.249  26.421  1.00  0.00     0.093 A 
ATOM      8  C   UNL     1       2.686  24.492  27.526  1.00  0.00     0.123 A 
ATOM      9  C   UNL     1       1.760  24.219  28.533  1.00  0.00     0.094 A 
ATOM     10  C   UNL     1       0.444  24.675  28.427  1.00  0.00     0.146 A 
ATOM     11  O   UNL     1      -0.411  24.375  29.397  1.00  0.00    -0.452 OA
ENDROOT
BRANCH   1  12
ATOM     12  C   UNL     1      -2.537  24.333  30.529  1.00  0.00     0.021 A 
ATOM     13  C   UNL     1      -2.766  25.250  31.568  1.00  0.00     0.016 A 
ATOM     14  C   UNL     1      -3.544  24.889  32.673  1.00  0.00     0.047 A 
ATOM     15  C   UNL     1      -4.090  23.601  32.758  1.00  0.00     0.115 A 
ATOM     16  C   UNL     1      -3.073  23.035  30.632  1.00  0.00     0.016 A 
ATOM     17  C   UNL     1      -3.850  22.678  31.738  1.00  0.00     0.047 A 
BRANCH  15  18
ATOM     18  O   UNL     1      -4.868  23.231  33.854  1.00  0.00    -0.508 OA
ATOM     19  H   UNL     1      -5.792  23.619  34.002  1.00  0.00     0.293 HD
ENDBRANCH  15  18
ENDBRANCH   1  12
BRANCH   2  20
ATOM     20  O   UNL     1      -3.530  25.883  28.290  1.00  0.00    -0.502 OA
ATOM     21  H   UNL     1      -4.125  25.792  27.475  1.00  0.00     0.293 HD
ENDBRANCH   2  20
BRANCH   6  22
ATOM     22  O   UNL     1       0.752  26.576  25.201  1.00  0.00    -0.507 OA
ATOM     23  H   UNL     1       1.453  27.094  24.695  1.00  0.00     0.293 HD
ENDBRANCH   6  22
BRANCH   8  24
ATOM     24  O   UNL     1       3.995  24.022  27.619  1.00  0.00    -0.508 OA
ATOM     25  H   UNL     1       4.317  23.238  27.062  1.00  0.00     0.293 HD
ENDBRANCH   8  24
TORSDOF 5
ENDMDL
MODEL 6
REMARK VINA RESULT:    -5.782      2.025      2.612
REMARK INTER + INTRA:          -7.089
REMARK INTER:                  -6.795
REMARK INTRA:                  -0.294
REMARK UNBOUND:                -0.292
REMARK SMILES O=c1c(O)c(-c2ccc(O)cc2)oc2cc(O)cc(O)c12
REMARK SMILES IDX 5 1 3 2 2 3 1 4 21 5 19 6 18 7 16 8 15 9 14 10 13 11 6 12
REMARK SMILES IDX 7 13 8 14 9 15 12 16 11 17 10 18 4 20 20 22 17 24
REMARK H PARENT 10 19 4 21 20 23 17 25
REMARK Flexibility Score: inf
ROOT
ATOM      1  C   UNL     1       3.375  27.825  29.308  1.00  0.00     0.180 A 
ATOM      2  C   UNL     1       2.682  28.641  28.397  1.00  0.00     0.208 A 
ATOM      3  C   UNL     1       1.814  28.040  27.469  1.00  0.00     0.238 A 
ATOM      4  O   UNL     1       1.141  28.780  26.707  1.00  0.00    -0.285 OA
ATOM      5  C   UNL     1       1.693  26.630  27.428  1.00  0.00     0.111 A 
ATOM      6  C   UNL     1       0.878  25.911  26.501  1.00  0.00     0.134 A 
ATOM      7  C   UNL     1       0.755  24.522  26.623  1.00  0.00     0.093 A 
ATOM      8  C   UNL     1       1.463  23.818  27.595  1.00  0.00     0.123 A 
ATOM      9  C   UNL     1       2.305  24.504  28.471  1.00  0.00     0.094 A 
ATOM     10  C   UNL     1       2.421  25.894  28.400  1.00  0.00     0.146 A 
ATOM     11  O   UNL     1       3.216  26.508  29.267  1.00  0.00    -0.452 OA
ENDROOT
BRANCH   1  12
ATOM     12  C   UNL     1       4.295  28.385  30.324  1.00  0.00     0.021 A 
ATOM     13  C   UNL     1       5.655  28.546  30.010  1.00  0.00     0.016 A 
ATOM     14  C   UNL     1       6.547  29.051  30.962  1.00  0.00     0.047 A 
ATOM     15  C   UNL     1       6.092  29.387  32.244  1.00  0.00     0.115 A 
ATOM     16  C   UNL     1       3.850  28.706  31.621  1.00  0.00     0.016 A 
ATOM     17  C   UNL     1       4.744  29.210  32.570  1.00  0.00     0.047 A 
BRANCH  15  18
ATOM     18  O   UNL     1       6.971  29.892  33.200  1.00  0.00    -0.508 OA
ATOM     19  H   UNL     1       6.736  30.703  33.759  1.00  0.00     0.293 HD
ENDBRANCH  15  18
ENDBRANCH   1  12
BRANCH   2  20
ATOM     20  O   UNL     1       2.873  30.025  28.403  1.00  0.00    -0.502 OA
ATOM     21  H   UNL     1       3.445  30.493  29.096  1.00  0.00     0.293 HD
ENDBRANCH   2  20
BRANCH   6  22
ATOM     22  O   UNL     1       0.196  26.506  25.435  1.00  0.00    -0.507 OA
ATOM     23  H   UNL     1      -0.491  27.237  25.525  1.00  0.00     0.293 HD
ENDBRANCH   6  22
BRANCH   8  24
ATOM     24  O   UNL     1       1.329  22.433  27.675  1.00  0.00    -0.508 OA
ATOM     25  H   UNL     1       1.255  21.859  26.843  1.00  0.00     0.293 HD
ENDBRANCH   8  24
TORSDOF 5
ENDMDL
MODEL 7
REMARK VINA RESULT:    -5.755      4.050      5.563
REMARK INTER + INTRA:          -7.057
REMARK INTER:                  -6.906
REMARK INTRA:                  -0.151
REMARK UNBOUND:                -0.292
REMARK SMILES O=c1c(O)c(-c2ccc(O)cc2)oc2cc(O)cc(O)c12
REMARK SMILES IDX 5 1 3 2 2 3 1 4 21 5 19 6 18 7 16 8 15 9 14 10 13 11 6 12
REMARK SMILES IDX 7 13 8 14 9 15 12 16 11 17 10 18 4 20 20 22 17 24
REMARK H PARENT 10 19 4 21 20 23 17 25
REMARK Flexibility Score: inf
ROOT
ATOM      1  C   UNL     1      -1.421  25.696  28.260  1.00  0.00     0.180 A 
ATOM      2  C   UNL     1      -2.811  25.562  28.097  1.00  0.00     0.208 A 
ATOM      3  C   UNL     1      -3.579  25.080  29.170  1.00  0.00     0.238 A 
ATOM      4  O   UNL     1      -4.829  25.033  29.042  1.00  0.00    -0.285 OA
ATOM      5  C   UNL     1      -2.942  24.687  30.372  1.00  0.00     0.111 A 
ATOM      6  C   UNL     1      -3.616  24.143  31.508  1.00  0.00     0.134 A 
ATOM      7  C   UNL     1      -2.895  23.888  32.681  1.00  0.00     0.093 A 
ATOM      8  C   UNL     1      -1.519  24.097  32.741  1.00  0.00     0.123 A 
ATOM      9  C   UNL     1      -0.841  24.575  31.620  1.00  0.00     0.094 A 
ATOM     10  C   UNL     1      -1.537  24.876  30.446  1.00  0.00     0.146 A 
ATOM     11  O   UNL     1      -0.856  25.349  29.410  1.00  0.00    -0.452 OA
ENDROOT
BRANCH   1  12
ATOM     12  C   UNL     1      -0.547  26.209  27.181  1.00  0.00     0.021 A 
ATOM     13  C   UNL     1      -0.672  27.546  26.767  1.00  0.00     0.016 A 
ATOM     14  C   UNL     1       0.127  28.046  25.734  1.00  0.00     0.047 A 
ATOM     15  C   UNL     1       1.050  27.210  25.092  1.00  0.00     0.115 A 
ATOM     16  C   UNL     1       0.369  25.371  26.517  1.00  0.00     0.016 A 
ATOM     17  C   UNL     1       1.166  25.874  25.484  1.00  0.00     0.047 A 
BRANCH  15  18
ATOM     18  O   UNL     1       1.852  27.698  24.061  1.00  0.00    -0.508 OA
ATOM     19  H   UNL     1       2.701  28.217  24.252  1.00  0.00     0.293 HD
ENDBRANCH  15  18
ENDBRANCH   1  12
BRANCH   2  20
ATOM     20  O   UNL     1      -3.411  25.884  26.877  1.00  0.00    -0.502 OA
ATOM     21  H   UNL     1      -4.188  26.529  26.805  1.00  0.00     0.293 HD
ENDBRANCH   2  20
BRANCH   6  22
ATOM     22  O   UNL     1      -4.975  23.814  31.528  1.00  0.00    -0.507 OA
ATOM     23  H   UNL     1      -5.538  23.634  30.712  1.00  0.00     0.293 HD
ENDBRANCH   6  22
BRANCH   8  24
ATOM     24  O   UNL     1      -0.832  23.815  33.920  1.00  0.00    -0.508 OA
ATOM     25  H   UNL     1       0.061  24.248  34.129  1.00  0.00     0.293 HD
ENDBRANCH   8  24
TORSDOF 5
ENDMDL
MODEL 8
REMARK VINA RESULT:    -5.657      3.737      6.373
REMARK INTER + INTRA:          -6.941
REMARK INTER:                  -6.645
REMARK INTRA:                  -0.296
REMARK UNBOUND:                -0.292
REMARK SMILES O=c1c(O)c(-c2ccc(O)cc2)oc2cc(O)cc(O)c12
REMARK SMILES IDX 5 1 3 2 2 3 1 4 21 5 19 6 18 7 16 8 15 9 14 10 13 11 6 12
REMARK SMILES IDX 7 13 8 14 9 15 12 16 11 17 10 18 4 20 20 22 17 24
REMARK H PARENT 10 19 4 21 20 23 17 25
REMARK Flexibility Score: inf
ROOT
ATOM      1  C   UNL     1      -2.097  25.144  29.286  1.00  0.00     0.180 A 
ATOM      2  C   UNL     1      -1.600  24.396  30.368  1.00  0.00     0.208 A 
ATOM      3  C   UNL     1      -2.474  24.044  31.410  1.00  0.00     0.238 A 
ATOM      4  O   UNL     1      -2.042  23.313  32.338  1.00  0.00    -0.285 OA
ATOM      5  C   UNL     1      -3.818  24.491  31.384  1.00  0.00     0.111 A 
ATOM      6  C   UNL     1      -4.780  24.232  32.408  1.00  0.00     0.134 A 
ATOM      7  C   UNL     1      -6.109  24.634  32.225  1.00  0.00     0.093 A 
ATOM      8  C   UNL     1      -6.497  25.339  31.088  1.00  0.00     0.123 A 
ATOM      9  C   UNL     1      -5.554  25.647  30.107  1.00  0.00     0.094 A 
ATOM     10  C   UNL     1      -4.230  25.226  30.242  1.00  0.00     0.146 A 
ATOM     11  O   UNL     1      -3.370  25.521  29.274  1.00  0.00    -0.452 OA
ENDROOT
BRANCH   1  12
ATOM     12  C   UNL     1      -1.242  25.541  28.144  1.00  0.00     0.021 A 
ATOM     13  C   UNL     1      -0.629  26.805  28.148  1.00  0.00     0.016 A 
ATOM     14  C   UNL     1       0.165  27.211  27.070  1.00  0.00     0.047 A 
ATOM     15  C   UNL     1       0.341  26.362  25.968  1.00  0.00     0.115 A 
ATOM     16  C   UNL     1      -1.075  24.703  27.026  1.00  0.00     0.016 A 
ATOM     17  C   UNL     1      -0.282  25.112  25.949  1.00  0.00     0.047 A 
BRANCH  15  18
ATOM     18  O   UNL     1       1.130  26.755  24.889  1.00  0.00    -0.508 OA
ATOM     19  H   UNL     1       2.085  27.069  25.018  1.00  0.00     0.293 HD
ENDBRANCH  15  18
ENDBRANCH   1  12
BRANCH   2  20
ATOM     20  O   UNL     1      -0.253  24.030  30.412  1.00  0.00    -0.502 OA
ATOM     21  H   UNL     1       0.382  24.373  31.123  1.00  0.00     0.293 HD
ENDBRANCH   2  20
BRANCH   6  22
ATOM     22  O   UNL     1      -4.480  23.611  33.625  1.00  0.00    -0.507 OA
ATOM     23  H   UNL     1      -4.841  23.892  34.522  1.00  0.00     0.293 HD
ENDBRANCH   6  22
BRANCH   8  24
ATOM     24  O   UNL     1      -7.825  25.739  30.948  1.00  0.00    -0.508 OA
ATOM     25  H   UNL     1      -8.074  26.713  30.817  1.00  0.00     0.293 HD
ENDBRANCH   8  24
TORSDOF 5
ENDMDL
