MODEL 1
REMARK VINA RESULT:    -4.933      0.000      0.000
REMARK INTER + INTRA:          -7.486
REMARK INTER:                  -6.664
REMARK INTRA:                  -0.822
REMARK UNBOUND:                -0.822
REMARK SMILES CCCCCCC=CC(=O)[O-]
REMARK SMILES IDX 5 1 6 2 7 3 8 4 9 5 10 6 11 7 4 8 3 9 2 10 1 11
REMARK H PARENT
REMARK Flexibility Score: inf
ROOT
ATOM      1  C   UNL     1      -2.264  30.587  41.678  1.00  0.00     0.004 C 
ENDROOT
BRANCH   1   2
ATOM      2  C   UNL     1      -0.873  31.122  41.309  1.00  0.00     0.027 C 
BRANCH   2   3
ATOM      3  C   UNL     1      -0.172  30.216  40.329  1.00  0.00    -0.025 C 
ATOM      4  C   UNL     1       0.489  29.080  40.607  1.00  0.00     0.020 C 
BRANCH   4   5
ATOM      5  C   UNL     1       0.708  28.472  41.937  1.00  0.00     0.064 C 
ATOM      6  O   UNL     1      -0.091  27.585  42.336  1.00  0.00    -0.545 OA
ATOM      7  O   UNL     1       1.787  28.808  42.741  1.00  0.00    -0.545 OA
ENDBRANCH   4   5
ENDBRANCH   2   3
ENDBRANCH   1   2
BRANCH   1   8
ATOM      8  C   UNL     1      -2.458  30.453  43.197  1.00  0.00     0.000 C 
BRANCH   8   9
ATOM      9  C   UNL     1      -1.260  30.993  43.995  1.00  0.00    -0.000 C 
BRANCH   9  10
ATOM     10  C   UNL     1      -0.810  30.030  45.104  1.00  0.00    -0.003 C 
ATOM     11  C   UNL     1      -1.736  28.819  45.189  1.00  0.00     0.004 C 
ENDBRANCH   9  10
ENDBRANCH   8   9
ENDBRANCH   1   8
TORSDOF 6
ENDMDL
MODEL 2
REMARK VINA RESULT:    -4.918      1.122      3.502
REMARK INTER + INTRA:          -7.465
REMARK INTER:                  -6.679
REMARK INTRA:                  -0.786
REMARK UNBOUND:                -0.822
REMARK SMILES CCCCCCC=CC(=O)[O-]
REMARK SMILES IDX 5 1 6 2 7 3 8 4 9 5 10 6 11 7 4 8 3 9 2 10 1 11
REMARK H PARENT
REMARK Flexibility Score: inf
ROOT
ATOM      1  C   UNL     1      -2.342  30.920  43.247  1.00  0.00     0.004 C 
ENDROOT
BRANCH   1   2
ATOM      2  C   UNL     1      -2.714  29.504  43.710  1.00  0.00     0.027 C 
BRANCH   2   3
ATOM      3  C   UNL     1      -2.000  29.131  44.984  1.00  0.00    -0.025 C 
ATOM      4  C   UNL     1      -0.806  28.524  45.096  1.00  0.00     0.020 C 
BRANCH   4   5
ATOM      5  C   UNL     1       0.068  28.057  44.000  1.00  0.00     0.064 C 
ATOM      6  O   UNL     1       1.036  28.780  43.647  1.00  0.00    -0.545 OA
ATOM      7  O   UNL     1      -0.110  26.831  43.376  1.00  0.00    -0.545 OA
ENDBRANCH   4   5
ENDBRANCH   2   3
ENDBRANCH   1   2
BRANCH   1   8
ATOM      8  C   UNL     1      -2.038  30.985  41.742  1.00  0.00     0.000 C 
BRANCH   8   9
ATOM      9  C   UNL     1      -0.530  30.989  41.443  1.00  0.00    -0.000 C 
BRANCH   9  10
ATOM     10  C   UNL     1      -0.125  29.898  40.441  1.00  0.00    -0.003 C 
ATOM     11  C   UNL     1      -1.157  28.773  40.407  1.00  0.00     0.004 C 
ENDBRANCH   9  10
ENDBRANCH   8   9
ENDBRANCH   1   8
TORSDOF 6
ENDMDL
MODEL 3
REMARK VINA RESULT:    -4.852     19.953     21.325
REMARK INTER + INTRA:          -7.377
REMARK INTER:                  -6.462
REMARK INTRA:                  -0.915
REMARK UNBOUND:                -0.822
REMARK SMILES CCCCCCC=CC(=O)[O-]
REMARK SMILES IDX 5 1 6 2 7 3 8 4 9 5 10 6 11 7 4 8 3 9 2 10 1 11
REMARK H PARENT
REMARK Flexibility Score: inf
ROOT
ATOM      1  C   UNL     1      15.532  13.710  46.597  1.00  0.00     0.004 C 
ENDROOT
BRANCH   1   2
ATOM      2  C   UNL     1      15.753  13.766  45.079  1.00  0.00     0.027 C 
BRANCH   2   3
ATOM      3  C   UNL     1      15.905  15.184  44.592  1.00  0.00    -0.025 C 
ATOM      4  C   UNL     1      14.971  15.938  43.987  1.00  0.00     0.020 C 
BRANCH   4   5
ATOM      5  C   UNL     1      13.592  15.542  43.633  1.00  0.00     0.064 C 
ATOM      6  O   UNL     1      13.386  14.992  42.519  1.00  0.00    -0.545 OA
ATOM      7  O   UNL     1      12.522  15.711  44.500  1.00  0.00    -0.545 OA
ENDBRANCH   4   5
ENDBRANCH   2   3
ENDBRANCH   1   2
BRANCH   1   8
ATOM      8  C   UNL     1      14.062  13.458  46.968  1.00  0.00     0.000 C 
BRANCH   8   9
ATOM      9  C   UNL     1      13.429  14.643  47.713  1.00  0.00    -0.000 C 
BRANCH   9  10
ATOM     10  C   UNL     1      14.469  15.682  48.159  1.00  0.00    -0.003 C 
ATOM     11  C   UNL     1      14.266  17.009  47.431  1.00  0.00     0.004 C 
ENDBRANCH   9  10
ENDBRANCH   8   9
ENDBRANCH   1   8
TORSDOF 6
ENDMDL
MODEL 4
REMARK VINA RESULT:    -4.848     19.218     21.272
REMARK INTER + INTRA:          -7.371
REMARK INTER:                  -6.570
REMARK INTRA:                  -0.801
REMARK UNBOUND:                -0.822
REMARK SMILES CCCCCCC=CC(=O)[O-]
REMARK SMILES IDX 5 1 6 2 7 3 8 4 9 5 10 6 11 7 4 8 3 9 2 10 1 11
REMARK H PARENT
REMARK Flexibility Score: inf
ROOT
ATOM      1  C   UNL     1      15.119  13.815  46.887  1.00  0.00     0.004 C 
ENDROOT
BRANCH   1   2
ATOM      2  C   UNL     1      15.304  15.191  47.542  1.00  0.00     0.027 C 
BRANCH   2   3
ATOM      3  C   UNL     1      14.067  15.622  48.288  1.00  0.00    -0.025 C 
ATOM      4  C   UNL     1      12.987  16.239  47.778  1.00  0.00     0.020 C 
BRANCH   4   5
ATOM      5  C   UNL     1      12.775  16.662  46.379  1.00  0.00     0.064 C 
ATOM      6  O   UNL     1      13.356  17.700  45.965  1.00  0.00    -0.545 OA
ATOM      7  O   UNL     1      11.998  15.935  45.489  1.00  0.00    -0.545 OA
ENDBRANCH   4   5
ENDBRANCH   2   3
ENDBRANCH   1   2
BRANCH   1   8
ATOM      8  C   UNL     1      15.604  13.788  45.429  1.00  0.00     0.000 C 
BRANCH   8   9
ATOM      9  C   UNL     1      15.955  15.187  44.898  1.00  0.00    -0.000 C 
BRANCH   9  10
ATOM     10  C   UNL     1      15.139  15.566  43.653  1.00  0.00    -0.003 C 
ATOM     11  C   UNL     1      14.207  14.429  43.242  1.00  0.00     0.004 C 
ENDBRANCH   9  10
ENDBRANCH   8   9
ENDBRANCH   1   8
TORSDOF 6
ENDMDL
MODEL 5
REMARK VINA RESULT:    -4.822     19.166     20.988
REMARK INTER + INTRA:          -7.335
REMARK INTER:                  -6.551
REMARK INTRA:                  -0.784
REMARK UNBOUND:                -0.822
REMARK SMILES CCCCCCC=CC(=O)[O-]
REMARK SMILES IDX 5 1 6 2 7 3 8 4 9 5 10 6 11 7 4 8 3 9 2 10 1 11
REMARK H PARENT
REMARK Flexibility Score: inf
ROOT
ATOM      1  C   UNL     1      15.609  13.747  44.960  1.00  0.00     0.004 C 
ENDROOT
BRANCH   1   2
ATOM      2  C   UNL     1      14.186  13.745  44.386  1.00  0.00     0.027 C 
BRANCH   2   3
ATOM      3  C   UNL     1      14.005  14.820  43.345  1.00  0.00    -0.025 C 
ATOM      4  C   UNL     1      13.399  16.009  43.505  1.00  0.00     0.020 C 
BRANCH   4   5
ATOM      5  C   UNL     1      12.746  16.524  44.726  1.00  0.00     0.064 C 
ATOM      6  O   UNL     1      11.640  16.033  45.075  1.00  0.00    -0.545 OA
ATOM      7  O   UNL     1      13.325  17.496  45.529  1.00  0.00    -0.545 OA
ENDBRANCH   4   5
ENDBRANCH   2   3
ENDBRANCH   1   2
BRANCH   1   8
ATOM      8  C   UNL     1      15.623  13.794  46.496  1.00  0.00     0.000 C 
BRANCH   8   9
ATOM      9  C   UNL     1      15.624  15.230  47.043  1.00  0.00    -0.000 C 
BRANCH   9  10
ATOM     10  C   UNL     1      14.541  15.456  48.109  1.00  0.00    -0.003 C 
ATOM     11  C   UNL     1      13.387  14.472  47.934  1.00  0.00     0.004 C 
ENDBRANCH   9  10
ENDBRANCH   8   9
ENDBRANCH   1   8
TORSDOF 6
ENDMDL
MODEL 6
REMARK VINA RESULT:    -4.788     19.515     21.469
REMARK INTER + INTRA:          -7.290
REMARK INTER:                  -6.586
REMARK INTRA:                  -0.704
REMARK UNBOUND:                -0.822
REMARK SMILES CCCCCCC=CC(=O)[O-]
REMARK SMILES IDX 5 1 6 2 7 3 8 4 9 5 10 6 11 7 4 8 3 9 2 10 1 11
REMARK H PARENT
REMARK Flexibility Score: inf
ROOT
ATOM      1  C   UNL     1      14.893  13.353  44.399  1.00  0.00     0.004 C 
ENDROOT
BRANCH   1   2
ATOM      2  C   UNL     1      14.483  13.407  45.877  1.00  0.00     0.027 C 
BRANCH   2   3
ATOM      3  C   UNL     1      15.639  13.798  46.761  1.00  0.00    -0.025 C 
ATOM      4  C   UNL     1      15.652  14.758  47.702  1.00  0.00     0.020 C 
BRANCH   4   5
ATOM      5  C   UNL     1      14.547  15.669  48.067  1.00  0.00     0.064 C 
ATOM      6  O   UNL     1      14.536  16.832  47.583  1.00  0.00    -0.545 OA
ATOM      7  O   UNL     1      13.497  15.278  48.884  1.00  0.00    -0.545 OA
ENDBRANCH   4   5
ENDBRANCH   2   3
ENDBRANCH   1   2
BRANCH   1   8
ATOM      8  C   UNL     1      14.248  14.474  43.569  1.00  0.00     0.000 C 
BRANCH   8   9
ATOM      9  C   UNL     1      14.534  15.872  44.141  1.00  0.00    -0.000 C 
BRANCH   9  10
ATOM     10  C   UNL     1      13.265  16.730  44.260  1.00  0.00    -0.003 C 
ATOM     11  C   UNL     1      12.184  16.003  45.056  1.00  0.00     0.004 C 
ENDBRANCH   9  10
ENDBRANCH   8   9
ENDBRANCH   1   8
TORSDOF 6
ENDMDL
MODEL 7
REMARK VINA RESULT:    -4.765     10.421     11.605
REMARK INTER + INTRA:          -7.259
REMARK INTER:                  -6.307
REMARK INTRA:                  -0.952
REMARK UNBOUND:                -0.822
REMARK SMILES CCCCCCC=CC(=O)[O-]
REMARK SMILES IDX 5 1 6 2 7 3 8 4 9 5 10 6 11 7 4 8 3 9 2 10 1 11
REMARK H PARENT
REMARK Flexibility Score: inf
ROOT
ATOM      1  C   UNL     1       6.685  21.995  42.136  1.00  0.00     0.004 C 
ENDROOT
BRANCH   1   2
ATOM      2  C   UNL     1       8.094  22.491  42.489  1.00  0.00     0.027 C 
BRANCH   2   3
ATOM      3  C   UNL     1       8.096  23.300  43.760  1.00  0.00    -0.025 C 
ATOM      4  C   UNL     1       8.445  22.879  44.988  1.00  0.00     0.020 C 
BRANCH   4   5
ATOM      5  C   UNL     1       8.878  21.522  45.380  1.00  0.00     0.064 C 
ATOM      6  O   UNL     1      10.082  21.197  45.210  1.00  0.00    -0.545 OA
ATOM      7  O   UNL     1       8.019  20.608  45.972  1.00  0.00    -0.545 OA
ENDBRANCH   4   5
ENDBRANCH   2   3
ENDBRANCH   1   2
BRANCH   1   8
ATOM      8  C   UNL     1       6.466  20.524  42.523  1.00  0.00     0.000 C 
BRANCH   8   9
ATOM      9  C   UNL     1       5.396  20.353  43.613  1.00  0.00    -0.000 C 
BRANCH   9  10
ATOM     10  C   UNL     1       4.668  21.666  43.935  1.00  0.00    -0.003 C 
ATOM     11  C   UNL     1       4.696  21.956  45.434  1.00  0.00     0.004 C 
ENDBRANCH   9  10
ENDBRANCH   8   9
ENDBRANCH   1   8
TORSDOF 6
ENDMDL
MODEL 8
REMARK VINA RESULT:    -4.711     10.188     11.102
REMARK INTER + INTRA:          -7.185
REMARK INTER:                  -6.386
REMARK INTRA:                  -0.800
REMARK UNBOUND:                -0.822
REMARK SMILES CCCCCCC=CC(=O)[O-]
REMARK SMILES IDX 5 1 6 2 7 3 8 4 9 5 10 6 11 7 4 8 3 9 2 10 1 11
REMARK H PARENT
REMARK Flexibility Score: inf
ROOT
ATOM      1  C   UNL     1       8.106  23.956  42.527  1.00  0.00     0.004 C 
ENDROOT
BRANCH   1   2
ATOM      2  C   UNL     1       8.066  22.424  42.430  1.00  0.00     0.027 C 
BRANCH   2   3
ATOM      3  C   UNL     1       6.688  21.926  42.074  1.00  0.00    -0.025 C 
ATOM      4  C   UNL     1       5.948  21.036  42.755  1.00  0.00     0.020 C 
BRANCH   4   5
ATOM      5  C   UNL     1       6.322  20.319  43.992  1.00  0.00     0.064 C 
ATOM      6  O   UNL     1       5.650  20.523  45.038  1.00  0.00    -0.545 OA
ATOM      7  O   UNL     1       7.356  19.396  44.035  1.00  0.00    -0.545 OA
ENDBRANCH   4   5
ENDBRANCH   2   3
ENDBRANCH   1   2
BRANCH   1   8
ATOM      8  C   UNL     1       8.049  24.454  43.979  1.00  0.00     0.000 C 
BRANCH   8   9
ATOM      9  C   UNL     1       8.646  23.446  44.974  1.00  0.00    -0.000 C 
BRANCH   9  10
ATOM     10  C   UNL     1       7.734  23.202  46.185  1.00  0.00    -0.003 C 
ATOM     11  C   UNL     1       6.331  23.751  45.935  1.00  0.00     0.004 C 
ENDBRANCH   9  10
ENDBRANCH   8   9
ENDBRANCH   1   8
TORSDOF 6
ENDMDL
MODEL 9
REMARK VINA RESULT:    -4.686      8.320     10.266
REMARK INTER + INTRA:          -7.152
REMARK INTER:                  -6.235
REMARK INTRA:                  -0.917
REMARK UNBOUND:                -0.822
REMARK SMILES CCCCCCC=CC(=O)[O-]
REMARK SMILES IDX 5 1 6 2 7 3 8 4 9 5 10 6 11 7 4 8 3 9 2 10 1 11
REMARK H PARENT
REMARK Flexibility Score: inf
ROOT
ATOM      1  C   UNL     1       7.400  22.170  42.402  1.00  0.00     0.004 C 
ENDROOT
BRANCH   1   2
ATOM      2  C   UNL     1       5.893  21.916  42.263  1.00  0.00     0.027 C 
BRANCH   2   3
ATOM      3  C   UNL     1       5.319  21.287  43.508  1.00  0.00    -0.025 C 
ATOM      4  C   UNL     1       4.522  21.872  44.418  1.00  0.00     0.020 C 
BRANCH   4   5
ATOM      5  C   UNL     1       4.049  23.272  44.426  1.00  0.00     0.064 C 
ATOM      6  O   UNL     1       2.908  23.529  43.961  1.00  0.00    -0.545 OA
ATOM      7  O   UNL     1       4.796  24.308  44.969  1.00  0.00    -0.545 OA
ENDBRANCH   4   5
ENDBRANCH   2   3
ENDBRANCH   1   2
BRANCH   1   8
ATOM      8  C   UNL     1       7.734  23.665  42.526  1.00  0.00     0.000 C 
BRANCH   8   9
ATOM      9  C   UNL     1       8.159  24.059  43.950  1.00  0.00    -0.000 C 
BRANCH   9  10
ATOM     10  C   UNL     1       8.530  22.843  44.812  1.00  0.00    -0.003 C 
ATOM     11  C   UNL     1       7.812  22.886  46.159  1.00  0.00     0.004 C 
ENDBRANCH   9  10
ENDBRANCH   8   9
ENDBRANCH   1   8
TORSDOF 6
ENDMDL
