MODEL 1
REMARK VINA RESULT:    -6.064      0.000      0.000
REMARK INTER + INTRA:          -7.673
REMARK INTER:                  -7.482
REMARK INTRA:                  -0.191
REMARK UNBOUND:                -0.191
REMARK SMILES COC(=O)c1ccccc1C(=O)OC
REMARK SMILES IDX 5 1 6 2 7 3 8 4 9 5 10 6 3 7 4 8 2 9 1 10 11 11 12 12 13 13
REMARK SMILES IDX 14 14
REMARK H PARENT
REMARK Flexibility Score: inf
ROOT
ATOM      1  C   UNL     1     130.110 126.091 127.408  1.00  0.00     0.074 A 
ATOM      2  C   UNL     1     129.330 125.478 128.406  1.00  0.00     0.016 A 
ATOM      3  C   UNL     1     128.939 124.143 128.288  1.00  0.00     0.001 A 
ATOM      4  C   UNL     1     129.323 123.399 127.175  1.00  0.00     0.001 A 
ATOM      5  C   UNL     1     130.079 123.994 126.162  1.00  0.00     0.016 A 
ATOM      6  C   UNL     1     130.465 125.343 126.251  1.00  0.00     0.074 A 
ENDROOT
BRANCH   1   7
ATOM      7  C   UNL     1     130.592 127.471 127.646  1.00  0.00     0.338 C 
ATOM      8  O   UNL     1     130.125 128.424 126.964  1.00  0.00    -0.246 OA
BRANCH   7   9
ATOM      9  O   UNL     1     131.522 127.723 128.660  1.00  0.00    -0.465 OA
ATOM     10  C   UNL     1     132.114 129.002 128.857  1.00  0.00     0.282 C 
ENDBRANCH   7   9
ENDBRANCH   1   7
BRANCH   6  11
ATOM     11  C   UNL     1     131.166 125.940 125.092  1.00  0.00     0.338 C 
ATOM     12  O   UNL     1     132.396 126.215 125.164  1.00  0.00    -0.246 OA
BRANCH  11  13
ATOM     13  O   UNL     1     130.445 126.253 123.935  1.00  0.00    -0.465 OA
ATOM     14  C   UNL     1     129.241 127.009 123.961  1.00  0.00     0.282 C 
ENDBRANCH  11  13
ENDBRANCH   6  11
TORSDOF 4
ENDMDL
MODEL 2
REMARK VINA RESULT:    -6.005      0.082      3.707
REMARK INTER + INTRA:          -7.600
REMARK INTER:                  -7.397
REMARK INTRA:                  -0.203
REMARK UNBOUND:                -0.191
REMARK SMILES COC(=O)c1ccccc1C(=O)OC
REMARK SMILES IDX 5 1 6 2 7 3 8 4 9 5 10 6 3 7 4 8 2 9 1 10 11 11 12 12 13 13
REMARK SMILES IDX 14 14
REMARK H PARENT
REMARK Flexibility Score: inf
ROOT
ATOM      1  C   UNL     1     130.461 125.406 126.213  1.00  0.00     0.074 A 
ATOM      2  C   UNL     1     130.099 124.051 126.101  1.00  0.00     0.016 A 
ATOM      3  C   UNL     1     129.373 123.419 127.112  1.00  0.00     0.001 A 
ATOM      4  C   UNL     1     128.995 124.130 128.249  1.00  0.00     0.001 A 
ATOM      5  C   UNL     1     129.362 125.470 128.391  1.00  0.00     0.016 A 
ATOM      6  C   UNL     1     130.113 126.119 127.394  1.00  0.00     0.074 A 
ENDROOT
BRANCH   1   7
ATOM      7  C   UNL     1     131.126 126.051 125.058  1.00  0.00     0.338 C 
ATOM      8  O   UNL     1     132.371 126.253 125.084  1.00  0.00    -0.246 OA
BRANCH   7   9
ATOM      9  O   UNL     1     130.384 126.387 123.921  1.00  0.00    -0.465 OA
ATOM     10  C   UNL     1     129.133 127.061 123.992  1.00  0.00     0.282 C 
ENDBRANCH   7   9
ENDBRANCH   1   7
BRANCH   6  11
ATOM     11  C   UNL     1     130.564 127.503 127.660  1.00  0.00     0.338 C 
ATOM     12  O   UNL     1     130.109 128.464 126.981  1.00  0.00    -0.246 OA
BRANCH  11  13
ATOM     13  O   UNL     1     131.544 127.735 128.631  1.00  0.00    -0.465 OA
ATOM     14  C   UNL     1     132.126 129.015 128.846  1.00  0.00     0.282 C 
ENDBRANCH  11  13
ENDBRANCH   6  11
TORSDOF 4
ENDMDL
MODEL 3
REMARK VINA RESULT:    -5.595      1.764      3.678
REMARK INTER + INTRA:          -7.094
REMARK INTER:                  -6.761
REMARK INTRA:                  -0.332
REMARK UNBOUND:                -0.191
REMARK SMILES COC(=O)c1ccccc1C(=O)OC
REMARK SMILES IDX 5 1 6 2 7 3 8 4 9 5 10 6 3 7 4 8 2 9 1 10 11 11 12 12 13 13
REMARK SMILES IDX 14 14
REMARK H PARENT
REMARK Flexibility Score: inf
ROOT
ATOM      1  C   UNL     1     130.374 126.898 125.335  1.00  0.00     0.074 A 
ATOM      2  C   UNL     1     130.043 127.668 124.204  1.00  0.00     0.016 A 
ATOM      3  C   UNL     1     128.779 127.575 123.621  1.00  0.00     0.001 A 
ATOM      4  C   UNL     1     127.823 126.715 124.159  1.00  0.00     0.001 A 
ATOM      5  C   UNL     1     128.137 125.926 125.267  1.00  0.00     0.016 A 
ATOM      6  C   UNL     1     129.413 125.988 125.856  1.00  0.00     0.074 A 
ENDROOT
BRANCH   1   7
ATOM      7  C   UNL     1     131.687 127.127 125.978  1.00  0.00     0.338 C 
ATOM      8  O   UNL     1     132.639 126.328 125.762  1.00  0.00    -0.246 OA
BRANCH   7   9
ATOM      9  O   UNL     1     131.887 128.256 126.780  1.00  0.00    -0.465 OA
ATOM     10  C   UNL     1     131.542 128.287 128.161  1.00  0.00     0.282 C 
ENDBRANCH   7   9
ENDBRANCH   1   7
BRANCH   6  11
ATOM     11  C   UNL     1     129.714 125.043 126.955  1.00  0.00     0.338 C 
ATOM     12  O   UNL     1     130.049 123.854 126.700  1.00  0.00    -0.246 OA
BRANCH  11  13
ATOM     13  O   UNL     1     129.570 125.461 128.283  1.00  0.00    -0.465 OA
ATOM     14  C   UNL     1     128.939 124.661 129.275  1.00  0.00     0.282 C 
ENDBRANCH  11  13
ENDBRANCH   6  11
TORSDOF 4
ENDMDL
MODEL 4
REMARK VINA RESULT:    -5.455      2.042      4.283
REMARK INTER + INTRA:          -6.921
REMARK INTER:                  -6.590
REMARK INTRA:                  -0.331
REMARK UNBOUND:                -0.191
REMARK SMILES COC(=O)c1ccccc1C(=O)OC
REMARK SMILES IDX 5 1 6 2 7 3 8 4 9 5 10 6 3 7 4 8 2 9 1 10 11 11 12 12 13 13
REMARK SMILES IDX 14 14
REMARK H PARENT
REMARK Flexibility Score: inf
ROOT
ATOM      1  C   UNL     1     128.774 126.032 125.631  1.00  0.00     0.074 A 
ATOM      2  C   UNL     1     127.863 126.369 124.613  1.00  0.00     0.016 A 
ATOM      3  C   UNL     1     128.224 127.254 123.596  1.00  0.00     0.001 A 
ATOM      4  C   UNL     1     129.499 127.814 123.577  1.00  0.00     0.001 A 
ATOM      5  C   UNL     1     130.412 127.510 124.590  1.00  0.00     0.016 A 
ATOM      6  C   UNL     1     130.061 126.639 125.636  1.00  0.00     0.074 A 
ENDROOT
BRANCH   1   7
ATOM      7  C   UNL     1     128.374 124.999 126.614  1.00  0.00     0.338 C 
ATOM      8  O   UNL     1     128.657 123.788 126.400  1.00  0.00    -0.246 OA
BRANCH   7   9
ATOM      9  O   UNL     1     127.732 125.372 127.800  1.00  0.00    -0.465 OA
ATOM     10  C   UNL     1     126.869 124.494 128.513  1.00  0.00     0.282 C 
ENDBRANCH   7   9
ENDBRANCH   1   7
BRANCH   6  11
ATOM     11  C   UNL     1     131.034 126.449 126.736  1.00  0.00     0.338 C 
ATOM     12  O   UNL     1     131.964 125.604 126.626  1.00  0.00    -0.246 OA
BRANCH  11  13
ATOM     13  O   UNL     1     130.882 127.174 127.923  1.00  0.00    -0.465 OA
ATOM     14  C   UNL     1     131.623 128.355 128.202  1.00  0.00     0.282 C 
ENDBRANCH  11  13
ENDBRANCH   6  11
TORSDOF 4
ENDMDL
MODEL 5
REMARK VINA RESULT:    -5.356      1.876      3.408
REMARK INTER + INTRA:          -6.800
REMARK INTER:                  -6.550
REMARK INTRA:                  -0.249
REMARK UNBOUND:                -0.191
REMARK SMILES COC(=O)c1ccccc1C(=O)OC
REMARK SMILES IDX 5 1 6 2 7 3 8 4 9 5 10 6 3 7 4 8 2 9 1 10 11 11 12 12 13 13
REMARK SMILES IDX 14 14
REMARK H PARENT
REMARK Flexibility Score: inf
ROOT
ATOM      1  C   UNL     1     130.276 125.591 126.950  1.00  0.00     0.074 A 
ATOM      2  C   UNL     1     131.010 125.151 125.833  1.00  0.00     0.016 A 
ATOM      3  C   UNL     1     130.855 123.854 125.342  1.00  0.00     0.001 A 
ATOM      4  C   UNL     1     129.964 122.976 125.955  1.00  0.00     0.001 A 
ATOM      5  C   UNL     1     129.241 123.384 127.078  1.00  0.00     0.016 A 
ATOM      6  C   UNL     1     129.399 124.680 127.603  1.00  0.00     0.074 A 
ENDROOT
BRANCH   1   7
ATOM      7  C   UNL     1     130.394 127.011 127.351  1.00  0.00     0.338 C 
ATOM      8  O   UNL     1     129.740 127.894 126.731  1.00  0.00    -0.246 OA
BRANCH   7   9
ATOM      9  O   UNL     1     131.188 127.365 128.447  1.00  0.00    -0.465 OA
ATOM     10  C   UNL     1     131.736 128.668 128.608  1.00  0.00     0.282 C 
ENDBRANCH   7   9
ENDBRANCH   1   7
BRANCH   6  11
ATOM     11  C   UNL     1     128.689 125.009 128.859  1.00  0.00     0.338 C 
ATOM     12  O   UNL     1     129.302 124.986 129.962  1.00  0.00    -0.246 OA
BRANCH  11  13
ATOM     13  O   UNL     1     127.319 125.291 128.825  1.00  0.00    -0.465 OA
ATOM     14  C   UNL     1     126.325 124.294 129.019  1.00  0.00     0.282 C 
ENDBRANCH  11  13
ENDBRANCH   6  11
TORSDOF 4
ENDMDL
MODEL 6
REMARK VINA RESULT:    -4.865     10.091     11.890
REMARK INTER + INTRA:          -6.194
REMARK INTER:                  -5.845
REMARK INTRA:                  -0.349
REMARK UNBOUND:                -0.191
REMARK SMILES COC(=O)c1ccccc1C(=O)OC
REMARK SMILES IDX 5 1 6 2 7 3 8 4 9 5 10 6 3 7 4 8 2 9 1 10 11 11 12 12 13 13
REMARK SMILES IDX 14 14
REMARK H PARENT
REMARK Flexibility Score: inf
ROOT
ATOM      1  C   UNL     1     121.157 127.791 131.562  1.00  0.00     0.074 A 
ATOM      2  C   UNL     1     121.369 127.804 130.171  1.00  0.00     0.016 A 
ATOM      3  C   UNL     1     122.248 128.719 129.591  1.00  0.00     0.001 A 
ATOM      4  C   UNL     1     122.931 129.634 130.389  1.00  0.00     0.001 A 
ATOM      5  C   UNL     1     122.719 129.653 131.769  1.00  0.00     0.016 A 
ATOM      6  C   UNL     1     121.821 128.754 132.372  1.00  0.00     0.074 A 
ENDROOT
BRANCH   1   7
ATOM      7  C   UNL     1     120.305 126.721 132.131  1.00  0.00     0.338 C 
ATOM      8  O   UNL     1     119.080 126.939 132.338  1.00  0.00    -0.246 OA
BRANCH   7   9
ATOM      9  O   UNL     1     120.847 125.457 132.387  1.00  0.00    -0.465 OA
ATOM     10  C   UNL     1     120.112 124.254 132.195  1.00  0.00     0.282 C 
ENDBRANCH   7   9
ENDBRANCH   1   7
BRANCH   6  11
ATOM     11  C   UNL     1     121.559 128.904 133.821  1.00  0.00     0.338 C 
ATOM     12  O   UNL     1     122.360 128.421 134.667  1.00  0.00    -0.246 OA
BRANCH  11  13
ATOM     13  O   UNL     1     120.386 129.536 134.248  1.00  0.00    -0.465 OA
ATOM     14  C   UNL     1     119.599 129.047 135.326  1.00  0.00     0.282 C 
ENDBRANCH  11  13
ENDBRANCH   6  11
TORSDOF 4
ENDMDL
MODEL 7
REMARK VINA RESULT:    -4.840     10.126     11.603
REMARK INTER + INTRA:          -6.163
REMARK INTER:                  -5.836
REMARK INTRA:                  -0.327
REMARK UNBOUND:                -0.191
REMARK SMILES COC(=O)c1ccccc1C(=O)OC
REMARK SMILES IDX 5 1 6 2 7 3 8 4 9 5 10 6 3 7 4 8 2 9 1 10 11 11 12 12 13 13
REMARK SMILES IDX 14 14
REMARK H PARENT
REMARK Flexibility Score: inf
ROOT
ATOM      1  C   UNL     1     121.768 128.679 132.404  1.00  0.00     0.074 A 
ATOM      2  C   UNL     1     122.666 129.600 131.835  1.00  0.00     0.016 A 
ATOM      3  C   UNL     1     122.896 129.617 130.458  1.00  0.00     0.001 A 
ATOM      4  C   UNL     1     122.231 128.717 129.628  1.00  0.00     0.001 A 
ATOM      5  C   UNL     1     121.351 127.780 130.174  1.00  0.00     0.016 A 
ATOM      6  C   UNL     1     121.123 127.731 131.561  1.00  0.00     0.074 A 
ENDROOT
BRANCH   1   7
ATOM      7  C   UNL     1     121.477 128.787 133.852  1.00  0.00     0.338 C 
ATOM      8  O   UNL     1     122.287 128.307 134.692  1.00  0.00    -0.246 OA
BRANCH   7   9
ATOM      9  O   UNL     1     120.335 129.467 134.288  1.00  0.00    -0.465 OA
ATOM     10  C   UNL     1     119.563 129.035 135.402  1.00  0.00     0.282 C 
ENDBRANCH   7   9
ENDBRANCH   1   7
BRANCH   6  11
ATOM     11  C   UNL     1     120.268 126.642 132.084  1.00  0.00     0.338 C 
ATOM     12  O   UNL     1     119.051 126.853 132.339  1.00  0.00    -0.246 OA
BRANCH  11  13
ATOM     13  O   UNL     1     120.832 125.389 132.348  1.00  0.00    -0.465 OA
ATOM     14  C   UNL     1     120.096 124.177 132.239  1.00  0.00     0.282 C 
ENDBRANCH  11  13
ENDBRANCH   6  11
TORSDOF 4
ENDMDL
MODEL 8
REMARK VINA RESULT:    -4.836     10.074     11.379
REMARK INTER + INTRA:          -6.158
REMARK INTER:                  -5.860
REMARK INTRA:                  -0.298
REMARK UNBOUND:                -0.191
REMARK SMILES COC(=O)c1ccccc1C(=O)OC
REMARK SMILES IDX 5 1 6 2 7 3 8 4 9 5 10 6 3 7 4 8 2 9 1 10 11 11 12 12 13 13
REMARK SMILES IDX 14 14
REMARK H PARENT
REMARK Flexibility Score: inf
ROOT
ATOM      1  C   UNL     1     121.726 128.624 132.361  1.00  0.00     0.074 A 
ATOM      2  C   UNL     1     122.636 129.555 131.828  1.00  0.00     0.016 A 
ATOM      3  C   UNL     1     122.896 129.596 130.457  1.00  0.00     0.001 A 
ATOM      4  C   UNL     1     122.250 128.711 129.598  1.00  0.00     0.001 A 
ATOM      5  C   UNL     1     121.359 127.764 130.108  1.00  0.00     0.016 A 
ATOM      6  C   UNL     1     121.100 127.691 131.488  1.00  0.00     0.074 A 
ENDROOT
BRANCH   1   7
ATOM      7  C   UNL     1     121.404 128.708 133.804  1.00  0.00     0.338 C 
ATOM      8  O   UNL     1     120.422 129.402 134.188  1.00  0.00    -0.246 OA
BRANCH   7   9
ATOM      9  O   UNL     1     122.152 127.977 134.732  1.00  0.00    -0.465 OA
ATOM     10  C   UNL     1     122.634 128.543 135.945  1.00  0.00     0.282 C 
ENDBRANCH   7   9
ENDBRANCH   1   7
BRANCH   6  11
ATOM     11  C   UNL     1     120.235 126.592 131.973  1.00  0.00     0.338 C 
ATOM     12  O   UNL     1     119.003 126.787 132.164  1.00  0.00    -0.246 OA
BRANCH  11  13
ATOM     13  O   UNL     1     120.803 125.349 132.275  1.00  0.00    -0.465 OA
ATOM     14  C   UNL     1     120.056 124.139 132.254  1.00  0.00     0.282 C 
ENDBRANCH  11  13
ENDBRANCH   6  11
TORSDOF 4
ENDMDL
MODEL 9
REMARK VINA RESULT:    -4.710      1.960      3.460
REMARK INTER + INTRA:          -6.002
REMARK INTER:                  -5.665
REMARK INTRA:                  -0.338
REMARK UNBOUND:                -0.191
REMARK SMILES COC(=O)c1ccccc1C(=O)OC
REMARK SMILES IDX 5 1 6 2 7 3 8 4 9 5 10 6 3 7 4 8 2 9 1 10 11 11 12 12 13 13
REMARK SMILES IDX 14 14
REMARK H PARENT
REMARK Flexibility Score: inf
ROOT
ATOM      1  C   UNL     1     130.057 126.373 127.275  1.00  0.00     0.074 A 
ATOM      2  C   UNL     1     130.469 126.881 128.521  1.00  0.00     0.016 A 
ATOM      3  C   UNL     1     131.419 127.900 128.598  1.00  0.00     0.001 A 
ATOM      4  C   UNL     1     131.971 128.431 127.434  1.00  0.00     0.001 A 
ATOM      5  C   UNL     1     131.592 127.927 126.188  1.00  0.00     0.016 A 
ATOM      6  C   UNL     1     130.654 126.884 126.088  1.00  0.00     0.074 A 
ENDROOT
BRANCH   1   7
ATOM      7  C   UNL     1     128.962 125.377 127.253  1.00  0.00     0.338 C 
ATOM      8  O   UNL     1     127.794 125.736 126.941  1.00  0.00    -0.246 OA
BRANCH   7   9
ATOM      9  O   UNL     1     129.234 124.032 127.524  1.00  0.00    -0.465 OA
ATOM     10  C   UNL     1     128.658 123.340 128.626  1.00  0.00     0.282 C 
ENDBRANCH   7   9
ENDBRANCH   1   7
BRANCH   6  11
ATOM     11  C   UNL     1     130.383 126.321 124.747  1.00  0.00     0.338 C 
ATOM     12  O   UNL     1     130.896 125.221 124.402  1.00  0.00    -0.246 OA
BRANCH  11  13
ATOM     13  O   UNL     1     129.601 127.045 123.840  1.00  0.00    -0.465 OA
ATOM     14  C   UNL     1     128.203 126.831 123.690  1.00  0.00     0.282 C 
ENDBRANCH  11  13
ENDBRANCH   6  11
TORSDOF 4
ENDMDL
