MODEL 1
REMARK VINA RESULT:     5.208      0.000      0.000
REMARK INTER + INTRA:           6.528
REMARK INTER:                   7.035
REMARK INTRA:                  -0.506
REMARK UNBOUND:                -0.506
REMARK SMILES CC[C@@H](CC[C@H](C)[C@H]1CC[C@@H]2[C@H]3CC(=O)C4=CC(=O)CC[C@]4(C)[C@H]3CC[C@]21C)C(C)C
REMARK SMILES IDX 4 1 3 2 2 3 1 4 29 5 30 6 31 7 5 8 6 9 7 10 8 11 9 12 27 13
REMARK SMILES IDX 10 14 11 15 26 16 28 17 12 18 25 19 24 20 13 21 22 22 14 23
REMARK SMILES IDX 16 24 21 25 23 26 15 27 17 28 20 29 18 30 19 31
REMARK H PARENT
REMARK Flexibility Score: inf
ROOT
ATOM      1  C   UNL     1      28.142  32.377  22.269  1.00  0.00     0.004 C 
ENDROOT
BRANCH   1   2
ATOM      2  C   UNL     1      28.002  31.779  23.704  1.00  0.00    -0.009 C 
BRANCH   2   3
ATOM      3  C   UNL     1      29.066  32.299  24.709  1.00  0.00     0.000 C 
ATOM      4  C   UNL     1      29.123  31.460  25.988  1.00  0.00     0.004 C 
ENDBRANCH   2   3
BRANCH   2   5
ATOM      5  C   UNL     1      27.835  30.221  23.699  1.00  0.00    -0.014 C 
ATOM      6  C   UNL     1      26.411  29.732  24.003  1.00  0.00     0.007 C 
ATOM      7  C   UNL     1      28.337  29.592  22.388  1.00  0.00     0.007 C 
ENDBRANCH   2   5
ENDBRANCH   1   2
BRANCH   1   8
ATOM      8  C   UNL     1      28.878  33.739  22.170  1.00  0.00     0.004 C 
BRANCH   8   9
ATOM      9  C   UNL     1      28.059  35.014  22.569  1.00  0.00    -0.011 C 
ATOM     10  C   UNL     1      27.333  34.868  23.922  1.00  0.00     0.008 C 
BRANCH   9  11
ATOM     11  C   UNL     1      27.168  35.554  21.389  1.00  0.00    -0.002 C 
ATOM     12  C   UNL     1      25.653  35.615  21.728  1.00  0.00     0.005 C 
ATOM     13  C   UNL     1      27.483  36.970  20.782  1.00  0.00    -0.026 C 
ATOM     14  C   UNL     1      25.212  37.082  21.659  1.00  0.00     0.005 C 
ATOM     15  C   UNL     1      26.506  37.876  21.553  1.00  0.00    -0.001 C 
ATOM     16  C   UNL     1      28.939  37.543  20.900  1.00  0.00     0.007 C 
ATOM     17  C   UNL     1      27.121  36.897  19.259  1.00  0.00     0.012 C 
ATOM     18  C   UNL     1      26.408  39.310  20.970  1.00  0.00     0.004 C 
ATOM     19  C   UNL     1      28.987  39.045  21.287  1.00  0.00     0.005 C 
ATOM     20  C   UNL     1      27.850  39.891  20.635  1.00  0.00     0.003 C 
ATOM     21  C   UNL     1      25.556  40.205  21.905  1.00  0.00     0.085 C 
ATOM     22  C   UNL     1      28.013  41.451  20.858  1.00  0.00    -0.000 C 
ATOM     23  C   UNL     1      25.520  41.616  21.411  1.00  0.00     0.159 C 
ATOM     24  C   UNL     1      26.654  42.119  20.620  1.00  0.00     0.005 C 
ATOM     25  C   UNL     1      29.122  42.048  19.920  1.00  0.00     0.020 C 
ATOM     26  C   UNL     1      28.455  41.778  22.312  1.00  0.00     0.017 C 
ATOM     27  O   UNL     1      24.528  42.353  21.667  1.00  0.00    -0.295 OA
ATOM     28  C   UNL     1      26.423  42.979  19.614  1.00  0.00     0.055 C 
ATOM     29  C   UNL     1      28.634  42.352  18.505  1.00  0.00     0.081 C 
ATOM     30  C   UNL     1      27.428  43.228  18.577  1.00  0.00     0.156 C 
ATOM     31  O   UNL     1      27.228  44.109  17.702  1.00  0.00    -0.295 OA
ENDBRANCH   9  11
ENDBRANCH   8   9
ENDBRANCH   1   8
TORSDOF 6
ENDMDL
MODEL 2
REMARK VINA RESULT:     6.873      1.255      2.246
REMARK INTER + INTRA:           8.778
REMARK INTER:                   9.585
REMARK INTRA:                  -0.807
REMARK UNBOUND:                -0.506
REMARK SMILES CC[C@@H](CC[C@H](C)[C@H]1CC[C@@H]2[C@H]3CC(=O)C4=CC(=O)CC[C@]4(C)[C@H]3CC[C@]21C)C(C)C
REMARK SMILES IDX 4 1 3 2 2 3 1 4 29 5 30 6 31 7 5 8 6 9 7 10 8 11 9 12 27 13
REMARK SMILES IDX 10 14 11 15 26 16 28 17 12 18 25 19 24 20 13 21 22 22 14 23
REMARK SMILES IDX 16 24 21 25 23 26 15 27 17 28 20 29 18 30 19 31
REMARK H PARENT
REMARK Flexibility Score: inf
ROOT
ATOM      1  C   UNL     1      28.130  34.873  22.962  1.00  0.00     0.004 C 
ENDROOT
BRANCH   1   2
ATOM      2  C   UNL     1      29.044  33.753  22.375  1.00  0.00    -0.009 C 
BRANCH   2   3
ATOM      3  C   UNL     1      28.785  33.451  20.873  1.00  0.00     0.000 C 
ATOM      4  C   UNL     1      28.840  34.710  20.005  1.00  0.00     0.004 C 
ENDBRANCH   2   3
BRANCH   2   5
ATOM      5  C   UNL     1      29.098  32.476  23.282  1.00  0.00    -0.014 C 
ATOM      6  C   UNL     1      28.078  32.466  24.430  1.00  0.00     0.007 C 
ATOM      7  C   UNL     1      28.975  31.180  22.461  1.00  0.00     0.007 C 
ENDBRANCH   2   5
ENDBRANCH   1   2
BRANCH   1   8
ATOM      8  C   UNL     1      26.602  34.632  22.850  1.00  0.00     0.004 C 
BRANCH   8   9
ATOM      9  C   UNL     1      25.671  35.856  23.150  1.00  0.00    -0.011 C 
ATOM     10  C   UNL     1      24.635  35.571  24.257  1.00  0.00     0.008 C 
BRANCH   9  11
ATOM     11  C   UNL     1      25.086  36.505  21.840  1.00  0.00    -0.002 C 
ATOM     12  C   UNL     1      23.652  37.075  22.013  1.00  0.00     0.005 C 
ATOM     13  C   UNL     1      25.882  37.670  21.146  1.00  0.00    -0.026 C 
ATOM     14  C   UNL     1      23.712  38.588  21.769  1.00  0.00     0.005 C 
ATOM     15  C   UNL     1      25.197  38.920  21.728  1.00  0.00    -0.001 C 
ATOM     16  C   UNL     1      27.433  37.770  21.365  1.00  0.00     0.007 C 
ATOM     17  C   UNL     1      25.625  37.537  19.607  1.00  0.00     0.012 C 
ATOM     18  C   UNL     1      25.606  40.234  21.014  1.00  0.00     0.004 C 
ATOM     19  C   UNL     1      27.934  39.216  21.620  1.00  0.00     0.005 C 
ATOM     20  C   UNL     1      27.178  40.292  20.781  1.00  0.00     0.003 C 
ATOM     21  C   UNL     1      25.024  41.453  21.772  1.00  0.00     0.085 C 
ATOM     22  C   UNL     1      27.818  41.738  20.881  1.00  0.00    -0.000 C 
ATOM     23  C   UNL     1      25.478  42.737  21.154  1.00  0.00     0.159 C 
ATOM     24  C   UNL     1      26.767  42.764  20.444  1.00  0.00     0.005 C 
ATOM     25  C   UNL     1      29.124  41.845  20.015  1.00  0.00     0.020 C 
ATOM     26  C   UNL     1      28.238  42.078  22.339  1.00  0.00     0.017 C 
ATOM     27  O   UNL     1      24.760  43.772  21.240  1.00  0.00    -0.295 OA
ATOM     28  C   UNL     1      26.896  43.530  19.348  1.00  0.00     0.055 C 
ATOM     29  C   UNL     1      28.861  42.119  18.534  1.00  0.00     0.081 C 
ATOM     30  C   UNL     1      27.998  43.329  18.403  1.00  0.00     0.156 C 
ATOM     31  O   UNL     1      28.155  44.120  17.437  1.00  0.00    -0.295 OA
ENDBRANCH   9  11
ENDBRANCH   8   9
ENDBRANCH   1   8
TORSDOF 6
ENDMDL
