MODEL 1
REMARK VINA RESULT:    -5.588      0.000      0.000
REMARK INTER + INTRA:          -6.057
REMARK INTER:                  -6.078
REMARK INTRA:                   0.020
REMARK UNBOUND:                 0.020
REMARK SMILES CC1=C2C[C@H](C(C)(C)O)CC[C@]2(C)CCC1
REMARK SMILES IDX 6 1 7 2 8 3 5 4 1 5 2 6 3 7 16 8 4 9 12 10 15 11 11 12 14 13
REMARK SMILES IDX 13 14 10 15 9 16
REMARK H PARENT 9 17
REMARK Flexibility Score: inf
ROOT
ATOM      1  C   UNL     1     117.407 124.348 130.393  1.00  0.00     0.062 C 
ATOM      2  C   UNL     1     118.793 124.593 131.045  1.00  0.00     0.042 C 
ATOM      3  C   UNL     1     117.192 125.480 129.365  1.00  0.00     0.042 C 
ENDROOT
BRANCH   1   4
ATOM      4  C   UNL     1     117.363 122.932 129.690  1.00  0.00     0.024 C 
ATOM      5  C   UNL     1     118.986 121.312 133.275  1.00  0.00     0.039 C 
ATOM      6  C   UNL     1     117.532 121.092 132.921  1.00  0.00    -0.074 C 
ATOM      7  C   UNL     1     117.051 121.341 131.662  1.00  0.00    -0.065 C 
ATOM      8  C   UNL     1     116.617 120.728 134.076  1.00  0.00     0.031 C 
ATOM      9  C   UNL     1     117.974 121.783 130.528  1.00  0.00     0.038 C 
ATOM     10  C   UNL     1     115.600 121.004 131.273  1.00  0.00    -0.011 C 
ATOM     11  C   UNL     1     115.293 120.111 133.641  1.00  0.00     0.005 C 
ATOM     12  C   UNL     1     115.023 122.095 130.323  1.00  0.00     0.011 C 
ATOM     13  C   UNL     1     114.677 120.939 132.520  1.00  0.00     0.011 C 
ATOM     14  C   UNL     1     115.582 119.629 130.555  1.00  0.00     0.016 C 
ATOM     15  C   UNL     1     115.972 122.485 129.180  1.00  0.00     0.008 C 
ENDBRANCH   1   4
BRANCH   1  16
ATOM     16  O   UNL     1     116.388 124.469 131.360  1.00  0.00    -0.390 OA
ATOM     17  H   UNL     1     116.517 123.769 132.051  1.00  0.00     0.211 HD
ENDBRANCH   1  16
TORSDOF 2
ENDMDL
MODEL 2
REMARK VINA RESULT:    -5.344     13.241     15.166
REMARK INTER + INTRA:          -5.792
REMARK INTER:                  -5.824
REMARK INTRA:                   0.032
REMARK UNBOUND:                 0.020
REMARK SMILES CC1=C2C[C@H](C(C)(C)O)CC[C@]2(C)CCC1
REMARK SMILES IDX 6 1 7 2 8 3 5 4 1 5 2 6 3 7 16 8 4 9 12 10 15 11 11 12 14 13
REMARK SMILES IDX 13 14 10 15 9 16
REMARK H PARENT 9 17
REMARK Flexibility Score: inf
ROOT
ATOM      1  C   UNL     1     124.687 119.382 122.716  1.00  0.00     0.062 C 
ATOM      2  C   UNL     1     123.522 119.662 121.730  1.00  0.00     0.042 C 
ATOM      3  C   UNL     1     124.054 118.811 124.003  1.00  0.00     0.042 C 
ENDROOT
BRANCH   1   4
ATOM      4  C   UNL     1     125.714 118.355 122.090  1.00  0.00     0.024 C 
ATOM      5  C   UNL     1     125.021 120.239 118.337  1.00  0.00     0.039 C 
ATOM      6  C   UNL     1     126.315 120.469 119.086  1.00  0.00    -0.074 C 
ATOM      7  C   UNL     1     126.694 119.671 120.134  1.00  0.00    -0.065 C 
ATOM      8  C   UNL     1     127.086 121.721 118.708  1.00  0.00     0.031 C 
ATOM      9  C   UNL     1     125.864 118.458 120.553  1.00  0.00     0.038 C 
ATOM     10  C   UNL     1     128.065 119.832 120.815  1.00  0.00    -0.011 C 
ATOM     11  C   UNL     1     128.544 121.703 119.152  1.00  0.00     0.005 C 
ATOM     12  C   UNL     1     127.940 119.602 122.351  1.00  0.00     0.011 C 
ATOM     13  C   UNL     1     128.640 121.260 120.606  1.00  0.00     0.011 C 
ATOM     14  C   UNL     1     129.048 118.795 120.213  1.00  0.00     0.016 C 
ATOM     15  C   UNL     1     127.126 118.355 122.725  1.00  0.00     0.008 C 
ENDBRANCH   1   4
BRANCH   1  16
ATOM     16  O   UNL     1     125.325 120.589 123.068  1.00  0.00    -0.390 OA
ATOM     17  H   UNL     1     125.991 120.405 123.780  1.00  0.00     0.211 HD
ENDBRANCH   1  16
TORSDOF 2
ENDMDL
MODEL 3
REMARK VINA RESULT:    -5.202      1.495      4.727
REMARK INTER + INTRA:          -5.638
REMARK INTER:                  -5.660
REMARK INTRA:                   0.022
REMARK UNBOUND:                 0.020
REMARK SMILES CC1=C2C[C@H](C(C)(C)O)CC[C@]2(C)CCC1
REMARK SMILES IDX 6 1 7 2 8 3 5 4 1 5 2 6 3 7 16 8 4 9 12 10 15 11 11 12 14 13
REMARK SMILES IDX 13 14 10 15 9 16
REMARK H PARENT 9 17
REMARK Flexibility Score: inf
ROOT
ATOM      1  C   UNL     1     116.122 121.127 132.857  1.00  0.00     0.062 C 
ATOM      2  C   UNL     1     115.032 120.085 132.489  1.00  0.00     0.042 C 
ATOM      3  C   UNL     1     116.337 121.026 134.382  1.00  0.00     0.042 C 
ENDROOT
BRANCH   1   4
ATOM      4  C   UNL     1     117.465 120.829 132.077  1.00  0.00     0.024 C 
ATOM      5  C   UNL     1     115.066 119.859 128.697  1.00  0.00     0.039 C 
ATOM      6  C   UNL     1     115.844 121.155 128.743  1.00  0.00    -0.074 C 
ATOM      7  C   UNL     1     116.838 121.369 129.662  1.00  0.00    -0.065 C 
ATOM      8  C   UNL     1     115.357 122.253 127.813  1.00  0.00     0.031 C 
ATOM      9  C   UNL     1     117.264 120.279 130.644  1.00  0.00     0.038 C 
ATOM     10  C   UNL     1     117.707 122.639 129.628  1.00  0.00    -0.011 C 
ATOM     11  C   UNL     1     116.382 123.354 127.571  1.00  0.00     0.005 C 
ATOM     12  C   UNL     1     118.019 123.123 131.075  1.00  0.00     0.011 C 
ATOM     13  C   UNL     1     116.985 123.803 128.896  1.00  0.00     0.011 C 
ATOM     14  C   UNL     1     119.033 122.319 128.891  1.00  0.00     0.016 C 
ATOM     15  C   UNL     1     118.475 122.001 132.018  1.00  0.00     0.008 C 
ENDBRANCH   1   4
BRANCH   1  16
ATOM     16  O   UNL     1     115.656 122.430 132.590  1.00  0.00    -0.390 OA
ATOM     17  H   UNL     1     115.807 122.635 131.631  1.00  0.00     0.211 HD
ENDBRANCH   1  16
TORSDOF 2
ENDMDL
MODEL 4
REMARK VINA RESULT:    -5.187      2.926      5.250
REMARK INTER + INTRA:          -5.622
REMARK INTER:                  -5.684
REMARK INTRA:                   0.063
REMARK UNBOUND:                 0.020
REMARK SMILES CC1=C2C[C@H](C(C)(C)O)CC[C@]2(C)CCC1
REMARK SMILES IDX 6 1 7 2 8 3 5 4 1 5 2 6 3 7 16 8 4 9 12 10 15 11 11 12 14 13
REMARK SMILES IDX 13 14 10 15 9 16
REMARK H PARENT 9 17
REMARK Flexibility Score: inf
ROOT
ATOM      1  C   UNL     1     118.985 122.398 127.762  1.00  0.00     0.062 C 
ATOM      2  C   UNL     1     118.751 121.014 128.423  1.00  0.00     0.042 C 
ATOM      3  C   UNL     1     119.948 122.170 126.578  1.00  0.00     0.042 C 
ENDROOT
BRANCH   1   4
ATOM      4  C   UNL     1     117.616 123.017 127.264  1.00  0.00     0.024 C 
ATOM      5  C   UNL     1     116.569 123.517 131.359  1.00  0.00     0.039 C 
ATOM      6  C   UNL     1     116.960 124.709 130.513  1.00  0.00    -0.074 C 
ATOM      7  C   UNL     1     117.020 124.635 129.146  1.00  0.00    -0.065 C 
ATOM      8  C   UNL     1     117.425 125.937 131.275  1.00  0.00     0.031 C 
ATOM      9  C   UNL     1     116.622 123.364 128.398  1.00  0.00     0.038 C 
ATOM     10  C   UNL     1     117.300 125.879 128.284  1.00  0.00    -0.011 C 
ATOM     11  C   UNL     1     117.400 127.218 130.450  1.00  0.00     0.005 C 
ATOM     12  C   UNL     1     118.198 125.506 127.067  1.00  0.00     0.011 C 
ATOM     13  C   UNL     1     118.046 126.975 129.092  1.00  0.00     0.011 C 
ATOM     14  C   UNL     1     115.951 126.451 127.776  1.00  0.00     0.016 C 
ATOM     15  C   UNL     1     117.742 124.242 126.325  1.00  0.00     0.008 C 
ENDBRANCH   1   4
BRANCH   1  16
ATOM     16  O   UNL     1     119.635 123.263 128.665  1.00  0.00    -0.390 OA
ATOM     17  H   UNL     1     118.960 123.853 129.089  1.00  0.00     0.211 HD
ENDBRANCH   1  16
TORSDOF 2
ENDMDL
MODEL 5
REMARK VINA RESULT:    -5.183      2.264      4.195
REMARK INTER + INTRA:          -5.617
REMARK INTER:                  -5.672
REMARK INTRA:                   0.055
REMARK UNBOUND:                 0.020
REMARK SMILES CC1=C2C[C@H](C(C)(C)O)CC[C@]2(C)CCC1
REMARK SMILES IDX 6 1 7 2 8 3 5 4 1 5 2 6 3 7 16 8 4 9 12 10 15 11 11 12 14 13
REMARK SMILES IDX 13 14 10 15 9 16
REMARK H PARENT 9 17
REMARK Flexibility Score: inf
ROOT
ATOM      1  C   UNL     1     115.622 120.456 133.746  1.00  0.00     0.062 C 
ATOM      2  C   UNL     1     116.836 119.759 134.416  1.00  0.00     0.042 C 
ATOM      3  C   UNL     1     114.729 120.987 134.887  1.00  0.00     0.042 C 
ENDROOT
BRANCH   1   4
ATOM      4  C   UNL     1     116.103 121.638 132.810  1.00  0.00     0.024 C 
ATOM      5  C   UNL     1     119.551 119.297 131.945  1.00  0.00     0.039 C 
ATOM      6  C   UNL     1     118.453 119.458 130.918  1.00  0.00    -0.074 C 
ATOM      7  C   UNL     1     117.484 120.420 131.042  1.00  0.00    -0.065 C 
ATOM      8  C   UNL     1     118.403 118.400 129.830  1.00  0.00     0.031 C 
ATOM      9  C   UNL     1     117.505 121.430 132.188  1.00  0.00     0.038 C 
ATOM     10  C   UNL     1     116.440 120.659 129.936  1.00  0.00    -0.011 C 
ATOM     11  C   UNL     1     117.590 118.811 128.609  1.00  0.00     0.005 C 
ATOM     12  C   UNL     1     115.054 120.996 130.561  1.00  0.00     0.011 C 
ATOM     13  C   UNL     1     116.255 119.399 129.047  1.00  0.00     0.011 C 
ATOM     14  C   UNL     1     116.912 121.842 129.051  1.00  0.00     0.016 C 
ATOM     15  C   UNL     1     115.118 122.039 131.685  1.00  0.00     0.008 C 
ENDBRANCH   1   4
BRANCH   1  16
ATOM     16  O   UNL     1     114.859 119.515 133.026  1.00  0.00    -0.390 OA
ATOM     17  H   UNL     1     114.667 118.740 133.615  1.00  0.00     0.211 HD
ENDBRANCH   1  16
TORSDOF 2
ENDMDL
MODEL 6
REMARK VINA RESULT:    -5.154     13.378     14.567
REMARK INTER + INTRA:          -5.586
REMARK INTER:                  -5.720
REMARK INTRA:                   0.135
REMARK UNBOUND:                 0.020
REMARK SMILES CC1=C2C[C@H](C(C)(C)O)CC[C@]2(C)CCC1
REMARK SMILES IDX 6 1 7 2 8 3 5 4 1 5 2 6 3 7 16 8 4 9 12 10 15 11 11 12 14 13
REMARK SMILES IDX 13 14 10 15 9 16
REMARK H PARENT 9 17
REMARK Flexibility Score: inf
ROOT
ATOM      1  C   UNL     1     127.777 120.628 119.711  1.00  0.00     0.062 C 
ATOM      2  C   UNL     1     129.311 120.394 119.744  1.00  0.00     0.042 C 
ATOM      3  C   UNL     1     127.547 121.972 118.988  1.00  0.00     0.042 C 
ENDROOT
BRANCH   1   4
ATOM      4  C   UNL     1     127.049 119.447 118.951  1.00  0.00     0.024 C 
ATOM      5  C   UNL     1     127.042 117.326 122.641  1.00  0.00     0.039 C 
ATOM      6  C   UNL     1     125.767 117.933 122.099  1.00  0.00    -0.074 C 
ATOM      7  C   UNL     1     125.666 118.362 120.802  1.00  0.00    -0.065 C 
ATOM      8  C   UNL     1     124.665 118.175 123.116  1.00  0.00     0.031 C 
ATOM      9  C   UNL     1     126.815 118.182 119.810  1.00  0.00     0.038 C 
ATOM     10  C   UNL     1     124.332 118.867 120.222  1.00  0.00    -0.011 C 
ATOM     11  C   UNL     1     123.288 118.376 122.495  1.00  0.00     0.005 C 
ATOM     12  C   UNL     1     124.578 120.062 119.253  1.00  0.00     0.011 C 
ATOM     13  C   UNL     1     123.378 119.366 121.341  1.00  0.00     0.011 C 
ATOM     14  C   UNL     1     123.651 117.707 119.451  1.00  0.00     0.016 C 
ATOM     15  C   UNL     1     125.719 119.824 118.254  1.00  0.00     0.008 C 
ENDBRANCH   1   4
BRANCH   1  16
ATOM     16  O   UNL     1     127.281 120.772 121.022  1.00  0.00    -0.390 OA
ATOM     17  H   UNL     1     126.858 121.665 121.110  1.00  0.00     0.211 HD
ENDBRANCH   1  16
TORSDOF 2
ENDMDL
MODEL 7
REMARK VINA RESULT:    -5.110     13.796     15.468
REMARK INTER + INTRA:          -5.537
REMARK INTER:                  -5.878
REMARK INTRA:                   0.340
REMARK UNBOUND:                 0.020
REMARK SMILES CC1=C2C[C@H](C(C)(C)O)CC[C@]2(C)CCC1
REMARK SMILES IDX 6 1 7 2 8 3 5 4 1 5 2 6 3 7 16 8 4 9 12 10 15 11 11 12 14 13
REMARK SMILES IDX 13 14 10 15 9 16
REMARK H PARENT 9 17
REMARK Flexibility Score: inf
ROOT
ATOM      1  C   UNL     1     123.937 117.856 120.091  1.00  0.00     0.062 C 
ATOM      2  C   UNL     1     124.837 117.170 119.029  1.00  0.00     0.042 C 
ATOM      3  C   UNL     1     124.268 117.199 121.447  1.00  0.00     0.042 C 
ENDROOT
BRANCH   1   4
ATOM      4  C   UNL     1     124.216 119.413 120.136  1.00  0.00     0.024 C 
ATOM      5  C   UNL     1     127.167 118.609 123.095  1.00  0.00     0.039 C 
ATOM      6  C   UNL     1     127.571 118.978 121.685  1.00  0.00    -0.074 C 
ATOM      7  C   UNL     1     126.679 119.519 120.797  1.00  0.00    -0.065 C 
ATOM      8  C   UNL     1     128.975 118.574 121.272  1.00  0.00     0.031 C 
ATOM      9  C   UNL     1     125.244 119.847 121.207  1.00  0.00     0.038 C 
ATOM     10  C   UNL     1     127.122 120.004 119.404  1.00  0.00    -0.011 C 
ATOM     11  C   UNL     1     129.491 119.313 120.043  1.00  0.00     0.005 C 
ATOM     12  C   UNL     1     126.029 119.681 118.342  1.00  0.00     0.011 C 
ATOM     13  C   UNL     1     128.432 119.304 118.948  1.00  0.00     0.011 C 
ATOM     14  C   UNL     1     127.356 121.536 119.459  1.00  0.00     0.016 C 
ATOM     15  C   UNL     1     124.607 120.058 118.784  1.00  0.00     0.008 C 
ENDBRANCH   1   4
BRANCH   1  16
ATOM     16  O   UNL     1     122.580 117.589 119.821  1.00  0.00    -0.390 OA
ATOM     17  H   UNL     1     122.018 118.188 120.378  1.00  0.00     0.211 HD
ENDBRANCH   1  16
TORSDOF 2
ENDMDL
MODEL 8
REMARK VINA RESULT:    -5.086      2.272      4.053
REMARK INTER + INTRA:          -5.511
REMARK INTER:                  -5.534
REMARK INTRA:                   0.023
REMARK UNBOUND:                 0.020
REMARK SMILES CC1=C2C[C@H](C(C)(C)O)CC[C@]2(C)CCC1
REMARK SMILES IDX 6 1 7 2 8 3 5 4 1 5 2 6 3 7 16 8 4 9 12 10 15 11 11 12 14 13
REMARK SMILES IDX 13 14 10 15 9 16
REMARK H PARENT 9 17
REMARK Flexibility Score: inf
ROOT
ATOM      1  C   UNL     1     117.567 126.924 130.011  1.00  0.00     0.062 C 
ATOM      2  C   UNL     1     117.350 126.634 131.520  1.00  0.00     0.042 C 
ATOM      3  C   UNL     1     118.107 128.366 129.908  1.00  0.00     0.042 C 
ENDROOT
BRANCH   1   4
ATOM      4  C   UNL     1     118.590 125.892 129.386  1.00  0.00     0.024 C 
ATOM      5  C   UNL     1     116.692 122.882 131.721  1.00  0.00     0.039 C 
ATOM      6  C   UNL     1     116.464 122.956 130.228  1.00  0.00    -0.074 C 
ATOM      7  C   UNL     1     117.266 123.710 129.411  1.00  0.00    -0.065 C 
ATOM      8  C   UNL     1     115.209 122.271 129.715  1.00  0.00     0.031 C 
ATOM      9  C   UNL     1     118.481 124.458 129.957  1.00  0.00     0.038 C 
ATOM     10  C   UNL     1     117.105 123.688 127.880  1.00  0.00    -0.011 C 
ATOM     11  C   UNL     1     115.227 121.997 128.216  1.00  0.00     0.005 C 
ATOM     12  C   UNL     1     117.342 125.109 127.288  1.00  0.00     0.011 C 
ATOM     13  C   UNL     1     115.676 123.244 127.465  1.00  0.00     0.011 C 
ATOM     14  C   UNL     1     118.139 122.698 127.283  1.00  0.00     0.016 C 
ATOM     15  C   UNL     1     118.591 125.809 127.841  1.00  0.00     0.008 C 
ENDBRANCH   1   4
BRANCH   1  16
ATOM     16  O   UNL     1     116.333 126.894 129.330  1.00  0.00    -0.390 OA
ATOM     17  H   UNL     1     116.490 126.605 128.394  1.00  0.00     0.211 HD
ENDBRANCH   1  16
TORSDOF 2
ENDMDL
MODEL 9
REMARK VINA RESULT:    -5.031      2.123      4.990
REMARK INTER + INTRA:          -5.452
REMARK INTER:                  -5.533
REMARK INTRA:                   0.080
REMARK UNBOUND:                 0.020
REMARK SMILES CC1=C2C[C@H](C(C)(C)O)CC[C@]2(C)CCC1
REMARK SMILES IDX 6 1 7 2 8 3 5 4 1 5 2 6 3 7 16 8 4 9 12 10 15 11 11 12 14 13
REMARK SMILES IDX 13 14 10 15 9 16
REMARK H PARENT 9 17
REMARK Flexibility Score: inf
ROOT
ATOM      1  C   UNL     1     115.527 121.355 131.897  1.00  0.00     0.062 C 
ATOM      2  C   UNL     1     114.388 122.302 131.438  1.00  0.00     0.042 C 
ATOM      3  C   UNL     1     115.119 120.805 133.280  1.00  0.00     0.042 C 
ENDROOT
BRANCH   1   4
ATOM      4  C   UNL     1     115.728 120.178 130.859  1.00  0.00     0.024 C 
ATOM      5  C   UNL     1     114.430 122.878 127.835  1.00  0.00     0.039 C 
ATOM      6  C   UNL     1     115.889 122.494 127.950  1.00  0.00    -0.074 C 
ATOM      7  C   UNL     1     116.297 121.427 128.706  1.00  0.00    -0.065 C 
ATOM      8  C   UNL     1     116.877 123.450 127.305  1.00  0.00     0.031 C 
ATOM      9  C   UNL     1     115.291 120.520 129.414  1.00  0.00     0.038 C 
ATOM     10  C   UNL     1     117.766 120.968 128.725  1.00  0.00    -0.011 C 
ATOM     11  C   UNL     1     118.254 122.842 127.068  1.00  0.00     0.005 C 
ATOM     12  C   UNL     1     118.172 120.501 130.154  1.00  0.00     0.011 C 
ATOM     13  C   UNL     1     118.727 122.119 128.323  1.00  0.00     0.011 C 
ATOM     14  C   UNL     1     117.936 119.792 127.728  1.00  0.00     0.016 C 
ATOM     15  C   UNL     1     117.149 119.566 130.814  1.00  0.00     0.008 C 
ENDBRANCH   1   4
BRANCH   1  16
ATOM     16  O   UNL     1     116.720 122.084 132.077  1.00  0.00    -0.390 OA
ATOM     17  H   UNL     1     116.898 122.176 133.049  1.00  0.00     0.211 HD
ENDBRANCH   1  16
TORSDOF 2
ENDMDL
