MODEL 1
REMARK VINA RESULT:    -5.514      0.000      0.000
REMARK INTER + INTRA:          -9.790
REMARK INTER:                  -8.576
REMARK INTRA:                  -1.213
REMARK UNBOUND:                -1.213
REMARK SMILES COc1cc(CNC(=O)CCCCC=CC(C)C)ccc1O
REMARK SMILES IDX 11 1 12 2 13 3 14 4 15 5 16 6 17 7 18 8 10 9 8 10 9 11 7 12
REMARK SMILES IDX 6 14 5 15 4 16 19 17 3 18 20 19 21 20 2 21 1 22 22 23
REMARK H PARENT 7 13 22 24
REMARK Flexibility Score: inf
ROOT
ATOM      1  C   UNL     1     -32.971  51.303  31.128  1.00  0.00     0.010 C 
ENDROOT
BRANCH   1   2
ATOM      2  C   UNL     1     -31.629  50.642  30.777  1.00  0.00     0.005 C 
BRANCH   2   3
ATOM      3  C   UNL     1     -30.517  51.670  30.519  1.00  0.00     0.027 C 
BRANCH   3   4
ATOM      4  C   UNL     1     -29.978  52.221  31.810  1.00  0.00    -0.031 C 
ATOM      5  C   UNL     1     -28.991  51.604  32.482  1.00  0.00    -0.028 C 
BRANCH   5   6
ATOM      6  C   UNL     1     -28.419  52.141  33.774  1.00  0.00     0.005 C 
ATOM      7  C   UNL     1     -28.953  51.367  34.983  1.00  0.00     0.012 C 
ATOM      8  C   UNL     1     -26.888  52.145  33.748  1.00  0.00     0.012 C 
ENDBRANCH   5   6
ENDBRANCH   3   4
ENDBRANCH   2   3
ENDBRANCH   1   2
BRANCH   1   9
ATOM      9  C   UNL     1     -33.554  52.115  29.964  1.00  0.00     0.100 C 
BRANCH   9  10
ATOM     10  C   UNL     1     -33.834  51.214  28.800  1.00  0.00     0.220 C 
ATOM     11  O   UNL     1     -34.624  50.243  28.944  1.00  0.00    -0.275 OA
ATOM     12  N   UNL     1     -33.156  51.419  27.553  1.00  0.00    -0.352 N 
ATOM     13  H   UNL     1     -32.550  52.261  27.438  1.00  0.00     0.163 HD
BRANCH  12  14
ATOM     14  C   UNL     1     -33.169  50.423  26.485  1.00  0.00     0.151 C 
BRANCH  14  15
ATOM     15  C   UNL     1     -31.974  49.519  26.618  1.00  0.00    -0.025 A 
ATOM     16  C   UNL     1     -32.052  48.187  26.185  1.00  0.00     0.056 A 
ATOM     17  C   UNL     1     -30.759  50.014  27.111  1.00  0.00     0.009 A 
ATOM     18  C   UNL     1     -30.928  47.342  26.260  1.00  0.00     0.160 A 
ATOM     19  C   UNL     1     -29.641  49.183  27.189  1.00  0.00     0.050 A 
ATOM     20  C   UNL     1     -29.719  47.851  26.770  1.00  0.00     0.157 A 
BRANCH  18  21
ATOM     21  O   UNL     1     -30.976  46.003  25.837  1.00  0.00    -0.493 OA
ATOM     22  C   UNL     1     -32.123  45.373  25.280  1.00  0.00     0.278 C 
ENDBRANCH  18  21
BRANCH  20  23
ATOM     23  O   UNL     1     -28.583  47.048  26.864  1.00  0.00    -0.504 OA
ATOM     24  H   UNL     1     -28.625  46.089  27.190  1.00  0.00     0.293 HD
ENDBRANCH  20  23
ENDBRANCH  14  15
ENDBRANCH  12  14
ENDBRANCH   9  10
ENDBRANCH   1   9
TORSDOF 10
ENDMDL
MODEL 2
REMARK VINA RESULT:    -5.454     14.370     16.852
REMARK INTER + INTRA:          -9.696
REMARK INTER:                  -8.595
REMARK INTRA:                  -1.101
REMARK UNBOUND:                -1.213
REMARK SMILES COc1cc(CNC(=O)CCCCC=CC(C)C)ccc1O
REMARK SMILES IDX 11 1 12 2 13 3 14 4 15 5 16 6 17 7 18 8 10 9 8 10 9 11 7 12
REMARK SMILES IDX 6 14 5 15 4 16 19 17 3 18 20 19 21 20 2 21 1 22 22 23
REMARK H PARENT 7 13 22 24
REMARK Flexibility Score: inf
ROOT
ATOM      1  C   UNL     1     -27.178  58.211  17.604  1.00  0.00     0.010 C 
ENDROOT
BRANCH   1   2
ATOM      2  C   UNL     1     -26.648  56.809  17.267  1.00  0.00     0.005 C 
BRANCH   2   3
ATOM      3  C   UNL     1     -26.539  56.570  15.753  1.00  0.00     0.027 C 
BRANCH   3   4
ATOM      4  C   UNL     1     -27.819  56.006  15.200  1.00  0.00    -0.031 C 
ATOM      5  C   UNL     1     -28.659  55.287  15.963  1.00  0.00    -0.028 C 
BRANCH   5   6
ATOM      6  C   UNL     1     -29.959  54.721  15.440  1.00  0.00     0.005 C 
ATOM      7  C   UNL     1     -30.665  53.872  16.503  1.00  0.00     0.012 C 
ATOM      8  C   UNL     1     -30.878  55.826  14.911  1.00  0.00     0.012 C 
ENDBRANCH   5   6
ENDBRANCH   3   4
ENDBRANCH   2   3
ENDBRANCH   1   2
BRANCH   1   9
ATOM      9  C   UNL     1     -26.478  59.317  16.804  1.00  0.00     0.100 C 
BRANCH   9  10
ATOM     10  C   UNL     1     -27.494  60.254  16.226  1.00  0.00     0.220 C 
ATOM     11  O   UNL     1     -27.431  60.562  15.005  1.00  0.00    -0.275 OA
ATOM     12  N   UNL     1     -28.491  60.845  17.071  1.00  0.00    -0.352 N 
ATOM     13  H   UNL     1     -28.561  60.533  18.066  1.00  0.00     0.163 HD
BRANCH  12  14
ATOM     14  C   UNL     1     -29.319  61.965  16.635  1.00  0.00     0.151 C 
BRANCH  14  15
ATOM     15  C   UNL     1     -30.680  61.464  16.232  1.00  0.00    -0.025 A 
ATOM     16  C   UNL     1     -31.058  60.147  16.531  1.00  0.00     0.056 A 
ATOM     17  C   UNL     1     -31.599  62.324  15.615  1.00  0.00     0.009 A 
ATOM     18  C   UNL     1     -32.344  59.678  16.201  1.00  0.00     0.160 A 
ATOM     19  C   UNL     1     -32.876  61.866  15.285  1.00  0.00     0.050 A 
ATOM     20  C   UNL     1     -33.252  60.550  15.570  1.00  0.00     0.157 A 
BRANCH  18  21
ATOM     21  O   UNL     1     -32.752  58.364  16.485  1.00  0.00    -0.493 OA
ATOM     22  C   UNL     1     -33.447  57.972  17.663  1.00  0.00     0.278 C 
ENDBRANCH  18  21
BRANCH  20  23
ATOM     23  O   UNL     1     -34.535  60.126  15.224  1.00  0.00    -0.504 OA
ATOM     24  H   UNL     1     -35.324  60.231  15.850  1.00  0.00     0.293 HD
ENDBRANCH  20  23
ENDBRANCH  14  15
ENDBRANCH  12  14
ENDBRANCH   9  10
ENDBRANCH   1   9
TORSDOF 10
ENDMDL
MODEL 3
REMARK VINA RESULT:    -5.302      1.008      2.019
REMARK INTER + INTRA:          -9.460
REMARK INTER:                  -8.513
REMARK INTRA:                  -0.946
REMARK UNBOUND:                -1.213
REMARK SMILES COc1cc(CNC(=O)CCCCC=CC(C)C)ccc1O
REMARK SMILES IDX 11 1 12 2 13 3 14 4 15 5 16 6 17 7 18 8 10 9 8 10 9 11 7 12
REMARK SMILES IDX 6 14 5 15 4 16 19 17 3 18 20 19 21 20 2 21 1 22 22 23
REMARK H PARENT 7 13 22 24
REMARK Flexibility Score: inf
ROOT
ATOM      1  C   UNL     1     -32.292  49.915  30.992  1.00  0.00     0.010 C 
ENDROOT
BRANCH   1   2
ATOM      2  C   UNL     1     -30.802  50.215  31.212  1.00  0.00     0.005 C 
BRANCH   2   3
ATOM      3  C   UNL     1     -30.455  51.691  30.964  1.00  0.00     0.027 C 
BRANCH   3   4
ATOM      4  C   UNL     1     -29.791  52.302  32.168  1.00  0.00    -0.031 C 
ATOM      5  C   UNL     1     -28.622  51.835  32.638  1.00  0.00    -0.028 C 
BRANCH   5   6
ATOM      6  C   UNL     1     -27.923  52.437  33.836  1.00  0.00     0.005 C 
ATOM      7  C   UNL     1     -28.735  52.226  35.118  1.00  0.00     0.012 C 
ATOM      8  C   UNL     1     -26.499  51.894  33.984  1.00  0.00     0.012 C 
ENDBRANCH   5   6
ENDBRANCH   3   4
ENDBRANCH   2   3
ENDBRANCH   1   2
BRANCH   1   9
ATOM      9  C   UNL     1     -33.033  51.069  30.302  1.00  0.00     0.100 C 
BRANCH   9  10
ATOM     10  C   UNL     1     -33.301  50.723  28.869  1.00  0.00     0.220 C 
ATOM     11  O   UNL     1     -34.431  50.273  28.541  1.00  0.00    -0.275 OA
ATOM     12  N   UNL     1     -32.256  50.841  27.894  1.00  0.00    -0.352 N 
ATOM     13  H   UNL     1     -31.346  51.269  28.175  1.00  0.00     0.163 HD
BRANCH  12  14
ATOM     14  C   UNL     1     -32.367  50.261  26.558  1.00  0.00     0.151 C 
BRANCH  14  15
ATOM     15  C   UNL     1     -31.577  48.982  26.493  1.00  0.00    -0.025 A 
ATOM     16  C   UNL     1     -30.231  48.969  26.889  1.00  0.00     0.056 A 
ATOM     17  C   UNL     1     -32.193  47.786  26.100  1.00  0.00     0.009 A 
ATOM     18  C   UNL     1     -29.493  47.770  26.877  1.00  0.00     0.160 A 
ATOM     19  C   UNL     1     -31.467  46.594  26.086  1.00  0.00     0.050 A 
ATOM     20  C   UNL     1     -30.122  46.580  26.468  1.00  0.00     0.157 A 
BRANCH  18  21
ATOM     21  O   UNL     1     -28.143  47.725  27.265  1.00  0.00    -0.493 OA
ATOM     22  C   UNL     1     -27.691  47.418  28.578  1.00  0.00     0.278 C 
ENDBRANCH  18  21
BRANCH  20  23
ATOM     23  O   UNL     1     -29.427  45.370  26.439  1.00  0.00    -0.504 OA
ATOM     24  H   UNL     1     -28.906  45.030  27.238  1.00  0.00     0.293 HD
ENDBRANCH  20  23
ENDBRANCH  14  15
ENDBRANCH  12  14
ENDBRANCH   9  10
ENDBRANCH   1   9
TORSDOF 10
ENDMDL
MODEL 4
REMARK VINA RESULT:    -5.273      2.280      4.490
REMARK INTER + INTRA:          -9.415
REMARK INTER:                  -8.145
REMARK INTRA:                  -1.270
REMARK UNBOUND:                -1.213
REMARK SMILES COc1cc(CNC(=O)CCCCC=CC(C)C)ccc1O
REMARK SMILES IDX 11 1 12 2 13 3 14 4 15 5 16 6 17 7 18 8 10 9 8 10 9 11 7 12
REMARK SMILES IDX 6 14 5 15 4 16 19 17 3 18 20 19 21 20 2 21 1 22 22 23
REMARK H PARENT 7 13 22 24
REMARK Flexibility Score: inf
ROOT
ATOM      1  C   UNL     1     -29.924  46.854  30.638  1.00  0.00     0.010 C 
ENDROOT
BRANCH   1   2
ATOM      2  C   UNL     1     -29.751  47.868  31.779  1.00  0.00     0.005 C 
BRANCH   2   3
ATOM      3  C   UNL     1     -30.528  49.170  31.533  1.00  0.00     0.027 C 
BRANCH   3   4
ATOM      4  C   UNL     1     -30.093  50.249  32.487  1.00  0.00    -0.031 C 
ATOM      5  C   UNL     1     -29.433  51.340  32.062  1.00  0.00    -0.028 C 
BRANCH   5   6
ATOM      6  C   UNL     1     -28.997  52.448  32.994  1.00  0.00     0.005 C 
ATOM      7  C   UNL     1     -30.000  52.641  34.137  1.00  0.00     0.012 C 
ATOM      8  C   UNL     1     -27.584  52.202  33.531  1.00  0.00     0.012 C 
ENDBRANCH   5   6
ENDBRANCH   3   4
ENDBRANCH   2   3
ENDBRANCH   1   2
BRANCH   1   9
ATOM      9  C   UNL     1     -28.629  46.623  29.849  1.00  0.00     0.100 C 
BRANCH   9  10
ATOM     10  C   UNL     1     -28.691  47.346  28.538  1.00  0.00     0.220 C 
ATOM     11  O   UNL     1     -27.620  47.682  27.965  1.00  0.00    -0.275 OA
ATOM     12  N   UNL     1     -29.959  47.708  27.976  1.00  0.00    -0.352 N 
ATOM     13  H   UNL     1     -30.833  47.371  28.437  1.00  0.00     0.163 HD
BRANCH  12  14
ATOM     14  C   UNL     1     -30.080  48.646  26.863  1.00  0.00     0.151 C 
BRANCH  14  15
ATOM     15  C   UNL     1     -31.032  49.752  27.231  1.00  0.00    -0.025 A 
ATOM     16  C   UNL     1     -32.207  49.940  26.488  1.00  0.00     0.056 A 
ATOM     17  C   UNL     1     -30.788  50.557  28.353  1.00  0.00     0.009 A 
ATOM     18  C   UNL     1     -33.130  50.941  26.849  1.00  0.00     0.160 A 
ATOM     19  C   UNL     1     -31.698  51.550  28.715  1.00  0.00     0.050 A 
ATOM     20  C   UNL     1     -32.864  51.749  27.969  1.00  0.00     0.157 A 
BRANCH  18  21
ATOM     21  O   UNL     1     -34.314  51.155  26.124  1.00  0.00    -0.493 OA
ATOM     22  C   UNL     1     -35.269  50.146  25.820  1.00  0.00     0.278 C 
ENDBRANCH  18  21
BRANCH  20  23
ATOM     23  O   UNL     1     -33.750  52.753  28.360  1.00  0.00    -0.504 OA
ATOM     24  H   UNL     1     -34.105  53.442  27.708  1.00  0.00     0.293 HD
ENDBRANCH  20  23
ENDBRANCH  14  15
ENDBRANCH  12  14
ENDBRANCH   9  10
ENDBRANCH   1   9
TORSDOF 10
ENDMDL
MODEL 5
REMARK VINA RESULT:    -5.248      3.510      6.836
REMARK INTER + INTRA:          -9.376
REMARK INTER:                  -8.306
REMARK INTRA:                  -1.070
REMARK UNBOUND:                -1.213
REMARK SMILES COc1cc(CNC(=O)CCCCC=CC(C)C)ccc1O
REMARK SMILES IDX 11 1 12 2 13 3 14 4 15 5 16 6 17 7 18 8 10 9 8 10 9 11 7 12
REMARK SMILES IDX 6 14 5 15 4 16 19 17 3 18 20 19 21 20 2 21 1 22 22 23
REMARK H PARENT 7 13 22 24
REMARK Flexibility Score: inf
ROOT
ATOM      1  C   UNL     1     -30.817  48.262  26.716  1.00  0.00     0.010 C 
ENDROOT
BRANCH   1   2
ATOM      2  C   UNL     1     -29.722  47.193  26.851  1.00  0.00     0.005 C 
BRANCH   2   3
ATOM      3  C   UNL     1     -28.362  47.790  27.242  1.00  0.00     0.027 C 
BRANCH   3   4
ATOM      4  C   UNL     1     -27.913  47.284  28.586  1.00  0.00    -0.031 C 
ATOM      5  C   UNL     1     -28.648  46.403  29.287  1.00  0.00    -0.028 C 
BRANCH   5   6
ATOM      6  C   UNL     1     -28.216  45.865  30.632  1.00  0.00     0.005 C 
ATOM      7  C   UNL     1     -29.085  44.678  31.061  1.00  0.00     0.012 C 
ATOM      8  C   UNL     1     -26.730  45.497  30.636  1.00  0.00     0.012 C 
ENDBRANCH   5   6
ENDBRANCH   3   4
ENDBRANCH   2   3
ENDBRANCH   1   2
BRANCH   1   9
ATOM      9  C   UNL     1     -30.335  49.659  27.129  1.00  0.00     0.100 C 
BRANCH   9  10
ATOM     10  C   UNL     1     -30.949  50.047  28.440  1.00  0.00     0.220 C 
ATOM     11  O   UNL     1     -31.732  49.247  29.018  1.00  0.00    -0.275 OA
ATOM     12  N   UNL     1     -30.696  51.345  28.995  1.00  0.00    -0.352 N 
ATOM     13  H   UNL     1     -30.001  51.969  28.530  1.00  0.00     0.163 HD
BRANCH  12  14
ATOM     14  C   UNL     1     -31.475  51.882  30.107  1.00  0.00     0.151 C 
BRANCH  14  15
ATOM     15  C   UNL     1     -30.851  51.469  31.412  1.00  0.00    -0.025 A 
ATOM     16  C   UNL     1     -29.582  51.952  31.765  1.00  0.00     0.056 A 
ATOM     17  C   UNL     1     -31.554  50.656  32.311  1.00  0.00     0.009 A 
ATOM     18  C   UNL     1     -29.004  51.611  33.004  1.00  0.00     0.160 A 
ATOM     19  C   UNL     1     -30.988  50.314  33.540  1.00  0.00     0.050 A 
ATOM     20  C   UNL     1     -29.718  50.783  33.889  1.00  0.00     0.157 A 
BRANCH  18  21
ATOM     21  O   UNL     1     -27.734  52.076  33.384  1.00  0.00    -0.493 OA
ATOM     22  C   UNL     1     -27.497  53.290  34.088  1.00  0.00     0.278 C 
ENDBRANCH  18  21
BRANCH  20  23
ATOM     23  O   UNL     1     -29.183  50.419  35.125  1.00  0.00    -0.504 OA
ATOM     24  H   UNL     1     -28.317  49.899  35.205  1.00  0.00     0.293 HD
ENDBRANCH  20  23
ENDBRANCH  14  15
ENDBRANCH  12  14
ENDBRANCH   9  10
ENDBRANCH   1   9
TORSDOF 10
ENDMDL
MODEL 6
REMARK VINA RESULT:    -5.237      1.986      2.811
REMARK INTER + INTRA:          -9.359
REMARK INTER:                  -8.136
REMARK INTRA:                  -1.223
REMARK UNBOUND:                -1.213
REMARK SMILES COc1cc(CNC(=O)CCCCC=CC(C)C)ccc1O
REMARK SMILES IDX 11 1 12 2 13 3 14 4 15 5 16 6 17 7 18 8 10 9 8 10 9 11 7 12
REMARK SMILES IDX 6 14 5 15 4 16 19 17 3 18 20 19 21 20 2 21 1 22 22 23
REMARK H PARENT 7 13 22 24
REMARK Flexibility Score: inf
ROOT
ATOM      1  C   UNL     1     -32.979  51.831  30.264  1.00  0.00     0.010 C 
ENDROOT
BRANCH   1   2
ATOM      2  C   UNL     1     -31.827  51.090  30.960  1.00  0.00     0.005 C 
BRANCH   2   3
ATOM      3  C   UNL     1     -30.489  51.837  30.841  1.00  0.00     0.027 C 
BRANCH   3   4
ATOM      4  C   UNL     1     -29.620  51.588  32.043  1.00  0.00    -0.031 C 
ATOM      5  C   UNL     1     -29.248  52.587  32.861  1.00  0.00    -0.028 C 
BRANCH   5   6
ATOM      6  C   UNL     1     -28.389  52.366  34.085  1.00  0.00     0.005 C 
ATOM      7  C   UNL     1     -28.906  51.192  34.924  1.00  0.00     0.012 C 
ATOM      8  C   UNL     1     -26.917  52.172  33.707  1.00  0.00     0.012 C 
ENDBRANCH   5   6
ENDBRANCH   3   4
ENDBRANCH   2   3
ENDBRANCH   1   2
BRANCH   1   9
ATOM      9  C   UNL     1     -32.645  52.217  28.817  1.00  0.00     0.100 C 
BRANCH   9  10
ATOM     10  C   UNL     1     -32.540  50.986  27.969  1.00  0.00     0.220 C 
ATOM     11  O   UNL     1     -33.566  50.284  27.766  1.00  0.00    -0.275 OA
ATOM     12  N   UNL     1     -31.267  50.577  27.450  1.00  0.00    -0.352 N 
ATOM     13  H   UNL     1     -30.441  51.202  27.582  1.00  0.00     0.163 HD
BRANCH  12  14
ATOM     14  C   UNL     1     -31.051  49.257  26.864  1.00  0.00     0.151 C 
BRANCH  14  15
ATOM     15  C   UNL     1     -30.035  48.501  27.677  1.00  0.00    -0.025 A 
ATOM     16  C   UNL     1     -30.333  48.123  28.995  1.00  0.00     0.056 A 
ATOM     17  C   UNL     1     -28.815  48.112  27.106  1.00  0.00     0.009 A 
ATOM     18  C   UNL     1     -29.411  47.375  29.752  1.00  0.00     0.160 A 
ATOM     19  C   UNL     1     -27.897  47.371  27.851  1.00  0.00     0.050 A 
ATOM     20  C   UNL     1     -28.185  47.004  29.169  1.00  0.00     0.157 A 
BRANCH  18  21
ATOM     21  O   UNL     1     -29.679  46.984  31.074  1.00  0.00    -0.493 OA
ATOM     22  C   UNL     1     -30.069  47.873  32.115  1.00  0.00     0.278 C 
ENDBRANCH  18  21
BRANCH  20  23
ATOM     23  O   UNL     1     -27.242  46.265  29.883  1.00  0.00    -0.504 OA
ATOM     24  H   UNL     1     -27.092  45.277  29.716  1.00  0.00     0.293 HD
ENDBRANCH  20  23
ENDBRANCH  14  15
ENDBRANCH  12  14
ENDBRANCH   9  10
ENDBRANCH   1   9
TORSDOF 10
ENDMDL
MODEL 7
REMARK VINA RESULT:    -5.172      3.466      6.545
REMARK INTER + INTRA:          -9.257
REMARK INTER:                  -8.079
REMARK INTRA:                  -1.178
REMARK UNBOUND:                -1.213
REMARK SMILES COc1cc(CNC(=O)CCCCC=CC(C)C)ccc1O
REMARK SMILES IDX 11 1 12 2 13 3 14 4 15 5 16 6 17 7 18 8 10 9 8 10 9 11 7 12
REMARK SMILES IDX 6 14 5 15 4 16 19 17 3 18 20 19 21 20 2 21 1 22 22 23
REMARK H PARENT 7 13 22 24
REMARK Flexibility Score: inf
ROOT
ATOM      1  C   UNL     1     -30.779  48.516  26.754  1.00  0.00     0.010 C 
ENDROOT
BRANCH   1   2
ATOM      2  C   UNL     1     -29.649  47.488  26.592  1.00  0.00     0.005 C 
BRANCH   2   3
ATOM      3  C   UNL     1     -28.341  47.942  27.258  1.00  0.00     0.027 C 
BRANCH   3   4
ATOM      4  C   UNL     1     -27.943  47.003  28.365  1.00  0.00    -0.031 C 
ATOM      5  C   UNL     1     -28.721  46.819  29.444  1.00  0.00    -0.028 C 
BRANCH   5   6
ATOM      6  C   UNL     1     -28.355  45.872  30.565  1.00  0.00     0.005 C 
ATOM      7  C   UNL     1     -26.840  45.660  30.641  1.00  0.00     0.012 C 
ATOM      8  C   UNL     1     -28.918  46.350  31.907  1.00  0.00     0.012 C 
ENDBRANCH   5   6
ENDBRANCH   3   4
ENDBRANCH   2   3
ENDBRANCH   1   2
BRANCH   1   9
ATOM      9  C   UNL     1     -30.277  49.871  27.271  1.00  0.00     0.100 C 
BRANCH   9  10
ATOM     10  C   UNL     1     -30.869  50.157  28.618  1.00  0.00     0.220 C 
ATOM     11  O   UNL     1     -31.478  49.242  29.234  1.00  0.00    -0.275 OA
ATOM     12  N   UNL     1     -30.799  51.479  29.168  1.00  0.00    -0.352 N 
ATOM     13  H   UNL     1     -30.241  52.207  28.668  1.00  0.00     0.163 HD
BRANCH  12  14
ATOM     14  C   UNL     1     -31.589  51.885  30.326  1.00  0.00     0.151 C 
BRANCH  14  15
ATOM     15  C   UNL     1     -30.791  51.677  31.585  1.00  0.00    -0.025 A 
ATOM     16  C   UNL     1     -31.287  50.844  32.599  1.00  0.00     0.056 A 
ATOM     17  C   UNL     1     -29.523  52.257  31.727  1.00  0.00     0.009 A 
ATOM     18  C   UNL     1     -30.531  50.603  33.762  1.00  0.00     0.160 A 
ATOM     19  C   UNL     1     -28.768  52.022  32.877  1.00  0.00     0.050 A 
ATOM     20  C   UNL     1     -29.265  51.203  33.895  1.00  0.00     0.157 A 
BRANCH  18  21
ATOM     21  O   UNL     1     -31.002  49.776  34.796  1.00  0.00    -0.493 OA
ATOM     22  C   UNL     1     -30.839  48.363  34.837  1.00  0.00     0.278 C 
ENDBRANCH  18  21
BRANCH  20  23
ATOM     23  O   UNL     1     -28.484  50.992  35.031  1.00  0.00    -0.504 OA
ATOM     24  H   UNL     1     -27.472  51.012  35.001  1.00  0.00     0.293 HD
ENDBRANCH  20  23
ENDBRANCH  14  15
ENDBRANCH  12  14
ENDBRANCH   9  10
ENDBRANCH   1   9
TORSDOF 10
ENDMDL
MODEL 8
REMARK VINA RESULT:    -5.117     13.934     16.253
REMARK INTER + INTRA:          -9.171
REMARK INTER:                  -8.084
REMARK INTRA:                  -1.088
REMARK UNBOUND:                -1.213
REMARK SMILES COc1cc(CNC(=O)CCCCC=CC(C)C)ccc1O
REMARK SMILES IDX 11 1 12 2 13 3 14 4 15 5 16 6 17 7 18 8 10 9 8 10 9 11 7 12
REMARK SMILES IDX 6 14 5 15 4 16 19 17 3 18 20 19 21 20 2 21 1 22 22 23
REMARK H PARENT 7 13 22 24
REMARK Flexibility Score: inf
ROOT
ATOM      1  C   UNL     1     -26.886  58.658  17.564  1.00  0.00     0.010 C 
ENDROOT
BRANCH   1   2
ATOM      2  C   UNL     1     -26.867  57.122  17.592  1.00  0.00     0.005 C 
BRANCH   2   3
ATOM      3  C   UNL     1     -26.656  56.511  16.198  1.00  0.00     0.027 C 
BRANCH   3   4
ATOM      4  C   UNL     1     -27.830  55.660  15.797  1.00  0.00    -0.031 C 
ATOM      5  C   UNL     1     -29.081  55.954  16.193  1.00  0.00    -0.028 C 
BRANCH   5   6
ATOM      6  C   UNL     1     -30.281  55.127  15.793  1.00  0.00     0.005 C 
ATOM      7  C   UNL     1     -30.412  53.876  16.668  1.00  0.00     0.012 C 
ATOM      8  C   UNL     1     -31.567  55.960  15.817  1.00  0.00     0.012 C 
ENDBRANCH   5   6
ENDBRANCH   3   4
ENDBRANCH   2   3
ENDBRANCH   1   2
BRANCH   1   9
ATOM      9  C   UNL     1     -26.777  59.226  16.143  1.00  0.00     0.100 C 
BRANCH   9  10
ATOM     10  C   UNL     1     -27.611  60.464  16.020  1.00  0.00     0.220 C 
ATOM     11  O   UNL     1     -27.047  61.591  15.996  1.00  0.00    -0.275 OA
ATOM     12  N   UNL     1     -29.041  60.369  15.997  1.00  0.00    -0.352 N 
ATOM     13  H   UNL     1     -29.486  59.424  15.960  1.00  0.00     0.163 HD
BRANCH  12  14
ATOM     14  C   UNL     1     -29.904  61.535  16.162  1.00  0.00     0.151 C 
BRANCH  14  15
ATOM     15  C   UNL     1     -30.641  61.441  17.470  1.00  0.00    -0.025 A 
ATOM     16  C   UNL     1     -31.789  60.641  17.571  1.00  0.00     0.056 A 
ATOM     17  C   UNL     1     -30.154  62.095  18.610  1.00  0.00     0.009 A 
ATOM     18  C   UNL     1     -32.464  60.506  18.800  1.00  0.00     0.160 A 
ATOM     19  C   UNL     1     -30.816  61.966  19.831  1.00  0.00     0.050 A 
ATOM     20  C   UNL     1     -31.968  61.180  19.932  1.00  0.00     0.157 A 
BRANCH  18  21
ATOM     21  O   UNL     1     -33.617  59.715  18.932  1.00  0.00    -0.493 OA
ATOM     22  C   UNL     1     -33.711  58.353  18.532  1.00  0.00     0.278 C 
ENDBRANCH  18  21
BRANCH  20  23
ATOM     23  O   UNL     1     -32.606  61.076  21.168  1.00  0.00    -0.504 OA
ATOM     24  H   UNL     1     -32.090  60.990  22.035  1.00  0.00     0.293 HD
ENDBRANCH  20  23
ENDBRANCH  14  15
ENDBRANCH  12  14
ENDBRANCH   9  10
ENDBRANCH   1   9
TORSDOF 10
ENDMDL
MODEL 9
REMARK VINA RESULT:    -5.091     14.261     16.269
REMARK INTER + INTRA:          -9.131
REMARK INTER:                  -7.657
REMARK INTRA:                  -1.475
REMARK UNBOUND:                -1.213
REMARK SMILES COc1cc(CNC(=O)CCCCC=CC(C)C)ccc1O
REMARK SMILES IDX 11 1 12 2 13 3 14 4 15 5 16 6 17 7 18 8 10 9 8 10 9 11 7 12
REMARK SMILES IDX 6 14 5 15 4 16 19 17 3 18 20 19 21 20 2 21 1 22 22 23
REMARK H PARENT 7 13 22 24
REMARK Flexibility Score: inf
ROOT
ATOM      1  C   UNL     1     -30.182  54.085  15.283  1.00  0.00     0.010 C 
ENDROOT
BRANCH   1   2
ATOM      2  C   UNL     1     -29.389  55.347  14.911  1.00  0.00     0.005 C 
BRANCH   2   3
ATOM      3  C   UNL     1     -28.242  55.633  15.893  1.00  0.00     0.027 C 
BRANCH   3   4
ATOM      4  C   UNL     1     -27.424  56.812  15.442  1.00  0.00    -0.031 C 
ATOM      5  C   UNL     1     -26.762  57.586  16.320  1.00  0.00    -0.028 C 
BRANCH   5   6
ATOM      6  C   UNL     1     -25.920  58.768  15.896  1.00  0.00     0.005 C 
ATOM      7  C   UNL     1     -26.659  59.640  14.875  1.00  0.00     0.012 C 
ATOM      8  C   UNL     1     -25.464  59.591  17.104  1.00  0.00     0.012 C 
ENDBRANCH   5   6
ENDBRANCH   3   4
ENDBRANCH   2   3
ENDBRANCH   1   2
BRANCH   1   9
ATOM      9  C   UNL     1     -31.221  54.342  16.382  1.00  0.00     0.100 C 
BRANCH   9  10
ATOM     10  C   UNL     1     -32.060  55.532  16.026  1.00  0.00     0.220 C 
ATOM     11  O   UNL     1     -32.799  55.487  15.007  1.00  0.00    -0.275 OA
ATOM     12  N   UNL     1     -31.969  56.734  16.804  1.00  0.00    -0.352 N 
ATOM     13  H   UNL     1     -31.394  56.731  17.676  1.00  0.00     0.163 HD
BRANCH  12  14
ATOM     14  C   UNL     1     -32.535  58.001  16.351  1.00  0.00     0.151 C 
BRANCH  14  15
ATOM     15  C   UNL     1     -31.662  59.139  16.804  1.00  0.00    -0.025 A 
ATOM     16  C   UNL     1     -32.245  60.313  17.305  1.00  0.00     0.056 A 
ATOM     17  C   UNL     1     -30.266  59.013  16.790  1.00  0.00     0.009 A 
ATOM     18  C   UNL     1     -31.440  61.369  17.775  1.00  0.00     0.160 A 
ATOM     19  C   UNL     1     -29.462  60.055  17.254  1.00  0.00     0.050 A 
ATOM     20  C   UNL     1     -30.040  61.231  17.743  1.00  0.00     0.157 A 
BRANCH  18  21
ATOM     21  O   UNL     1     -31.993  62.557  18.280  1.00  0.00    -0.493 OA
ATOM     22  C   UNL     1     -33.332  62.984  18.053  1.00  0.00     0.278 C 
ENDBRANCH  18  21
BRANCH  20  23
ATOM     23  O   UNL     1     -29.205  62.253  18.197  1.00  0.00    -0.504 OA
ATOM     24  H   UNL     1     -29.322  63.215  17.902  1.00  0.00     0.293 HD
ENDBRANCH  20  23
ENDBRANCH  14  15
ENDBRANCH  12  14
ENDBRANCH   9  10
ENDBRANCH   1   9
TORSDOF 10
ENDMDL
