MODEL 1
REMARK VINA RESULT:    -2.400      0.000      0.000
REMARK INTER + INTRA:          -2.400
REMARK INTER:                  -2.400
REMARK INTRA:                   0.000
REMARK UNBOUND:                 0.000
REMARK SMILES CC(=O)[O-]
REMARK SMILES IDX 1 1 2 2 3 3 4 4
REMARK H PARENT
REMARK Flexibility Score: inf
ROOT
ATOM      1  C   UNL     1      61.154  28.151  24.690  1.00  0.00     0.063 C 
ATOM      2  C   UNL     1      60.455  27.192  25.592  1.00  0.00     0.038 C 
ATOM      3  O   UNL     1      59.424  26.587  25.195  1.00  0.00    -0.550 OA
ATOM      4  O   UNL     1      60.906  27.004  26.892  1.00  0.00    -0.550 OA
ENDROOT
TORSDOF 0
ENDMDL
MODEL 2
REMARK VINA RESULT:    -2.388     12.811     13.419
REMARK INTER + INTRA:          -2.388
REMARK INTER:                  -2.388
REMARK INTRA:                   0.000
REMARK UNBOUND:                 0.000
REMARK SMILES CC(=O)[O-]
REMARK SMILES IDX 1 1 2 2 3 3 4 4
REMARK H PARENT
REMARK Flexibility Score: inf
ROOT
ATOM      1  C   UNL     1      60.691  28.401  13.182  1.00  0.00     0.063 C 
ATOM      2  C   UNL     1      59.472  28.510  12.330  1.00  0.00     0.038 C 
ATOM      3  O   UNL     1      59.480  29.242  11.306  1.00  0.00    -0.550 OA
ATOM      4  O   UNL     1      58.307  27.846  12.693  1.00  0.00    -0.550 OA
ENDROOT
TORSDOF 0
ENDMDL
MODEL 3
REMARK VINA RESULT:    -2.259     12.778     13.245
REMARK INTER + INTRA:          -2.259
REMARK INTER:                  -2.259
REMARK INTRA:                   0.000
REMARK UNBOUND:                 0.000
REMARK SMILES CC(=O)[O-]
REMARK SMILES IDX 1 1 2 2 3 3 4 4
REMARK H PARENT
REMARK Flexibility Score: inf
ROOT
ATOM      1  C   UNL     1      59.677  29.255  11.269  1.00  0.00     0.063 C 
ATOM      2  C   UNL     1      59.468  28.391  12.466  1.00  0.00     0.038 C 
ATOM      3  O   UNL     1      58.362  27.818  12.646  1.00  0.00    -0.550 OA
ATOM      4  O   UNL     1      60.474  28.261  13.415  1.00  0.00    -0.550 OA
ENDROOT
TORSDOF 0
ENDMDL
MODEL 4
REMARK VINA RESULT:    -2.175      1.633      1.921
REMARK INTER + INTRA:          -2.175
REMARK INTER:                  -2.175
REMARK INTRA:                   0.000
REMARK UNBOUND:                 0.000
REMARK SMILES CC(=O)[O-]
REMARK SMILES IDX 1 1 2 2 3 3 4 4
REMARK H PARENT
REMARK Flexibility Score: inf
ROOT
ATOM      1  C   UNL     1      60.390  27.485  25.317  1.00  0.00     0.063 C 
ATOM      2  C   UNL     1      61.292  27.166  26.459  1.00  0.00     0.038 C 
ATOM      3  O   UNL     1      60.863  27.229  27.641  1.00  0.00    -0.550 OA
ATOM      4  O   UNL     1      62.625  26.850  26.226  1.00  0.00    -0.550 OA
ENDROOT
TORSDOF 0
ENDMDL
MODEL 5
REMARK VINA RESULT:    -2.174     13.851     14.514
REMARK INTER + INTRA:          -2.174
REMARK INTER:                  -2.174
REMARK INTRA:                   0.000
REMARK UNBOUND:                 0.000
REMARK SMILES CC(=O)[O-]
REMARK SMILES IDX 1 1 2 2 3 3 4 4
REMARK H PARENT
REMARK Flexibility Score: inf
ROOT
ATOM      1  C   UNL     1      59.289  28.256  12.502  1.00  0.00     0.063 C 
ATOM      2  C   UNL     1      59.677  29.188  11.406  1.00  0.00     0.038 C 
ATOM      3  O   UNL     1      59.991  30.378  11.670  1.00  0.00    -0.550 OA
ATOM      4  O   UNL     1      59.641  28.763  10.084  1.00  0.00    -0.550 OA
ENDROOT
TORSDOF 0
ENDMDL
MODEL 6
REMARK VINA RESULT:    -2.145      3.325      3.452
REMARK INTER + INTRA:          -2.145
REMARK INTER:                  -2.145
REMARK INTRA:                   0.000
REMARK UNBOUND:                 0.000
REMARK SMILES CC(=O)[O-]
REMARK SMILES IDX 1 1 2 2 3 3 4 4
REMARK H PARENT
REMARK Flexibility Score: inf
ROOT
ATOM      1  C   UNL     1      61.751  27.275  27.606  1.00  0.00     0.063 C 
ATOM      2  C   UNL     1      61.415  28.670  28.012  1.00  0.00     0.038 C 
ATOM      3  O   UNL     1      61.933  29.646  27.409  1.00  0.00    -0.550 OA
ATOM      4  O   UNL     1      60.572  28.897  29.093  1.00  0.00    -0.550 OA
ENDROOT
TORSDOF 0
ENDMDL
MODEL 7
REMARK VINA RESULT:    -2.128     15.342     15.779
REMARK INTER + INTRA:          -2.128
REMARK INTER:                  -2.128
REMARK INTRA:                   0.000
REMARK UNBOUND:                 0.000
REMARK SMILES CC(=O)[O-]
REMARK SMILES IDX 1 1 2 2 3 3 4 4
REMARK H PARENT
REMARK Flexibility Score: inf
ROOT
ATOM      1  C   UNL     1      60.049  29.290  10.467  1.00  0.00     0.063 C 
ATOM      2  C   UNL     1      61.179  28.501   9.899  1.00  0.00     0.038 C 
ATOM      3  O   UNL     1      60.987  27.737   8.918  1.00  0.00    -0.550 OA
ATOM      4  O   UNL     1      62.437  28.566  10.486  1.00  0.00    -0.550 OA
ENDROOT
TORSDOF 0
ENDMDL
MODEL 8
REMARK VINA RESULT:    -2.104      2.811      3.266
REMARK INTER + INTRA:          -2.104
REMARK INTER:                  -2.104
REMARK INTRA:                   0.000
REMARK UNBOUND:                 0.000
REMARK SMILES CC(=O)[O-]
REMARK SMILES IDX 1 1 2 2 3 3 4 4
REMARK H PARENT
REMARK Flexibility Score: inf
ROOT
ATOM      1  C   UNL     1      62.155  29.450  27.339  1.00  0.00     0.063 C 
ATOM      2  C   UNL     1      61.326  28.525  28.163  1.00  0.00     0.038 C 
ATOM      3  O   UNL     1      60.635  28.974  29.115  1.00  0.00    -0.550 OA
ATOM      4  O   UNL     1      61.355  27.158  27.918  1.00  0.00    -0.550 OA
ENDROOT
TORSDOF 0
ENDMDL
MODEL 9
REMARK VINA RESULT:    -2.063     15.123     15.572
REMARK INTER + INTRA:          -2.063
REMARK INTER:                  -2.063
REMARK INTRA:                   0.000
REMARK UNBOUND:                 0.000
REMARK SMILES CC(=O)[O-]
REMARK SMILES IDX 1 1 2 2 3 3 4 4
REMARK H PARENT
REMARK Flexibility Score: inf
ROOT
ATOM      1  C   UNL     1      61.621  28.561  10.273  1.00  0.00     0.063 C 
ATOM      2  C   UNL     1      60.186  28.944  10.148  1.00  0.00     0.038 C 
ATOM      3  O   UNL     1      59.508  28.543   9.166  1.00  0.00    -0.550 OA
ATOM      4  O   UNL     1      59.607  29.789  11.086  1.00  0.00    -0.550 OA
ENDROOT
TORSDOF 0
ENDMDL
