MODEL 1
REMARK VINA RESULT:    -2.439      0.000      0.000
REMARK INTER + INTRA:          -2.439
REMARK INTER:                  -2.439
REMARK INTRA:                   0.000
REMARK UNBOUND:                 0.000
REMARK SMILES CC(=O)[O-]
REMARK SMILES IDX 1 1 2 2 3 3 4 4
REMARK H PARENT
REMARK Flexibility Score: inf
ROOT
ATOM      1  C   UNL     1      16.084 -14.937 -17.182  1.00  0.00     0.063 C 
ATOM      2  C   UNL     1      17.107 -14.845 -16.101  1.00  0.00     0.038 C 
ATOM      3  O   UNL     1      16.863 -14.192 -15.054  1.00  0.00    -0.550 OA
ATOM      4  O   UNL     1      18.353 -15.434 -16.271  1.00  0.00    -0.550 OA
ENDROOT
TORSDOF 0
ENDMDL
MODEL 2
REMARK VINA RESULT:    -2.370      1.370      1.779
REMARK INTER + INTRA:          -2.370
REMARK INTER:                  -2.370
REMARK INTRA:                   0.000
REMARK UNBOUND:                 0.000
REMARK SMILES CC(=O)[O-]
REMARK SMILES IDX 1 1 2 2 3 3 4 4
REMARK H PARENT
REMARK Flexibility Score: inf
ROOT
ATOM      1  C   UNL     1      18.470 -15.707 -15.898  1.00  0.00     0.063 C 
ATOM      2  C   UNL     1      17.222 -14.894 -15.968  1.00  0.00     0.038 C 
ATOM      3  O   UNL     1      16.890 -14.161 -15.001  1.00  0.00    -0.550 OA
ATOM      4  O   UNL     1      16.393 -14.985 -17.079  1.00  0.00    -0.550 OA
ENDROOT
TORSDOF 0
ENDMDL
MODEL 3
REMARK VINA RESULT:    -2.365     12.999     13.308
REMARK INTER + INTRA:          -2.365
REMARK INTER:                  -2.365
REMARK INTRA:                   0.000
REMARK UNBOUND:                 0.000
REMARK SMILES CC(=O)[O-]
REMARK SMILES IDX 1 1 2 2 3 3 4 4
REMARK H PARENT
REMARK Flexibility Score: inf
ROOT
ATOM      1  C   UNL     1       5.838  -8.966 -11.894  1.00  0.00     0.063 C 
ATOM      2  C   UNL     1       5.990  -9.997 -10.828  1.00  0.00     0.038 C 
ATOM      3  O   UNL     1       5.089 -10.857 -10.647  1.00  0.00    -0.550 OA
ATOM      4  O   UNL     1       7.102  -9.979  -9.996  1.00  0.00    -0.550 OA
ENDROOT
TORSDOF 0
ENDMDL
MODEL 4
REMARK VINA RESULT:    -2.124     13.459     13.931
REMARK INTER + INTRA:          -2.124
REMARK INTER:                  -2.124
REMARK INTRA:                   0.000
REMARK UNBOUND:                 0.000
REMARK SMILES CC(=O)[O-]
REMARK SMILES IDX 1 1 2 2 3 3 4 4
REMARK H PARENT
REMARK Flexibility Score: inf
ROOT
ATOM      1  C   UNL     1       6.223  -9.818 -11.044  1.00  0.00     0.063 C 
ATOM      2  C   UNL     1       5.675  -8.578 -11.665  1.00  0.00     0.038 C 
ATOM      3  O   UNL     1       5.403  -8.554 -12.894  1.00  0.00    -0.550 OA
ATOM      4  O   UNL     1       5.515  -7.429 -10.902  1.00  0.00    -0.550 OA
ENDROOT
TORSDOF 0
ENDMDL
MODEL 5
REMARK VINA RESULT:    -2.011      9.886     10.312
REMARK INTER + INTRA:          -2.011
REMARK INTER:                  -2.011
REMARK INTRA:                   0.000
REMARK UNBOUND:                 0.000
REMARK SMILES CC(=O)[O-]
REMARK SMILES IDX 1 1 2 2 3 3 4 4
REMARK H PARENT
REMARK Flexibility Score: inf
ROOT
ATOM      1  C   UNL     1      23.585 -13.521  -7.254  1.00  0.00     0.063 C 
ATOM      2  C   UNL     1      23.656 -14.395  -8.460  1.00  0.00     0.038 C 
ATOM      3  O   UNL     1      22.800 -15.300  -8.635  1.00  0.00    -0.550 OA
ATOM      4  O   UNL     1      24.698 -14.248  -9.366  1.00  0.00    -0.550 OA
ENDROOT
TORSDOF 0
ENDMDL
MODEL 6
REMARK VINA RESULT:    -2.005     13.176     13.659
REMARK INTER + INTRA:          -2.005
REMARK INTER:                  -2.005
REMARK INTRA:                   0.000
REMARK UNBOUND:                 0.000
REMARK SMILES CC(=O)[O-]
REMARK SMILES IDX 1 1 2 2 3 3 4 4
REMARK H PARENT
REMARK Flexibility Score: inf
ROOT
ATOM      1  C   UNL     1       5.563  -8.095 -10.128  1.00  0.00     0.063 C 
ATOM      2  C   UNL     1       5.970  -9.045 -11.203  1.00  0.00     0.038 C 
ATOM      3  O   UNL     1       6.452 -10.169 -10.903  1.00  0.00    -0.550 OA
ATOM      4  O   UNL     1       5.869  -8.672 -12.536  1.00  0.00    -0.550 OA
ENDROOT
TORSDOF 0
ENDMDL
MODEL 7
REMARK VINA RESULT:    -1.981     11.778     12.266
REMARK INTER + INTRA:          -1.981
REMARK INTER:                  -1.981
REMARK INTRA:                   0.000
REMARK UNBOUND:                 0.000
REMARK SMILES CC(=O)[O-]
REMARK SMILES IDX 1 1 2 2 3 3 4 4
REMARK H PARENT
REMARK Flexibility Score: inf
ROOT
ATOM      1  C   UNL     1      24.749 -14.468  -5.730  1.00  0.00     0.063 C 
ATOM      2  C   UNL     1      24.004 -13.300  -6.283  1.00  0.00     0.038 C 
ATOM      3  O   UNL     1      24.023 -12.196  -5.680  1.00  0.00    -0.550 OA
ATOM      4  O   UNL     1      23.243 -13.443  -7.436  1.00  0.00    -0.550 OA
ENDROOT
TORSDOF 0
ENDMDL
MODEL 8
REMARK VINA RESULT:    -1.938     14.265     14.848
REMARK INTER + INTRA:          -1.938
REMARK INTER:                  -1.938
REMARK INTRA:                   0.000
REMARK UNBOUND:                 0.000
REMARK SMILES CC(=O)[O-]
REMARK SMILES IDX 1 1 2 2 3 3 4 4
REMARK H PARENT
REMARK Flexibility Score: inf
ROOT
ATOM      1  C   UNL     1       8.759  -6.324  -6.475  1.00  0.00     0.063 C 
ATOM      2  C   UNL     1      10.145  -5.813  -6.675  1.00  0.00     0.038 C 
ATOM      3  O   UNL     1      10.583  -4.876  -5.957  1.00  0.00    -0.550 OA
ATOM      4  O   UNL     1      10.939  -6.332  -7.689  1.00  0.00    -0.550 OA
ENDROOT
TORSDOF 0
ENDMDL
MODEL 9
REMARK VINA RESULT:    -1.886      8.318      8.653
REMARK INTER + INTRA:          -1.886
REMARK INTER:                  -1.886
REMARK INTRA:                   0.000
REMARK UNBOUND:                 0.000
REMARK SMILES CC(=O)[O-]
REMARK SMILES IDX 1 1 2 2 3 3 4 4
REMARK H PARENT
REMARK Flexibility Score: inf
ROOT
ATOM      1  C   UNL     1      16.237 -23.676 -17.764  1.00  0.00     0.063 C 
ATOM      2  C   UNL     1      14.995 -22.889 -17.518  1.00  0.00     0.038 C 
ATOM      3  O   UNL     1      14.281 -22.517 -18.485  1.00  0.00    -0.550 OA
ATOM      4  O   UNL     1      14.651 -22.517 -16.225  1.00  0.00    -0.550 OA
ENDROOT
TORSDOF 0
ENDMDL
