MODEL 1
REMARK VINA RESULT:    -1.075      0.000      0.000
REMARK INTER + INTRA:          -1.816
REMARK INTER:                  -1.389
REMARK INTRA:                  -0.427
REMARK UNBOUND:                -0.427
REMARK SMILES C=CC(=O)CCCCC
REMARK SMILES IDX 6 1 7 2 8 3 9 4 5 5 3 6 4 7 2 8 1 9
REMARK H PARENT
REMARK Flexibility Score: inf
ROOT
ATOM      1  C   UNL     1      91.045  26.537  13.910  1.00  0.00     0.008 C 
ENDROOT
BRANCH   1   2
ATOM      2  C   UNL     1      91.889  25.960  12.758  1.00  0.00     0.000 C 
BRANCH   2   3
ATOM      3  C   UNL     1      92.204  26.955  11.627  1.00  0.00    -0.003 C 
ATOM      4  C   UNL     1      92.306  28.400  12.113  1.00  0.00     0.004 C 
ENDBRANCH   2   3
ENDBRANCH   1   2
BRANCH   1   5
ATOM      5  C   UNL     1      91.442  25.974  15.281  1.00  0.00     0.080 C 
BRANCH   5   6
ATOM      6  C   UNL     1      91.723  27.088  16.244  1.00  0.00     0.155 C 
ATOM      7  O   UNL     1      92.153  26.813  17.398  1.00  0.00    -0.295 OA
BRANCH   6   8
ATOM      8  C   UNL     1      91.543  28.492  15.825  1.00  0.00     0.039 C 
ATOM      9  C   UNL     1      92.487  29.416  15.996  1.00  0.00     0.012 C 
ENDBRANCH   6   8
ENDBRANCH   5   6
ENDBRANCH   1   5
TORSDOF 5
ENDMDL
MODEL 2
REMARK VINA RESULT:    -1.047      1.794      3.725
REMARK INTER + INTRA:          -1.780
REMARK INTER:                  -1.184
REMARK INTRA:                  -0.596
REMARK UNBOUND:                -0.427
REMARK SMILES C=CC(=O)CCCCC
REMARK SMILES IDX 6 1 7 2 8 3 9 4 5 5 3 6 4 7 2 8 1 9
REMARK H PARENT
REMARK Flexibility Score: inf
ROOT
ATOM      1  C   UNL     1      92.121  29.297  17.454  1.00  0.00     0.008 C 
ENDROOT
BRANCH   1   2
ATOM      2  C   UNL     1      93.540  29.739  17.052  1.00  0.00     0.000 C 
BRANCH   2   3
ATOM      3  C   UNL     1      93.651  30.358  15.648  1.00  0.00    -0.003 C 
ATOM      4  C   UNL     1      92.400  31.130  15.234  1.00  0.00     0.004 C 
ENDBRANCH   2   3
ENDBRANCH   1   2
BRANCH   1   5
ATOM      5  C   UNL     1      92.013  27.786  17.697  1.00  0.00     0.080 C 
BRANCH   5   6
ATOM      6  C   UNL     1      91.710  27.068  16.415  1.00  0.00     0.155 C 
ATOM      7  O   UNL     1      92.172  25.909  16.232  1.00  0.00    -0.295 OA
BRANCH   6   8
ATOM      8  C   UNL     1      90.840  27.698  15.402  1.00  0.00     0.039 C 
ATOM      9  C   UNL     1      91.163  27.742  14.111  1.00  0.00     0.012 C 
ENDBRANCH   6   8
ENDBRANCH   5   6
ENDBRANCH   1   5
TORSDOF 5
ENDMDL
MODEL 3
REMARK VINA RESULT:    -1.022      3.504      4.443
REMARK INTER + INTRA:          -1.748
REMARK INTER:                  -1.130
REMARK INTRA:                  -0.617
REMARK UNBOUND:                -0.427
REMARK SMILES C=CC(=O)CCCCC
REMARK SMILES IDX 6 1 7 2 8 3 9 4 5 5 3 6 4 7 2 8 1 9
REMARK H PARENT
REMARK Flexibility Score: inf
ROOT
ATOM      1  C   UNL     1      94.326  30.975  13.309  1.00  0.00     0.008 C 
ENDROOT
BRANCH   1   2
ATOM      2  C   UNL     1      93.090  30.092  13.057  1.00  0.00     0.000 C 
BRANCH   2   3
ATOM      3  C   UNL     1      91.786  30.866  12.793  1.00  0.00    -0.003 C 
ATOM      4  C   UNL     1      90.806  30.802  13.963  1.00  0.00     0.004 C 
ENDBRANCH   2   3
ENDBRANCH   1   2
BRANCH   1   5
ATOM      5  C   UNL     1      95.004  30.682  14.654  1.00  0.00     0.080 C 
BRANCH   5   6
ATOM      6  C   UNL     1      94.104  31.067  15.790  1.00  0.00     0.155 C 
ATOM      7  O   UNL     1      93.612  32.228  15.823  1.00  0.00    -0.295 OA
BRANCH   6   8
ATOM      8  C   UNL     1      93.763  30.078  16.832  1.00  0.00     0.039 C 
ATOM      9  C   UNL     1      92.760  29.213  16.695  1.00  0.00     0.012 C 
ENDBRANCH   6   8
ENDBRANCH   5   6
ENDBRANCH   1   5
TORSDOF 5
ENDMDL
MODEL 4
REMARK VINA RESULT:    -1.004      3.277      4.074
REMARK INTER + INTRA:          -1.725
REMARK INTER:                  -1.144
REMARK INTRA:                  -0.580
REMARK UNBOUND:                -0.427
REMARK SMILES C=CC(=O)CCCCC
REMARK SMILES IDX 6 1 7 2 8 3 9 4 5 5 3 6 4 7 2 8 1 9
REMARK H PARENT
REMARK Flexibility Score: inf
ROOT
ATOM      1  C   UNL     1      92.239  25.875  10.117  1.00  0.00     0.008 C 
ENDROOT
BRANCH   1   2
ATOM      2  C   UNL     1      93.599  26.211   9.479  1.00  0.00     0.000 C 
BRANCH   2   3
ATOM      3  C   UNL     1      93.755  27.672   9.022  1.00  0.00    -0.003 C 
ATOM      4  C   UNL     1      92.456  28.275   8.492  1.00  0.00     0.004 C 
ENDBRANCH   2   3
ENDBRANCH   1   2
BRANCH   1   5
ATOM      5  C   UNL     1      92.198  26.166  11.622  1.00  0.00     0.080 C 
BRANCH   5   6
ATOM      6  C   UNL     1      91.300  27.333  11.907  1.00  0.00     0.155 C 
ATOM      7  O   UNL     1      90.100  27.300  11.518  1.00  0.00    -0.295 OA
BRANCH   6   8
ATOM      8  C   UNL     1      91.807  28.487  12.676  1.00  0.00     0.039 C 
ATOM      9  C   UNL     1      92.751  29.301  12.205  1.00  0.00     0.012 C 
ENDBRANCH   6   8
ENDBRANCH   5   6
ENDBRANCH   1   5
TORSDOF 5
ENDMDL
MODEL 5
REMARK VINA RESULT:    -0.992      1.905      3.250
REMARK INTER + INTRA:          -1.709
REMARK INTER:                  -1.288
REMARK INTRA:                  -0.421
REMARK UNBOUND:                -0.427
REMARK SMILES C=CC(=O)CCCCC
REMARK SMILES IDX 6 1 7 2 8 3 9 4 5 5 3 6 4 7 2 8 1 9
REMARK H PARENT
REMARK Flexibility Score: inf
ROOT
ATOM      1  C   UNL     1      92.719  30.416  14.517  1.00  0.00     0.008 C 
ENDROOT
BRANCH   1   2
ATOM      2  C   UNL     1      93.415  30.252  13.153  1.00  0.00     0.000 C 
BRANCH   2   3
ATOM      3  C   UNL     1      92.707  29.294  12.178  1.00  0.00    -0.003 C 
ATOM      4  C   UNL     1      91.671  28.404  12.861  1.00  0.00     0.004 C 
ENDBRANCH   2   3
ENDBRANCH   1   2
BRANCH   1   5
ATOM      5  C   UNL     1      93.700  30.380  15.695  1.00  0.00     0.080 C 
BRANCH   5   6
ATOM      6  C   UNL     1      93.170  29.506  16.793  1.00  0.00     0.155 C 
ATOM      7  O   UNL     1      93.721  29.536  17.927  1.00  0.00    -0.295 OA
BRANCH   6   8
ATOM      8  C   UNL     1      91.985  28.658  16.556  1.00  0.00     0.039 C 
ATOM      9  C   UNL     1      91.996  27.342  16.759  1.00  0.00     0.012 C 
ENDBRANCH   6   8
ENDBRANCH   5   6
ENDBRANCH   1   5
TORSDOF 5
ENDMDL
MODEL 6
REMARK VINA RESULT:    -0.980      4.065      5.544
REMARK INTER + INTRA:          -1.694
REMARK INTER:                  -1.103
REMARK INTRA:                  -0.590
REMARK UNBOUND:                -0.427
REMARK SMILES C=CC(=O)CCCCC
REMARK SMILES IDX 6 1 7 2 8 3 9 4 5 5 3 6 4 7 2 8 1 9
REMARK H PARENT
REMARK Flexibility Score: inf
ROOT
ATOM      1  C   UNL     1      91.574  27.845  11.799  1.00  0.00     0.008 C 
ENDROOT
BRANCH   1   2
ATOM      2  C   UNL     1      92.568  28.992  11.541  1.00  0.00     0.000 C 
BRANCH   2   3
ATOM      3  C   UNL     1      92.040  30.112  10.627  1.00  0.00    -0.003 C 
ATOM      4  C   UNL     1      92.487  29.960   9.175  1.00  0.00     0.004 C 
ENDBRANCH   2   3
ENDBRANCH   1   2
BRANCH   1   5
ATOM      5  C   UNL     1      92.161  26.464  11.484  1.00  0.00     0.080 C 
BRANCH   5   6
ATOM      6  C   UNL     1      92.295  26.275  10.002  1.00  0.00     0.155 C 
ATOM      7  O   UNL     1      91.301  26.501   9.258  1.00  0.00    -0.295 OA
BRANCH   6   8
ATOM      8  C   UNL     1      93.592  25.875   9.420  1.00  0.00     0.039 C 
ATOM      9  C   UNL     1      94.391  26.738   8.796  1.00  0.00     0.012 C 
ENDBRANCH   6   8
ENDBRANCH   5   6
ENDBRANCH   1   5
TORSDOF 5
ENDMDL
MODEL 7
REMARK VINA RESULT:    -0.968      2.119      3.051
REMARK INTER + INTRA:          -1.678
REMARK INTER:                  -1.235
REMARK INTRA:                  -0.443
REMARK UNBOUND:                -0.427
REMARK SMILES C=CC(=O)CCCCC
REMARK SMILES IDX 6 1 7 2 8 3 9 4 5 5 3 6 4 7 2 8 1 9
REMARK H PARENT
REMARK Flexibility Score: inf
ROOT
ATOM      1  C   UNL     1      91.540  29.507  15.057  1.00  0.00     0.008 C 
ENDROOT
BRANCH   1   2
ATOM      2  C   UNL     1      91.183  28.221  14.289  1.00  0.00     0.000 C 
BRANCH   2   3
ATOM      3  C   UNL     1      91.343  28.316  12.761  1.00  0.00    -0.003 C 
ATOM      4  C   UNL     1      92.507  29.208  12.336  1.00  0.00     0.004 C 
ENDBRANCH   2   3
ENDBRANCH   1   2
BRANCH   1   5
ATOM      5  C   UNL     1      92.275  29.230  16.374  1.00  0.00     0.080 C 
BRANCH   5   6
ATOM      6  C   UNL     1      93.543  30.028  16.446  1.00  0.00     0.155 C 
ATOM      7  O   UNL     1      94.264  29.952  17.478  1.00  0.00    -0.295 OA
BRANCH   6   8
ATOM      8  C   UNL     1      93.963  30.855  15.297  1.00  0.00     0.039 C 
ATOM      9  C   UNL     1      95.124  30.673  14.671  1.00  0.00     0.012 C 
ENDBRANCH   6   8
ENDBRANCH   5   6
ENDBRANCH   1   5
TORSDOF 5
ENDMDL
MODEL 8
REMARK VINA RESULT:    -0.963      2.776      4.290
REMARK INTER + INTRA:          -1.671
REMARK INTER:                  -1.048
REMARK INTRA:                  -0.624
REMARK UNBOUND:                -0.427
REMARK SMILES C=CC(=O)CCCCC
REMARK SMILES IDX 6 1 7 2 8 3 9 4 5 5 3 6 4 7 2 8 1 9
REMARK H PARENT
REMARK Flexibility Score: inf
ROOT
ATOM      1  C   UNL     1      94.540  30.505  16.009  1.00  0.00     0.008 C 
ENDROOT
BRANCH   1   2
ATOM      2  C   UNL     1      93.773  31.726  15.467  1.00  0.00     0.000 C 
BRANCH   2   3
ATOM      3  C   UNL     1      92.957  31.461  14.189  1.00  0.00    -0.003 C 
ATOM      4  C   UNL     1      93.549  30.353  13.320  1.00  0.00     0.004 C 
ENDBRANCH   2   3
ENDBRANCH   1   2
BRANCH   1   5
ATOM      5  C   UNL     1      94.137  30.135  17.442  1.00  0.00     0.080 C 
BRANCH   5   6
ATOM      6  C   UNL     1      92.715  29.658  17.480  1.00  0.00     0.155 C 
ATOM      7  O   UNL     1      91.858  30.321  18.125  1.00  0.00    -0.295 OA
BRANCH   6   8
ATOM      8  C   UNL     1      92.320  28.449  16.730  1.00  0.00     0.039 C 
ATOM      9  C   UNL     1      91.370  28.466  15.797  1.00  0.00     0.012 C 
ENDBRANCH   6   8
ENDBRANCH   5   6
ENDBRANCH   1   5
TORSDOF 5
ENDMDL
MODEL 9
REMARK VINA RESULT:    -0.937      3.710      5.352
REMARK INTER + INTRA:          -1.637
REMARK INTER:                  -1.038
REMARK INTRA:                  -0.599
REMARK UNBOUND:                -0.427
REMARK SMILES C=CC(=O)CCCCC
REMARK SMILES IDX 6 1 7 2 8 3 9 4 5 5 3 6 4 7 2 8 1 9
REMARK H PARENT
REMARK Flexibility Score: inf
ROOT
ATOM      1  C   UNL     1      92.801  29.856   9.281  1.00  0.00     0.008 C 
ENDROOT
BRANCH   1   2
ATOM      2  C   UNL     1      94.098  29.146   8.852  1.00  0.00     0.000 C 
BRANCH   2   3
ATOM      3  C   UNL     1      93.889  27.844   8.058  1.00  0.00    -0.003 C 
ATOM      4  C   UNL     1      94.683  26.667   8.619  1.00  0.00     0.004 C 
ENDBRANCH   2   3
ENDBRANCH   1   2
BRANCH   1   5
ATOM      5  C   UNL     1      91.818  28.922   9.998  1.00  0.00     0.080 C 
BRANCH   5   6
ATOM      6  C   UNL     1      92.374  28.491  11.323  1.00  0.00     0.155 C 
ATOM      7  O   UNL     1      92.781  29.365  12.136  1.00  0.00    -0.295 OA
BRANCH   6   8
ATOM      8  C   UNL     1      92.399  27.060  11.684  1.00  0.00     0.039 C 
ATOM      9  C   UNL     1      91.812  26.124  10.940  1.00  0.00     0.012 C 
ENDBRANCH   6   8
ENDBRANCH   5   6
ENDBRANCH   1   5
TORSDOF 5
ENDMDL
