MODEL 1
REMARK VINA RESULT:    -4.911      0.000      0.000
REMARK INTER + INTRA:          -5.747
REMARK INTER:                  -5.629
REMARK INTRA:                  -0.118
REMARK UNBOUND:                -0.118
REMARK SMILES O=C([O-])C=Cc1ccc(O)cc1
REMARK SMILES IDX 6 1 7 2 12 3 8 4 11 5 9 6 5 7 4 8 2 9 1 10 3 11 10 12
REMARK H PARENT 10 13
REMARK Flexibility Score: inf
ROOT
ATOM      1  C   UNL     1       9.031   3.793  -0.630  1.00  0.00    -0.025 A 
ATOM      2  C   UNL     1       8.755   5.120  -0.271  1.00  0.00     0.012 A 
ATOM      3  C   UNL     1       8.561   2.747   0.185  1.00  0.00     0.012 A 
ATOM      4  C   UNL     1       7.978   5.398   0.857  1.00  0.00     0.047 A 
ATOM      5  C   UNL     1       7.784   3.029   1.313  1.00  0.00     0.047 A 
ATOM      6  C   UNL     1       7.487   4.353   1.650  1.00  0.00     0.115 A 
ENDROOT
BRANCH   1   7
ATOM      7  C   UNL     1       9.899   3.524  -1.795  1.00  0.00     0.010 C 
ATOM      8  C   UNL     1       9.561   2.780  -2.860  1.00  0.00     0.025 C 
BRANCH   8   9
ATOM      9  C   UNL     1       8.211   2.260  -3.147  1.00  0.00     0.064 C 
ATOM     10  O   UNL     1       7.381   2.998  -3.740  1.00  0.00    -0.545 OA
ATOM     11  O   UNL     1       7.810   1.001  -2.716  1.00  0.00    -0.545 OA
ENDBRANCH   8   9
ENDBRANCH   1   7
BRANCH   6  12
ATOM     12  O   UNL     1       6.710   4.618   2.775  1.00  0.00    -0.508 OA
ATOM     13  H   UNL     1       5.886   4.070   2.991  1.00  0.00     0.293 HD
ENDBRANCH   6  12
TORSDOF 3
ENDMDL
MODEL 2
REMARK VINA RESULT:    -4.861      0.136      1.403
REMARK INTER + INTRA:          -5.690
REMARK INTER:                  -5.650
REMARK INTRA:                  -0.040
REMARK UNBOUND:                -0.118
REMARK SMILES O=C([O-])C=Cc1ccc(O)cc1
REMARK SMILES IDX 6 1 7 2 12 3 8 4 11 5 9 6 5 7 4 8 2 9 1 10 3 11 10 12
REMARK H PARENT 10 13
REMARK Flexibility Score: inf
ROOT
ATOM      1  C   UNL     1       9.184   3.808  -0.590  1.00  0.00    -0.025 A 
ATOM      2  C   UNL     1       8.572   2.769   0.126  1.00  0.00     0.012 A 
ATOM      3  C   UNL     1       8.913   5.142  -0.234  1.00  0.00     0.012 A 
ATOM      4  C   UNL     1       7.741   3.055   1.213  1.00  0.00     0.047 A 
ATOM      5  C   UNL     1       8.082   5.425   0.854  1.00  0.00     0.047 A 
ATOM      6  C   UNL     1       7.497   4.384   1.583  1.00  0.00     0.115 A 
ENDROOT
BRANCH   1   7
ATOM      7  C   UNL     1      10.015   3.485  -1.768  1.00  0.00     0.010 C 
ATOM      8  C   UNL     1       9.614   2.764  -2.826  1.00  0.00     0.025 C 
BRANCH   8   9
ATOM      9  C   UNL     1       8.230   2.331  -3.092  1.00  0.00     0.064 C 
ATOM     10  O   UNL     1       7.393   3.170  -3.519  1.00  0.00    -0.545 OA
ATOM     11  O   UNL     1       7.808   1.036  -2.815  1.00  0.00    -0.545 OA
ENDBRANCH   8   9
ENDBRANCH   1   7
BRANCH   6  12
ATOM     12  O   UNL     1       6.672   4.681   2.665  1.00  0.00    -0.508 OA
ATOM     13  H   UNL     1       5.735   4.303   2.736  1.00  0.00     0.293 HD
ENDBRANCH   6  12
TORSDOF 3
ENDMDL
MODEL 3
REMARK VINA RESULT:    -4.682     10.822     12.508
REMARK INTER + INTRA:          -5.485
REMARK INTER:                  -5.481
REMARK INTRA:                  -0.003
REMARK UNBOUND:                -0.118
REMARK SMILES O=C([O-])C=Cc1ccc(O)cc1
REMARK SMILES IDX 6 1 7 2 12 3 8 4 11 5 9 6 5 7 4 8 2 9 1 10 3 11 10 12
REMARK H PARENT 10 13
REMARK Flexibility Score: inf
ROOT
ATOM      1  C   UNL     1       4.391  -8.496  -2.304  1.00  0.00    -0.025 A 
ATOM      2  C   UNL     1       4.155  -7.343  -3.068  1.00  0.00     0.012 A 
ATOM      3  C   UNL     1       3.311  -9.125  -1.658  1.00  0.00     0.012 A 
ATOM      4  C   UNL     1       2.855  -6.855  -3.226  1.00  0.00     0.047 A 
ATOM      5  C   UNL     1       2.012  -8.634  -1.818  1.00  0.00     0.047 A 
ATOM      6  C   UNL     1       1.779  -7.501  -2.604  1.00  0.00     0.115 A 
ENDROOT
BRANCH   1   7
ATOM      7  C   UNL     1       5.778  -8.962  -2.107  1.00  0.00     0.010 C 
ATOM      8  C   UNL     1       6.725  -8.312  -1.413  1.00  0.00     0.025 C 
BRANCH   8   9
ATOM      9  C   UNL     1       6.503  -7.122  -0.571  1.00  0.00     0.064 C 
ATOM     10  O   UNL     1       7.348  -6.189  -0.588  1.00  0.00    -0.545 OA
ATOM     11  O   UNL     1       5.419  -7.037   0.296  1.00  0.00    -0.545 OA
ENDBRANCH   8   9
ENDBRANCH   1   7
BRANCH   6  12
ATOM     12  O   UNL     1       0.479  -7.025  -2.757  1.00  0.00    -0.508 OA
ATOM     13  H   UNL     1       0.000  -7.069  -3.649  1.00  0.00     0.293 HD
ENDBRANCH   6  12
TORSDOF 3
ENDMDL
MODEL 4
REMARK VINA RESULT:    -4.655      1.279      4.542
REMARK INTER + INTRA:          -5.454
REMARK INTER:                  -5.256
REMARK INTRA:                  -0.198
REMARK UNBOUND:                -0.118
REMARK SMILES O=C([O-])C=Cc1ccc(O)cc1
REMARK SMILES IDX 6 1 7 2 12 3 8 4 11 5 9 6 5 7 4 8 2 9 1 10 3 11 10 12
REMARK H PARENT 10 13
REMARK Flexibility Score: inf
ROOT
ATOM      1  C   UNL     1       9.163   4.727  -0.508  1.00  0.00    -0.025 A 
ATOM      2  C   UNL     1       8.321   5.438  -1.374  1.00  0.00     0.012 A 
ATOM      3  C   UNL     1       9.572   3.427  -0.859  1.00  0.00     0.012 A 
ATOM      4  C   UNL     1       7.932   4.881  -2.597  1.00  0.00     0.047 A 
ATOM      5  C   UNL     1       9.182   2.872  -2.081  1.00  0.00     0.047 A 
ATOM      6  C   UNL     1       8.366   3.597  -2.955  1.00  0.00     0.115 A 
ENDROOT
BRANCH   1   7
ATOM      7  C   UNL     1       9.517   5.313   0.801  1.00  0.00     0.010 C 
ATOM      8  C   UNL     1       8.719   5.343   1.880  1.00  0.00     0.025 C 
BRANCH   8   9
ATOM      9  C   UNL     1       7.432   4.635   2.012  1.00  0.00     0.064 C 
ATOM     10  O   UNL     1       6.396   5.290   2.303  1.00  0.00    -0.545 OA
ATOM     11  O   UNL     1       7.348   3.253   1.893  1.00  0.00    -0.545 OA
ENDBRANCH   8   9
ENDBRANCH   1   7
BRANCH   6  12
ATOM     12  O   UNL     1       7.987   3.033  -4.171  1.00  0.00    -0.508 OA
ATOM     13  H   UNL     1       7.043   2.699  -4.328  1.00  0.00     0.293 HD
ENDBRANCH   6  12
TORSDOF 3
ENDMDL
MODEL 5
REMARK VINA RESULT:    -4.538     15.310     16.842
REMARK INTER + INTRA:          -5.319
REMARK INTER:                  -5.047
REMARK INTRA:                  -0.272
REMARK UNBOUND:                -0.118
REMARK SMILES O=C([O-])C=Cc1ccc(O)cc1
REMARK SMILES IDX 6 1 7 2 12 3 8 4 11 5 9 6 5 7 4 8 2 9 1 10 3 11 10 12
REMARK H PARENT 10 13
REMARK Flexibility Score: inf
ROOT
ATOM      1  C   UNL     1      -4.554  -6.878  -4.905  1.00  0.00    -0.025 A 
ATOM      2  C   UNL     1      -3.773  -5.783  -4.509  1.00  0.00     0.012 A 
ATOM      3  C   UNL     1      -4.163  -8.176  -4.525  1.00  0.00     0.012 A 
ATOM      4  C   UNL     1      -2.646  -5.974  -3.703  1.00  0.00     0.047 A 
ATOM      5  C   UNL     1      -3.036  -8.364  -3.720  1.00  0.00     0.047 A 
ATOM      6  C   UNL     1      -2.277  -7.265  -3.303  1.00  0.00     0.115 A 
ENDROOT
BRANCH   1   7
ATOM      7  C   UNL     1      -5.709  -6.658  -5.800  1.00  0.00     0.010 C 
ATOM      8  C   UNL     1      -5.658  -6.629  -7.140  1.00  0.00     0.025 C 
BRANCH   8   9
ATOM      9  C   UNL     1      -4.488  -6.997  -7.960  1.00  0.00     0.064 C 
ATOM     10  O   UNL     1      -4.443  -8.138  -8.490  1.00  0.00    -0.545 OA
ATOM     11  O   UNL     1      -3.403  -6.141  -8.103  1.00  0.00    -0.545 OA
ENDBRANCH   8   9
ENDBRANCH   1   7
BRANCH   6  12
ATOM     12  O   UNL     1      -1.158  -7.467  -2.499  1.00  0.00    -0.508 OA
ATOM     13  H   UNL     1      -0.389  -8.055  -2.800  1.00  0.00     0.293 HD
ENDBRANCH   6  12
TORSDOF 3
ENDMDL
MODEL 6
REMARK VINA RESULT:    -4.512      1.776      2.371
REMARK INTER + INTRA:          -5.289
REMARK INTER:                  -5.031
REMARK INTRA:                  -0.258
REMARK UNBOUND:                -0.118
REMARK SMILES O=C([O-])C=Cc1ccc(O)cc1
REMARK SMILES IDX 6 1 7 2 12 3 8 4 11 5 9 6 5 7 4 8 2 9 1 10 3 11 10 12
REMARK H PARENT 10 13
REMARK Flexibility Score: inf
ROOT
ATOM      1  C   UNL     1       8.437   5.247  -0.504  1.00  0.00    -0.025 A 
ATOM      2  C   UNL     1       7.652   4.737   0.540  1.00  0.00     0.012 A 
ATOM      3  C   UNL     1       9.646   5.900  -0.201  1.00  0.00     0.012 A 
ATOM      4  C   UNL     1       8.093   4.830   1.864  1.00  0.00     0.047 A 
ATOM      5  C   UNL     1      10.083   5.992   1.123  1.00  0.00     0.047 A 
ATOM      6  C   UNL     1       9.311   5.455   2.159  1.00  0.00     0.115 A 
ENDROOT
BRANCH   1   7
ATOM      7  C   UNL     1       7.927   5.185  -1.889  1.00  0.00     0.010 C 
ATOM      8  C   UNL     1       8.096   4.156  -2.734  1.00  0.00     0.025 C 
BRANCH   8   9
ATOM      9  C   UNL     1       8.649   2.836  -2.375  1.00  0.00     0.064 C 
ATOM     10  O   UNL     1       9.800   2.520  -2.779  1.00  0.00    -0.545 OA
ATOM     11  O   UNL     1       7.903   1.906  -1.662  1.00  0.00    -0.545 OA
ENDBRANCH   8   9
ENDBRANCH   1   7
BRANCH   6  12
ATOM     12  O   UNL     1       9.761   5.552   3.473  1.00  0.00    -0.508 OA
ATOM     13  H   UNL     1       9.451   4.903   4.188  1.00  0.00     0.293 HD
ENDBRANCH   6  12
TORSDOF 3
ENDMDL
MODEL 7
REMARK VINA RESULT:    -4.486     15.465     17.022
REMARK INTER + INTRA:          -5.259
REMARK INTER:                  -5.038
REMARK INTRA:                  -0.221
REMARK UNBOUND:                -0.118
REMARK SMILES O=C([O-])C=Cc1ccc(O)cc1
REMARK SMILES IDX 6 1 7 2 12 3 8 4 11 5 9 6 5 7 4 8 2 9 1 10 3 11 10 12
REMARK H PARENT 10 13
REMARK Flexibility Score: inf
ROOT
ATOM      1  C   UNL     1      -4.687  -7.106  -4.931  1.00  0.00    -0.025 A 
ATOM      2  C   UNL     1      -4.149  -8.320  -4.480  1.00  0.00     0.012 A 
ATOM      3  C   UNL     1      -4.065  -5.899  -4.562  1.00  0.00     0.012 A 
ATOM      4  C   UNL     1      -2.979  -8.333  -3.714  1.00  0.00     0.047 A 
ATOM      5  C   UNL     1      -2.896  -5.915  -3.797  1.00  0.00     0.047 A 
ATOM      6  C   UNL     1      -2.347  -7.130  -3.373  1.00  0.00     0.115 A 
ENDROOT
BRANCH   1   7
ATOM      7  C   UNL     1      -5.952  -7.114  -5.694  1.00  0.00     0.010 C 
ATOM      8  C   UNL     1      -6.079  -6.797  -6.992  1.00  0.00     0.025 C 
BRANCH   8   9
ATOM      9  C   UNL     1      -4.964  -6.573  -7.931  1.00  0.00     0.064 C 
ATOM     10  O   UNL     1      -4.804  -5.430  -8.435  1.00  0.00    -0.545 OA
ATOM     11  O   UNL     1      -4.129  -7.611  -8.328  1.00  0.00    -0.545 OA
ENDBRANCH   8   9
ENDBRANCH   1   7
BRANCH   6  12
ATOM     12  O   UNL     1      -1.181  -7.131  -2.613  1.00  0.00    -0.508 OA
ATOM     13  H   UNL     1      -0.265  -7.102  -3.047  1.00  0.00     0.293 HD
ENDBRANCH   6  12
TORSDOF 3
ENDMDL
MODEL 8
REMARK VINA RESULT:    -4.409      2.278      5.408
REMARK INTER + INTRA:          -5.171
REMARK INTER:                  -4.911
REMARK INTRA:                  -0.260
REMARK UNBOUND:                -0.118
REMARK SMILES O=C([O-])C=Cc1ccc(O)cc1
REMARK SMILES IDX 6 1 7 2 12 3 8 4 11 5 9 6 5 7 4 8 2 9 1 10 3 11 10 12
REMARK H PARENT 10 13
REMARK Flexibility Score: inf
ROOT
ATOM      1  C   UNL     1       9.073   2.351  -3.606  1.00  0.00    -0.025 A 
ATOM      2  C   UNL     1       8.491   1.098  -3.367  1.00  0.00     0.012 A 
ATOM      3  C   UNL     1       8.764   3.038  -4.794  1.00  0.00     0.012 A 
ATOM      4  C   UNL     1       7.575   0.560  -4.276  1.00  0.00     0.047 A 
ATOM      5  C   UNL     1       7.848   2.498  -5.701  1.00  0.00     0.047 A 
ATOM      6  C   UNL     1       7.248   1.262  -5.444  1.00  0.00     0.115 A 
ENDROOT
BRANCH   1   7
ATOM      7  C   UNL     1      10.079   2.875  -2.659  1.00  0.00     0.010 C 
ATOM      8  C   UNL     1       9.811   3.614  -1.571  1.00  0.00     0.025 C 
BRANCH   8   9
ATOM      9  C   UNL     1       8.466   3.875  -1.024  1.00  0.00     0.064 C 
ATOM     10  O   UNL     1       7.979   5.033  -1.111  1.00  0.00    -0.545 OA
ATOM     11  O   UNL     1       7.753   2.890  -0.350  1.00  0.00    -0.545 OA
ENDBRANCH   8   9
ENDBRANCH   1   7
BRANCH   6  12
ATOM     12  O   UNL     1       6.335   0.737  -6.356  1.00  0.00    -0.508 OA
ATOM     13  H   UNL     1       5.376   0.543  -6.093  1.00  0.00     0.293 HD
ENDBRANCH   6  12
TORSDOF 3
ENDMDL
MODEL 9
REMARK VINA RESULT:    -4.392      2.947      6.447
REMARK INTER + INTRA:          -5.152
REMARK INTER:                  -4.861
REMARK INTRA:                  -0.290
REMARK UNBOUND:                -0.118
REMARK SMILES O=C([O-])C=Cc1ccc(O)cc1
REMARK SMILES IDX 6 1 7 2 12 3 8 4 11 5 9 6 5 7 4 8 2 9 1 10 3 11 10 12
REMARK H PARENT 10 13
REMARK Flexibility Score: inf
ROOT
ATOM      1  C   UNL     1       8.726   1.584  -5.102  1.00  0.00    -0.025 A 
ATOM      2  C   UNL     1       8.120   0.320  -5.057  1.00  0.00     0.012 A 
ATOM      3  C   UNL     1       8.344   2.495  -6.104  1.00  0.00     0.012 A 
ATOM      4  C   UNL     1       7.111  -0.012  -5.966  1.00  0.00     0.047 A 
ATOM      5  C   UNL     1       7.335   2.161  -7.011  1.00  0.00     0.047 A 
ATOM      6  C   UNL     1       6.713   0.910  -6.944  1.00  0.00     0.115 A 
ENDROOT
BRANCH   1   7
ATOM      7  C   UNL     1       9.827   1.893  -4.166  1.00  0.00     0.010 C 
ATOM      8  C   UNL     1       9.688   2.502  -2.978  1.00  0.00     0.025 C 
BRANCH   8   9
ATOM      9  C   UNL     1       8.406   2.797  -2.312  1.00  0.00     0.064 C 
ATOM     10  O   UNL     1       7.961   1.996  -1.448  1.00  0.00    -0.545 OA
ATOM     11  O   UNL     1       7.641   3.902  -2.667  1.00  0.00    -0.545 OA
ENDBRANCH   8   9
ENDBRANCH   1   7
BRANCH   6  12
ATOM     12  O   UNL     1       5.708   0.591  -7.853  1.00  0.00    -0.508 OA
ATOM     13  H   UNL     1       5.045  -0.154  -7.671  1.00  0.00     0.293 HD
ENDBRANCH   6  12
TORSDOF 3
ENDMDL
