MODEL 1
REMARK VINA RESULT:    -4.721      0.000      0.000
REMARK INTER + INTRA:          -5.460
REMARK INTER:                  -5.411
REMARK INTRA:                  -0.049
REMARK UNBOUND:                -0.049
REMARK SMILES O=C([O-])c1cc(O)c(O)c(O)c1
REMARK SMILES IDX 4 1 5 2 12 3 6 4 10 5 8 6 2 7 1 8 3 9 7 10 11 12 9 14
REMARK H PARENT 7 11 11 13 9 15
REMARK Flexibility Score: inf
ROOT
ATOM      1  C   UNL     1      71.526  48.215   4.353  1.00  0.00     0.005 A 
ATOM      2  C   UNL     1      71.609  47.202   3.383  1.00  0.00     0.060 A 
ATOM      3  C   UNL     1      72.318  48.116   5.511  1.00  0.00     0.060 A 
ATOM      4  C   UNL     1      72.467  46.109   3.564  1.00  0.00     0.162 A 
ATOM      5  C   UNL     1      73.178  47.025   5.697  1.00  0.00     0.162 A 
ATOM      6  C   UNL     1      73.253  46.018   4.720  1.00  0.00     0.200 A 
ENDROOT
BRANCH   1   7
ATOM      7  C   UNL     1      70.618  49.366   4.156  1.00  0.00     0.072 C 
ATOM      8  O   UNL     1      70.515  49.915   3.027  1.00  0.00    -0.545 OA
ATOM      9  O   UNL     1      69.865  49.859   5.216  1.00  0.00    -0.545 OA
ENDBRANCH   1   7
BRANCH   4  10
ATOM     10  O   UNL     1      72.545  45.108   2.597  1.00  0.00    -0.504 OA
ATOM     11  H   UNL     1      72.220  44.166   2.781  1.00  0.00     0.293 HD
ENDBRANCH   4  10
BRANCH   5  12
ATOM     12  O   UNL     1      73.959  46.939   6.849  1.00  0.00    -0.504 OA
ATOM     13  H   UNL     1      73.752  47.489   7.674  1.00  0.00     0.293 HD
ENDBRANCH   5  12
BRANCH   6  14
ATOM     14  O   UNL     1      74.102  44.923   4.882  1.00  0.00    -0.502 OA
ATOM     15  H   UNL     1      74.396  44.348   4.101  1.00  0.00     0.293 HD
ENDBRANCH   6  14
TORSDOF 4
ENDMDL
MODEL 2
REMARK VINA RESULT:    -4.694      0.027      2.422
REMARK INTER + INTRA:          -5.430
REMARK INTER:                  -5.381
REMARK INTRA:                  -0.049
REMARK UNBOUND:                -0.049
REMARK SMILES O=C([O-])c1cc(O)c(O)c(O)c1
REMARK SMILES IDX 4 1 5 2 12 3 6 4 10 5 8 6 2 7 1 8 3 9 7 10 11 12 9 14
REMARK H PARENT 7 11 11 13 9 15
REMARK Flexibility Score: inf
ROOT
ATOM      1  C   UNL     1      71.524  48.224   4.354  1.00  0.00     0.005 A 
ATOM      2  C   UNL     1      72.322  48.129   5.507  1.00  0.00     0.060 A 
ATOM      3  C   UNL     1      71.608  47.212   3.383  1.00  0.00     0.060 A 
ATOM      4  C   UNL     1      73.189  47.043   5.688  1.00  0.00     0.162 A 
ATOM      5  C   UNL     1      72.473  46.123   3.558  1.00  0.00     0.162 A 
ATOM      6  C   UNL     1      73.267  46.038   4.714  1.00  0.00     0.200 A 
ENDROOT
BRANCH   1   7
ATOM      7  C   UNL     1      70.611  49.374   4.171  1.00  0.00     0.072 C 
ATOM      8  O   UNL     1      70.508  49.936   3.049  1.00  0.00    -0.545 OA
ATOM      9  O   UNL     1      69.854  49.850   5.235  1.00  0.00    -0.545 OA
ENDBRANCH   1   7
BRANCH   4  10
ATOM     10  O   UNL     1      73.978  46.955   6.833  1.00  0.00    -0.504 OA
ATOM     11  H   UNL     1      74.972  46.771   6.780  1.00  0.00     0.293 HD
ENDBRANCH   4  10
BRANCH   5  12
ATOM     12  O   UNL     1      72.547  45.125   2.587  1.00  0.00    -0.504 OA
ATOM     13  H   UNL     1      71.925  44.326   2.598  1.00  0.00     0.293 HD
ENDBRANCH   5  12
BRANCH   6  14
ATOM     14  O   UNL     1      74.135  44.965   4.911  1.00  0.00    -0.502 OA
ATOM     15  H   UNL     1      73.804  44.011   4.994  1.00  0.00     0.293 HD
ENDBRANCH   6  14
TORSDOF 4
ENDMDL
MODEL 3
REMARK VINA RESULT:    -4.586      1.507      2.914
REMARK INTER + INTRA:          -5.306
REMARK INTER:                  -5.254
REMARK INTRA:                  -0.051
REMARK UNBOUND:                -0.049
REMARK SMILES O=C([O-])c1cc(O)c(O)c(O)c1
REMARK SMILES IDX 4 1 5 2 12 3 6 4 10 5 8 6 2 7 1 8 3 9 7 10 11 12 9 14
REMARK H PARENT 7 11 11 13 9 15
REMARK Flexibility Score: inf
ROOT
ATOM      1  C   UNL     1      72.819  47.649   6.011  1.00  0.00     0.005 A 
ATOM      2  C   UNL     1      71.973  47.917   4.922  1.00  0.00     0.060 A 
ATOM      3  C   UNL     1      73.621  46.495   5.983  1.00  0.00     0.060 A 
ATOM      4  C   UNL     1      71.927  47.049   3.823  1.00  0.00     0.162 A 
ATOM      5  C   UNL     1      73.579  45.622   4.887  1.00  0.00     0.162 A 
ATOM      6  C   UNL     1      72.729  45.900   3.803  1.00  0.00     0.200 A 
ENDROOT
BRANCH   1   7
ATOM      7  C   UNL     1      72.863  48.572   7.167  1.00  0.00     0.072 C 
ATOM      8  O   UNL     1      73.878  48.618   7.911  1.00  0.00    -0.545 OA
ATOM      9  O   UNL     1      71.782  49.399   7.450  1.00  0.00    -0.545 OA
ENDBRANCH   1   7
BRANCH   4  10
ATOM     10  O   UNL     1      71.085  47.320   2.746  1.00  0.00    -0.504 OA
ATOM     11  H   UNL     1      70.090  47.141   2.791  1.00  0.00     0.293 HD
ENDBRANCH   4  10
BRANCH   5  12
ATOM     12  O   UNL     1      74.379  44.480   4.871  1.00  0.00    -0.504 OA
ATOM     13  H   UNL     1      75.390  44.540   4.869  1.00  0.00     0.293 HD
ENDBRANCH   5  12
BRANCH   6  14
ATOM     14  O   UNL     1      72.669  45.047   2.702  1.00  0.00    -0.502 OA
ATOM     15  H   UNL     1      73.381  45.046   1.981  1.00  0.00     0.293 HD
ENDBRANCH   6  14
TORSDOF 4
ENDMDL
MODEL 4
REMARK VINA RESULT:    -4.569     12.330     14.362
REMARK INTER + INTRA:          -5.286
REMARK INTER:                  -5.233
REMARK INTRA:                  -0.053
REMARK UNBOUND:                -0.049
REMARK SMILES O=C([O-])c1cc(O)c(O)c(O)c1
REMARK SMILES IDX 4 1 5 2 12 3 6 4 10 5 8 6 2 7 1 8 3 9 7 10 11 12 9 14
REMARK H PARENT 7 11 11 13 9 15
REMARK Flexibility Score: inf
ROOT
ATOM      1  C   UNL     1      73.707  41.094  -6.921  1.00  0.00     0.005 A 
ATOM      2  C   UNL     1      74.520  40.944  -8.057  1.00  0.00     0.060 A 
ATOM      3  C   UNL     1      72.620  40.221  -6.741  1.00  0.00     0.060 A 
ATOM      4  C   UNL     1      74.255  39.941  -8.998  1.00  0.00     0.162 A 
ATOM      5  C   UNL     1      72.350  39.214  -7.679  1.00  0.00     0.162 A 
ATOM      6  C   UNL     1      73.170  39.074  -8.811  1.00  0.00     0.200 A 
ENDROOT
BRANCH   1   7
ATOM      7  C   UNL     1      73.993  42.157  -5.932  1.00  0.00     0.072 C 
ATOM      8  O   UNL     1      74.902  43.001  -6.145  1.00  0.00    -0.545 OA
ATOM      9  O   UNL     1      73.262  42.236  -4.752  1.00  0.00    -0.545 OA
ENDBRANCH   1   7
BRANCH   4  10
ATOM     10  O   UNL     1      75.065  39.797 -10.122  1.00  0.00    -0.504 OA
ATOM     11  H   UNL     1      75.048  38.956 -10.686  1.00  0.00     0.293 HD
ENDBRANCH   4  10
BRANCH   5  12
ATOM     12  O   UNL     1      71.269  38.354  -7.490  1.00  0.00    -0.504 OA
ATOM     13  H   UNL     1      70.565  38.219  -8.206  1.00  0.00     0.293 HD
ENDBRANCH   5  12
BRANCH   6  14
ATOM     14  O   UNL     1      72.921  38.081  -9.758  1.00  0.00    -0.502 OA
ATOM     15  H   UNL     1      72.154  37.426  -9.664  1.00  0.00     0.293 HD
ENDBRANCH   6  14
TORSDOF 4
ENDMDL
MODEL 5
REMARK VINA RESULT:    -4.538      1.422      3.210
REMARK INTER + INTRA:          -5.250
REMARK INTER:                  -5.199
REMARK INTRA:                  -0.051
REMARK UNBOUND:                -0.049
REMARK SMILES O=C([O-])c1cc(O)c(O)c(O)c1
REMARK SMILES IDX 4 1 5 2 12 3 6 4 10 5 8 6 2 7 1 8 3 9 7 10 11 12 9 14
REMARK H PARENT 7 11 11 13 9 15
REMARK Flexibility Score: inf
ROOT
ATOM      1  C   UNL     1      72.649  47.753   5.988  1.00  0.00     0.005 A 
ATOM      2  C   UNL     1      73.447  46.597   5.981  1.00  0.00     0.060 A 
ATOM      3  C   UNL     1      71.839  48.029   4.873  1.00  0.00     0.060 A 
ATOM      4  C   UNL     1      73.437  45.730   4.881  1.00  0.00     0.162 A 
ATOM      5  C   UNL     1      71.826  47.165   3.769  1.00  0.00     0.162 A 
ATOM      6  C   UNL     1      72.627  46.011   3.773  1.00  0.00     0.200 A 
ENDROOT
BRANCH   1   7
ATOM      7  C   UNL     1      72.664  48.664   7.155  1.00  0.00     0.072 C 
ATOM      8  O   UNL     1      73.656  48.696   7.929  1.00  0.00    -0.545 OA
ATOM      9  O   UNL     1      71.581  49.497   7.412  1.00  0.00    -0.545 OA
ENDBRANCH   1   7
BRANCH   4  10
ATOM     10  O   UNL     1      74.231  44.584   4.880  1.00  0.00    -0.504 OA
ATOM     11  H   UNL     1      75.219  44.622   5.100  1.00  0.00     0.293 HD
ENDBRANCH   4  10
BRANCH   5  12
ATOM     12  O   UNL     1      71.018  47.449   2.669  1.00  0.00    -0.504 OA
ATOM     13  H   UNL     1      70.010  47.510   2.751  1.00  0.00     0.293 HD
ENDBRANCH   5  12
BRANCH   6  14
ATOM     14  O   UNL     1      72.631  45.137   2.686  1.00  0.00    -0.502 OA
ATOM     15  H   UNL     1      72.432  44.149   2.788  1.00  0.00     0.293 HD
ENDBRANCH   6  14
TORSDOF 4
ENDMDL
MODEL 6
REMARK VINA RESULT:    -4.453      1.477      2.946
REMARK INTER + INTRA:          -5.153
REMARK INTER:                  -5.101
REMARK INTRA:                  -0.052
REMARK UNBOUND:                -0.049
REMARK SMILES O=C([O-])c1cc(O)c(O)c(O)c1
REMARK SMILES IDX 4 1 5 2 12 3 6 4 10 5 8 6 2 7 1 8 3 9 7 10 11 12 9 14
REMARK H PARENT 7 11 11 13 9 15
REMARK Flexibility Score: inf
ROOT
ATOM      1  C   UNL     1      70.985  48.912   4.075  1.00  0.00     0.005 A 
ATOM      2  C   UNL     1      70.509  48.978   5.395  1.00  0.00     0.060 A 
ATOM      3  C   UNL     1      72.017  48.009   3.767  1.00  0.00     0.060 A 
ATOM      4  C   UNL     1      71.054  48.159   6.392  1.00  0.00     0.162 A 
ATOM      5  C   UNL     1      72.566  47.187   4.762  1.00  0.00     0.162 A 
ATOM      6  C   UNL     1      72.083  47.262   6.078  1.00  0.00     0.200 A 
ENDROOT
BRANCH   1   7
ATOM      7  C   UNL     1      70.404  49.780   3.026  1.00  0.00     0.072 C 
ATOM      8  O   UNL     1      69.766  50.820   3.337  1.00  0.00    -0.545 OA
ATOM      9  O   UNL     1      70.554  49.458   1.682  1.00  0.00    -0.545 OA
ENDBRANCH   1   7
BRANCH   4  10
ATOM     10  O   UNL     1      70.577  48.231   7.700  1.00  0.00    -0.504 OA
ATOM     11  H   UNL     1      71.205  48.237   8.495  1.00  0.00     0.293 HD
ENDBRANCH   4  10
BRANCH   5  12
ATOM     12  O   UNL     1      73.590  46.295   4.445  1.00  0.00    -0.504 OA
ATOM     13  H   UNL     1      74.462  46.610   4.036  1.00  0.00     0.293 HD
ENDBRANCH   5  12
BRANCH   6  14
ATOM     14  O   UNL     1      72.613  46.455   7.085  1.00  0.00    -0.502 OA
ATOM     15  H   UNL     1      73.530  46.031   7.009  1.00  0.00     0.293 HD
ENDBRANCH   6  14
TORSDOF 4
ENDMDL
MODEL 7
REMARK VINA RESULT:    -4.425      2.815      4.627
REMARK INTER + INTRA:          -5.121
REMARK INTER:                  -5.069
REMARK INTRA:                  -0.052
REMARK UNBOUND:                -0.049
REMARK SMILES O=C([O-])c1cc(O)c(O)c(O)c1
REMARK SMILES IDX 4 1 5 2 12 3 6 4 10 5 8 6 2 7 1 8 3 9 7 10 11 12 9 14
REMARK H PARENT 7 11 11 13 9 15
REMARK Flexibility Score: inf
ROOT
ATOM      1  C   UNL     1      71.753  48.487   6.055  1.00  0.00     0.005 A 
ATOM      2  C   UNL     1      70.398  48.722   6.340  1.00  0.00     0.060 A 
ATOM      3  C   UNL     1      72.708  48.693   7.066  1.00  0.00     0.060 A 
ATOM      4  C   UNL     1      70.000  49.157   7.612  1.00  0.00     0.162 A 
ATOM      5  C   UNL     1      72.316  49.127   8.341  1.00  0.00     0.162 A 
ATOM      6  C   UNL     1      70.957  49.360   8.614  1.00  0.00     0.200 A 
ENDROOT
BRANCH   1   7
ATOM      7  C   UNL     1      72.166  48.029   4.710  1.00  0.00     0.072 C 
ATOM      8  O   UNL     1      73.263  47.433   4.545  1.00  0.00    -0.545 OA
ATOM      9  O   UNL     1      71.347  48.250   3.609  1.00  0.00    -0.545 OA
ENDBRANCH   1   7
BRANCH   4  10
ATOM     10  O   UNL     1      68.654  49.389   7.888  1.00  0.00    -0.504 OA
ATOM     11  H   UNL     1      68.018  49.734   7.179  1.00  0.00     0.293 HD
ENDBRANCH   4  10
BRANCH   5  12
ATOM     12  O   UNL     1      73.272  49.328   9.336  1.00  0.00    -0.504 OA
ATOM     13  H   UNL     1      73.905  50.118   9.313  1.00  0.00     0.293 HD
ENDBRANCH   5  12
BRANCH   6  14
ATOM     14  O   UNL     1      70.543  49.792   9.874  1.00  0.00    -0.502 OA
ATOM     15  H   UNL     1      70.346  50.766  10.072  1.00  0.00     0.293 HD
ENDBRANCH   6  14
TORSDOF 4
ENDMDL
MODEL 8
REMARK VINA RESULT:    -4.412      2.895      4.957
REMARK INTER + INTRA:          -5.105
REMARK INTER:                  -5.055
REMARK INTRA:                  -0.051
REMARK UNBOUND:                -0.049
REMARK SMILES O=C([O-])c1cc(O)c(O)c(O)c1
REMARK SMILES IDX 4 1 5 2 12 3 6 4 10 5 8 6 2 7 1 8 3 9 7 10 11 12 9 14
REMARK H PARENT 7 11 11 13 9 15
REMARK Flexibility Score: inf
ROOT
ATOM      1  C   UNL     1      71.619  48.511   6.120  1.00  0.00     0.005 A 
ATOM      2  C   UNL     1      72.602  48.687   7.108  1.00  0.00     0.060 A 
ATOM      3  C   UNL     1      70.270  48.713   6.458  1.00  0.00     0.060 A 
ATOM      4  C   UNL     1      72.246  49.056   8.412  1.00  0.00     0.162 A 
ATOM      5  C   UNL     1      69.907  49.083   7.761  1.00  0.00     0.162 A 
ATOM      6  C   UNL     1      70.898  49.256   8.741  1.00  0.00     0.200 A 
ENDROOT
BRANCH   1   7
ATOM      7  C   UNL     1      72.003  48.120   4.746  1.00  0.00     0.072 C 
ATOM      8  O   UNL     1      71.285  48.446   3.764  1.00  0.00    -0.545 OA
ATOM      9  O   UNL     1      73.162  47.387   4.519  1.00  0.00    -0.545 OA
ENDBRANCH   1   7
BRANCH   4  10
ATOM     10  O   UNL     1      73.226  49.229   9.388  1.00  0.00    -0.504 OA
ATOM     11  H   UNL     1      74.061  49.773   9.212  1.00  0.00     0.293 HD
ENDBRANCH   4  10
BRANCH   5  12
ATOM     12  O   UNL     1      68.565  49.280   8.083  1.00  0.00    -0.504 OA
ATOM     13  H   UNL     1      67.842  48.650   7.758  1.00  0.00     0.293 HD
ENDBRANCH   5  12
BRANCH   6  14
ATOM     14  O   UNL     1      70.563  49.623  10.044  1.00  0.00    -0.502 OA
ATOM     15  H   UNL     1      70.462  48.942  10.787  1.00  0.00     0.293 HD
ENDBRANCH   6  14
TORSDOF 4
ENDMDL
MODEL 9
REMARK VINA RESULT:    -4.402      2.317      3.947
REMARK INTER + INTRA:          -5.094
REMARK INTER:                  -5.043
REMARK INTRA:                  -0.051
REMARK UNBOUND:                -0.049
REMARK SMILES O=C([O-])c1cc(O)c(O)c(O)c1
REMARK SMILES IDX 4 1 5 2 12 3 6 4 10 5 8 6 2 7 1 8 3 9 7 10 11 12 9 14
REMARK H PARENT 7 11 11 13 9 15
REMARK Flexibility Score: inf
ROOT
ATOM      1  C   UNL     1      70.659  48.937   5.198  1.00  0.00     0.005 A 
ATOM      2  C   UNL     1      71.730  48.210   5.744  1.00  0.00     0.060 A 
ATOM      3  C   UNL     1      69.579  49.285   6.028  1.00  0.00     0.060 A 
ATOM      4  C   UNL     1      71.723  47.834   7.094  1.00  0.00     0.162 A 
ATOM      5  C   UNL     1      69.567  48.912   7.379  1.00  0.00     0.162 A 
ATOM      6  C   UNL     1      70.643  48.184   7.914  1.00  0.00     0.200 A 
ENDROOT
BRANCH   1   7
ATOM      7  C   UNL     1      70.673  49.331   3.772  1.00  0.00     0.072 C 
ATOM      8  O   UNL     1      71.366  48.691   2.938  1.00  0.00    -0.545 OA
ATOM      9  O   UNL     1      69.921  50.414   3.333  1.00  0.00    -0.545 OA
ENDBRANCH   1   7
BRANCH   4  10
ATOM     10  O   UNL     1      72.789  47.111   7.629  1.00  0.00    -0.504 OA
ATOM     11  H   UNL     1      73.396  46.550   7.044  1.00  0.00     0.293 HD
ENDBRANCH   4  10
BRANCH   5  12
ATOM     12  O   UNL     1      68.490  49.263   8.192  1.00  0.00    -0.504 OA
ATOM     13  H   UNL     1      68.067  50.183   8.146  1.00  0.00     0.293 HD
ENDBRANCH   5  12
BRANCH   6  14
ATOM     14  O   UNL     1      70.654  47.801   9.255  1.00  0.00    -0.502 OA
ATOM     15  H   UNL     1      70.440  48.451  10.003  1.00  0.00     0.293 HD
ENDBRANCH   6  14
TORSDOF 4
ENDMDL
