MODEL 1
REMARK VINA RESULT:    -4.987      0.000      0.000
REMARK INTER + INTRA:          -6.275
REMARK INTER:                  -6.007
REMARK INTRA:                  -0.267
REMARK UNBOUND:                -0.267
REMARK SMILES NC(=O)C[C@@H]([NH3+])C(=O)[O-]
REMARK SMILES IDX 4 1 5 2 6 3 7 7 8 8 9 9 2 10 3 11 1 12
REMARK H PARENT 6 4 6 5 6 6 1 13 1 14
REMARK Flexibility Score: inf
ROOT
ATOM      1  C   UNL     1      66.753  27.266  35.471  1.00  0.00     0.171 C 
ENDROOT
BRANCH   1   2
ATOM      2  C   UNL     1      65.631  27.656  36.454  1.00  0.00     0.237 C 
BRANCH   2   3
ATOM      3  N   UNL     1      65.364  29.100  36.416  1.00  0.00    -0.350 N 
ATOM      4  H   UNL     1      64.355  29.274  36.207  1.00  0.00     0.345 HD
ATOM      5  H   UNL     1      65.608  29.548  37.330  1.00  0.00     0.345 HD
ATOM      6  H   UNL     1      65.930  29.545  35.656  1.00  0.00     0.345 HD
ENDBRANCH   2   3
BRANCH   2   7
ATOM      7  C   UNL     1      64.379  26.889  36.124  1.00  0.00     0.100 C 
ATOM      8  O   UNL     1      64.359  25.634  36.229  1.00  0.00    -0.544 OA
ATOM      9  O   UNL     1      63.242  27.558  35.686  1.00  0.00    -0.544 OA
ENDBRANCH   2   7
ENDBRANCH   1   2
BRANCH   1  10
ATOM     10  C   UNL     1      67.800  26.417  36.131  1.00  0.00     0.223 C 
ATOM     11  O   UNL     1      68.868  26.943  36.542  1.00  0.00    -0.275 OA
ATOM     12  N   UNL     1      67.580  25.020  36.324  1.00  0.00    -0.369 N 
ATOM     13  H   UNL     1      66.694  24.570  35.999  1.00  0.00     0.159 HD
ATOM     14  H   UNL     1      68.302  24.432  36.794  1.00  0.00     0.159 HD
ENDBRANCH   1  10
TORSDOF 4
ENDMDL
MODEL 2
REMARK VINA RESULT:    -4.890      1.430      4.044
REMARK INTER + INTRA:          -6.159
REMARK INTER:                  -5.903
REMARK INTRA:                  -0.256
REMARK UNBOUND:                -0.267
REMARK SMILES NC(=O)C[C@@H]([NH3+])C(=O)[O-]
REMARK SMILES IDX 4 1 5 2 6 3 7 7 8 8 9 9 2 10 3 11 1 12
REMARK H PARENT 6 4 6 5 6 6 1 13 1 14
REMARK Flexibility Score: inf
ROOT
ATOM      1  C   UNL     1      65.806  27.862  35.513  1.00  0.00     0.171 C 
ENDROOT
BRANCH   1   2
ATOM      2  C   UNL     1      66.253  26.780  36.517  1.00  0.00     0.237 C 
BRANCH   2   3
ATOM      3  N   UNL     1      65.308  25.657  36.551  1.00  0.00    -0.350 N 
ATOM      4  H   UNL     1      65.647  24.921  37.212  1.00  0.00     0.345 HD
ATOM      5  H   UNL     1      64.359  25.979  36.853  1.00  0.00     0.345 HD
ATOM      6  H   UNL     1      65.236  25.225  35.600  1.00  0.00     0.345 HD
ENDBRANCH   2   3
BRANCH   2   7
ATOM      7  C   UNL     1      67.628  26.289  36.152  1.00  0.00     0.100 C 
ATOM      8  O   UNL     1      67.771  25.180  35.572  1.00  0.00    -0.544 OA
ATOM      9  O   UNL     1      68.750  27.048  36.464  1.00  0.00    -0.544 OA
ENDBRANCH   2   7
ENDBRANCH   1   2
BRANCH   1  10
ATOM     10  C   UNL     1      64.551  28.552  35.961  1.00  0.00     0.223 C 
ATOM     11  O   UNL     1      63.453  27.935  35.938  1.00  0.00    -0.275 OA
ATOM     12  N   UNL     1      64.598  29.894  36.444  1.00  0.00    -0.369 N 
ATOM     13  H   UNL     1      65.503  30.415  36.481  1.00  0.00     0.159 HD
ATOM     14  H   UNL     1      63.728  30.369  36.768  1.00  0.00     0.159 HD
ENDBRANCH   1  10
TORSDOF 4
ENDMDL
MODEL 3
REMARK VINA RESULT:    -4.340     14.247     15.366
REMARK INTER + INTRA:          -5.495
REMARK INTER:                  -5.248
REMARK INTRA:                  -0.247
REMARK UNBOUND:                -0.267
REMARK SMILES NC(=O)C[C@@H]([NH3+])C(=O)[O-]
REMARK SMILES IDX 4 1 5 2 6 3 7 7 8 8 9 9 2 10 3 11 1 12
REMARK H PARENT 6 4 6 5 6 6 1 13 1 14
REMARK Flexibility Score: inf
ROOT
ATOM      1  C   UNL     1      59.559  14.203  32.230  1.00  0.00     0.171 C 
ENDROOT
BRANCH   1   2
ATOM      2  C   UNL     1      59.908  15.173  31.083  1.00  0.00     0.237 C 
BRANCH   2   3
ATOM      3  N   UNL     1      60.970  16.109  31.478  1.00  0.00    -0.350 N 
ATOM      4  H   UNL     1      60.570  17.061  31.634  1.00  0.00     0.345 HD
ATOM      5  H   UNL     1      61.443  15.785  32.354  1.00  0.00     0.345 HD
ATOM      6  H   UNL     1      61.681  16.181  30.713  1.00  0.00     0.345 HD
ENDBRANCH   2   3
BRANCH   2   7
ATOM      7  C   UNL     1      60.332  14.391  29.870  1.00  0.00     0.100 C 
ATOM      8  O   UNL     1      60.927  14.966  28.921  1.00  0.00    -0.544 OA
ATOM      9  O   UNL     1      60.057  13.031  29.781  1.00  0.00    -0.544 OA
ENDBRANCH   2   7
ENDBRANCH   1   2
BRANCH   1  10
ATOM     10  C   UNL     1      58.076  14.083  32.424  1.00  0.00     0.223 C 
ATOM     11  O   UNL     1      57.506  14.743  33.332  1.00  0.00    -0.275 OA
ATOM     12  N   UNL     1      57.301  13.247  31.565  1.00  0.00    -0.369 N 
ATOM     13  H   UNL     1      57.757  12.701  30.799  1.00  0.00     0.159 HD
ATOM     14  H   UNL     1      56.268  13.172  31.692  1.00  0.00     0.159 HD
ENDBRANCH   1  10
TORSDOF 4
ENDMDL
MODEL 4
REMARK VINA RESULT:    -4.270     14.748     15.934
REMARK INTER + INTRA:          -5.411
REMARK INTER:                  -5.304
REMARK INTRA:                  -0.107
REMARK UNBOUND:                -0.267
REMARK SMILES NC(=O)C[C@@H]([NH3+])C(=O)[O-]
REMARK SMILES IDX 4 1 5 2 6 3 7 7 8 8 9 9 2 10 3 11 1 12
REMARK H PARENT 6 4 6 5 6 6 1 13 1 14
REMARK Flexibility Score: inf
ROOT
ATOM      1  C   UNL     1      58.636  14.385  32.495  1.00  0.00     0.171 C 
ENDROOT
BRANCH   1   2
ATOM      2  C   UNL     1      59.662  14.451  31.346  1.00  0.00     0.237 C 
BRANCH   2   3
ATOM      3  N   UNL     1      60.494  15.658  31.439  1.00  0.00    -0.350 N 
ATOM      4  H   UNL     1      60.104  16.412  30.829  1.00  0.00     0.345 HD
ATOM      5  H   UNL     1      60.540  16.002  32.426  1.00  0.00     0.345 HD
ATOM      6  H   UNL     1      61.464  15.446  31.106  1.00  0.00     0.345 HD
ENDBRANCH   2   3
BRANCH   2   7
ATOM      7  C   UNL     1      60.529  13.221  31.370  1.00  0.00     0.100 C 
ATOM      8  O   UNL     1      60.328  12.288  30.548  1.00  0.00    -0.544 OA
ATOM      9  O   UNL     1      61.546  13.099  32.310  1.00  0.00    -0.544 OA
ENDBRANCH   2   7
ENDBRANCH   1   2
BRANCH   1  10
ATOM     10  C   UNL     1      57.317  13.841  32.033  1.00  0.00     0.223 C 
ATOM     11  O   UNL     1      57.178  12.602  31.852  1.00  0.00    -0.275 OA
ATOM     12  N   UNL     1      56.207  14.715  31.827  1.00  0.00    -0.369 N 
ATOM     13  H   UNL     1      56.303  15.743  31.985  1.00  0.00     0.159 HD
ATOM     14  H   UNL     1      55.286  14.334  31.518  1.00  0.00     0.159 HD
ENDBRANCH   1  10
TORSDOF 4
ENDMDL
MODEL 5
REMARK VINA RESULT:    -4.102     14.486     15.371
REMARK INTER + INTRA:          -5.209
REMARK INTER:                  -4.850
REMARK INTRA:                  -0.359
REMARK UNBOUND:                -0.267
REMARK SMILES NC(=O)C[C@@H]([NH3+])C(=O)[O-]
REMARK SMILES IDX 4 1 5 2 6 3 7 7 8 8 9 9 2 10 3 11 1 12
REMARK H PARENT 6 4 6 5 6 6 1 13 1 14
REMARK Flexibility Score: inf
ROOT
ATOM      1  C   UNL     1      60.269  13.412  31.800  1.00  0.00     0.171 C 
ENDROOT
BRANCH   1   2
ATOM      2  C   UNL     1      59.261  14.077  32.759  1.00  0.00     0.237 C 
BRANCH   2   3
ATOM      3  N   UNL     1      59.321  15.542  32.669  1.00  0.00    -0.350 N 
ATOM      4  H   UNL     1      58.995  15.858  31.728  1.00  0.00     0.345 HD
ATOM      5  H   UNL     1      58.725  15.984  33.407  1.00  0.00     0.345 HD
ATOM      6  H   UNL     1      60.310  15.863  32.790  1.00  0.00     0.345 HD
ENDBRANCH   2   3
BRANCH   2   7
ATOM      7  C   UNL     1      57.870  13.595  32.444  1.00  0.00     0.100 C 
ATOM      8  O   UNL     1      57.209  12.960  33.308  1.00  0.00    -0.544 OA
ATOM      9  O   UNL     1      57.312  13.834  31.194  1.00  0.00    -0.544 OA
ENDBRANCH   2   7
ENDBRANCH   1   2
BRANCH   1  10
ATOM     10  C   UNL     1      60.397  14.173  30.513  1.00  0.00     0.223 C 
ATOM     11  O   UNL     1      61.046  15.251  30.483  1.00  0.00    -0.275 OA
ATOM     12  N   UNL     1      59.813  13.665  29.313  1.00  0.00    -0.369 N 
ATOM     13  H   UNL     1      59.281  12.766  29.319  1.00  0.00     0.159 HD
ATOM     14  H   UNL     1      59.912  14.188  28.416  1.00  0.00     0.159 HD
ENDBRANCH   1  10
TORSDOF 4
ENDMDL
MODEL 6
REMARK VINA RESULT:    -4.075     14.987     15.688
REMARK INTER + INTRA:          -5.176
REMARK INTER:                  -5.028
REMARK INTRA:                  -0.148
REMARK UNBOUND:                -0.267
REMARK SMILES NC(=O)C[C@@H]([NH3+])C(=O)[O-]
REMARK SMILES IDX 4 1 5 2 6 3 7 7 8 8 9 9 2 10 3 11 1 12
REMARK H PARENT 6 4 6 5 6 6 1 13 1 14
REMARK Flexibility Score: inf
ROOT
ATOM      1  C   UNL     1      60.299  13.771  31.185  1.00  0.00     0.171 C 
ENDROOT
BRANCH   1   2
ATOM      2  C   UNL     1      59.508  14.297  32.400  1.00  0.00     0.237 C 
BRANCH   2   3
ATOM      3  N   UNL     1      59.585  15.760  32.497  1.00  0.00    -0.350 N 
ATOM      4  H   UNL     1      59.583  16.185  31.542  1.00  0.00     0.345 HD
ATOM      5  H   UNL     1      58.777  16.139  33.045  1.00  0.00     0.345 HD
ATOM      6  H   UNL     1      60.477  16.037  32.970  1.00  0.00     0.345 HD
ENDBRANCH   2   3
BRANCH   2   7
ATOM      7  C   UNL     1      58.071  13.860  32.295  1.00  0.00     0.100 C 
ATOM      8  O   UNL     1      57.469  13.921  31.191  1.00  0.00    -0.544 OA
ATOM      9  O   UNL     1      57.395  13.400  33.420  1.00  0.00    -0.544 OA
ENDBRANCH   2   7
ENDBRANCH   1   2
BRANCH   1  10
ATOM     10  C   UNL     1      60.733  12.348  31.377  1.00  0.00     0.223 C 
ATOM     11  O   UNL     1      61.329  12.011  32.434  1.00  0.00    -0.275 OA
ATOM     12  N   UNL     1      60.447  11.366  30.382  1.00  0.00    -0.369 N 
ATOM     13  H   UNL     1      59.943  11.627  29.505  1.00  0.00     0.159 HD
ATOM     14  H   UNL     1      60.738  10.374  30.521  1.00  0.00     0.159 HD
ENDBRANCH   1  10
TORSDOF 4
ENDMDL
MODEL 7
REMARK VINA RESULT:    -4.058     15.557     16.423
REMARK INTER + INTRA:          -5.156
REMARK INTER:                  -4.682
REMARK INTRA:                  -0.475
REMARK UNBOUND:                -0.267
REMARK SMILES NC(=O)C[C@@H]([NH3+])C(=O)[O-]
REMARK SMILES IDX 4 1 5 2 6 3 7 7 8 8 9 9 2 10 3 11 1 12
REMARK H PARENT 6 4 6 5 6 6 1 13 1 14
REMARK Flexibility Score: inf
ROOT
ATOM      1  C   UNL     1      58.401  13.276  33.085  1.00  0.00     0.171 C 
ENDROOT
BRANCH   1   2
ATOM      2  C   UNL     1      59.303  12.036  32.919  1.00  0.00     0.237 C 
BRANCH   2   3
ATOM      3  N   UNL     1      59.106  11.403  31.608  1.00  0.00    -0.350 N 
ATOM      4  H   UNL     1      58.091  11.216  31.448  1.00  0.00     0.345 HD
ATOM      5  H   UNL     1      59.470  12.015  30.841  1.00  0.00     0.345 HD
ATOM      6  H   UNL     1      59.609  10.485  31.579  1.00  0.00     0.345 HD
ENDBRANCH   2   3
BRANCH   2   7
ATOM      7  C   UNL     1      60.744  12.432  33.092  1.00  0.00     0.100 C 
ATOM      8  O   UNL     1      61.373  12.964  32.139  1.00  0.00    -0.544 OA
ATOM      9  O   UNL     1      61.395  12.201  34.299  1.00  0.00    -0.544 OA
ENDBRANCH   2   7
ENDBRANCH   1   2
BRANCH   1  10
ATOM     10  C   UNL     1      58.047  13.888  31.762  1.00  0.00     0.223 C 
ATOM     11  O   UNL     1      56.935  13.631  31.229  1.00  0.00    -0.275 OA
ATOM     12  N   UNL     1      58.950  14.785  31.117  1.00  0.00    -0.369 N 
ATOM     13  H   UNL     1      59.871  15.017  31.552  1.00  0.00     0.159 HD
ATOM     14  H   UNL     1      58.699  15.220  30.203  1.00  0.00     0.159 HD
ENDBRANCH   1  10
TORSDOF 4
ENDMDL
MODEL 8
REMARK VINA RESULT:    -4.036     15.020     16.076
REMARK INTER + INTRA:          -5.129
REMARK INTER:                  -4.784
REMARK INTRA:                  -0.346
REMARK UNBOUND:                -0.267
REMARK SMILES NC(=O)C[C@@H]([NH3+])C(=O)[O-]
REMARK SMILES IDX 4 1 5 2 6 3 7 7 8 8 9 9 2 10 3 11 1 12
REMARK H PARENT 6 4 6 5 6 6 1 13 1 14
REMARK Flexibility Score: inf
ROOT
ATOM      1  C   UNL     1      59.694  13.658  32.465  1.00  0.00     0.171 C 
ENDROOT
BRANCH   1   2
ATOM      2  C   UNL     1      58.175  13.695  32.726  1.00  0.00     0.237 C 
BRANCH   2   3
ATOM      3  N   UNL     1      57.476  14.492  31.710  1.00  0.00    -0.350 N 
ATOM      4  H   UNL     1      57.018  15.320  32.155  1.00  0.00     0.345 HD
ATOM      5  H   UNL     1      58.142  14.822  30.973  1.00  0.00     0.345 HD
ATOM      6  H   UNL     1      56.727  13.915  31.260  1.00  0.00     0.345 HD
ENDBRANCH   2   3
BRANCH   2   7
ATOM      7  C   UNL     1      57.631  12.292  32.749  1.00  0.00     0.100 C 
ATOM      8  O   UNL     1      56.639  12.009  33.471  1.00  0.00    -0.544 OA
ATOM      9  O   UNL     1      58.229  11.296  31.985  1.00  0.00    -0.544 OA
ENDBRANCH   2   7
ENDBRANCH   1   2
BRANCH   1  10
ATOM     10  C   UNL     1      60.051  14.312  31.162  1.00  0.00     0.223 C 
ATOM     11  O   UNL     1      59.739  13.757  30.075  1.00  0.00    -0.275 OA
ATOM     12  N   UNL     1      60.713  15.576  31.147  1.00  0.00    -0.369 N 
ATOM     13  H   UNL     1      60.968  16.055  32.040  1.00  0.00     0.159 HD
ATOM     14  H   UNL     1      60.950  16.036  30.241  1.00  0.00     0.159 HD
ENDBRANCH   1  10
TORSDOF 4
ENDMDL
