MODEL 1
REMARK VINA RESULT:    -3.802      0.000      0.000
REMARK INTER + INTRA:          -9.701
REMARK INTER:                  -7.358
REMARK INTRA:                  -2.343
REMARK UNBOUND:                -2.343
REMARK SMILES CCCCCCCCCCCCCCCCCC(=O)[O-]
REMARK SMILES IDX 10 1 11 2 12 3 13 4 14 5 15 6 16 7 17 8 18 9 19 10 20 11
REMARK SMILES IDX 9 12 8 13 7 14 6 15 5 16 4 17 3 18 2 19 1 20
REMARK H PARENT
REMARK Flexibility Score: inf
ROOT
ATOM      1  C   UNL     1     299.086 324.571 645.494  1.00  0.00     0.000 C 
ENDROOT
BRANCH   1   2
ATOM      2  C   UNL     1     299.905 325.087 644.300  1.00  0.00     0.000 C 
BRANCH   2   3
ATOM      3  C   UNL     1     300.795 323.996 643.679  1.00  0.00     0.000 C 
BRANCH   3   4
ATOM      4  C   UNL     1     302.243 324.056 644.212  1.00  0.00     0.000 C 
BRANCH   4   5
ATOM      5  C   UNL     1     302.925 325.416 643.986  1.00  0.00     0.000 C 
BRANCH   5   6
ATOM      6  C   UNL     1     303.403 326.068 645.294  1.00  0.00     0.000 C 
BRANCH   6   7
ATOM      7  C   UNL     1     302.519 327.249 645.723  1.00  0.00     0.006 C 
BRANCH   7   8
ATOM      8  C   UNL     1     302.248 328.230 644.575  1.00  0.00     0.053 C 
BRANCH   8   9
ATOM      9  C   UNL     1     300.783 328.518 644.468  1.00  0.00     0.041 C 
ATOM     10  O   UNL     1     300.073 328.583 645.506  1.00  0.00    -0.550 OA
ATOM     11  O   UNL     1     300.192 328.659 643.219  1.00  0.00    -0.550 OA
ENDBRANCH   8   9
ENDBRANCH   7   8
ENDBRANCH   6   7
ENDBRANCH   5   6
ENDBRANCH   4   5
ENDBRANCH   3   4
ENDBRANCH   2   3
ENDBRANCH   1   2
BRANCH   1  12
ATOM     12  C   UNL     1     299.367 325.359 646.784  1.00  0.00     0.000 C 
BRANCH  12  13
ATOM     13  C   UNL     1     299.660 324.411 647.953  1.00  0.00    -0.000 C 
BRANCH  13  14
ATOM     14  C   UNL     1     300.817 323.459 647.613  1.00  0.00    -0.000 C 
BRANCH  14  15
ATOM     15  C   UNL     1     302.196 324.065 647.925  1.00  0.00    -0.000 C 
BRANCH  15  16
ATOM     16  C   UNL     1     303.351 323.103 647.596  1.00  0.00    -0.000 C 
BRANCH  16  17
ATOM     17  C   UNL     1     304.617 323.380 648.428  1.00  0.00    -0.000 C 
BRANCH  17  18
ATOM     18  C   UNL     1     304.525 322.975 649.910  1.00  0.00    -0.000 C 
BRANCH  18  19
ATOM     19  C   UNL     1     305.733 322.155 650.385  1.00  0.00    -0.003 C 
ATOM     20  C   UNL     1     305.352 320.695 650.611  1.00  0.00     0.004 C 
ENDBRANCH  18  19
ENDBRANCH  17  18
ENDBRANCH  16  17
ENDBRANCH  15  16
ENDBRANCH  14  15
ENDBRANCH  13  14
ENDBRANCH  12  13
ENDBRANCH   1  12
TORSDOF 16
ENDMDL
MODEL 2
REMARK VINA RESULT:    -3.752      3.940      6.219
REMARK INTER + INTRA:          -9.604
REMARK INTER:                  -7.156
REMARK INTRA:                  -2.448
REMARK UNBOUND:                -2.343
REMARK SMILES CCCCCCCCCCCCCCCCCC(=O)[O-]
REMARK SMILES IDX 10 1 11 2 12 3 13 4 14 5 15 6 16 7 17 8 18 9 19 10 20 11
REMARK SMILES IDX 9 12 8 13 7 14 6 15 5 16 4 17 3 18 2 19 1 20
REMARK H PARENT
REMARK Flexibility Score: inf
ROOT
ATOM      1  C   UNL     1     302.220 324.506 643.493  1.00  0.00     0.000 C 
ENDROOT
BRANCH   1   2
ATOM      2  C   UNL     1     302.962 323.160 643.545  1.00  0.00     0.000 C 
BRANCH   2   3
ATOM      3  C   UNL     1     304.369 323.284 644.157  1.00  0.00     0.000 C 
BRANCH   3   4
ATOM      4  C   UNL     1     304.494 322.508 645.485  1.00  0.00     0.000 C 
BRANCH   4   5
ATOM      5  C   UNL     1     305.461 323.159 646.489  1.00  0.00     0.000 C 
BRANCH   5   6
ATOM      6  C   UNL     1     305.588 322.363 647.798  1.00  0.00     0.000 C 
BRANCH   6   7
ATOM      7  C   UNL     1     305.204 323.192 649.033  1.00  0.00     0.006 C 
BRANCH   7   8
ATOM      8  C   UNL     1     305.027 322.330 650.290  1.00  0.00     0.053 C 
BRANCH   8   9
ATOM      9  C   UNL     1     306.312 321.647 650.641  1.00  0.00     0.041 C 
ATOM     10  O   UNL     1     307.334 322.327 650.921  1.00  0.00    -0.550 OA
ATOM     11  O   UNL     1     306.395 320.261 650.604  1.00  0.00    -0.550 OA
ENDBRANCH   8   9
ENDBRANCH   7   8
ENDBRANCH   6   7
ENDBRANCH   5   6
ENDBRANCH   4   5
ENDBRANCH   3   4
ENDBRANCH   2   3
ENDBRANCH   1   2
BRANCH   1  12
ATOM     12  C   UNL     1     300.696 324.333 643.410  1.00  0.00     0.000 C 
BRANCH  12  13
ATOM     13  C   UNL     1     299.981 325.313 644.349  1.00  0.00    -0.000 C 
BRANCH  13  14
ATOM     14  C   UNL     1     299.067 324.564 645.332  1.00  0.00    -0.000 C 
BRANCH  14  15
ATOM     15  C   UNL     1     299.265 325.017 646.788  1.00  0.00    -0.000 C 
BRANCH  15  16
ATOM     16  C   UNL     1     299.937 323.938 647.656  1.00  0.00    -0.000 C 
BRANCH  16  17
ATOM     17  C   UNL     1     301.419 323.720 647.297  1.00  0.00    -0.000 C 
BRANCH  17  18
ATOM     18  C   UNL     1     302.375 324.830 647.769  1.00  0.00    -0.000 C 
BRANCH  18  19
ATOM     19  C   UNL     1     302.759 325.807 646.648  1.00  0.00    -0.003 C 
ATOM     20  C   UNL     1     304.028 326.579 647.002  1.00  0.00     0.004 C 
ENDBRANCH  18  19
ENDBRANCH  17  18
ENDBRANCH  16  17
ENDBRANCH  15  16
ENDBRANCH  14  15
ENDBRANCH  13  14
ENDBRANCH  12  13
ENDBRANCH   1  12
TORSDOF 16
ENDMDL
MODEL 3
REMARK VINA RESULT:    -3.730      3.566      6.460
REMARK INTER + INTRA:          -9.563
REMARK INTER:                  -6.991
REMARK INTRA:                  -2.572
REMARK UNBOUND:                -2.343
REMARK SMILES CCCCCCCCCCCCCCCCCC(=O)[O-]
REMARK SMILES IDX 10 1 11 2 12 3 13 4 14 5 15 6 16 7 17 8 18 9 19 10 20 11
REMARK SMILES IDX 9 12 8 13 7 14 6 15 5 16 4 17 3 18 2 19 1 20
REMARK H PARENT
REMARK Flexibility Score: inf
ROOT
ATOM      1  C   UNL     1     299.210 324.768 645.434  1.00  0.00     0.000 C 
ENDROOT
BRANCH   1   2
ATOM      2  C   UNL     1     299.367 325.475 646.791  1.00  0.00     0.000 C 
BRANCH   2   3
ATOM      3  C   UNL     1     299.931 324.546 647.880  1.00  0.00     0.000 C 
BRANCH   3   4
ATOM      4  C   UNL     1     301.475 324.533 647.889  1.00  0.00     0.000 C 
BRANCH   4   5
ATOM      5  C   UNL     1     302.080 323.161 647.545  1.00  0.00     0.000 C 
BRANCH   5   6
ATOM      6  C   UNL     1     303.610 323.130 647.692  1.00  0.00     0.000 C 
BRANCH   6   7
ATOM      7  C   UNL     1     304.067 323.319 649.146  1.00  0.00     0.006 C 
BRANCH   7   8
ATOM      8  C   UNL     1     305.490 322.800 649.389  1.00  0.00     0.053 C 
BRANCH   8   9
ATOM      9  C   UNL     1     305.474 321.672 650.374  1.00  0.00     0.041 C 
ATOM     10  O   UNL     1     304.880 320.597 650.096  1.00  0.00    -0.550 OA
ATOM     11  O   UNL     1     306.066 321.830 651.620  1.00  0.00    -0.550 OA
ENDBRANCH   8   9
ENDBRANCH   7   8
ENDBRANCH   6   7
ENDBRANCH   5   6
ENDBRANCH   4   5
ENDBRANCH   3   4
ENDBRANCH   2   3
ENDBRANCH   1   2
BRANCH   1  12
ATOM     12  C   UNL     1     299.332 325.738 644.248  1.00  0.00     0.000 C 
BRANCH  12  13
ATOM     13  C   UNL     1     300.505 325.348 643.340  1.00  0.00    -0.000 C 
BRANCH  13  14
ATOM     14  C   UNL     1     301.129 324.017 643.788  1.00  0.00    -0.000 C 
BRANCH  14  15
ATOM     15  C   UNL     1     302.636 324.134 644.071  1.00  0.00    -0.000 C 
BRANCH  15  16
ATOM     16  C   UNL     1     303.149 325.580 643.950  1.00  0.00    -0.000 C 
BRANCH  16  17
ATOM     17  C   UNL     1     303.933 326.043 645.193  1.00  0.00    -0.000 C 
BRANCH  17  18
ATOM     18  C   UNL     1     303.130 326.895 646.191  1.00  0.00    -0.000 C 
BRANCH  18  19
ATOM     19  C   UNL     1     302.138 327.846 645.506  1.00  0.00    -0.003 C 
ATOM     20  C   UNL     1     302.854 329.064 644.928  1.00  0.00     0.004 C 
ENDBRANCH  18  19
ENDBRANCH  17  18
ENDBRANCH  16  17
ENDBRANCH  15  16
ENDBRANCH  14  15
ENDBRANCH  13  14
ENDBRANCH  12  13
ENDBRANCH   1  12
TORSDOF 16
ENDMDL
MODEL 4
REMARK VINA RESULT:    -3.714      3.428      6.691
REMARK INTER + INTRA:          -9.532
REMARK INTER:                  -6.728
REMARK INTRA:                  -2.803
REMARK UNBOUND:                -2.343
REMARK SMILES CCCCCCCCCCCCCCCCCC(=O)[O-]
REMARK SMILES IDX 10 1 11 2 12 3 13 4 14 5 15 6 16 7 17 8 18 9 19 10 20 11
REMARK SMILES IDX 9 12 8 13 7 14 6 15 5 16 4 17 3 18 2 19 1 20
REMARK H PARENT
REMARK Flexibility Score: inf
ROOT
ATOM      1  C   UNL     1     299.391 324.360 645.192  1.00  0.00     0.000 C 
ENDROOT
BRANCH   1   2
ATOM      2  C   UNL     1     299.057 325.520 646.143  1.00  0.00     0.000 C 
BRANCH   2   3
ATOM      3  C   UNL     1     299.812 325.424 647.481  1.00  0.00     0.000 C 
BRANCH   3   4
ATOM      4  C   UNL     1     300.472 324.043 647.677  1.00  0.00     0.000 C 
BRANCH   4   5
ATOM      5  C   UNL     1     301.925 324.122 648.177  1.00  0.00     0.000 C 
BRANCH   5   6
ATOM      6  C   UNL     1     302.793 322.958 647.672  1.00  0.00     0.000 C 
BRANCH   6   7
ATOM      7  C   UNL     1     304.279 323.134 648.021  1.00  0.00     0.006 C 
BRANCH   7   8
ATOM      8  C   UNL     1     304.525 323.197 649.534  1.00  0.00     0.053 C 
BRANCH   8   9
ATOM      9  C   UNL     1     305.217 321.955 650.003  1.00  0.00     0.041 C 
ATOM     10  O   UNL     1     306.191 322.034 650.798  1.00  0.00    -0.550 OA
ATOM     11  O   UNL     1     304.822 320.715 649.517  1.00  0.00    -0.550 OA
ENDBRANCH   8   9
ENDBRANCH   7   8
ENDBRANCH   6   7
ENDBRANCH   5   6
ENDBRANCH   4   5
ENDBRANCH   3   4
ENDBRANCH   2   3
ENDBRANCH   1   2
BRANCH   1  12
ATOM     12  C   UNL     1     300.377 324.770 644.087  1.00  0.00     0.000 C 
BRANCH  12  13
ATOM     13  C   UNL     1     301.797 324.288 644.412  1.00  0.00    -0.000 C 
BRANCH  13  14
ATOM     14  C   UNL     1     302.848 325.171 643.722  1.00  0.00    -0.000 C 
BRANCH  14  15
ATOM     15  C   UNL     1     303.780 325.876 644.723  1.00  0.00    -0.000 C 
BRANCH  15  16
ATOM     16  C   UNL     1     303.010 326.559 645.866  1.00  0.00    -0.000 C 
BRANCH  16  17
ATOM     17  C   UNL     1     302.644 328.022 645.551  1.00  0.00    -0.000 C 
BRANCH  17  18
ATOM     18  C   UNL     1     301.169 328.261 645.182  1.00  0.00    -0.000 C 
BRANCH  18  19
ATOM     19  C   UNL     1     300.943 328.397 643.669  1.00  0.00    -0.003 C 
ATOM     20  C   UNL     1     302.220 328.841 642.961  1.00  0.00     0.004 C 
ENDBRANCH  18  19
ENDBRANCH  17  18
ENDBRANCH  16  17
ENDBRANCH  15  16
ENDBRANCH  14  15
ENDBRANCH  13  14
ENDBRANCH  12  13
ENDBRANCH   1  12
TORSDOF 16
ENDMDL
MODEL 5
REMARK VINA RESULT:    -3.687      2.229      4.117
REMARK INTER + INTRA:          -9.479
REMARK INTER:                  -7.335
REMARK INTRA:                  -2.144
REMARK UNBOUND:                -2.343
REMARK SMILES CCCCCCCCCCCCCCCCCC(=O)[O-]
REMARK SMILES IDX 10 1 11 2 12 3 13 4 14 5 15 6 16 7 17 8 18 9 19 10 20 11
REMARK SMILES IDX 9 12 8 13 7 14 6 15 5 16 4 17 3 18 2 19 1 20
REMARK H PARENT
REMARK Flexibility Score: inf
ROOT
ATOM      1  C   UNL     1     302.075 324.461 647.884  1.00  0.00     0.000 C 
ENDROOT
BRANCH   1   2
ATOM      2  C   UNL     1     301.030 323.389 647.534  1.00  0.00     0.000 C 
BRANCH   2   3
ATOM      3  C   UNL     1     299.617 323.973 647.364  1.00  0.00     0.000 C 
BRANCH   3   4
ATOM      4  C   UNL     1     299.608 325.512 647.476  1.00  0.00     0.000 C 
BRANCH   4   5
ATOM      5  C   UNL     1     299.024 326.215 646.238  1.00  0.00     0.000 C 
BRANCH   5   6
ATOM      6  C   UNL     1     299.994 327.235 645.618  1.00  0.00     0.000 C 
BRANCH   6   7
ATOM      7  C   UNL     1     300.599 326.744 644.294  1.00  0.00     0.006 C 
BRANCH   7   8
ATOM      8  C   UNL     1     301.935 326.015 644.491  1.00  0.00     0.053 C 
BRANCH   8   9
ATOM      9  C   UNL     1     301.777 324.553 644.216  1.00  0.00     0.041 C 
ATOM     10  O   UNL     1     302.747 323.768 644.384  1.00  0.00    -0.550 OA
ATOM     11  O   UNL     1     300.574 324.065 643.720  1.00  0.00    -0.550 OA
ENDBRANCH   8   9
ENDBRANCH   7   8
ENDBRANCH   6   7
ENDBRANCH   5   6
ENDBRANCH   4   5
ENDBRANCH   3   4
ENDBRANCH   2   3
ENDBRANCH   1   2
BRANCH   1  12
ATOM     12  C   UNL     1     303.361 323.860 648.471  1.00  0.00     0.000 C 
BRANCH  12  13
ATOM     13  C   UNL     1     303.741 322.562 647.746  1.00  0.00    -0.000 C 
BRANCH  13  14
ATOM     14  C   UNL     1     304.552 321.636 648.665  1.00  0.00    -0.000 C 
BRANCH  14  15
ATOM     15  C   UNL     1     305.011 322.334 649.956  1.00  0.00    -0.000 C 
BRANCH  15  16
ATOM     16  C   UNL     1     306.319 321.745 650.513  1.00  0.00    -0.000 C 
BRANCH  16  17
ATOM     17  C   UNL     1     307.527 322.682 650.321  1.00  0.00    -0.000 C 
BRANCH  17  18
ATOM     18  C   UNL     1     307.738 323.187 648.882  1.00  0.00    -0.000 C 
BRANCH  18  19
ATOM     19  C   UNL     1     307.518 324.699 648.739  1.00  0.00    -0.003 C 
ATOM     20  C   UNL     1     306.679 325.018 647.504  1.00  0.00     0.004 C 
ENDBRANCH  18  19
ENDBRANCH  17  18
ENDBRANCH  16  17
ENDBRANCH  15  16
ENDBRANCH  14  15
ENDBRANCH  13  14
ENDBRANCH  12  13
ENDBRANCH   1  12
TORSDOF 16
ENDMDL
MODEL 6
REMARK VINA RESULT:    -3.681      3.081      6.478
REMARK INTER + INTRA:          -9.468
REMARK INTER:                  -7.447
REMARK INTRA:                  -2.020
REMARK UNBOUND:                -2.343
REMARK SMILES CCCCCCCCCCCCCCCCCC(=O)[O-]
REMARK SMILES IDX 10 1 11 2 12 3 13 4 14 5 15 6 16 7 17 8 18 9 19 10 20 11
REMARK SMILES IDX 9 12 8 13 7 14 6 15 5 16 4 17 3 18 2 19 1 20
REMARK H PARENT
REMARK Flexibility Score: inf
ROOT
ATOM      1  C   UNL     1     302.253 324.557 647.785  1.00  0.00     0.000 C 
ENDROOT
BRANCH   1   2
ATOM      2  C   UNL     1     303.477 323.855 648.396  1.00  0.00     0.000 C 
BRANCH   2   3
ATOM      3  C   UNL     1     303.782 322.506 647.722  1.00  0.00     0.000 C 
BRANCH   3   4
ATOM      4  C   UNL     1     304.483 321.523 648.683  1.00  0.00     0.000 C 
BRANCH   4   5
ATOM      5  C   UNL     1     305.055 322.196 649.942  1.00  0.00     0.000 C 
BRANCH   5   6
ATOM      6  C   UNL     1     306.499 321.764 650.246  1.00  0.00     0.000 C 
BRANCH   6   7
ATOM      7  C   UNL     1     307.521 322.876 649.961  1.00  0.00     0.006 C 
BRANCH   7   8
ATOM      8  C   UNL     1     307.884 322.976 648.474  1.00  0.00     0.053 C 
BRANCH   8   9
ATOM      9  C   UNL     1     307.189 324.143 647.845  1.00  0.00     0.041 C 
ATOM     10  O   UNL     1     306.865 324.107 646.628  1.00  0.00    -0.550 OA
ATOM     11  O   UNL     1     306.952 325.293 648.588  1.00  0.00    -0.550 OA
ENDBRANCH   8   9
ENDBRANCH   7   8
ENDBRANCH   6   7
ENDBRANCH   5   6
ENDBRANCH   4   5
ENDBRANCH   3   4
ENDBRANCH   2   3
ENDBRANCH   1   2
BRANCH   1  12
ATOM     12  C   UNL     1     301.099 323.583 647.498  1.00  0.00     0.000 C 
BRANCH  12  13
ATOM     13  C   UNL     1     299.746 324.222 647.836  1.00  0.00    -0.000 C 
BRANCH  13  14
ATOM     14  C   UNL     1     299.456 325.416 646.912  1.00  0.00    -0.000 C 
BRANCH  14  15
ATOM     15  C   UNL     1     298.876 324.989 645.554  1.00  0.00    -0.000 C 
BRANCH  15  16
ATOM     16  C   UNL     1     299.233 325.972 644.425  1.00  0.00    -0.000 C 
BRANCH  16  17
ATOM     17  C   UNL     1     300.295 325.414 643.459  1.00  0.00    -0.000 C 
BRANCH  17  18
ATOM     18  C   UNL     1     301.098 324.214 643.994  1.00  0.00    -0.000 C 
BRANCH  18  19
ATOM     19  C   UNL     1     302.594 324.517 644.155  1.00  0.00    -0.003 C 
ATOM     20  C   UNL     1     303.431 323.249 644.012  1.00  0.00     0.004 C 
ENDBRANCH  18  19
ENDBRANCH  17  18
ENDBRANCH  16  17
ENDBRANCH  15  16
ENDBRANCH  14  15
ENDBRANCH  13  14
ENDBRANCH  12  13
ENDBRANCH   1  12
TORSDOF 16
ENDMDL
MODEL 7
REMARK VINA RESULT:    -3.662      3.111      5.127
REMARK INTER + INTRA:          -9.431
REMARK INTER:                  -7.627
REMARK INTRA:                  -1.803
REMARK UNBOUND:                -2.343
REMARK SMILES CCCCCCCCCCCCCCCCCC(=O)[O-]
REMARK SMILES IDX 10 1 11 2 12 3 13 4 14 5 15 6 16 7 17 8 18 9 19 10 20 11
REMARK SMILES IDX 9 12 8 13 7 14 6 15 5 16 4 17 3 18 2 19 1 20
REMARK H PARENT
REMARK Flexibility Score: inf
ROOT
ATOM      1  C   UNL     1     299.129 326.365 646.287  1.00  0.00     0.000 C 
ENDROOT
BRANCH   1   2
ATOM      2  C   UNL     1     299.339 327.110 644.959  1.00  0.00     0.000 C 
BRANCH   2   3
ATOM      3  C   UNL     1     300.579 328.021 644.981  1.00  0.00     0.000 C 
BRANCH   3   4
ATOM      4  C   UNL     1     300.206 329.513 644.858  1.00  0.00     0.000 C 
BRANCH   4   5
ATOM      5  C   UNL     1     299.450 329.852 643.562  1.00  0.00     0.000 C 
BRANCH   5   6
ATOM      6  C   UNL     1     299.594 331.328 643.157  1.00  0.00     0.000 C 
BRANCH   6   7
ATOM      7  C   UNL     1     299.994 332.228 644.336  1.00  0.00     0.006 C 
BRANCH   7   8
ATOM      8  C   UNL     1     300.048 333.712 643.953  1.00  0.00     0.053 C 
BRANCH   8   9
ATOM      9  C   UNL     1     300.516 334.534 645.113  1.00  0.00     0.041 C 
ATOM     10  O   UNL     1     300.330 335.780 645.124  1.00  0.00    -0.550 OA
ATOM     11  O   UNL     1     301.208 333.932 646.157  1.00  0.00    -0.550 OA
ENDBRANCH   8   9
ENDBRANCH   7   8
ENDBRANCH   6   7
ENDBRANCH   5   6
ENDBRANCH   4   5
ENDBRANCH   3   4
ENDBRANCH   2   3
ENDBRANCH   1   2
BRANCH   1  12
ATOM     12  C   UNL     1     298.962 324.850 646.092  1.00  0.00     0.000 C 
BRANCH  12  13
ATOM     13  C   UNL     1     299.326 324.089 647.373  1.00  0.00    -0.000 C 
BRANCH  13  14
ATOM     14  C   UNL     1     300.778 323.587 647.320  1.00  0.00    -0.000 C 
BRANCH  14  15
ATOM     15  C   UNL     1     301.788 324.637 647.811  1.00  0.00    -0.000 C 
BRANCH  15  16
ATOM     16  C   UNL     1     302.846 324.980 646.747  1.00  0.00    -0.000 C 
BRANCH  16  17
ATOM     17  C   UNL     1     303.326 323.746 645.961  1.00  0.00    -0.000 C 
BRANCH  17  18
ATOM     18  C   UNL     1     303.256 323.881 644.429  1.00  0.00    -0.000 C 
BRANCH  18  19
ATOM     19  C   UNL     1     302.072 324.737 643.956  1.00  0.00    -0.003 C 
ATOM     20  C   UNL     1     301.023 323.882 643.250  1.00  0.00     0.004 C 
ENDBRANCH  18  19
ENDBRANCH  17  18
ENDBRANCH  16  17
ENDBRANCH  15  16
ENDBRANCH  14  15
ENDBRANCH  13  14
ENDBRANCH  12  13
ENDBRANCH   1  12
TORSDOF 16
ENDMDL
MODEL 8
REMARK VINA RESULT:    -3.642      1.448      3.815
REMARK INTER + INTRA:          -9.392
REMARK INTER:                  -7.330
REMARK INTRA:                  -2.062
REMARK UNBOUND:                -2.343
REMARK SMILES CCCCCCCCCCCCCCCCCC(=O)[O-]
REMARK SMILES IDX 10 1 11 2 12 3 13 4 14 5 15 6 16 7 17 8 18 9 19 10 20 11
REMARK SMILES IDX 9 12 8 13 7 14 6 15 5 16 4 17 3 18 2 19 1 20
REMARK H PARENT
REMARK Flexibility Score: inf
ROOT
ATOM      1  C   UNL     1     303.789 324.338 647.443  1.00  0.00     0.000 C 
ENDROOT
BRANCH   1   2
ATOM      2  C   UNL     1     302.362 324.895 647.566  1.00  0.00     0.000 C 
BRANCH   2   3
ATOM      3  C   UNL     1     301.285 323.820 647.333  1.00  0.00     0.000 C 
BRANCH   3   4
ATOM      4  C   UNL     1     299.858 324.402 647.409  1.00  0.00     0.000 C 
BRANCH   4   5
ATOM      5  C   UNL     1     299.087 324.317 646.080  1.00  0.00     0.000 C 
BRANCH   5   6
ATOM      6  C   UNL     1     300.015 324.186 644.861  1.00  0.00     0.000 C 
BRANCH   6   7
ATOM      7  C   UNL     1     300.043 325.457 644.000  1.00  0.00     0.006 C 
BRANCH   7   8
ATOM      8  C   UNL     1     301.132 326.444 644.439  1.00  0.00     0.053 C 
BRANCH   8   9
ATOM      9  C   UNL     1     300.517 327.727 644.905  1.00  0.00     0.041 C 
ATOM     10  O   UNL     1     300.648 328.777 644.222  1.00  0.00    -0.550 OA
ATOM     11  O   UNL     1     299.849 327.775 646.123  1.00  0.00    -0.550 OA
ENDBRANCH   8   9
ENDBRANCH   7   8
ENDBRANCH   6   7
ENDBRANCH   5   6
ENDBRANCH   4   5
ENDBRANCH   3   4
ENDBRANCH   2   3
ENDBRANCH   1   2
BRANCH   1  12
ATOM     12  C   UNL     1     303.863 323.107 646.526  1.00  0.00     0.000 C 
BRANCH  12  13
ATOM     13  C   UNL     1     304.669 321.980 647.184  1.00  0.00    -0.000 C 
BRANCH  13  14
ATOM     14  C   UNL     1     304.182 321.721 648.618  1.00  0.00    -0.000 C 
BRANCH  14  15
ATOM     15  C   UNL     1     304.719 320.402 649.198  1.00  0.00    -0.000 C 
BRANCH  15  16
ATOM     16  C   UNL     1     305.500 320.609 650.508  1.00  0.00    -0.000 C 
BRANCH  16  17
ATOM     17  C   UNL     1     305.856 322.085 650.766  1.00  0.00    -0.000 C 
BRANCH  17  18
ATOM     18  C   UNL     1     307.311 322.471 650.443  1.00  0.00    -0.000 C 
BRANCH  18  19
ATOM     19  C   UNL     1     307.431 323.394 649.222  1.00  0.00    -0.003 C 
ATOM     20  C   UNL     1     308.190 322.711 648.088  1.00  0.00     0.004 C 
ENDBRANCH  18  19
ENDBRANCH  17  18
ENDBRANCH  16  17
ENDBRANCH  15  16
ENDBRANCH  14  15
ENDBRANCH  13  14
ENDBRANCH  12  13
ENDBRANCH   1  12
TORSDOF 16
ENDMDL
MODEL 9
REMARK VINA RESULT:    -3.590      3.678      6.317
REMARK INTER + INTRA:          -9.292
REMARK INTER:                  -7.133
REMARK INTRA:                  -2.159
REMARK UNBOUND:                -2.343
REMARK SMILES CCCCCCCCCCCCCCCCCC(=O)[O-]
REMARK SMILES IDX 10 1 11 2 12 3 13 4 14 5 15 6 16 7 17 8 18 9 19 10 20 11
REMARK SMILES IDX 9 12 8 13 7 14 6 15 5 16 4 17 3 18 2 19 1 20
REMARK H PARENT
REMARK Flexibility Score: inf
ROOT
ATOM      1  C   UNL     1     299.007 325.097 645.939  1.00  0.00     0.000 C 
ENDROOT
BRANCH   1   2
ATOM      2  C   UNL     1     299.197 324.034 647.033  1.00  0.00     0.000 C 
BRANCH   2   3
ATOM      3  C   UNL     1     300.372 324.356 647.973  1.00  0.00     0.000 C 
BRANCH   3   4
ATOM      4  C   UNL     1     301.668 323.633 647.550  1.00  0.00     0.000 C 
BRANCH   4   5
ATOM      5  C   UNL     1     302.950 324.347 648.014  1.00  0.00     0.000 C 
BRANCH   5   6
ATOM      6  C   UNL     1     304.194 323.911 647.224  1.00  0.00     0.000 C 
BRANCH   6   7
ATOM      7  C   UNL     1     305.165 323.071 648.067  1.00  0.00     0.006 C 
BRANCH   7   8
ATOM      8  C   UNL     1     304.726 322.956 649.533  1.00  0.00     0.053 C 
BRANCH   8   9
ATOM      9  C   UNL     1     305.593 321.978 650.262  1.00  0.00     0.041 C 
ATOM     10  O   UNL     1     305.107 320.898 650.691  1.00  0.00    -0.550 OA
ATOM     11  O   UNL     1     306.923 322.285 650.518  1.00  0.00    -0.550 OA
ENDBRANCH   8   9
ENDBRANCH   7   8
ENDBRANCH   6   7
ENDBRANCH   5   6
ENDBRANCH   4   5
ENDBRANCH   3   4
ENDBRANCH   2   3
ENDBRANCH   1   2
BRANCH   1  12
ATOM     12  C   UNL     1     299.275 326.521 646.449  1.00  0.00     0.000 C 
BRANCH  12  13
ATOM     13  C   UNL     1     299.561 327.477 645.285  1.00  0.00    -0.000 C 
BRANCH  13  14
ATOM     14  C   UNL     1     300.998 328.015 645.355  1.00  0.00    -0.000 C 
BRANCH  14  15
ATOM     15  C   UNL     1     301.698 328.021 643.986  1.00  0.00    -0.000 C 
BRANCH  15  16
ATOM     16  C   UNL     1     301.693 326.636 643.315  1.00  0.00    -0.000 C 
BRANCH  16  17
ATOM     17  C   UNL     1     302.536 325.597 644.079  1.00  0.00    -0.000 C 
BRANCH  17  18
ATOM     18  C   UNL     1     301.995 324.157 644.035  1.00  0.00    -0.000 C 
BRANCH  18  19
ATOM     19  C   UNL     1     303.066 323.125 643.655  1.00  0.00    -0.003 C 
ATOM     20  C   UNL     1     304.437 323.780 643.516  1.00  0.00     0.004 C 
ENDBRANCH  18  19
ENDBRANCH  17  18
ENDBRANCH  16  17
ENDBRANCH  15  16
ENDBRANCH  14  15
ENDBRANCH  13  14
ENDBRANCH  12  13
ENDBRANCH   1  12
TORSDOF 16
ENDMDL
