MODEL 1
REMARK VINA RESULT:    -3.847      0.000      0.000
REMARK INTER + INTRA:         -15.336
REMARK INTER:                 -10.031
REMARK INTRA:                  -5.305
REMARK UNBOUND:                -5.305
REMARK SMILES CCCCCCCCCCCCCCCCCCCCCCCCCCCCCO
REMARK SMILES IDX 16 1 15 2 14 3 13 4 12 5 11 6 10 7 9 8 8 9 7 10 6 11 5 12
REMARK SMILES IDX 4 13 3 14 2 15 1 16 17 17 18 18 19 19 20 20 21 21 22 22
REMARK SMILES IDX 23 23 24 24 25 25 26 26 27 27 28 28 29 29 30 30
REMARK H PARENT 30 31
REMARK Flexibility Score: inf
ROOT
ATOM      1  C   UNL     1     170.891 174.311 182.870  1.00  0.00     0.000 C 
ENDROOT
BRANCH   1   2
ATOM      2  C   UNL     1     170.046 175.356 183.618  1.00  0.00     0.000 C 
BRANCH   2   3
ATOM      3  C   UNL     1     170.015 176.712 182.896  1.00  0.00     0.000 C 
BRANCH   3   4
ATOM      4  C   UNL     1     168.713 176.926 182.102  1.00  0.00     0.000 C 
BRANCH   4   5
ATOM      5  C   UNL     1     168.967 177.219 180.615  1.00  0.00     0.000 C 
BRANCH   5   6
ATOM      6  C   UNL     1     170.270 176.579 180.100  1.00  0.00     0.000 C 
BRANCH   6   7
ATOM      7  C   UNL     1     171.298 177.631 179.628  1.00  0.00     0.000 C 
BRANCH   7   8
ATOM      8  C   UNL     1     171.577 177.599 178.113  1.00  0.00    -0.000 C 
BRANCH   8   9
ATOM      9  C   UNL     1     173.061 177.677 177.723  1.00  0.00    -0.000 C 
BRANCH   9  10
ATOM     10  C   UNL     1     173.383 176.895 176.440  1.00  0.00    -0.000 C 
BRANCH  10  11
ATOM     11  C   UNL     1     174.565 175.943 176.661  1.00  0.00    -0.000 C 
BRANCH  11  12
ATOM     12  C   UNL     1     174.645 175.497 178.125  1.00  0.00    -0.000 C 
BRANCH  12  13
ATOM     13  C   UNL     1     174.125 174.061 178.294  1.00  0.00    -0.000 C 
BRANCH  13  14
ATOM     14  C   UNL     1     172.613 174.007 178.558  1.00  0.00    -0.000 C 
BRANCH  14  15
ATOM     15  C   UNL     1     171.820 173.487 177.350  1.00  0.00    -0.003 C 
ATOM     16  C   UNL     1     170.472 174.194 177.234  1.00  0.00     0.004 C 
ENDBRANCH  14  15
ENDBRANCH  13  14
ENDBRANCH  12  13
ENDBRANCH  11  12
ENDBRANCH  10  11
ENDBRANCH   9  10
ENDBRANCH   8   9
ENDBRANCH   7   8
ENDBRANCH   6   7
ENDBRANCH   5   6
ENDBRANCH   4   5
ENDBRANCH   3   4
ENDBRANCH   2   3
ENDBRANCH   1   2
BRANCH   1  17
ATOM     17  C   UNL     1     172.189 173.957 183.612  1.00  0.00     0.000 C 
BRANCH  17  18
ATOM     18  C   UNL     1     173.442 174.146 182.738  1.00  0.00     0.000 C 
BRANCH  18  19
ATOM     19  C   UNL     1     173.353 175.382 181.831  1.00  0.00     0.000 C 
BRANCH  19  20
ATOM     20  C   UNL     1     173.671 176.690 182.576  1.00  0.00     0.000 C 
BRANCH  20  21
ATOM     21  C   UNL     1     175.182 176.970 182.641  1.00  0.00     0.000 C 
BRANCH  21  22
ATOM     22  C   UNL     1     175.852 176.898 181.260  1.00  0.00     0.000 C 
BRANCH  22  23
ATOM     23  C   UNL     1     177.070 175.958 181.233  1.00  0.00     0.000 C 
BRANCH  23  24
ATOM     24  C   UNL     1     177.069 174.904 182.359  1.00  0.00     0.000 C 
BRANCH  24  25
ATOM     25  C   UNL     1     177.561 173.531 181.867  1.00  0.00     0.000 C 
BRANCH  25  26
ATOM     26  C   UNL     1     176.677 172.947 180.753  1.00  0.00     0.000 C 
BRANCH  26  27
ATOM     27  C   UNL     1     175.867 171.727 181.219  1.00  0.00     0.002 C 
BRANCH  27  28
ATOM     28  C   UNL     1     176.765 170.718 181.948  1.00  0.00     0.028 C 
BRANCH  28  29
ATOM     29  C   UNL     1     177.045 169.483 181.085  1.00  0.00     0.156 C 
BRANCH  29  30
ATOM     30  O   UNL     1     177.934 169.789 180.044  1.00  0.00    -0.396 OA
ATOM     31  H   UNL     1     177.393 170.202 179.323  1.00  0.00     0.210 HD
ENDBRANCH  29  30
ENDBRANCH  28  29
ENDBRANCH  27  28
ENDBRANCH  26  27
ENDBRANCH  25  26
ENDBRANCH  24  25
ENDBRANCH  23  24
ENDBRANCH  22  23
ENDBRANCH  21  22
ENDBRANCH  20  21
ENDBRANCH  19  20
ENDBRANCH  18  19
ENDBRANCH  17  18
ENDBRANCH   1  17
TORSDOF 28
ENDMDL
MODEL 2
REMARK VINA RESULT:    -3.830      1.426      4.207
REMARK INTER + INTRA:         -15.292
REMARK INTER:                 -10.087
REMARK INTRA:                  -5.206
REMARK UNBOUND:                -5.305
REMARK SMILES CCCCCCCCCCCCCCCCCCCCCCCCCCCCCO
REMARK SMILES IDX 16 1 15 2 14 3 13 4 12 5 11 6 10 7 9 8 8 9 7 10 6 11 5 12
REMARK SMILES IDX 4 13 3 14 2 15 1 16 17 17 18 18 19 19 20 20 21 21 22 22
REMARK SMILES IDX 23 23 24 24 25 25 26 26 27 27 28 28 29 29 30 30
REMARK H PARENT 30 31
REMARK Flexibility Score: inf
ROOT
ATOM      1  C   UNL     1     173.602 177.385 178.070  1.00  0.00     0.000 C 
ENDROOT
BRANCH   1   2
ATOM      2  C   UNL     1     172.163 177.295 177.534  1.00  0.00     0.000 C 
BRANCH   2   3
ATOM      3  C   UNL     1     171.112 177.440 178.647  1.00  0.00     0.000 C 
BRANCH   3   4
ATOM      4  C   UNL     1     170.106 176.275 178.661  1.00  0.00     0.000 C 
BRANCH   4   5
ATOM      5  C   UNL     1     169.000 176.460 179.712  1.00  0.00     0.000 C 
BRANCH   5   6
ATOM      6  C   UNL     1     168.781 175.198 180.569  1.00  0.00     0.000 C 
BRANCH   6   7
ATOM      7  C   UNL     1     168.580 175.528 182.064  1.00  0.00     0.000 C 
BRANCH   7   8
ATOM      8  C   UNL     1     168.965 176.971 182.444  1.00  0.00    -0.000 C 
BRANCH   8   9
ATOM      9  C   UNL     1     170.245 177.102 183.285  1.00  0.00    -0.000 C 
BRANCH   9  10
ATOM     10  C   UNL     1     171.468 177.510 182.448  1.00  0.00    -0.000 C 
BRANCH  10  11
ATOM     11  C   UNL     1     172.547 176.421 182.488  1.00  0.00    -0.000 C 
BRANCH  11  12
ATOM     12  C   UNL     1     172.269 175.334 181.443  1.00  0.00    -0.000 C 
BRANCH  12  13
ATOM     13  C   UNL     1     172.454 173.932 182.043  1.00  0.00    -0.000 C 
BRANCH  13  14
ATOM     14  C   UNL     1     172.403 173.933 183.578  1.00  0.00    -0.000 C 
BRANCH  14  15
ATOM     15  C   UNL     1     171.007 173.601 184.124  1.00  0.00    -0.003 C 
ATOM     16  C   UNL     1     170.341 172.504 183.299  1.00  0.00     0.004 C 
ENDBRANCH  14  15
ENDBRANCH  13  14
ENDBRANCH  12  13
ENDBRANCH  11  12
ENDBRANCH  10  11
ENDBRANCH   9  10
ENDBRANCH   8   9
ENDBRANCH   7   8
ENDBRANCH   6   7
ENDBRANCH   5   6
ENDBRANCH   4   5
ENDBRANCH   3   4
ENDBRANCH   2   3
ENDBRANCH   1   2
BRANCH   1  17
ATOM     17  C   UNL     1     174.317 176.025 178.080  1.00  0.00     0.000 C 
BRANCH  17  18
ATOM     18  C   UNL     1     175.304 175.883 179.253  1.00  0.00     0.000 C 
BRANCH  18  19
ATOM     19  C   UNL     1     175.334 177.123 180.159  1.00  0.00     0.000 C 
BRANCH  19  20
ATOM     20  C   UNL     1     176.763 177.559 180.524  1.00  0.00     0.000 C 
BRANCH  20  21
ATOM     21  C   UNL     1     177.061 177.385 182.022  1.00  0.00     0.000 C 
BRANCH  21  22
ATOM     22  C   UNL     1     175.909 176.698 182.773  1.00  0.00     0.000 C 
BRANCH  22  23
ATOM     23  C   UNL     1     176.178 175.209 183.053  1.00  0.00     0.000 C 
BRANCH  23  24
ATOM     24  C   UNL     1     177.390 174.641 182.286  1.00  0.00     0.000 C 
BRANCH  24  25
ATOM     25  C   UNL     1     177.146 173.199 181.805  1.00  0.00     0.000 C 
BRANCH  25  26
ATOM     26  C   UNL     1     175.652 172.840 181.737  1.00  0.00     0.000 C 
BRANCH  26  27
ATOM     27  C   UNL     1     175.400 171.493 181.041  1.00  0.00     0.002 C 
BRANCH  27  28
ATOM     28  C   UNL     1     176.636 171.043 180.250  1.00  0.00     0.028 C 
BRANCH  28  29
ATOM     29  C   UNL     1     177.137 169.671 180.714  1.00  0.00     0.156 C 
BRANCH  29  30
ATOM     30  O   UNL     1     178.116 169.173 179.842  1.00  0.00    -0.396 OA
ATOM     31  H   UNL     1     178.929 169.021 180.387  1.00  0.00     0.210 HD
ENDBRANCH  29  30
ENDBRANCH  28  29
ENDBRANCH  27  28
ENDBRANCH  26  27
ENDBRANCH  25  26
ENDBRANCH  24  25
ENDBRANCH  23  24
ENDBRANCH  22  23
ENDBRANCH  21  22
ENDBRANCH  20  21
ENDBRANCH  19  20
ENDBRANCH  18  19
ENDBRANCH  17  18
ENDBRANCH   1  17
TORSDOF 28
ENDMDL
MODEL 3
REMARK VINA RESULT:    -3.830      2.745      6.315
REMARK INTER + INTRA:         -15.291
REMARK INTER:                  -9.404
REMARK INTRA:                  -5.888
REMARK UNBOUND:                -5.305
REMARK SMILES CCCCCCCCCCCCCCCCCCCCCCCCCCCCCO
REMARK SMILES IDX 16 1 15 2 14 3 13 4 12 5 11 6 10 7 9 8 8 9 7 10 6 11 5 12
REMARK SMILES IDX 4 13 3 14 2 15 1 16 17 17 18 18 19 19 20 20 21 21 22 22
REMARK SMILES IDX 23 23 24 24 25 25 26 26 27 27 28 28 29 29 30 30
REMARK H PARENT 30 31
REMARK Flexibility Score: inf
ROOT
ATOM      1  C   UNL     1     173.630 175.620 182.526  1.00  0.00     0.000 C 
ENDROOT
BRANCH   1   2
ATOM      2  C   UNL     1     174.998 175.113 183.013  1.00  0.00     0.000 C 
BRANCH   2   3
ATOM      3  C   UNL     1     175.951 176.260 183.386  1.00  0.00     0.000 C 
BRANCH   3   4
ATOM      4  C   UNL     1     177.091 176.433 182.367  1.00  0.00     0.000 C 
BRANCH   4   5
ATOM      5  C   UNL     1     177.220 177.877 181.860  1.00  0.00     0.000 C 
BRANCH   5   6
ATOM      6  C   UNL     1     177.071 177.984 180.331  1.00  0.00     0.000 C 
BRANCH   6   7
ATOM      7  C   UNL     1     176.769 176.622 179.670  1.00  0.00     0.000 C 
BRANCH   7   8
ATOM      8  C   UNL     1     175.704 176.687 178.558  1.00  0.00    -0.000 C 
BRANCH   8   9
ATOM      9  C   UNL     1     174.256 176.838 179.051  1.00  0.00    -0.000 C 
BRANCH   9  10
ATOM     10  C   UNL     1     173.363 175.656 178.646  1.00  0.00    -0.000 C 
BRANCH  10  11
ATOM     11  C   UNL     1     174.116 174.691 177.722  1.00  0.00    -0.000 C 
BRANCH  11  12
ATOM     12  C   UNL     1     173.917 173.237 178.165  1.00  0.00    -0.000 C 
BRANCH  12  13
ATOM     13  C   UNL     1     174.269 173.060 179.650  1.00  0.00    -0.000 C 
BRANCH  13  14
ATOM     14  C   UNL     1     175.780 173.148 179.914  1.00  0.00    -0.000 C 
BRANCH  14  15
ATOM     15  C   UNL     1     176.201 172.409 181.193  1.00  0.00    -0.003 C 
ATOM     16  C   UNL     1     177.585 172.856 181.655  1.00  0.00     0.004 C 
ENDBRANCH  14  15
ENDBRANCH  13  14
ENDBRANCH  12  13
ENDBRANCH  11  12
ENDBRANCH  10  11
ENDBRANCH   9  10
ENDBRANCH   8   9
ENDBRANCH   7   8
ENDBRANCH   6   7
ENDBRANCH   5   6
ENDBRANCH   4   5
ENDBRANCH   3   4
ENDBRANCH   2   3
ENDBRANCH   1   2
BRANCH   1  17
ATOM     17  C   UNL     1     173.527 177.154 182.541  1.00  0.00     0.000 C 
BRANCH  17  18
ATOM     18  C   UNL     1     172.070 177.649 182.584  1.00  0.00     0.000 C 
BRANCH  18  19
ATOM     19  C   UNL     1     171.371 177.559 181.219  1.00  0.00     0.000 C 
BRANCH  19  20
ATOM     20  C   UNL     1     169.867 177.255 181.341  1.00  0.00     0.000 C 
BRANCH  20  21
ATOM     21  C   UNL     1     169.490 176.733 182.737  1.00  0.00     0.000 C 
BRANCH  21  22
ATOM     22  C   UNL     1     169.151 175.234 182.732  1.00  0.00     0.000 C 
BRANCH  22  23
ATOM     23  C   UNL     1     170.277 174.361 183.313  1.00  0.00     0.000 C 
BRANCH  23  24
ATOM     24  C   UNL     1     170.747 173.238 182.365  1.00  0.00     0.000 C 
BRANCH  24  25
ATOM     25  C   UNL     1     171.139 173.778 180.978  1.00  0.00     0.000 C 
BRANCH  25  26
ATOM     26  C   UNL     1     170.170 173.332 179.871  1.00  0.00     0.000 C 
BRANCH  26  27
ATOM     27  C   UNL     1     169.783 174.481 178.926  1.00  0.00     0.002 C 
BRANCH  27  28
ATOM     28  C   UNL     1     168.389 174.251 178.326  1.00  0.00     0.028 C 
BRANCH  28  29
ATOM     29  C   UNL     1     167.386 175.306 178.805  1.00  0.00     0.156 C 
BRANCH  29  30
ATOM     30  O   UNL     1     167.732 176.580 178.331  1.00  0.00    -0.396 OA
ATOM     31  H   UNL     1     167.800 177.169 179.126  1.00  0.00     0.210 HD
ENDBRANCH  29  30
ENDBRANCH  28  29
ENDBRANCH  27  28
ENDBRANCH  26  27
ENDBRANCH  25  26
ENDBRANCH  24  25
ENDBRANCH  23  24
ENDBRANCH  22  23
ENDBRANCH  21  22
ENDBRANCH  20  21
ENDBRANCH  19  20
ENDBRANCH  18  19
ENDBRANCH  17  18
ENDBRANCH   1  17
TORSDOF 28
ENDMDL
MODEL 4
REMARK VINA RESULT:    -3.812      1.357      4.137
REMARK INTER + INTRA:         -15.247
REMARK INTER:                  -9.638
REMARK INTRA:                  -5.609
REMARK UNBOUND:                -5.305
REMARK SMILES CCCCCCCCCCCCCCCCCCCCCCCCCCCCCO
REMARK SMILES IDX 16 1 15 2 14 3 13 4 12 5 11 6 10 7 9 8 8 9 7 10 6 11 5 12
REMARK SMILES IDX 4 13 3 14 2 15 1 16 17 17 18 18 19 19 20 20 21 21 22 22
REMARK SMILES IDX 23 23 24 24 25 25 26 26 27 27 28 28 29 29 30 30
REMARK H PARENT 30 31
REMARK Flexibility Score: inf
ROOT
ATOM      1  C   UNL     1     171.045 176.206 181.077  1.00  0.00     0.000 C 
ENDROOT
BRANCH   1   2
ATOM      2  C   UNL     1     172.579 176.244 181.190  1.00  0.00     0.000 C 
BRANCH   2   3
ATOM      3  C   UNL     1     173.078 177.443 182.012  1.00  0.00     0.000 C 
BRANCH   3   4
ATOM      4  C   UNL     1     174.188 177.054 183.006  1.00  0.00     0.000 C 
BRANCH   4   5
ATOM      5  C   UNL     1     174.808 175.683 182.694  1.00  0.00     0.000 C 
BRANCH   5   6
ATOM      6  C   UNL     1     176.348 175.709 182.726  1.00  0.00     0.000 C 
BRANCH   6   7
ATOM      7  C   UNL     1     176.911 177.134 182.922  1.00  0.00     0.000 C 
BRANCH   7   8
ATOM      8  C   UNL     1     177.351 177.819 181.614  1.00  0.00    -0.000 C 
BRANCH   8   9
ATOM      9  C   UNL     1     177.037 177.034 180.330  1.00  0.00    -0.000 C 
BRANCH   9  10
ATOM     10  C   UNL     1     175.866 177.634 179.536  1.00  0.00    -0.000 C 
BRANCH  10  11
ATOM     11  C   UNL     1     175.287 176.607 178.555  1.00  0.00    -0.000 C 
BRANCH  11  12
ATOM     12  C   UNL     1     173.977 177.112 177.940  1.00  0.00    -0.000 C 
BRANCH  12  13
ATOM     13  C   UNL     1     173.823 176.622 176.492  1.00  0.00    -0.000 C 
BRANCH  13  14
ATOM     14  C   UNL     1     172.686 175.601 176.331  1.00  0.00    -0.000 C 
BRANCH  14  15
ATOM     15  C   UNL     1     171.721 175.597 177.525  1.00  0.00    -0.003 C 
ATOM     16  C   UNL     1     170.771 174.404 177.459  1.00  0.00     0.004 C 
ENDBRANCH  14  15
ENDBRANCH  13  14
ENDBRANCH  12  13
ENDBRANCH  11  12
ENDBRANCH  10  11
ENDBRANCH   9  10
ENDBRANCH   8   9
ENDBRANCH   7   8
ENDBRANCH   6   7
ENDBRANCH   5   6
ENDBRANCH   4   5
ENDBRANCH   3   4
ENDBRANCH   2   3
ENDBRANCH   1   2
BRANCH   1  17
ATOM     17  C   UNL     1     170.355 177.166 182.059  1.00  0.00     0.000 C 
BRANCH  17  18
ATOM     18  C   UNL     1     169.838 176.452 183.321  1.00  0.00     0.000 C 
BRANCH  18  19
ATOM     19  C   UNL     1     169.805 174.924 183.169  1.00  0.00     0.000 C 
BRANCH  19  20
ATOM     20  C   UNL     1     170.599 174.200 184.271  1.00  0.00     0.000 C 
BRANCH  20  21
ATOM     21  C   UNL     1     171.931 173.634 183.752  1.00  0.00     0.000 C 
BRANCH  21  22
ATOM     22  C   UNL     1     171.751 172.761 182.500  1.00  0.00     0.000 C 
BRANCH  22  23
ATOM     23  C   UNL     1     173.021 172.681 181.636  1.00  0.00     0.000 C 
BRANCH  23  24
ATOM     24  C   UNL     1     172.742 172.674 180.118  1.00  0.00     0.000 C 
BRANCH  24  25
ATOM     25  C   UNL     1     173.871 173.348 179.319  1.00  0.00     0.000 C 
BRANCH  25  26
ATOM     26  C   UNL     1     175.251 173.166 179.971  1.00  0.00     0.000 C 
BRANCH  26  27
ATOM     27  C   UNL     1     175.879 171.800 179.656  1.00  0.00     0.002 C 
BRANCH  27  28
ATOM     28  C   UNL     1     176.634 171.249 180.873  1.00  0.00     0.028 C 
BRANCH  28  29
ATOM     29  C   UNL     1     176.987 169.768 180.699  1.00  0.00     0.156 C 
BRANCH  29  30
ATOM     30  O   UNL     1     178.119 169.614 179.886  1.00  0.00    -0.396 OA
ATOM     31  H   UNL     1     178.032 170.275 179.151  1.00  0.00     0.210 HD
ENDBRANCH  29  30
ENDBRANCH  28  29
ENDBRANCH  27  28
ENDBRANCH  26  27
ENDBRANCH  25  26
ENDBRANCH  24  25
ENDBRANCH  23  24
ENDBRANCH  22  23
ENDBRANCH  21  22
ENDBRANCH  20  21
ENDBRANCH  19  20
ENDBRANCH  18  19
ENDBRANCH  17  18
ENDBRANCH   1  17
TORSDOF 28
ENDMDL
MODEL 5
REMARK VINA RESULT:    -3.786      2.662      5.869
REMARK INTER + INTRA:         -15.177
REMARK INTER:                  -9.080
REMARK INTRA:                  -6.097
REMARK UNBOUND:                -5.305
REMARK SMILES CCCCCCCCCCCCCCCCCCCCCCCCCCCCCO
REMARK SMILES IDX 16 1 15 2 14 3 13 4 12 5 11 6 10 7 9 8 8 9 7 10 6 11 5 12
REMARK SMILES IDX 4 13 3 14 2 15 1 16 17 17 18 18 19 19 20 20 21 21 22 22
REMARK SMILES IDX 23 23 24 24 25 25 26 26 27 27 28 28 29 29 30 30
REMARK H PARENT 30 31
REMARK Flexibility Score: inf
ROOT
ATOM      1  C   UNL     1     176.778 176.236 182.258  1.00  0.00     0.000 C 
ENDROOT
BRANCH   1   2
ATOM      2  C   UNL     1     175.460 176.998 182.482  1.00  0.00     0.000 C 
BRANCH   2   3
ATOM      3  C   UNL     1     174.304 176.068 182.883  1.00  0.00     0.000 C 
BRANCH   3   4
ATOM      4  C   UNL     1     172.976 176.455 182.207  1.00  0.00     0.000 C 
BRANCH   4   5
ATOM      5  C   UNL     1     172.458 177.828 182.661  1.00  0.00     0.000 C 
BRANCH   5   6
ATOM      6  C   UNL     1     171.031 177.762 183.236  1.00  0.00     0.000 C 
BRANCH   6   7
ATOM      7  C   UNL     1     170.253 176.522 182.745  1.00  0.00     0.000 C 
BRANCH   7   8
ATOM      8  C   UNL     1     168.851 176.840 182.191  1.00  0.00    -0.000 C 
BRANCH   8   9
ATOM      9  C   UNL     1     168.795 177.115 180.680  1.00  0.00    -0.000 C 
BRANCH   9  10
ATOM     10  C   UNL     1     170.072 176.674 179.947  1.00  0.00    -0.000 C 
BRANCH  10  11
ATOM     11  C   UNL     1     169.738 175.730 178.785  1.00  0.00    -0.000 C 
BRANCH  11  12
ATOM     12  C   UNL     1     170.699 174.537 178.752  1.00  0.00    -0.000 C 
BRANCH  12  13
ATOM     13  C   UNL     1     171.062 174.081 180.173  1.00  0.00    -0.000 C 
BRANCH  13  14
ATOM     14  C   UNL     1     170.367 172.769 180.569  1.00  0.00    -0.000 C 
BRANCH  14  15
ATOM     15  C   UNL     1     170.693 172.337 182.006  1.00  0.00    -0.003 C 
ATOM     16  C   UNL     1     171.884 173.117 182.557  1.00  0.00     0.004 C 
ENDBRANCH  14  15
ENDBRANCH  13  14
ENDBRANCH  12  13
ENDBRANCH  11  12
ENDBRANCH  10  11
ENDBRANCH   9  10
ENDBRANCH   8   9
ENDBRANCH   7   8
ENDBRANCH   6   7
ENDBRANCH   5   6
ENDBRANCH   4   5
ENDBRANCH   3   4
ENDBRANCH   2   3
ENDBRANCH   1   2
BRANCH   1  17
ATOM     17  C   UNL     1     176.683 174.757 182.664  1.00  0.00     0.000 C 
BRANCH  17  18
ATOM     18  C   UNL     1     177.434 173.827 181.694  1.00  0.00     0.000 C 
BRANCH  18  19
ATOM     19  C   UNL     1     176.651 172.545 181.372  1.00  0.00     0.000 C 
BRANCH  19  20
ATOM     20  C   UNL     1     175.187 172.824 180.990  1.00  0.00     0.000 C 
BRANCH  20  21
ATOM     21  C   UNL     1     175.040 173.242 179.517  1.00  0.00     0.000 C 
BRANCH  21  22
ATOM     22  C   UNL     1     174.497 174.672 179.365  1.00  0.00     0.000 C 
BRANCH  22  23
ATOM     23  C   UNL     1     175.546 175.657 178.819  1.00  0.00     0.000 C 
BRANCH  23  24
ATOM     24  C   UNL     1     175.051 177.117 178.749  1.00  0.00     0.000 C 
BRANCH  24  25
ATOM     25  C   UNL     1     173.522 177.216 178.895  1.00  0.00     0.000 C 
BRANCH  25  26
ATOM     26  C   UNL     1     172.843 177.811 177.651  1.00  0.00     0.000 C 
BRANCH  26  27
ATOM     27  C   UNL     1     172.967 176.902 176.418  1.00  0.00     0.002 C 
BRANCH  27  28
ATOM     28  C   UNL     1     171.627 176.800 175.675  1.00  0.00     0.028 C 
BRANCH  28  29
ATOM     29  C   UNL     1     170.694 177.962 176.028  1.00  0.00     0.156 C 
BRANCH  29  30
ATOM     30  O   UNL     1     169.414 177.759 175.492  1.00  0.00    -0.396 OA
ATOM     31  H   UNL     1     169.181 178.584 174.994  1.00  0.00     0.210 HD
ENDBRANCH  29  30
ENDBRANCH  28  29
ENDBRANCH  27  28
ENDBRANCH  26  27
ENDBRANCH  25  26
ENDBRANCH  24  25
ENDBRANCH  23  24
ENDBRANCH  22  23
ENDBRANCH  21  22
ENDBRANCH  20  21
ENDBRANCH  19  20
ENDBRANCH  18  19
ENDBRANCH  17  18
ENDBRANCH   1  17
TORSDOF 28
ENDMDL
MODEL 6
REMARK VINA RESULT:    -3.774      4.114      7.018
REMARK INTER + INTRA:         -15.146
REMARK INTER:                 -11.740
REMARK INTRA:                  -3.406
REMARK UNBOUND:                -5.305
REMARK SMILES CCCCCCCCCCCCCCCCCCCCCCCCCCCCCO
REMARK SMILES IDX 16 1 15 2 14 3 13 4 12 5 11 6 10 7 9 8 8 9 7 10 6 11 5 12
REMARK SMILES IDX 4 13 3 14 2 15 1 16 17 17 18 18 19 19 20 20 21 21 22 22
REMARK SMILES IDX 23 23 24 24 25 25 26 26 27 27 28 28 29 29 30 30
REMARK H PARENT 30 31
REMARK Flexibility Score: inf
ROOT
ATOM      1  C   UNL     1     172.897 177.305 181.896  1.00  0.00     0.000 C 
ENDROOT
BRANCH   1   2
ATOM      2  C   UNL     1     171.738 177.641 182.850  1.00  0.00     0.000 C 
BRANCH   2   3
ATOM      3  C   UNL     1     170.700 176.511 182.936  1.00  0.00     0.000 C 
BRANCH   3   4
ATOM      4  C   UNL     1     169.276 176.994 182.605  1.00  0.00     0.000 C 
BRANCH   4   5
ATOM      5  C   UNL     1     168.641 176.215 181.443  1.00  0.00     0.000 C 
BRANCH   5   6
ATOM      6  C   UNL     1     167.642 177.066 180.636  1.00  0.00     0.000 C 
BRANCH   6   7
ATOM      7  C   UNL     1     166.506 177.634 181.514  1.00  0.00     0.000 C 
BRANCH   7   8
ATOM      8  C   UNL     1     165.135 176.973 181.270  1.00  0.00    -0.000 C 
BRANCH   8   9
ATOM      9  C   UNL     1     164.799 175.806 182.212  1.00  0.00    -0.000 C 
BRANCH   9  10
ATOM     10  C   UNL     1     163.471 176.006 182.959  1.00  0.00    -0.000 C 
BRANCH  10  11
ATOM     11  C   UNL     1     162.286 175.978 181.985  1.00  0.00    -0.000 C 
BRANCH  11  12
ATOM     12  C   UNL     1     160.954 176.081 182.737  1.00  0.00    -0.000 C 
BRANCH  12  13
ATOM     13  C   UNL     1     160.044 174.886 182.413  1.00  0.00    -0.000 C 
BRANCH  13  14
ATOM     14  C   UNL     1     160.835 173.601 182.125  1.00  0.00    -0.000 C 
BRANCH  14  15
ATOM     15  C   UNL     1     160.891 172.657 183.335  1.00  0.00    -0.003 C 
ATOM     16  C   UNL     1     162.334 172.340 183.718  1.00  0.00     0.004 C 
ENDBRANCH  14  15
ENDBRANCH  13  14
ENDBRANCH  12  13
ENDBRANCH  11  12
ENDBRANCH  10  11
ENDBRANCH   9  10
ENDBRANCH   8   9
ENDBRANCH   7   8
ENDBRANCH   6   7
ENDBRANCH   5   6
ENDBRANCH   4   5
ENDBRANCH   3   4
ENDBRANCH   2   3
ENDBRANCH   1   2
BRANCH   1  17
ATOM     17  C   UNL     1     172.415 176.701 180.568  1.00  0.00     0.000 C 
BRANCH  17  18
ATOM     18  C   UNL     1     173.572 176.403 179.598  1.00  0.00     0.000 C 
BRANCH  18  19
ATOM     19  C   UNL     1     174.793 177.304 179.833  1.00  0.00     0.000 C 
BRANCH  19  20
ATOM     20  C   UNL     1     176.114 176.634 179.417  1.00  0.00     0.000 C 
BRANCH  20  21
ATOM     21  C   UNL     1     177.034 176.363 180.619  1.00  0.00     0.000 C 
BRANCH  21  22
ATOM     22  C   UNL     1     176.846 177.391 181.746  1.00  0.00     0.000 C 
BRANCH  22  23
ATOM     23  C   UNL     1     176.467 176.745 183.090  1.00  0.00     0.000 C 
BRANCH  23  24
ATOM     24  C   UNL     1     176.396 175.205 183.043  1.00  0.00     0.000 C 
BRANCH  24  25
ATOM     25  C   UNL     1     174.971 174.683 183.298  1.00  0.00     0.000 C 
BRANCH  25  26
ATOM     26  C   UNL     1     174.491 173.707 182.212  1.00  0.00     0.000 C 
BRANCH  26  27
ATOM     27  C   UNL     1     175.608 173.317 181.231  1.00  0.00     0.002 C 
BRANCH  27  28
ATOM     28  C   UNL     1     175.106 172.286 180.210  1.00  0.00     0.028 C 
BRANCH  28  29
ATOM     29  C   UNL     1     176.164 171.217 179.918  1.00  0.00     0.156 C 
BRANCH  29  30
ATOM     30  O   UNL     1     177.361 171.498 180.593  1.00  0.00    -0.396 OA
ATOM     31  H   UNL     1     177.843 170.637 180.686  1.00  0.00     0.210 HD
ENDBRANCH  29  30
ENDBRANCH  28  29
ENDBRANCH  27  28
ENDBRANCH  26  27
ENDBRANCH  25  26
ENDBRANCH  24  25
ENDBRANCH  23  24
ENDBRANCH  22  23
ENDBRANCH  21  22
ENDBRANCH  20  21
ENDBRANCH  19  20
ENDBRANCH  18  19
ENDBRANCH  17  18
ENDBRANCH   1  17
TORSDOF 28
ENDMDL
MODEL 7
REMARK VINA RESULT:    -3.741      1.479      4.670
REMARK INTER + INTRA:         -15.060
REMARK INTER:                  -9.496
REMARK INTRA:                  -5.564
REMARK UNBOUND:                -5.305
REMARK SMILES CCCCCCCCCCCCCCCCCCCCCCCCCCCCCO
REMARK SMILES IDX 16 1 15 2 14 3 13 4 12 5 11 6 10 7 9 8 8 9 7 10 6 11 5 12
REMARK SMILES IDX 4 13 3 14 2 15 1 16 17 17 18 18 19 19 20 20 21 21 22 22
REMARK SMILES IDX 23 23 24 24 25 25 26 26 27 27 28 28 29 29 30 30
REMARK H PARENT 30 31
REMARK Flexibility Score: inf
ROOT
ATOM      1  C   UNL     1     172.938 176.301 181.930  1.00  0.00     0.000 C 
ENDROOT
BRANCH   1   2
ATOM      2  C   UNL     1     172.583 175.083 182.800  1.00  0.00     0.000 C 
BRANCH   2   3
ATOM      3  C   UNL     1     173.825 174.286 183.228  1.00  0.00     0.000 C 
BRANCH   3   4
ATOM      4  C   UNL     1     175.038 174.553 182.319  1.00  0.00     0.000 C 
BRANCH   4   5
ATOM      5  C   UNL     1     176.253 175.088 183.093  1.00  0.00     0.000 C 
BRANCH   5   6
ATOM      6  C   UNL     1     176.194 176.613 183.305  1.00  0.00     0.000 C 
BRANCH   6   7
ATOM      7  C   UNL     1     177.185 177.374 182.398  1.00  0.00     0.000 C 
BRANCH   7   8
ATOM      8  C   UNL     1     176.643 177.668 180.986  1.00  0.00    -0.000 C 
BRANCH   8   9
ATOM      9  C   UNL     1     177.006 176.623 179.919  1.00  0.00    -0.000 C 
BRANCH   9  10
ATOM     10  C   UNL     1     175.841 176.314 178.966  1.00  0.00    -0.000 C 
BRANCH  10  11
ATOM     11  C   UNL     1     174.803 177.442 178.987  1.00  0.00    -0.000 C 
BRANCH  11  12
ATOM     12  C   UNL     1     173.441 176.946 178.488  1.00  0.00    -0.000 C 
BRANCH  12  13
ATOM     13  C   UNL     1     173.062 177.618 177.159  1.00  0.00    -0.000 C 
BRANCH  13  14
ATOM     14  C   UNL     1     173.510 176.805 175.936  1.00  0.00    -0.000 C 
BRANCH  14  15
ATOM     15  C   UNL     1     173.205 175.307 176.077  1.00  0.00    -0.003 C 
ATOM     16  C   UNL     1     171.804 174.981 175.568  1.00  0.00     0.004 C 
ENDBRANCH  14  15
ENDBRANCH  13  14
ENDBRANCH  12  13
ENDBRANCH  11  12
ENDBRANCH  10  11
ENDBRANCH   9  10
ENDBRANCH   8   9
ENDBRANCH   7   8
ENDBRANCH   6   7
ENDBRANCH   5   6
ENDBRANCH   4   5
ENDBRANCH   3   4
ENDBRANCH   2   3
ENDBRANCH   1   2
BRANCH   1  17
ATOM     17  C   UNL     1     171.968 177.476 182.131  1.00  0.00     0.000 C 
BRANCH  17  18
ATOM     18  C   UNL     1     170.718 177.081 182.939  1.00  0.00     0.000 C 
BRANCH  18  19
ATOM     19  C   UNL     1     169.464 176.940 182.064  1.00  0.00     0.000 C 
BRANCH  19  20
ATOM     20  C   UNL     1     169.702 177.379 180.609  1.00  0.00     0.000 C 
BRANCH  20  21
ATOM     21  C   UNL     1     169.045 176.424 179.598  1.00  0.00     0.000 C 
BRANCH  21  22
ATOM     22  C   UNL     1     170.075 175.567 178.845  1.00  0.00     0.000 C 
BRANCH  22  23
ATOM     23  C   UNL     1     170.669 174.442 179.711  1.00  0.00     0.000 C 
BRANCH  23  24
ATOM     24  C   UNL     1     171.512 173.423 178.916  1.00  0.00     0.000 C 
BRANCH  24  25
ATOM     25  C   UNL     1     172.977 173.393 179.384  1.00  0.00     0.000 C 
BRANCH  25  26
ATOM     26  C   UNL     1     173.340 172.094 180.121  1.00  0.00     0.000 C 
BRANCH  26  27
ATOM     27  C   UNL     1     174.819 171.711 179.953  1.00  0.00     0.002 C 
BRANCH  27  28
ATOM     28  C   UNL     1     175.355 171.023 181.216  1.00  0.00     0.028 C 
BRANCH  28  29
ATOM     29  C   UNL     1     176.852 170.718 181.103  1.00  0.00     0.156 C 
BRANCH  29  30
ATOM     30  O   UNL     1     177.562 171.845 180.662  1.00  0.00    -0.396 OA
ATOM     31  H   UNL     1     177.004 172.634 180.883  1.00  0.00     0.210 HD
ENDBRANCH  29  30
ENDBRANCH  28  29
ENDBRANCH  27  28
ENDBRANCH  26  27
ENDBRANCH  25  26
ENDBRANCH  24  25
ENDBRANCH  23  24
ENDBRANCH  22  23
ENDBRANCH  21  22
ENDBRANCH  20  21
ENDBRANCH  19  20
ENDBRANCH  18  19
ENDBRANCH  17  18
ENDBRANCH   1  17
TORSDOF 28
ENDMDL
MODEL 8
REMARK VINA RESULT:    -3.720      2.607      5.307
REMARK INTER + INTRA:         -15.006
REMARK INTER:                  -9.268
REMARK INTRA:                  -5.739
REMARK UNBOUND:                -5.305
REMARK SMILES CCCCCCCCCCCCCCCCCCCCCCCCCCCCCO
REMARK SMILES IDX 16 1 15 2 14 3 13 4 12 5 11 6 10 7 9 8 8 9 7 10 6 11 5 12
REMARK SMILES IDX 4 13 3 14 2 15 1 16 17 17 18 18 19 19 20 20 21 21 22 22
REMARK SMILES IDX 23 23 24 24 25 25 26 26 27 27 28 28 29 29 30 30
REMARK H PARENT 30 31
REMARK Flexibility Score: inf
ROOT
ATOM      1  C   UNL     1     172.799 175.083 182.098  1.00  0.00     0.000 C 
ENDROOT
BRANCH   1   2
ATOM      2  C   UNL     1     171.842 174.088 182.776  1.00  0.00     0.000 C 
BRANCH   2   3
ATOM      3  C   UNL     1     170.546 174.757 183.261  1.00  0.00     0.000 C 
BRANCH   3   4
ATOM      4  C   UNL     1     170.627 176.294 183.221  1.00  0.00     0.000 C 
BRANCH   4   5
ATOM      5  C   UNL     1     169.271 176.951 182.925  1.00  0.00     0.000 C 
BRANCH   5   6
ATOM      6  C   UNL     1     168.916 176.927 181.426  1.00  0.00     0.000 C 
BRANCH   6   7
ATOM      7  C   UNL     1     170.059 177.468 180.540  1.00  0.00     0.000 C 
BRANCH   7   8
ATOM      8  C   UNL     1     170.537 176.477 179.461  1.00  0.00    -0.000 C 
BRANCH   8   9
ATOM      9  C   UNL     1     169.915 175.074 179.544  1.00  0.00    -0.000 C 
BRANCH   9  10
ATOM     10  C   UNL     1     170.549 174.082 178.558  1.00  0.00    -0.000 C 
BRANCH  10  11
ATOM     11  C   UNL     1     172.035 173.871 178.872  1.00  0.00    -0.000 C 
BRANCH  11  12
ATOM     12  C   UNL     1     172.752 173.183 177.705  1.00  0.00    -0.000 C 
BRANCH  12  13
ATOM     13  C   UNL     1     174.049 172.507 178.176  1.00  0.00    -0.000 C 
BRANCH  13  14
ATOM     14  C   UNL     1     174.559 173.071 179.511  1.00  0.00    -0.000 C 
BRANCH  14  15
ATOM     15  C   UNL     1     175.927 172.498 179.911  1.00  0.00    -0.003 C 
ATOM     16  C   UNL     1     176.030 172.330 181.425  1.00  0.00     0.004 C 
ENDBRANCH  14  15
ENDBRANCH  13  14
ENDBRANCH  12  13
ENDBRANCH  11  12
ENDBRANCH  10  11
ENDBRANCH   9  10
ENDBRANCH   8   9
ENDBRANCH   7   8
ENDBRANCH   6   7
ENDBRANCH   5   6
ENDBRANCH   4   5
ENDBRANCH   3   4
ENDBRANCH   2   3
ENDBRANCH   1   2
BRANCH   1  17
ATOM     17  C   UNL     1     174.154 175.185 182.815  1.00  0.00     0.000 C 
BRANCH  17  18
ATOM     18  C   UNL     1     174.722 176.615 182.810  1.00  0.00     0.000 C 
BRANCH  18  19
ATOM     19  C   UNL     1     176.245 176.652 183.011  1.00  0.00     0.000 C 
BRANCH  19  20
ATOM     20  C   UNL     1     177.005 177.030 181.728  1.00  0.00     0.000 C 
BRANCH  20  21
ATOM     21  C   UNL     1     177.106 175.854 180.743  1.00  0.00     0.000 C 
BRANCH  21  22
ATOM     22  C   UNL     1     176.497 176.184 179.371  1.00  0.00     0.000 C 
BRANCH  22  23
ATOM     23  C   UNL     1     175.671 177.482 179.376  1.00  0.00     0.000 C 
BRANCH  23  24
ATOM     24  C   UNL     1     174.162 177.260 179.142  1.00  0.00     0.000 C 
BRANCH  24  25
ATOM     25  C   UNL     1     173.868 176.730 177.727  1.00  0.00     0.000 C 
BRANCH  25  26
ATOM     26  C   UNL     1     172.883 177.620 176.952  1.00  0.00     0.000 C 
BRANCH  26  27
ATOM     27  C   UNL     1     171.819 176.807 176.198  1.00  0.00     0.002 C 
BRANCH  27  28
ATOM     28  C   UNL     1     170.768 177.731 175.566  1.00  0.00     0.028 C 
BRANCH  28  29
ATOM     29  C   UNL     1     169.458 176.989 175.285  1.00  0.00     0.156 C 
BRANCH  29  30
ATOM     30  O   UNL     1     168.758 176.736 176.474  1.00  0.00    -0.396 OA
ATOM     31  H   UNL     1     169.439 176.649 177.189  1.00  0.00     0.210 HD
ENDBRANCH  29  30
ENDBRANCH  28  29
ENDBRANCH  27  28
ENDBRANCH  26  27
ENDBRANCH  25  26
ENDBRANCH  24  25
ENDBRANCH  23  24
ENDBRANCH  22  23
ENDBRANCH  21  22
ENDBRANCH  20  21
ENDBRANCH  19  20
ENDBRANCH  18  19
ENDBRANCH  17  18
ENDBRANCH   1  17
TORSDOF 28
ENDMDL
MODEL 9
REMARK VINA RESULT:    -3.663      1.444      4.519
REMARK INTER + INTRA:         -14.857
REMARK INTER:                  -8.776
REMARK INTRA:                  -6.081
REMARK UNBOUND:                -5.305
REMARK SMILES CCCCCCCCCCCCCCCCCCCCCCCCCCCCCO
REMARK SMILES IDX 16 1 15 2 14 3 13 4 12 5 11 6 10 7 9 8 8 9 7 10 6 11 5 12
REMARK SMILES IDX 4 13 3 14 2 15 1 16 17 17 18 18 19 19 20 20 21 21 22 22
REMARK SMILES IDX 23 23 24 24 25 25 26 26 27 27 28 28 29 29 30 30
REMARK H PARENT 30 31
REMARK Flexibility Score: inf
ROOT
ATOM      1  C   UNL     1     174.120 175.489 177.131  1.00  0.00     0.000 C 
ENDROOT
BRANCH   1   2
ATOM      2  C   UNL     1     173.291 176.587 176.442  1.00  0.00     0.000 C 
BRANCH   2   3
ATOM      3  C   UNL     1     172.846 177.687 177.419  1.00  0.00     0.000 C 
BRANCH   3   4
ATOM      4  C   UNL     1     171.334 177.641 177.707  1.00  0.00     0.000 C 
BRANCH   4   5
ATOM      5  C   UNL     1     171.018 177.608 179.210  1.00  0.00     0.000 C 
BRANCH   5   6
ATOM      6  C   UNL     1     171.973 176.689 179.996  1.00  0.00     0.000 C 
BRANCH   6   7
ATOM      7  C   UNL     1     172.728 177.440 181.114  1.00  0.00     0.000 C 
BRANCH   7   8
ATOM      8  C   UNL     1     172.267 177.071 182.537  1.00  0.00    -0.000 C 
BRANCH   8   9
ATOM      9  C   UNL     1     170.786 177.354 182.836  1.00  0.00    -0.000 C 
BRANCH   9  10
ATOM     10  C   UNL     1     169.992 176.081 183.168  1.00  0.00    -0.000 C 
BRANCH  10  11
ATOM     11  C   UNL     1     170.891 174.841 183.098  1.00  0.00    -0.000 C 
BRANCH  11  12
ATOM     12  C   UNL     1     170.232 173.729 182.274  1.00  0.00    -0.000 C 
BRANCH  12  13
ATOM     13  C   UNL     1     169.005 174.258 181.516  1.00  0.00    -0.000 C 
BRANCH  13  14
ATOM     14  C   UNL     1     169.212 174.279 179.994  1.00  0.00    -0.000 C 
BRANCH  14  15
ATOM     15  C   UNL     1     170.352 173.356 179.540  1.00  0.00    -0.003 C 
ATOM     16  C   UNL     1     170.871 173.761 178.163  1.00  0.00     0.004 C 
ENDBRANCH  14  15
ENDBRANCH  13  14
ENDBRANCH  12  13
ENDBRANCH  11  12
ENDBRANCH  10  11
ENDBRANCH   9  10
ENDBRANCH   8   9
ENDBRANCH   7   8
ENDBRANCH   6   7
ENDBRANCH   5   6
ENDBRANCH   4   5
ENDBRANCH   3   4
ENDBRANCH   2   3
ENDBRANCH   1   2
BRANCH   1  17
ATOM     17  C   UNL     1     175.523 175.970 177.533  1.00  0.00     0.000 C 
BRANCH  17  18
ATOM     18  C   UNL     1     175.732 175.979 179.058  1.00  0.00     0.000 C 
BRANCH  18  19
ATOM     19  C   UNL     1     176.166 177.353 179.591  1.00  0.00     0.000 C 
BRANCH  19  20
ATOM     20  C   UNL     1     177.020 177.253 180.867  1.00  0.00     0.000 C 
BRANCH  20  21
ATOM     21  C   UNL     1     176.164 177.292 182.144  1.00  0.00     0.000 C 
BRANCH  21  22
ATOM     22  C   UNL     1     176.687 176.338 183.230  1.00  0.00     0.000 C 
BRANCH  22  23
ATOM     23  C   UNL     1     176.209 174.888 183.037  1.00  0.00     0.000 C 
BRANCH  23  24
ATOM     24  C   UNL     1     174.678 174.751 182.900  1.00  0.00     0.000 C 
BRANCH  24  25
ATOM     25  C   UNL     1     174.276 173.442 182.197  1.00  0.00     0.000 C 
BRANCH  25  26
ATOM     26  C   UNL     1     173.790 173.666 180.755  1.00  0.00     0.000 C 
BRANCH  26  27
ATOM     27  C   UNL     1     174.081 172.467 179.840  1.00  0.00     0.002 C 
BRANCH  27  28
ATOM     28  C   UNL     1     175.586 172.164 179.796  1.00  0.00     0.028 C 
BRANCH  28  29
ATOM     29  C   UNL     1     175.883 170.715 180.197  1.00  0.00     0.156 C 
BRANCH  29  30
ATOM     30  O   UNL     1     176.961 170.201 179.462  1.00  0.00    -0.396 OA
ATOM     31  H   UNL     1     177.775 170.658 179.796  1.00  0.00     0.210 HD
ENDBRANCH  29  30
ENDBRANCH  28  29
ENDBRANCH  27  28
ENDBRANCH  26  27
ENDBRANCH  25  26
ENDBRANCH  24  25
ENDBRANCH  23  24
ENDBRANCH  22  23
ENDBRANCH  21  22
ENDBRANCH  20  21
ENDBRANCH  19  20
ENDBRANCH  18  19
ENDBRANCH  17  18
ENDBRANCH   1  17
TORSDOF 28
ENDMDL
