MODEL 1
REMARK VINA RESULT:    -2.522      0.000      0.000
REMARK INTER + INTRA:          -3.542
REMARK INTER:                  -3.260
REMARK INTRA:                  -0.282
REMARK UNBOUND:                -0.282
REMARK SMILES CCCCCCC(C)=O
REMARK SMILES IDX 4 1 3 2 2 3 1 4 5 5 6 6 7 7 9 8 8 9
REMARK H PARENT
REMARK Flexibility Score: inf
ROOT
ATOM      1  C   UNL     1     112.029 110.060 105.358  1.00  0.00     0.000 C 
ENDROOT
BRANCH   1   2
ATOM      2  C   UNL     1     112.731 109.685 104.045  1.00  0.00    -0.000 C 
BRANCH   2   3
ATOM      3  C   UNL     1     113.281 108.255 104.107  1.00  0.00    -0.003 C 
ATOM      4  C   UNL     1     113.290 107.728 105.539  1.00  0.00     0.004 C 
ENDBRANCH   2   3
ENDBRANCH   1   2
BRANCH   1   5
ATOM      5  C   UNL     1     110.850 111.023 105.145  1.00  0.00     0.008 C 
BRANCH   5   6
ATOM      6  C   UNL     1     110.878 112.216 106.112  1.00  0.00     0.075 C 
BRANCH   6   7
ATOM      7  C   UNL     1     111.989 113.167 105.751  1.00  0.00     0.129 C 
ATOM      8  O   UNL     1     112.000 113.687 104.646  1.00  0.00    -0.300 OA
ATOM      9  C   UNL     1     113.094 113.481 106.716  1.00  0.00     0.087 C 
ENDBRANCH   6   7
ENDBRANCH   5   6
ENDBRANCH   1   5
TORSDOF 5
ENDMDL
MODEL 2
REMARK VINA RESULT:    -2.515      3.864      4.661
REMARK INTER + INTRA:          -3.532
REMARK INTER:                  -2.944
REMARK INTRA:                  -0.588
REMARK UNBOUND:                -0.282
REMARK SMILES CCCCCCC(C)=O
REMARK SMILES IDX 4 1 3 2 2 3 1 4 5 5 6 6 7 7 9 8 8 9
REMARK H PARENT
REMARK Flexibility Score: inf
ROOT
ATOM      1  C   UNL     1     108.756 107.928 106.305  1.00  0.00     0.000 C 
ENDROOT
BRANCH   1   2
ATOM      2  C   UNL     1     107.839 106.912 105.608  1.00  0.00    -0.000 C 
BRANCH   2   3
ATOM      3  C   UNL     1     108.246 106.721 104.142  1.00  0.00    -0.003 C 
ATOM      4  C   UNL     1     109.634 107.295 103.875  1.00  0.00     0.004 C 
ENDBRANCH   2   3
ENDBRANCH   1   2
BRANCH   1   5
ATOM      5  C   UNL     1     108.006 109.188 106.763  1.00  0.00     0.008 C 
BRANCH   5   6
ATOM      6  C   UNL     1     108.717 110.484 106.349  1.00  0.00     0.075 C 
BRANCH   6   7
ATOM      7  C   UNL     1     108.658 110.669 104.855  1.00  0.00     0.129 C 
ATOM      8  O   UNL     1     109.690 110.861 104.231  1.00  0.00    -0.300 OA
ATOM      9  C   UNL     1     107.354 110.634 104.114  1.00  0.00     0.087 C 
ENDBRANCH   6   7
ENDBRANCH   5   6
ENDBRANCH   1   5
TORSDOF 5
ENDMDL
MODEL 3
REMARK VINA RESULT:    -2.417     11.076     12.109
REMARK INTER + INTRA:          -3.406
REMARK INTER:                  -3.042
REMARK INTRA:                  -0.364
REMARK UNBOUND:                -0.282
REMARK SMILES CCCCCCC(C)=O
REMARK SMILES IDX 4 1 3 2 2 3 1 4 5 5 6 6 7 7 9 8 8 9
REMARK H PARENT
REMARK Flexibility Score: inf
ROOT
ATOM      1  C   UNL     1     102.849 105.926 109.061  1.00  0.00     0.000 C 
ENDROOT
BRANCH   1   2
ATOM      2  C   UNL     1     103.912 106.208 107.990  1.00  0.00    -0.000 C 
BRANCH   2   3
ATOM      3  C   UNL     1     105.308 105.812 108.485  1.00  0.00    -0.003 C 
ATOM      4  C   UNL     1     106.390 106.264 107.508  1.00  0.00     0.004 C 
ENDBRANCH   2   3
ENDBRANCH   1   2
BRANCH   1   5
ATOM      5  C   UNL     1     101.651 105.134 108.514  1.00  0.00     0.008 C 
BRANCH   5   6
ATOM      6  C   UNL     1     101.561 103.717 109.098  1.00  0.00     0.075 C 
BRANCH   6   7
ATOM      7  C   UNL     1     102.413 102.761 108.306  1.00  0.00     0.129 C 
ATOM      8  O   UNL     1     101.984 102.296 107.261  1.00  0.00    -0.300 OA
ATOM      9  C   UNL     1     103.777 102.354 108.780  1.00  0.00     0.087 C 
ENDBRANCH   6   7
ENDBRANCH   5   6
ENDBRANCH   1   5
TORSDOF 5
ENDMDL
MODEL 4
REMARK VINA RESULT:    -2.400      2.652      4.164
REMARK INTER + INTRA:          -3.384
REMARK INTER:                  -3.136
REMARK INTRA:                  -0.248
REMARK UNBOUND:                -0.282
REMARK SMILES CCCCCCC(C)=O
REMARK SMILES IDX 4 1 3 2 2 3 1 4 5 5 6 6 7 7 9 8 8 9
REMARK H PARENT
REMARK Flexibility Score: inf
ROOT
ATOM      1  C   UNL     1     110.208 112.205 104.232  1.00  0.00     0.000 C 
ENDROOT
BRANCH   1   2
ATOM      2  C   UNL     1     109.053 111.735 105.127  1.00  0.00    -0.000 C 
BRANCH   2   3
ATOM      3  C   UNL     1     107.766 112.507 104.813  1.00  0.00    -0.003 C 
ATOM      4  C   UNL     1     106.835 111.689 103.922  1.00  0.00     0.004 C 
ENDBRANCH   2   3
ENDBRANCH   1   2
BRANCH   1   5
ATOM      5  C   UNL     1     111.585 111.988 104.879  1.00  0.00     0.008 C 
BRANCH   5   6
ATOM      6  C   UNL     1     112.273 113.306 105.265  1.00  0.00     0.075 C 
BRANCH   6   7
ATOM      7  C   UNL     1     112.665 113.294 106.720  1.00  0.00     0.129 C 
ATOM      8  O   UNL     1     113.689 113.858 107.071  1.00  0.00    -0.300 OA
ATOM      9  C   UNL     1     111.829 112.591 107.748  1.00  0.00     0.087 C 
ENDBRANCH   6   7
ENDBRANCH   5   6
ENDBRANCH   1   5
TORSDOF 5
ENDMDL
MODEL 5
REMARK VINA RESULT:    -2.397      7.145      9.778
REMARK INTER + INTRA:          -3.379
REMARK INTER:                  -3.008
REMARK INTRA:                  -0.371
REMARK UNBOUND:                -0.282
REMARK SMILES CCCCCCC(C)=O
REMARK SMILES IDX 4 1 3 2 2 3 1 4 5 5 6 6 7 7 9 8 8 9
REMARK H PARENT
REMARK Flexibility Score: inf
ROOT
ATOM      1  C   UNL     1     113.835 102.931 108.983  1.00  0.00     0.000 C 
ENDROOT
BRANCH   1   2
ATOM      2  C   UNL     1     113.837 103.970 107.853  1.00  0.00    -0.000 C 
BRANCH   2   3
ATOM      3  C   UNL     1     114.172 105.366 108.391  1.00  0.00    -0.003 C 
ATOM      4  C   UNL     1     113.765 106.453 107.399  1.00  0.00     0.004 C 
ENDBRANCH   2   3
ENDBRANCH   1   2
BRANCH   1   5
ATOM      5  C   UNL     1     114.700 101.702 108.661  1.00  0.00     0.008 C 
BRANCH   5   6
ATOM      6  C   UNL     1     116.054 101.725 109.383  1.00  0.00     0.075 C 
BRANCH   6   7
ATOM      7  C   UNL     1     117.102 102.386 108.526  1.00  0.00     0.129 C 
ATOM      8  O   UNL     1     117.563 101.785 107.568  1.00  0.00    -0.300 OA
ATOM      9  C   UNL     1     117.604 103.766 108.832  1.00  0.00     0.087 C 
ENDBRANCH   6   7
ENDBRANCH   5   6
ENDBRANCH   1   5
TORSDOF 5
ENDMDL
MODEL 6
REMARK VINA RESULT:    -2.380      1.760      2.260
REMARK INTER + INTRA:          -3.358
REMARK INTER:                  -2.774
REMARK INTRA:                  -0.584
REMARK UNBOUND:                -0.282
REMARK SMILES CCCCCCC(C)=O
REMARK SMILES IDX 4 1 3 2 2 3 1 4 5 5 6 6 7 7 9 8 8 9
REMARK H PARENT
REMARK Flexibility Score: inf
ROOT
ATOM      1  C   UNL     1     112.581 112.044 103.941  1.00  0.00     0.000 C 
ENDROOT
BRANCH   1   2
ATOM      2  C   UNL     1     111.715 110.777 103.941  1.00  0.00    -0.000 C 
BRANCH   2   3
ATOM      3  C   UNL     1     112.319 109.698 104.847  1.00  0.00    -0.003 C 
ATOM      4  C   UNL     1     111.290 109.175 105.845  1.00  0.00     0.004 C 
ENDBRANCH   2   3
ENDBRANCH   1   2
BRANCH   1   5
ATOM      5  C   UNL     1     111.965 113.184 104.767  1.00  0.00     0.008 C 
BRANCH   5   6
ATOM      6  C   UNL     1     112.651 113.367 106.128  1.00  0.00     0.075 C 
BRANCH   6   7
ATOM      7  C   UNL     1     111.933 112.580 107.194  1.00  0.00     0.129 C 
ATOM      8  O   UNL     1     110.712 112.577 107.219  1.00  0.00    -0.300 OA
ATOM      9  C   UNL     1     112.687 111.809 108.237  1.00  0.00     0.087 C 
ENDBRANCH   6   7
ENDBRANCH   5   6
ENDBRANCH   1   5
TORSDOF 5
ENDMDL
MODEL 7
REMARK VINA RESULT:    -2.366     10.646     11.466
REMARK INTER + INTRA:          -3.339
REMARK INTER:                  -2.799
REMARK INTRA:                  -0.540
REMARK UNBOUND:                -0.282
REMARK SMILES CCCCCCC(C)=O
REMARK SMILES IDX 4 1 3 2 2 3 1 4 5 5 6 6 7 7 9 8 8 9
REMARK H PARENT
REMARK Flexibility Score: inf
ROOT
ATOM      1  C   UNL     1     101.694 105.422 108.711  1.00  0.00     0.000 C 
ENDROOT
BRANCH   1   2
ATOM      2  C   UNL     1     101.680 103.966 109.197  1.00  0.00    -0.000 C 
BRANCH   2   3
ATOM      3  C   UNL     1     102.023 103.003 108.055  1.00  0.00    -0.003 C 
ATOM      4  C   UNL     1     103.233 102.140 108.404  1.00  0.00     0.004 C 
ENDBRANCH   2   3
ENDBRANCH   1   2
BRANCH   1   5
ATOM      5  C   UNL     1     102.961 106.179 109.141  1.00  0.00     0.008 C 
BRANCH   5   6
ATOM      6  C   UNL     1     104.056 106.160 108.065  1.00  0.00     0.075 C 
BRANCH   6   7
ATOM      7  C   UNL     1     105.325 105.557 108.608  1.00  0.00     0.129 C 
ATOM      8  O   UNL     1     106.362 105.666 107.973  1.00  0.00    -0.300 OA
ATOM      9  C   UNL     1     105.341 104.812 109.910  1.00  0.00     0.087 C 
ENDBRANCH   6   7
ENDBRANCH   5   6
ENDBRANCH   1   5
TORSDOF 5
ENDMDL
MODEL 8
REMARK VINA RESULT:    -2.344      4.498      6.302
REMARK INTER + INTRA:          -3.311
REMARK INTER:                  -2.992
REMARK INTRA:                  -0.319
REMARK UNBOUND:                -0.282
REMARK SMILES CCCCCCC(C)=O
REMARK SMILES IDX 4 1 3 2 2 3 1 4 5 5 6 6 7 7 9 8 8 9
REMARK H PARENT
REMARK Flexibility Score: inf
ROOT
ATOM      1  C   UNL     1     108.141 110.951 106.239  1.00  0.00     0.000 C 
ENDROOT
BRANCH   1   2
ATOM      2  C   UNL     1     107.357 111.389 104.994  1.00  0.00    -0.000 C 
BRANCH   2   3
ATOM      3  C   UNL     1     108.063 112.548 104.281  1.00  0.00    -0.003 C 
ATOM      4  C   UNL     1     109.548 112.253 104.083  1.00  0.00     0.004 C 
ENDBRANCH   2   3
ENDBRANCH   1   2
BRANCH   1   5
ATOM      5  C   UNL     1     108.137 109.427 106.437  1.00  0.00     0.008 C 
BRANCH   5   6
ATOM      6  C   UNL     1     108.592 108.666 105.184  1.00  0.00     0.075 C 
BRANCH   6   7
ATOM      7  C   UNL     1     108.046 107.262 105.188  1.00  0.00     0.129 C 
ATOM      8  O   UNL     1     108.172 106.565 104.193  1.00  0.00    -0.300 OA
ATOM      9  C   UNL     1     107.337 106.702 106.386  1.00  0.00     0.087 C 
ENDBRANCH   6   7
ENDBRANCH   5   6
ENDBRANCH   1   5
TORSDOF 5
ENDMDL
MODEL 9
REMARK VINA RESULT:    -2.309      4.372      4.928
REMARK INTER + INTRA:          -3.266
REMARK INTER:                  -2.843
REMARK INTRA:                  -0.423
REMARK UNBOUND:                -0.282
REMARK SMILES CCCCCCC(C)=O
REMARK SMILES IDX 4 1 3 2 2 3 1 4 5 5 6 6 7 7 9 8 8 9
REMARK H PARENT
REMARK Flexibility Score: inf
ROOT
ATOM      1  C   UNL     1     107.346 110.380 103.885  1.00  0.00     0.000 C 
ENDROOT
BRANCH   1   2
ATOM      2  C   UNL     1     108.363 109.237 104.021  1.00  0.00    -0.000 C 
BRANCH   2   3
ATOM      3  C   UNL     1     107.700 107.978 104.592  1.00  0.00    -0.003 C 
ATOM      4  C   UNL     1     108.071 107.775 106.058  1.00  0.00     0.004 C 
ENDBRANCH   2   3
ENDBRANCH   1   2
BRANCH   1   5
ATOM      5  C   UNL     1     107.943 111.750 104.240  1.00  0.00     0.008 C 
BRANCH   5   6
ATOM      6  C   UNL     1     108.608 111.767 105.624  1.00  0.00     0.075 C 
BRANCH   6   7
ATOM      7  C   UNL     1     107.568 111.833 106.711  1.00  0.00     0.129 C 
ATOM      8  O   UNL     1     107.481 110.920 107.517  1.00  0.00    -0.300 OA
ATOM      9  C   UNL     1     106.624 112.994 106.820  1.00  0.00     0.087 C 
ENDBRANCH   6   7
ENDBRANCH   5   6
ENDBRANCH   1   5
TORSDOF 5
ENDMDL
