MODEL 1
REMARK VINA RESULT:    -4.034      0.000      0.000
REMARK INTER + INTRA:          -8.827
REMARK INTER:                  -6.982
REMARK INTRA:                  -1.845
REMARK UNBOUND:                -1.845
REMARK SMILES CCCCCCCCCCCCCCO
REMARK SMILES IDX 8 1 7 2 6 3 5 4 4 5 3 6 2 7 1 8 9 9 10 10 11 11 12 12 13 13
REMARK SMILES IDX 14 14 15 15
REMARK H PARENT 15 16
REMARK Flexibility Score: inf
ROOT
ATOM      1  C   UNL     1       9.674 -27.385  51.124  1.00  0.00     0.000 C 
ENDROOT
BRANCH   1   2
ATOM      2  C   UNL     1      10.360 -28.760  51.195  1.00  0.00    -0.000 C 
BRANCH   2   3
ATOM      3  C   UNL     1       9.752 -29.669  52.274  1.00  0.00    -0.000 C 
BRANCH   3   4
ATOM      4  C   UNL     1      10.721 -29.939  53.434  1.00  0.00    -0.000 C 
BRANCH   4   5
ATOM      5  C   UNL     1      10.412 -29.030  54.631  1.00  0.00    -0.000 C 
BRANCH   5   6
ATOM      6  C   UNL     1      11.523 -27.988  54.831  1.00  0.00    -0.000 C 
BRANCH   6   7
ATOM      7  C   UNL     1      12.761 -28.272  53.968  1.00  0.00    -0.003 C 
ATOM      8  C   UNL     1      13.134 -27.097  53.063  1.00  0.00     0.004 C 
ENDBRANCH   6   7
ENDBRANCH   5   6
ENDBRANCH   4   5
ENDBRANCH   3   4
ENDBRANCH   2   3
ENDBRANCH   1   2
BRANCH   1   9
ATOM      9  C   UNL     1       8.315 -27.362  51.844  1.00  0.00     0.000 C 
BRANCH   9  10
ATOM     10  C   UNL     1       8.247 -26.286  52.940  1.00  0.00     0.000 C 
BRANCH  10  11
ATOM     11  C   UNL     1       9.582 -25.546  53.124  1.00  0.00     0.000 C 
BRANCH  11  12
ATOM     12  C   UNL     1       9.554 -24.126  52.534  1.00  0.00     0.002 C 
BRANCH  12  13
ATOM     13  C   UNL     1       8.132 -23.552  52.419  1.00  0.00     0.028 C 
BRANCH  13  14
ATOM     14  C   UNL     1       7.695 -22.741  53.648  1.00  0.00     0.156 C 
BRANCH  14  15
ATOM     15  O   UNL     1       6.748 -23.442  54.408  1.00  0.00    -0.396 OA
ATOM     16  H   UNL     1       6.889 -24.406  54.221  1.00  0.00     0.210 HD
ENDBRANCH  14  15
ENDBRANCH  13  14
ENDBRANCH  12  13
ENDBRANCH  11  12
ENDBRANCH  10  11
ENDBRANCH   9  10
ENDBRANCH   1   9
TORSDOF 13
ENDMDL
MODEL 2
REMARK VINA RESULT:    -3.992      1.580      2.453
REMARK INTER + INTRA:          -8.754
REMARK INTER:                  -7.000
REMARK INTRA:                  -1.753
REMARK UNBOUND:                -1.845
REMARK SMILES CCCCCCCCCCCCCCO
REMARK SMILES IDX 8 1 7 2 6 3 5 4 4 5 3 6 2 7 1 8 9 9 10 10 11 11 12 12 13 13
REMARK SMILES IDX 14 14 15 15
REMARK H PARENT 15 16
REMARK Flexibility Score: inf
ROOT
ATOM      1  C   UNL     1       8.366 -27.825  51.818  1.00  0.00     0.000 C 
ENDROOT
BRANCH   1   2
ATOM      2  C   UNL     1       9.568 -27.508  50.912  1.00  0.00    -0.000 C 
BRANCH   2   3
ATOM      3  C   UNL     1      10.719 -28.511  51.085  1.00  0.00    -0.000 C 
BRANCH   3   4
ATOM      4  C   UNL     1      12.079 -27.823  51.272  1.00  0.00    -0.000 C 
BRANCH   4   5
ATOM      5  C   UNL     1      12.038 -26.833  52.443  1.00  0.00    -0.000 C 
BRANCH   5   6
ATOM      6  C   UNL     1      12.314 -27.545  53.776  1.00  0.00    -0.000 C 
BRANCH   6   7
ATOM      7  C   UNL     1      11.092 -27.550  54.707  1.00  0.00    -0.003 C 
ATOM      8  C   UNL     1      10.446 -28.930  54.829  1.00  0.00     0.004 C 
ENDBRANCH   6   7
ENDBRANCH   5   6
ENDBRANCH   4   5
ENDBRANCH   3   4
ENDBRANCH   2   3
ENDBRANCH   1   2
BRANCH   1   9
ATOM      9  C   UNL     1       8.036 -26.679  52.789  1.00  0.00     0.000 C 
BRANCH   9  10
ATOM     10  C   UNL     1       8.494 -25.309  52.262  1.00  0.00     0.000 C 
BRANCH  10  11
ATOM     11  C   UNL     1       9.302 -24.517  53.304  1.00  0.00     0.000 C 
BRANCH  11  12
ATOM     12  C   UNL     1       8.490 -23.374  53.934  1.00  0.00     0.002 C 
BRANCH  12  13
ATOM     13  C   UNL     1       8.053 -23.674  55.377  1.00  0.00     0.028 C 
BRANCH  13  14
ATOM     14  C   UNL     1       8.395 -22.553  56.370  1.00  0.00     0.156 C 
BRANCH  14  15
ATOM     15  O   UNL     1       9.782 -22.406  56.511  1.00  0.00    -0.396 OA
ATOM     16  H   UNL     1      10.199 -22.884  55.748  1.00  0.00     0.210 HD
ENDBRANCH  14  15
ENDBRANCH  13  14
ENDBRANCH  12  13
ENDBRANCH  11  12
ENDBRANCH  10  11
ENDBRANCH   9  10
ENDBRANCH   1   9
TORSDOF 13
ENDMDL
MODEL 3
REMARK VINA RESULT:    -3.985      1.123      2.219
REMARK INTER + INTRA:          -8.742
REMARK INTER:                  -7.066
REMARK INTRA:                  -1.675
REMARK UNBOUND:                -1.845
REMARK SMILES CCCCCCCCCCCCCCO
REMARK SMILES IDX 8 1 7 2 6 3 5 4 4 5 3 6 2 7 1 8 9 9 10 10 11 11 12 12 13 13
REMARK SMILES IDX 14 14 15 15
REMARK H PARENT 15 16
REMARK Flexibility Score: inf
ROOT
ATOM      1  C   UNL     1      10.218 -27.033  50.506  1.00  0.00     0.000 C 
ENDROOT
BRANCH   1   2
ATOM      2  C   UNL     1      11.253 -28.153  50.706  1.00  0.00    -0.000 C 
BRANCH   2   3
ATOM      3  C   UNL     1      12.596 -27.629  51.236  1.00  0.00    -0.000 C 
BRANCH   3   4
ATOM      4  C   UNL     1      12.481 -27.024  52.642  1.00  0.00    -0.000 C 
BRANCH   4   5
ATOM      5  C   UNL     1      12.651 -28.103  53.720  1.00  0.00    -0.000 C 
BRANCH   5   6
ATOM      6  C   UNL     1      11.641 -27.905  54.861  1.00  0.00    -0.000 C 
BRANCH   6   7
ATOM      7  C   UNL     1      10.352 -28.714  54.655  1.00  0.00    -0.003 C 
ATOM      8  C   UNL     1      10.587 -30.020  53.897  1.00  0.00     0.004 C 
ENDBRANCH   6   7
ENDBRANCH   5   6
ENDBRANCH   4   5
ENDBRANCH   3   4
ENDBRANCH   2   3
ENDBRANCH   1   2
BRANCH   1   9
ATOM      9  C   UNL     1       8.948 -27.242  51.348  1.00  0.00     0.000 C 
BRANCH   9  10
ATOM     10  C   UNL     1       8.407 -25.927  51.935  1.00  0.00     0.000 C 
BRANCH  10  11
ATOM     11  C   UNL     1       8.155 -26.019  53.450  1.00  0.00     0.000 C 
BRANCH  11  12
ATOM     12  C   UNL     1       9.107 -25.124  54.260  1.00  0.00     0.002 C 
BRANCH  12  13
ATOM     13  C   UNL     1       8.370 -24.046  55.072  1.00  0.00     0.028 C 
BRANCH  13  14
ATOM     14  C   UNL     1       8.068 -22.771  54.271  1.00  0.00     0.156 C 
BRANCH  14  15
ATOM     15  O   UNL     1       6.821 -22.855  53.635  1.00  0.00    -0.396 OA
ATOM     16  H   UNL     1       6.836 -23.680  53.084  1.00  0.00     0.210 HD
ENDBRANCH  14  15
ENDBRANCH  13  14
ENDBRANCH  12  13
ENDBRANCH  11  12
ENDBRANCH  10  11
ENDBRANCH   9  10
ENDBRANCH   1   9
TORSDOF 13
ENDMDL
MODEL 4
REMARK VINA RESULT:    -3.856      2.343      4.386
REMARK INTER + INTRA:          -8.519
REMARK INTER:                  -7.266
REMARK INTRA:                  -1.253
REMARK UNBOUND:                -1.845
REMARK SMILES CCCCCCCCCCCCCCO
REMARK SMILES IDX 8 1 7 2 6 3 5 4 4 5 3 6 2 7 1 8 9 9 10 10 11 11 12 12 13 13
REMARK SMILES IDX 14 14 15 15
REMARK H PARENT 15 16
REMARK Flexibility Score: inf
ROOT
ATOM      1  C   UNL     1      11.582 -28.612  52.082  1.00  0.00     0.000 C 
ENDROOT
BRANCH   1   2
ATOM      2  C   UNL     1      11.527 -30.117  52.397  1.00  0.00    -0.000 C 
BRANCH   2   3
ATOM      3  C   UNL     1      10.533 -30.450  53.519  1.00  0.00    -0.000 C 
BRANCH   3   4
ATOM      4  C   UNL     1       9.804 -31.781  53.286  1.00  0.00    -0.000 C 
BRANCH   4   5
ATOM      5  C   UNL     1       9.330 -31.901  51.832  1.00  0.00    -0.000 C 
BRANCH   5   6
ATOM      6  C   UNL     1       7.881 -31.412  51.684  1.00  0.00    -0.000 C 
BRANCH   6   7
ATOM      7  C   UNL     1       7.019 -32.366  50.842  1.00  0.00    -0.003 C 
ATOM      8  C   UNL     1       6.790 -33.715  51.526  1.00  0.00     0.004 C 
ENDBRANCH   6   7
ENDBRANCH   5   6
ENDBRANCH   4   5
ENDBRANCH   3   4
ENDBRANCH   2   3
ENDBRANCH   1   2
BRANCH   1   9
ATOM      9  C   UNL     1      11.162 -28.292  50.638  1.00  0.00     0.000 C 
BRANCH   9  10
ATOM     10  C   UNL     1       9.920 -27.387  50.571  1.00  0.00     0.000 C 
BRANCH  10  11
ATOM     11  C   UNL     1       8.774 -27.894  51.464  1.00  0.00     0.000 C 
BRANCH  11  12
ATOM     12  C   UNL     1       8.246 -26.809  52.417  1.00  0.00     0.002 C 
BRANCH  12  13
ATOM     13  C   UNL     1       9.089 -26.672  53.695  1.00  0.00     0.028 C 
BRANCH  13  14
ATOM     14  C   UNL     1       9.296 -25.218  54.144  1.00  0.00     0.156 C 
BRANCH  14  15
ATOM     15  O   UNL     1       9.847 -25.158  55.432  1.00  0.00    -0.396 OA
ATOM     16  H   UNL     1      10.081 -24.209  55.599  1.00  0.00     0.210 HD
ENDBRANCH  14  15
ENDBRANCH  13  14
ENDBRANCH  12  13
ENDBRANCH  11  12
ENDBRANCH  10  11
ENDBRANCH   9  10
ENDBRANCH   1   9
TORSDOF 13
ENDMDL
MODEL 5
REMARK VINA RESULT:    -3.839      1.570      2.390
REMARK INTER + INTRA:          -8.489
REMARK INTER:                  -6.630
REMARK INTRA:                  -1.859
REMARK UNBOUND:                -1.845
REMARK SMILES CCCCCCCCCCCCCCO
REMARK SMILES IDX 8 1 7 2 6 3 5 4 4 5 3 6 2 7 1 8 9 9 10 10 11 11 12 12 13 13
REMARK SMILES IDX 14 14 15 15
REMARK H PARENT 15 16
REMARK Flexibility Score: inf
ROOT
ATOM      1  C   UNL     1      10.134 -29.643  51.842  1.00  0.00     0.000 C 
ENDROOT
BRANCH   1   2
ATOM      2  C   UNL     1      10.679 -29.988  53.239  1.00  0.00    -0.000 C 
BRANCH   2   3
ATOM      3  C   UNL     1      10.461 -28.856  54.254  1.00  0.00    -0.000 C 
BRANCH   3   4
ATOM      4  C   UNL     1      11.779 -28.234  54.737  1.00  0.00    -0.000 C 
BRANCH   4   5
ATOM      5  C   UNL     1      12.449 -27.428  53.616  1.00  0.00    -0.000 C 
BRANCH   5   6
ATOM      6  C   UNL     1      13.798 -28.048  53.223  1.00  0.00    -0.000 C 
BRANCH   6   7
ATOM      7  C   UNL     1      13.874 -28.399  51.729  1.00  0.00    -0.003 C 
ATOM      8  C   UNL     1      12.983 -27.506  50.865  1.00  0.00     0.004 C 
ENDBRANCH   6   7
ENDBRANCH   5   6
ENDBRANCH   4   5
ENDBRANCH   3   4
ENDBRANCH   2   3
ENDBRANCH   1   2
BRANCH   1   9
ATOM      9  C   UNL     1       8.977 -28.631  51.890  1.00  0.00     0.000 C 
BRANCH   9  10
ATOM     10  C   UNL     1       9.273 -27.358  51.079  1.00  0.00     0.000 C 
BRANCH  10  11
ATOM     11  C   UNL     1       9.446 -26.118  51.972  1.00  0.00     0.000 C 
BRANCH  11  12
ATOM     12  C   UNL     1       8.430 -26.077  53.126  1.00  0.00     0.002 C 
BRANCH  12  13
ATOM     13  C   UNL     1       8.153 -24.651  53.630  1.00  0.00     0.028 C 
BRANCH  13  14
ATOM     14  C   UNL     1       8.992 -24.256  54.854  1.00  0.00     0.156 C 
BRANCH  14  15
ATOM     15  O   UNL     1       9.782 -25.328  55.295  1.00  0.00    -0.396 OA
ATOM     16  H   UNL     1       9.849 -25.246  56.281  1.00  0.00     0.210 HD
ENDBRANCH  14  15
ENDBRANCH  13  14
ENDBRANCH  12  13
ENDBRANCH  11  12
ENDBRANCH  10  11
ENDBRANCH   9  10
ENDBRANCH   1   9
TORSDOF 13
ENDMDL
MODEL 6
REMARK VINA RESULT:    -3.808      1.440      3.061
REMARK INTER + INTRA:          -8.435
REMARK INTER:                  -6.641
REMARK INTRA:                  -1.794
REMARK UNBOUND:                -1.845
REMARK SMILES CCCCCCCCCCCCCCO
REMARK SMILES IDX 8 1 7 2 6 3 5 4 4 5 3 6 2 7 1 8 9 9 10 10 11 11 12 12 13 13
REMARK SMILES IDX 14 14 15 15
REMARK H PARENT 15 16
REMARK Flexibility Score: inf
ROOT
ATOM      1  C   UNL     1       9.742 -26.175  54.034  1.00  0.00     0.000 C 
ENDROOT
BRANCH   1   2
ATOM      2  C   UNL     1      10.351 -27.497  54.532  1.00  0.00    -0.000 C 
BRANCH   2   3
ATOM      3  C   UNL     1      11.778 -27.724  54.010  1.00  0.00    -0.000 C 
BRANCH   3   4
ATOM      4  C   UNL     1      11.960 -27.244  52.563  1.00  0.00    -0.000 C 
BRANCH   4   5
ATOM      5  C   UNL     1      11.780 -28.403  51.573  1.00  0.00    -0.000 C 
BRANCH   5   6
ATOM      6  C   UNL     1      10.428 -28.306  50.851  1.00  0.00    -0.000 C 
BRANCH   6   7
ATOM      7  C   UNL     1       9.345 -29.176  51.507  1.00  0.00    -0.003 C 
ATOM      8  C   UNL     1       9.897 -30.488  52.064  1.00  0.00     0.004 C 
ENDBRANCH   6   7
ENDBRANCH   5   6
ENDBRANCH   4   5
ENDBRANCH   3   4
ENDBRANCH   2   3
ENDBRANCH   1   2
BRANCH   1   9
ATOM      9  C   UNL     1       8.365 -26.366  53.377  1.00  0.00     0.000 C 
BRANCH   9  10
ATOM     10  C   UNL     1       8.226 -25.584  52.059  1.00  0.00     0.000 C 
BRANCH  10  11
ATOM     11  C   UNL     1       9.281 -24.473  51.920  1.00  0.00     0.000 C 
BRANCH  11  12
ATOM     12  C   UNL     1       8.733 -23.089  52.305  1.00  0.00     0.002 C 
BRANCH  12  13
ATOM     13  C   UNL     1       9.513 -22.435  53.457  1.00  0.00     0.028 C 
BRANCH  13  14
ATOM     14  C   UNL     1       8.841 -22.600  54.828  1.00  0.00     0.156 C 
BRANCH  14  15
ATOM     15  O   UNL     1       9.749 -23.079  55.783  1.00  0.00    -0.396 OA
ATOM     16  H   UNL     1       9.551 -22.603  56.631  1.00  0.00     0.210 HD
ENDBRANCH  14  15
ENDBRANCH  13  14
ENDBRANCH  12  13
ENDBRANCH  11  12
ENDBRANCH  10  11
ENDBRANCH   9  10
ENDBRANCH   1   9
TORSDOF 13
ENDMDL
MODEL 7
REMARK VINA RESULT:    -3.805      1.721      3.148
REMARK INTER + INTRA:          -8.430
REMARK INTER:                  -6.874
REMARK INTRA:                  -1.557
REMARK UNBOUND:                -1.845
REMARK SMILES CCCCCCCCCCCCCCO
REMARK SMILES IDX 8 1 7 2 6 3 5 4 4 5 3 6 2 7 1 8 9 9 10 10 11 11 12 12 13 13
REMARK SMILES IDX 14 14 15 15
REMARK H PARENT 15 16
REMARK Flexibility Score: inf
ROOT
ATOM      1  C   UNL     1      11.233 -26.742  51.231  1.00  0.00     0.000 C 
ENDROOT
BRANCH   1   2
ATOM      2  C   UNL     1      12.120 -27.573  52.174  1.00  0.00    -0.000 C 
BRANCH   2   3
ATOM      3  C   UNL     1      11.802 -27.324  53.657  1.00  0.00    -0.000 C 
BRANCH   3   4
ATOM      4  C   UNL     1      11.130 -28.530  54.327  1.00  0.00    -0.000 C 
BRANCH   4   5
ATOM      5  C   UNL     1      11.333 -29.805  53.497  1.00  0.00    -0.000 C 
BRANCH   5   6
ATOM      6  C   UNL     1      10.208 -30.817  53.758  1.00  0.00    -0.000 C 
BRANCH   6   7
ATOM      7  C   UNL     1       9.493 -31.250  52.469  1.00  0.00    -0.003 C 
ATOM      8  C   UNL     1       8.998 -32.696  52.524  1.00  0.00     0.004 C 
ENDBRANCH   6   7
ENDBRANCH   5   6
ENDBRANCH   4   5
ENDBRANCH   3   4
ENDBRANCH   2   3
ENDBRANCH   1   2
BRANCH   1   9
ATOM      9  C   UNL     1      10.144 -27.583  50.546  1.00  0.00     0.000 C 
BRANCH   9  10
ATOM     10  C   UNL     1       8.902 -27.776  51.432  1.00  0.00     0.000 C 
BRANCH  10  11
ATOM     11  C   UNL     1       8.221 -26.444  51.789  1.00  0.00     0.000 C 
BRANCH  11  12
ATOM     12  C   UNL     1       8.240 -26.159  53.300  1.00  0.00     0.002 C 
BRANCH  12  13
ATOM     13  C   UNL     1       8.190 -24.657  53.627  1.00  0.00     0.028 C 
BRANCH  13  14
ATOM     14  C   UNL     1       8.611 -24.327  55.067  1.00  0.00     0.156 C 
BRANCH  14  15
ATOM     15  O   UNL     1       9.736 -25.071  55.450  1.00  0.00    -0.396 OA
ATOM     16  H   UNL     1       9.472 -26.027  55.411  1.00  0.00     0.210 HD
ENDBRANCH  14  15
ENDBRANCH  13  14
ENDBRANCH  12  13
ENDBRANCH  11  12
ENDBRANCH  10  11
ENDBRANCH   9  10
ENDBRANCH   1   9
TORSDOF 13
ENDMDL
MODEL 8
REMARK VINA RESULT:    -3.772      1.803      2.986
REMARK INTER + INTRA:          -8.373
REMARK INTER:                  -7.038
REMARK INTRA:                  -1.336
REMARK UNBOUND:                -1.845
REMARK SMILES CCCCCCCCCCCCCCO
REMARK SMILES IDX 8 1 7 2 6 3 5 4 4 5 3 6 2 7 1 8 9 9 10 10 11 11 12 12 13 13
REMARK SMILES IDX 14 14 15 15
REMARK H PARENT 15 16
REMARK Flexibility Score: inf
ROOT
ATOM      1  C   UNL     1       9.649 -25.600  51.159  1.00  0.00     0.000 C 
ENDROOT
BRANCH   1   2
ATOM      2  C   UNL     1       9.777 -26.415  49.861  1.00  0.00    -0.000 C 
BRANCH   2   3
ATOM      3  C   UNL     1      10.930 -27.429  49.912  1.00  0.00    -0.000 C 
BRANCH   3   4
ATOM      4  C   UNL     1      11.297 -27.834  51.347  1.00  0.00    -0.000 C 
BRANCH   4   5
ATOM      5  C   UNL     1      11.173 -29.352  51.539  1.00  0.00    -0.000 C 
BRANCH   5   6
ATOM      6  C   UNL     1      10.014 -29.693  52.487  1.00  0.00    -0.000 C 
BRANCH   6   7
ATOM      7  C   UNL     1       9.014 -30.680  51.866  1.00  0.00    -0.003 C 
ATOM      8  C   UNL     1       9.248 -32.122  52.317  1.00  0.00     0.004 C 
ENDBRANCH   6   7
ENDBRANCH   5   6
ENDBRANCH   4   5
ENDBRANCH   3   4
ENDBRANCH   2   3
ENDBRANCH   1   2
BRANCH   1   9
ATOM      9  C   UNL     1       8.245 -25.691  51.781  1.00  0.00     0.000 C 
BRANCH   9  10
ATOM     10  C   UNL     1       8.261 -26.314  53.187  1.00  0.00     0.000 C 
BRANCH  10  11
ATOM     11  C   UNL     1       9.276 -25.633  54.120  1.00  0.00     0.000 C 
BRANCH  11  12
ATOM     12  C   UNL     1       8.670 -24.441  54.880  1.00  0.00     0.002 C 
BRANCH  12  13
ATOM     13  C   UNL     1       9.079 -23.082  54.288  1.00  0.00     0.028 C 
BRANCH  13  14
ATOM     14  C   UNL     1       7.938 -22.362  53.554  1.00  0.00     0.156 C 
BRANCH  14  15
ATOM     15  O   UNL     1       6.715 -23.020  53.750  1.00  0.00    -0.396 OA
ATOM     16  H   UNL     1       6.473 -22.897  54.704  1.00  0.00     0.210 HD
ENDBRANCH  14  15
ENDBRANCH  13  14
ENDBRANCH  12  13
ENDBRANCH  11  12
ENDBRANCH  10  11
ENDBRANCH   9  10
ENDBRANCH   1   9
TORSDOF 13
ENDMDL
MODEL 9
REMARK VINA RESULT:    -3.762      2.502      5.144
REMARK INTER + INTRA:          -8.356
REMARK INTER:                  -6.801
REMARK INTRA:                  -1.555
REMARK UNBOUND:                -1.845
REMARK SMILES CCCCCCCCCCCCCCO
REMARK SMILES IDX 8 1 7 2 6 3 5 4 4 5 3 6 2 7 1 8 9 9 10 10 11 11 12 12 13 13
REMARK SMILES IDX 14 14 15 15
REMARK H PARENT 15 16
REMARK Flexibility Score: inf
ROOT
ATOM      1  C   UNL     1      10.433 -24.926  50.677  1.00  0.00     0.000 C 
ENDROOT
BRANCH   1   2
ATOM      2  C   UNL     1       9.335 -24.433  51.634  1.00  0.00    -0.000 C 
BRANCH   2   3
ATOM      3  C   UNL     1       8.266 -25.503  51.907  1.00  0.00    -0.000 C 
BRANCH   3   4
ATOM      4  C   UNL     1       8.190 -25.898  53.388  1.00  0.00    -0.000 C 
BRANCH   4   5
ATOM      5  C   UNL     1       9.209 -25.108  54.221  1.00  0.00    -0.000 C 
BRANCH   5   6
ATOM      6  C   UNL     1       8.503 -24.173  55.214  1.00  0.00    -0.000 C 
BRANCH   6   7
ATOM      7  C   UNL     1       9.333 -22.922  55.539  1.00  0.00    -0.003 C 
ATOM      8  C   UNL     1       9.516 -22.002  54.332  1.00  0.00     0.004 C 
ENDBRANCH   6   7
ENDBRANCH   5   6
ENDBRANCH   4   5
ENDBRANCH   3   4
ENDBRANCH   2   3
ENDBRANCH   1   2
BRANCH   1   9
ATOM      9  C   UNL     1      10.002 -26.156  49.862  1.00  0.00     0.000 C 
BRANCH   9  10
ATOM     10  C   UNL     1      10.922 -27.368  50.090  1.00  0.00     0.000 C 
BRANCH  10  11
ATOM     11  C   UNL     1      10.310 -28.398  51.054  1.00  0.00     0.000 C 
BRANCH  11  12
ATOM     12  C   UNL     1      11.259 -28.761  52.209  1.00  0.00     0.002 C 
BRANCH  12  13
ATOM     13  C   UNL     1      11.732 -27.533  53.003  1.00  0.00     0.028 C 
BRANCH  13  14
ATOM     14  C   UNL     1      13.254 -27.477  53.202  1.00  0.00     0.156 C 
BRANCH  14  15
ATOM     15  O   UNL     1      13.749 -26.185  52.969  1.00  0.00    -0.396 OA
ATOM     16  H   UNL     1      13.121 -25.748  52.337  1.00  0.00     0.210 HD
ENDBRANCH  14  15
ENDBRANCH  13  14
ENDBRANCH  12  13
ENDBRANCH  11  12
ENDBRANCH  10  11
ENDBRANCH   9  10
ENDBRANCH   1   9
TORSDOF 13
ENDMDL
