MODEL 1
REMARK VINA RESULT:    -3.533      0.000      0.000
REMARK INTER + INTRA:          -4.769
REMARK INTER:                  -5.185
REMARK INTRA:                   0.416
REMARK UNBOUND:                 0.416
REMARK SMILES C=C1CC=CC(C)(C)CC=C(C)CCC1
REMARK SMILES IDX 2 1 1 2 15 3 14 4 13 5 11 6 12 7 10 8 3 10 4 11 5 12 6 13
REMARK SMILES IDX 7 14 8 15 9 16
REMARK H PARENT
REMARK Flexibility Score: 60.00
ROOT
ATOM      1  C   UNL     1     134.244 139.495 134.280  1.00  0.00    -0.074 C 
ATOM      2  C   UNL     1     135.286 140.075 133.660  1.00  0.00     0.008 C 
ENDROOT
BRANCH   1   3
ATOM      3  C   UNL     1     133.588 140.173 135.470  1.00  0.00     0.031 C 
BRANCH   3   4
ATOM      4  C   UNL     1     134.489 140.152 136.723  1.00  0.00     0.009 C 
BRANCH   4   5
ATOM      5  C   UNL     1     135.082 138.756 137.017  1.00  0.00     0.030 C 
BRANCH   5   6
ATOM      6  C   UNL     1     134.141 137.917 137.866  1.00  0.00    -0.077 C 
ATOM      7  C   UNL     1     133.711 138.479 139.197  1.00  0.00     0.039 C 
ATOM      8  C   UNL     1     133.639 136.709 137.500  1.00  0.00    -0.027 CG0
ATOM      9  G   UNL     1     133.921 135.947 136.217  1.00  0.00     0.000 G0
ENDBRANCH   5   6
ENDBRANCH   4   5
ENDBRANCH   3   4
ENDBRANCH   1   3
BRANCH   1  10
ATOM     10  C   UNL     1     133.716 138.173 133.769  1.00  0.00     0.057 C 
BRANCH  10  11
ATOM     11  C   UNL     1     132.318 137.945 134.288  1.00  0.00    -0.026 C 
ATOM     12  C   UNL     1     131.861 136.860 134.949  1.00  0.00    -0.024 C 
BRANCH  12  13
ATOM     13  C   UNL     1     132.629 135.602 135.369  1.00  0.00    -0.014 C 
ATOM     14  C   UNL     1     133.000 134.752 134.133  1.00  0.00     0.016 C 
ATOM     15  C   UNL     1     131.679 134.740 136.239  1.00  0.00     0.016 C 
BRANCH  13  16
ATOM     16  C   UNL     1     133.909 135.926 136.200  1.00  0.00     0.038 CG0
ATOM     17  G   UNL     1     133.621 136.690 137.480  1.00  0.00     0.000 G0
ENDBRANCH  13  16
ENDBRANCH  12  13
ENDBRANCH  10  11
ENDBRANCH   1  10
TORSDOF 0
ENDMDL
MODEL 2
REMARK VINA RESULT:    -3.204      3.182      4.888
REMARK INTER + INTRA:          -4.286
REMARK INTER:                  -4.858
REMARK INTRA:                   0.572
REMARK UNBOUND:                 0.416
REMARK SMILES C=C1CC=CC(C)(C)CC=C(C)CCC1
REMARK SMILES IDX 2 1 1 2 15 3 14 4 13 5 11 6 12 7 10 8 3 10 4 11 5 12 6 13
REMARK SMILES IDX 7 14 8 15 9 16
REMARK H PARENT
REMARK Flexibility Score: 60.00
ROOT
ATOM      1  C   UNL     1     139.324 138.452 134.338  1.00  0.00    -0.074 C 
ATOM      2  C   UNL     1     139.935 137.376 133.813  1.00  0.00     0.008 C 
ENDROOT
BRANCH   1   3
ATOM      3  C   UNL     1     139.870 139.102 135.598  1.00  0.00     0.031 C 
BRANCH   3   4
ATOM      4  C   UNL     1     139.708 138.199 136.838  1.00  0.00     0.009 C 
BRANCH   4   5
ATOM      5  C   UNL     1     138.341 137.480 136.888  1.00  0.00     0.030 C 
BRANCH   5   6
ATOM      6  C   UNL     1     137.320 138.277 137.682  1.00  0.00    -0.077 C 
ATOM      7  C   UNL     1     137.614 138.536 139.138  1.00  0.00     0.039 C 
ATOM      8  C   UNL     1     136.174 138.794 137.169  1.00  0.00    -0.027 CG0
ATOM      9  G   UNL     1     135.667 138.669 135.743  1.00  0.00     0.000 G0
ENDBRANCH   5   6
ENDBRANCH   4   5
ENDBRANCH   3   4
ENDBRANCH   1   3
BRANCH   1  10
ATOM     10  C   UNL     1     138.103 139.023 133.654  1.00  0.00     0.057 C 
BRANCH  10  11
ATOM     11  C   UNL     1     137.816 140.405 134.187  1.00  0.00    -0.026 C 
ATOM     12  C   UNL     1     136.671 140.836 134.758  1.00  0.00    -0.024 C 
BRANCH  12  13
ATOM     13  C   UNL     1     135.387 140.048 135.041  1.00  0.00    -0.014 C 
ATOM     14  C   UNL     1     134.582 139.833 133.740  1.00  0.00     0.016 C 
ATOM     15  C   UNL     1     134.504 140.910 135.979  1.00  0.00     0.016 C 
BRANCH  13  16
ATOM     16  C   UNL     1     135.661 138.678 135.735  1.00  0.00     0.038 CG0
ATOM     17  G   UNL     1     136.162 138.812 137.162  1.00  0.00     0.000 G0
ENDBRANCH  13  16
ENDBRANCH  12  13
ENDBRANCH  10  11
ENDBRANCH   1  10
TORSDOF 0
ENDMDL
MODEL 3
REMARK VINA RESULT:    -3.139      5.335      6.219
REMARK INTER + INTRA:          -4.192
REMARK INTER:                  -4.931
REMARK INTRA:                   0.739
REMARK UNBOUND:                 0.416
REMARK SMILES C=C1CC=CC(C)(C)CC=C(C)CCC1
REMARK SMILES IDX 2 1 1 2 15 3 14 4 13 5 11 6 12 7 10 8 3 10 4 11 5 12 6 13
REMARK SMILES IDX 7 14 8 15 9 16
REMARK H PARENT
REMARK Flexibility Score: 60.00
ROOT
ATOM      1  C   UNL     1     140.262 135.921 134.112  1.00  0.00    -0.074 C 
ATOM      2  C   UNL     1     141.184 135.577 133.196  1.00  0.00     0.008 C 
ENDROOT
BRANCH   1   3
ATOM      3  C   UNL     1     140.278 137.309 134.728  1.00  0.00     0.031 C 
BRANCH   3   4
ATOM      4  C   UNL     1     140.508 137.268 136.253  1.00  0.00     0.009 C 
BRANCH   4   5
ATOM      5  C   UNL     1     139.322 137.843 137.059  1.00  0.00     0.030 C 
BRANCH   5   6
ATOM      6  C   UNL     1     139.054 137.032 138.316  1.00  0.00    -0.077 C 
ATOM      7  C   UNL     1     139.622 137.547 139.614  1.00  0.00     0.039 C 
ATOM      8  C   UNL     1     138.319 135.891 138.358  1.00  0.00    -0.027 CG0
ATOM      9  G   UNL     1     137.649 135.185 137.193  1.00  0.00     0.000 G0
ENDBRANCH   5   6
ENDBRANCH   4   5
ENDBRANCH   3   4
ENDBRANCH   1   3
BRANCH   1  10
ATOM     10  C   UNL     1     139.196 134.924 134.507  1.00  0.00     0.057 C 
BRANCH  10  11
ATOM     11  C   UNL     1     139.801 133.840 135.364  1.00  0.00    -0.026 C 
ATOM     12  C   UNL     1     139.279 133.305 136.488  1.00  0.00    -0.024 C 
BRANCH  12  13
ATOM     13  C   UNL     1     137.944 133.626 137.171  1.00  0.00    -0.014 C 
ATOM     14  C   UNL     1     137.911 133.047 138.603  1.00  0.00     0.016 C 
ATOM     15  C   UNL     1     136.824 132.911 136.371  1.00  0.00     0.016 C 
BRANCH  13  16
ATOM     16  C   UNL     1     137.635 135.155 137.203  1.00  0.00     0.038 CG0
ATOM     17  G   UNL     1     138.308 135.883 138.353  1.00  0.00     0.000 G0
ENDBRANCH  13  16
ENDBRANCH  12  13
ENDBRANCH  10  11
ENDBRANCH   1  10
TORSDOF 0
ENDMDL
MODEL 4
REMARK VINA RESULT:    -3.046      3.722      5.415
REMARK INTER + INTRA:          -4.054
REMARK INTER:                  -4.557
REMARK INTRA:                   0.502
REMARK UNBOUND:                 0.416
REMARK SMILES C=C1CC=CC(C)(C)CC=C(C)CCC1
REMARK SMILES IDX 2 1 1 2 15 3 14 4 13 5 11 6 12 7 10 8 3 10 4 11 5 12 6 13
REMARK SMILES IDX 7 14 8 15 9 16
REMARK H PARENT
REMARK Flexibility Score: 60.00
ROOT
ATOM      1  C   UNL     1     133.340 134.087 135.885  1.00  0.00    -0.074 C 
ATOM      2  C   UNL     1     132.495 135.132 135.884  1.00  0.00     0.008 C 
ENDROOT
BRANCH   1   3
ATOM      3  C   UNL     1     133.566 133.288 137.157  1.00  0.00     0.031 C 
BRANCH   3   4
ATOM      4  C   UNL     1     133.809 134.197 138.381  1.00  0.00     0.009 C 
BRANCH   4   5
ATOM      5  C   UNL     1     135.149 134.962 138.309  1.00  0.00     0.030 C 
BRANCH   5   6
ATOM      6  C   UNL     1     136.337 134.018 138.391  1.00  0.00    -0.077 C 
ATOM      7  C   UNL     1     136.623 133.370 139.722  1.00  0.00     0.039 C 
ATOM      8  C   UNL     1     137.143 133.695 137.347  1.00  0.00    -0.027 CG0
ATOM      9  G   UNL     1     137.052 134.212 135.922  1.00  0.00     0.000 G0
ENDBRANCH   5   6
ENDBRANCH   4   5
ENDBRANCH   3   4
ENDBRANCH   1   3
BRANCH   1  10
ATOM     10  C   UNL     1     134.045 133.697 134.605  1.00  0.00     0.057 C 
BRANCH  10  11
ATOM     11  C   UNL     1     134.704 132.351 134.773  1.00  0.00    -0.026 C 
ATOM     12  C   UNL     1     136.028 132.097 134.851  1.00  0.00    -0.024 C 
BRANCH  12  13
ATOM     13  C   UNL     1     137.197 133.088 134.820  1.00  0.00    -0.014 C 
ATOM     14  C   UNL     1     137.340 133.718 133.416  1.00  0.00     0.016 C 
ATOM     15  C   UNL     1     138.498 132.290 135.089  1.00  0.00     0.016 C 
BRANCH  13  16
ATOM     16  C   UNL     1     137.066 134.208 135.898  1.00  0.00     0.038 CG0
ATOM     17  G   UNL     1     137.138 133.686 137.323  1.00  0.00     0.000 G0
ENDBRANCH  13  16
ENDBRANCH  12  13
ENDBRANCH  10  11
ENDBRANCH   1  10
TORSDOF 0
ENDMDL
MODEL 5
REMARK VINA RESULT:    -3.034      3.816      5.536
REMARK INTER + INTRA:          -4.038
REMARK INTER:                  -4.530
REMARK INTRA:                   0.492
REMARK UNBOUND:                 0.416
REMARK SMILES C=C1CC=CC(C)(C)CC=C(C)CCC1
REMARK SMILES IDX 2 1 1 2 15 3 14 4 13 5 11 6 12 7 10 8 3 10 4 11 5 12 6 13
REMARK SMILES IDX 7 14 8 15 9 16
REMARK H PARENT
REMARK Flexibility Score: 60.00
ROOT
ATOM      1  C   UNL     1     137.335 132.236 134.538  1.00  0.00    -0.074 C 
ATOM      2  C   UNL     1     137.915 132.739 133.435  1.00  0.00     0.008 C 
ENDROOT
BRANCH   1   3
ATOM      3  C   UNL     1     138.173 131.924 135.767  1.00  0.00     0.031 C 
BRANCH   3   4
ATOM      4  C   UNL     1     139.149 133.069 136.113  1.00  0.00     0.009 C 
BRANCH   4   5
ATOM      5  C   UNL     1     138.616 134.001 137.224  1.00  0.00     0.030 C 
BRANCH   5   6
ATOM      6  C   UNL     1     137.858 135.184 136.645  1.00  0.00    -0.077 C 
ATOM      7  C   UNL     1     138.667 136.340 136.112  1.00  0.00     0.039 C 
ATOM      8  C   UNL     1     136.506 135.264 136.550  1.00  0.00    -0.027 CG0
ATOM      9  G   UNL     1     135.489 134.235 137.009  1.00  0.00     0.000 G0
ENDBRANCH   5   6
ENDBRANCH   4   5
ENDBRANCH   3   4
ENDBRANCH   1   3
BRANCH   1  10
ATOM     10  C   UNL     1     135.841 132.006 134.556  1.00  0.00     0.057 C 
BRANCH  10  11
ATOM     11  C   UNL     1     135.130 133.209 133.989  1.00  0.00    -0.026 C 
ATOM     12  C   UNL     1     134.416 134.130 134.672  1.00  0.00    -0.024 C 
BRANCH  12  13
ATOM     13  C   UNL     1     134.163 134.218 136.182  1.00  0.00    -0.014 C 
ATOM     14  C   UNL     1     133.247 133.064 136.649  1.00  0.00     0.016 C 
ATOM     15  C   UNL     1     133.398 135.538 136.453  1.00  0.00     0.016 C 
BRANCH  13  16
ATOM     16  C   UNL     1     135.483 134.226 137.015  1.00  0.00     0.038 CG0
ATOM     17  G   UNL     1     136.490 135.259 136.542  1.00  0.00     0.000 G0
ENDBRANCH  13  16
ENDBRANCH  12  13
ENDBRANCH  10  11
ENDBRANCH   1  10
TORSDOF 0
ENDMDL
MODEL 6
REMARK VINA RESULT:    -3.027      1.430      3.623
REMARK INTER + INTRA:          -4.027
REMARK INTER:                  -4.645
REMARK INTRA:                   0.618
REMARK UNBOUND:                 0.416
REMARK SMILES C=C1CC=CC(C)(C)CC=C(C)CCC1
REMARK SMILES IDX 2 1 1 2 15 3 14 4 13 5 11 6 12 7 10 8 3 10 4 11 5 12 6 13
REMARK SMILES IDX 7 14 8 15 9 16
REMARK H PARENT
REMARK Flexibility Score: 60.00
ROOT
ATOM      1  C   UNL     1     132.509 135.143 134.494  1.00  0.00    -0.074 C 
ATOM      2  C   UNL     1     133.086 134.808 133.328  1.00  0.00     0.008 C 
ENDROOT
BRANCH   1   3
ATOM      3  C   UNL     1     131.859 136.506 134.661  1.00  0.00     0.031 C 
BRANCH   3   4
ATOM      4  C   UNL     1     132.527 137.582 133.780  1.00  0.00     0.009 C 
BRANCH   4   5
ATOM      5  C   UNL     1     133.958 137.937 134.240  1.00  0.00     0.030 C 
BRANCH   5   6
ATOM      6  C   UNL     1     133.981 138.404 135.686  1.00  0.00    -0.077 C 
ATOM      7  C   UNL     1     133.328 139.724 136.005  1.00  0.00     0.039 C 
ATOM      8  C   UNL     1     134.525 137.705 136.716  1.00  0.00    -0.027 CG0
ATOM      9  G   UNL     1     135.228 136.361 136.645  1.00  0.00     0.000 G0
ENDBRANCH   5   6
ENDBRANCH   4   5
ENDBRANCH   3   4
ENDBRANCH   1   3
BRANCH   1  10
ATOM     10  C   UNL     1     132.492 134.146 135.631  1.00  0.00     0.057 C 
BRANCH  10  11
ATOM     11  C   UNL     1     132.243 134.861 136.936  1.00  0.00    -0.026 C 
ATOM     12  C   UNL     1     133.170 135.335 137.795  1.00  0.00    -0.024 C 
BRANCH  12  13
ATOM     13  C   UNL     1     134.698 135.303 137.667  1.00  0.00    -0.014 C 
ATOM     14  C   UNL     1     135.182 133.890 137.271  1.00  0.00     0.016 C 
ATOM     15  C   UNL     1     135.292 135.606 139.066  1.00  0.00     0.016 C 
BRANCH  13  16
ATOM     16  C   UNL     1     135.241 136.359 136.655  1.00  0.00     0.038 CG0
ATOM     17  G   UNL     1     134.516 137.691 136.724  1.00  0.00     0.000 G0
ENDBRANCH  13  16
ENDBRANCH  12  13
ENDBRANCH  10  11
ENDBRANCH   1  10
TORSDOF 0
ENDMDL
MODEL 7
REMARK VINA RESULT:    -3.018      3.513      5.974
REMARK INTER + INTRA:          -4.014
REMARK INTER:                  -4.534
REMARK INTRA:                   0.521
REMARK UNBOUND:                 0.416
REMARK SMILES C=C1CC=CC(C)(C)CC=C(C)CCC1
REMARK SMILES IDX 2 1 1 2 15 3 14 4 13 5 11 6 12 7 10 8 3 10 4 11 5 12 6 13
REMARK SMILES IDX 7 14 8 15 9 16
REMARK H PARENT
REMARK Flexibility Score: 60.00
ROOT
ATOM      1  C   UNL     1     137.744 133.752 137.344  1.00  0.00    -0.074 C 
ATOM      2  C   UNL     1     139.003 134.217 137.410  1.00  0.00     0.008 C 
ENDROOT
BRANCH   1   3
ATOM      3  C   UNL     1     137.472 132.361 136.797  1.00  0.00     0.031 C 
BRANCH   3   4
ATOM      4  C   UNL     1     137.934 132.210 135.332  1.00  0.00     0.009 C 
BRANCH   4   5
ATOM      5  C   UNL     1     137.272 133.231 134.381  1.00  0.00     0.030 C 
BRANCH   5   6
ATOM      6  C   UNL     1     135.842 132.840 134.048  1.00  0.00    -0.077 C 
ATOM      7  C   UNL     1     135.632 131.591 133.230  1.00  0.00     0.039 C 
ATOM      8  C   UNL     1     134.739 133.519 134.456  1.00  0.00    -0.027 CG0
ATOM      9  G   UNL     1     134.697 134.791 135.285  1.00  0.00     0.000 G0
ENDBRANCH   5   6
ENDBRANCH   4   5
ENDBRANCH   3   4
ENDBRANCH   1   3
BRANCH   1  10
ATOM     10  C   UNL     1     136.605 134.613 137.840  1.00  0.00     0.057 C 
BRANCH  10  11
ATOM     11  C   UNL     1     135.417 133.746 138.179  1.00  0.00    -0.026 C 
ATOM     12  C   UNL     1     134.188 133.796 137.623  1.00  0.00    -0.024 C 
BRANCH  12  13
ATOM     13  C   UNL     1     133.681 134.707 136.499  1.00  0.00    -0.014 C 
ATOM     14  C   UNL     1     133.379 136.123 137.040  1.00  0.00     0.016 C 
ATOM     15  C   UNL     1     132.338 134.124 135.990  1.00  0.00     0.016 C 
BRANCH  13  16
ATOM     16  C   UNL     1     134.674 134.793 135.298  1.00  0.00     0.038 CG0
ATOM     17  G   UNL     1     134.729 133.524 134.467  1.00  0.00     0.000 G0
ENDBRANCH  13  16
ENDBRANCH  12  13
ENDBRANCH  10  11
ENDBRANCH   1  10
TORSDOF 0
ENDMDL
MODEL 8
REMARK VINA RESULT:    -3.017      4.023      6.364
REMARK INTER + INTRA:          -4.012
REMARK INTER:                  -4.699
REMARK INTRA:                   0.687
REMARK UNBOUND:                 0.416
REMARK SMILES C=C1CC=CC(C)(C)CC=C(C)CCC1
REMARK SMILES IDX 2 1 1 2 15 3 14 4 13 5 11 6 12 7 10 8 3 10 4 11 5 12 6 13
REMARK SMILES IDX 7 14 8 15 9 16
REMARK H PARENT
REMARK Flexibility Score: 60.00
ROOT
ATOM      1  C   UNL     1     138.725 133.050 136.644  1.00  0.00    -0.074 C 
ATOM      2  C   UNL     1     139.675 133.506 135.810  1.00  0.00     0.008 C 
ENDROOT
BRANCH   1   3
ATOM      3  C   UNL     1     137.876 131.852 136.254  1.00  0.00     0.031 C 
BRANCH   3   4
ATOM      4  C   UNL     1     136.812 132.212 135.195  1.00  0.00     0.009 C 
BRANCH   4   5
ATOM      5  C   UNL     1     136.378 133.694 135.254  1.00  0.00     0.030 C 
BRANCH   5   6
ATOM      6  C   UNL     1     134.989 133.846 135.851  1.00  0.00    -0.077 C 
ATOM      7  C   UNL     1     133.874 133.034 135.243  1.00  0.00     0.039 C 
ATOM      8  C   UNL     1     134.685 134.642 136.909  1.00  0.00    -0.027 CG0
ATOM      9  G   UNL     1     135.630 135.543 137.684  1.00  0.00     0.000 G0
ENDBRANCH   5   6
ENDBRANCH   4   5
ENDBRANCH   3   4
ENDBRANCH   1   3
BRANCH   1  10
ATOM     10  C   UNL     1     138.523 133.723 137.983  1.00  0.00     0.057 C 
BRANCH  10  11
ATOM     11  C   UNL     1     137.420 133.031 138.744  1.00  0.00    -0.026 C 
ATOM     12  C   UNL     1     136.304 133.595 139.253  1.00  0.00    -0.024 C 
BRANCH  12  13
ATOM     13  C   UNL     1     135.848 135.057 139.174  1.00  0.00    -0.014 C 
ATOM     14  C   UNL     1     136.863 135.982 139.882  1.00  0.00     0.016 C 
ATOM     15  C   UNL     1     134.513 135.175 139.952  1.00  0.00     0.016 C 
BRANCH  13  16
ATOM     16  C   UNL     1     135.616 135.537 137.708  1.00  0.00     0.038 CG0
ATOM     17  G   UNL     1     134.686 134.635 136.916  1.00  0.00     0.000 G0
ENDBRANCH  13  16
ENDBRANCH  12  13
ENDBRANCH  10  11
ENDBRANCH   1  10
TORSDOF 0
ENDMDL
MODEL 9
REMARK VINA RESULT:    -2.970      4.891      6.597
REMARK INTER + INTRA:          -3.943
REMARK INTER:                  -4.376
REMARK INTRA:                   0.433
REMARK UNBOUND:                 0.416
REMARK SMILES C=C1CC=CC(C)(C)CC=C(C)CCC1
REMARK SMILES IDX 2 1 1 2 15 3 14 4 13 5 11 6 12 7 10 8 3 10 4 11 5 12 6 13
REMARK SMILES IDX 7 14 8 15 9 16
REMARK H PARENT
REMARK Flexibility Score: 60.00
ROOT
ATOM      1  C   UNL     1     137.784 133.401 138.662  1.00  0.00    -0.074 C 
ATOM      2  C   UNL     1     137.148 133.321 139.843  1.00  0.00     0.008 C 
ENDROOT
BRANCH   1   3
ATOM      3  C   UNL     1     139.007 134.290 138.512  1.00  0.00     0.031 C 
BRANCH   3   4
ATOM      4  C   UNL     1     138.686 135.775 138.786  1.00  0.00     0.009 C 
BRANCH   4   5
ATOM      5  C   UNL     1     137.995 136.474 137.594  1.00  0.00     0.030 C 
BRANCH   5   6
ATOM      6  C   UNL     1     138.845 136.406 136.337  1.00  0.00    -0.077 C 
ATOM      7  C   UNL     1     140.168 137.128 136.348  1.00  0.00     0.039 C 
ATOM      8  C   UNL     1     138.511 135.720 135.213  1.00  0.00    -0.027 CG0
ATOM      9  G   UNL     1     137.245 134.919 134.967  1.00  0.00     0.000 G0
ENDBRANCH   5   6
ENDBRANCH   4   5
ENDBRANCH   3   4
ENDBRANCH   1   3
BRANCH   1  10
ATOM     10  C   UNL     1     137.288 132.584 137.492  1.00  0.00     0.057 C 
BRANCH  10  11
ATOM     11  C   UNL     1     138.424 132.312 136.537  1.00  0.00    -0.026 C 
ATOM     12  C   UNL     1     138.503 132.677 135.240  1.00  0.00    -0.024 C 
BRANCH  12  13
ATOM     13  C   UNL     1     137.492 133.474 134.407  1.00  0.00    -0.014 C 
ATOM     14  C   UNL     1     136.158 132.704 134.285  1.00  0.00     0.016 C 
ATOM     15  C   UNL     1     138.066 133.608 132.973  1.00  0.00     0.016 C 
BRANCH  13  16
ATOM     16  C   UNL     1     137.236 134.904 134.976  1.00  0.00     0.038 CG0
ATOM     17  G   UNL     1     138.508 135.706 135.191  1.00  0.00     0.000 G0
ENDBRANCH  13  16
ENDBRANCH  12  13
ENDBRANCH  10  11
ENDBRANCH   1  10
TORSDOF 0
ENDMDL
