MODEL 1
REMARK VINA RESULT:    -5.949      0.000      0.000
REMARK INTER + INTRA:          -6.662
REMARK INTER:                  -6.470
REMARK INTRA:                  -0.191
REMARK UNBOUND:                -0.191
REMARK SMILES Cc1ccc(C(C)C)c(O)c1
REMARK SMILES IDX 1 1 2 2 11 3 9 4 5 5 4 6 3 7 10 8 6 10 7 11 8 12
REMARK H PARENT 10 9
REMARK Flexibility Score: inf
ROOT
ATOM      1  C   UNL     1     -23.384 -13.389  27.052  1.00  0.00     0.044 C 
ATOM      2  C   UNL     1     -24.491 -12.427  27.362  1.00  0.00    -0.047 A 
ATOM      3  C   UNL     1     -25.271 -11.893  26.331  1.00  0.00     0.049 A 
ATOM      4  C   UNL     1     -26.278 -10.956  26.599  1.00  0.00     0.119 A 
ATOM      5  C   UNL     1     -26.548 -10.571  27.940  1.00  0.00    -0.004 A 
ATOM      6  C   UNL     1     -25.707 -11.068  28.960  1.00  0.00     0.008 A 
ATOM      7  C   UNL     1     -24.696 -11.987  28.674  1.00  0.00     0.004 A 
ENDROOT
BRANCH   4   8
ATOM      8  O   UNL     1     -26.964 -10.422  25.505  1.00  0.00    -0.508 OA
ATOM      9  H   UNL     1     -26.960  -9.444  25.255  1.00  0.00     0.293 HD
ENDBRANCH   4   8
BRANCH   5  10
ATOM     10  C   UNL     1     -27.662  -9.586  28.279  1.00  0.00     0.017 C 
ATOM     11  C   UNL     1     -27.229  -8.669  29.426  1.00  0.00     0.012 C 
ATOM     12  C   UNL     1     -29.002 -10.269  28.604  1.00  0.00     0.012 C 
ENDBRANCH   5  10
TORSDOF 2
ENDMDL
MODEL 2
REMARK VINA RESULT:    -5.622     11.927     12.865
REMARK INTER + INTRA:          -6.306
REMARK INTER:                  -6.115
REMARK INTRA:                  -0.191
REMARK UNBOUND:                -0.191
REMARK SMILES Cc1ccc(C(C)C)c(O)c1
REMARK SMILES IDX 1 1 2 2 11 3 9 4 5 5 4 6 3 7 10 8 6 10 7 11 8 12
REMARK H PARENT 10 9
REMARK Flexibility Score: inf
ROOT
ATOM      1  C   UNL     1     -36.484  -6.676  25.049  1.00  0.00     0.044 C 
ATOM      2  C   UNL     1     -37.169  -8.001  25.198  1.00  0.00    -0.047 A 
ATOM      3  C   UNL     1     -37.648  -8.411  26.447  1.00  0.00     0.049 A 
ATOM      4  C   UNL     1     -38.247  -9.667  26.613  1.00  0.00     0.119 A 
ATOM      5  C   UNL     1     -38.416 -10.524  25.492  1.00  0.00    -0.004 A 
ATOM      6  C   UNL     1     -37.867 -10.122  24.254  1.00  0.00     0.008 A 
ATOM      7  C   UNL     1     -37.256  -8.876  24.111  1.00  0.00     0.004 A 
ENDROOT
BRANCH   4   8
ATOM      8  O   UNL     1     -38.637 -10.025  27.906  1.00  0.00    -0.508 OA
ATOM      9  H   UNL     1     -39.019  -9.380  28.582  1.00  0.00     0.293 HD
ENDBRANCH   4   8
BRANCH   5  10
ATOM     10  C   UNL     1     -39.102 -11.881  25.621  1.00  0.00     0.017 C 
ATOM     11  C   UNL     1     -38.414 -12.911  24.719  1.00  0.00     0.012 C 
ATOM     12  C   UNL     1     -40.612 -11.832  25.335  1.00  0.00     0.012 C 
ENDBRANCH   5  10
TORSDOF 2
ENDMDL
MODEL 3
REMARK VINA RESULT:    -5.401      1.199      4.205
REMARK INTER + INTRA:          -6.066
REMARK INTER:                  -5.880
REMARK INTRA:                  -0.186
REMARK UNBOUND:                -0.191
REMARK SMILES Cc1ccc(C(C)C)c(O)c1
REMARK SMILES IDX 1 1 2 2 11 3 9 4 5 5 4 6 3 7 10 8 6 10 7 11 8 12
REMARK H PARENT 10 9
REMARK Flexibility Score: inf
ROOT
ATOM      1  C   UNL     1     -27.997  -8.875  29.000  1.00  0.00     0.044 C 
ATOM      2  C   UNL     1     -26.866  -9.803  28.670  1.00  0.00    -0.047 A 
ATOM      3  C   UNL     1     -26.720 -10.303  27.371  1.00  0.00     0.049 A 
ATOM      4  C   UNL     1     -25.698 -11.209  27.058  1.00  0.00     0.119 A 
ATOM      5  C   UNL     1     -24.764 -11.595  28.058  1.00  0.00    -0.004 A 
ATOM      6  C   UNL     1     -24.968 -11.134  29.377  1.00  0.00     0.008 A 
ATOM      7  C   UNL     1     -26.003 -10.247  29.676  1.00  0.00     0.004 A 
ENDROOT
BRANCH   4   8
ATOM      8  O   UNL     1     -25.664 -11.710  25.754  1.00  0.00    -0.508 OA
ATOM      9  H   UNL     1     -26.272 -12.439  25.411  1.00  0.00     0.293 HD
ENDBRANCH   4   8
BRANCH   5  10
ATOM     10  C   UNL     1     -23.612 -12.547  27.748  1.00  0.00     0.017 C 
ATOM     11  C   UNL     1     -24.067 -14.000  27.910  1.00  0.00     0.012 C 
ATOM     12  C   UNL     1     -22.353 -12.274  28.589  1.00  0.00     0.012 C 
ENDBRANCH   5  10
TORSDOF 2
ENDMDL
MODEL 4
REMARK VINA RESULT:    -5.357      2.064      4.732
REMARK INTER + INTRA:          -6.018
REMARK INTER:                  -5.884
REMARK INTRA:                  -0.134
REMARK UNBOUND:                -0.191
REMARK SMILES Cc1ccc(C(C)C)c(O)c1
REMARK SMILES IDX 1 1 2 2 11 3 9 4 5 5 4 6 3 7 10 8 6 10 7 11 8 12
REMARK H PARENT 10 9
REMARK Flexibility Score: inf
ROOT
ATOM      1  C   UNL     1     -27.156  -8.911  29.045  1.00  0.00     0.044 C 
ATOM      2  C   UNL     1     -26.288 -10.074  28.666  1.00  0.00    -0.047 A 
ATOM      3  C   UNL     1     -25.553 -10.754  29.643  1.00  0.00     0.049 A 
ATOM      4  C   UNL     1     -24.701 -11.811  29.299  1.00  0.00     0.119 A 
ATOM      5  C   UNL     1     -24.609 -12.234  27.945  1.00  0.00    -0.004 A 
ATOM      6  C   UNL     1     -25.305 -11.493  26.964  1.00  0.00     0.008 A 
ATOM      7  C   UNL     1     -26.135 -10.430  27.322  1.00  0.00     0.004 A 
ENDROOT
BRANCH   4   8
ATOM      8  O   UNL     1     -23.953 -12.393  30.326  1.00  0.00    -0.508 OA
ATOM      9  H   UNL     1     -24.280 -13.153  30.905  1.00  0.00     0.293 HD
ENDBRANCH   4   8
BRANCH   5  10
ATOM     10  C   UNL     1     -23.725 -13.408  27.533  1.00  0.00     0.017 C 
ATOM     11  C   UNL     1     -22.256 -12.975  27.488  1.00  0.00     0.012 C 
ATOM     12  C   UNL     1     -24.144 -14.049  26.199  1.00  0.00     0.012 C 
ENDBRANCH   5  10
TORSDOF 2
ENDMDL
MODEL 5
REMARK VINA RESULT:    -5.348      9.924     12.151
REMARK INTER + INTRA:          -6.008
REMARK INTER:                  -5.829
REMARK INTRA:                  -0.179
REMARK UNBOUND:                -0.191
REMARK SMILES Cc1ccc(C(C)C)c(O)c1
REMARK SMILES IDX 1 1 2 2 11 3 9 4 5 5 4 6 3 7 10 8 6 10 7 11 8 12
REMARK H PARENT 10 9
REMARK Flexibility Score: inf
ROOT
ATOM      1  C   UNL     1     -39.531 -13.325  23.822  1.00  0.00     0.044 C 
ATOM      2  C   UNL     1     -38.700 -12.253  24.460  1.00  0.00    -0.047 A 
ATOM      3  C   UNL     1     -39.032 -11.765  25.729  1.00  0.00     0.049 A 
ATOM      4  C   UNL     1     -38.295 -10.729  26.319  1.00  0.00     0.119 A 
ATOM      5  C   UNL     1     -37.165 -10.192  25.645  1.00  0.00    -0.004 A 
ATOM      6  C   UNL     1     -36.887 -10.649  24.338  1.00  0.00     0.008 A 
ATOM      7  C   UNL     1     -37.643 -11.668  23.757  1.00  0.00     0.004 A 
ENDROOT
BRANCH   4   8
ATOM      8  O   UNL     1     -38.734 -10.256  27.558  1.00  0.00    -0.508 OA
ATOM      9  H   UNL     1     -38.970 -10.849  28.340  1.00  0.00     0.293 HD
ENDBRANCH   4   8
BRANCH   5  10
ATOM     10  C   UNL     1     -36.311  -9.093  26.270  1.00  0.00     0.017 C 
ATOM     11  C   UNL     1     -35.581  -8.303  25.179  1.00  0.00     0.012 C 
ATOM     12  C   UNL     1     -35.316  -9.617  27.320  1.00  0.00     0.012 C 
ENDBRANCH   5  10
TORSDOF 2
ENDMDL
MODEL 6
REMARK VINA RESULT:    -5.329     11.550     12.022
REMARK INTER + INTRA:          -5.988
REMARK INTER:                  -5.798
REMARK INTRA:                  -0.189
REMARK UNBOUND:                -0.191
REMARK SMILES Cc1ccc(C(C)C)c(O)c1
REMARK SMILES IDX 1 1 2 2 11 3 9 4 5 5 4 6 3 7 10 8 6 10 7 11 8 12
REMARK H PARENT 10 9
REMARK Flexibility Score: inf
ROOT
ATOM      1  C   UNL     1     -37.251 -12.362  21.985  1.00  0.00     0.044 C 
ATOM      2  C   UNL     1     -37.407 -11.466  23.177  1.00  0.00    -0.047 A 
ATOM      3  C   UNL     1     -36.900 -10.162  23.150  1.00  0.00     0.049 A 
ATOM      4  C   UNL     1     -36.994  -9.329  24.273  1.00  0.00     0.119 A 
ATOM      5  C   UNL     1     -37.652  -9.791  25.444  1.00  0.00    -0.004 A 
ATOM      6  C   UNL     1     -38.096 -11.131  25.477  1.00  0.00     0.008 A 
ATOM      7  C   UNL     1     -37.978 -11.954  24.356  1.00  0.00     0.004 A 
ENDROOT
BRANCH   4   8
ATOM      8  O   UNL     1     -36.404  -8.065  24.184  1.00  0.00    -0.508 OA
ATOM      9  H   UNL     1     -36.911  -7.196  24.263  1.00  0.00     0.293 HD
ENDBRANCH   4   8
BRANCH   5  10
ATOM     10  C   UNL     1     -37.813  -8.901  26.674  1.00  0.00     0.017 C 
ATOM     11  C   UNL     1     -37.539  -9.704  27.949  1.00  0.00     0.012 C 
ATOM     12  C   UNL     1     -39.185  -8.210  26.750  1.00  0.00     0.012 C 
ENDBRANCH   5  10
TORSDOF 2
ENDMDL
MODEL 7
REMARK VINA RESULT:    -5.322     10.305     12.641
REMARK INTER + INTRA:          -5.980
REMARK INTER:                  -5.788
REMARK INTRA:                  -0.192
REMARK UNBOUND:                -0.191
REMARK SMILES Cc1ccc(C(C)C)c(O)c1
REMARK SMILES IDX 1 1 2 2 11 3 9 4 5 5 4 6 3 7 10 8 6 10 7 11 8 12
REMARK H PARENT 10 9
REMARK Flexibility Score: inf
ROOT
ATOM      1  C   UNL     1     -40.612 -12.492  24.031  1.00  0.00     0.044 C 
ATOM      2  C   UNL     1     -39.512 -11.490  24.218  1.00  0.00    -0.047 A 
ATOM      3  C   UNL     1     -38.704 -11.120  23.137  1.00  0.00     0.049 A 
ATOM      4  C   UNL     1     -37.642 -10.222  23.306  1.00  0.00     0.119 A 
ATOM      5  C   UNL     1     -37.403  -9.639  24.580  1.00  0.00    -0.004 A 
ATOM      6  C   UNL     1     -38.185 -10.075  25.672  1.00  0.00     0.008 A 
ATOM      7  C   UNL     1     -39.228 -10.985  25.490  1.00  0.00     0.004 A 
ENDROOT
BRANCH   4   8
ATOM      8  O   UNL     1     -36.842  -9.957  22.191  1.00  0.00    -0.508 OA
ATOM      9  H   UNL     1     -37.038  -9.237  21.511  1.00  0.00     0.293 HD
ENDBRANCH   4   8
BRANCH   5  10
ATOM     10  C   UNL     1     -36.283  -8.625  24.797  1.00  0.00     0.017 C 
ATOM     11  C   UNL     1     -35.646  -8.825  26.176  1.00  0.00     0.012 C 
ATOM     12  C   UNL     1     -36.738  -7.167  24.615  1.00  0.00     0.012 C 
ENDBRANCH   5  10
TORSDOF 2
ENDMDL
MODEL 8
REMARK VINA RESULT:    -5.231     11.329     12.361
REMARK INTER + INTRA:          -5.881
REMARK INTER:                  -5.694
REMARK INTRA:                  -0.187
REMARK UNBOUND:                -0.191
REMARK SMILES Cc1ccc(C(C)C)c(O)c1
REMARK SMILES IDX 1 1 2 2 11 3 9 4 5 5 4 6 3 7 10 8 6 10 7 11 8 12
REMARK H PARENT 10 9
REMARK Flexibility Score: inf
ROOT
ATOM      1  C   UNL     1     -36.393  -7.431  25.391  1.00  0.00     0.044 C 
ATOM      2  C   UNL     1     -36.825  -8.818  25.021  1.00  0.00    -0.047 A 
ATOM      3  C   UNL     1     -37.294  -9.090  23.730  1.00  0.00     0.049 A 
ATOM      4  C   UNL     1     -37.747 -10.369  23.382  1.00  0.00     0.119 A 
ATOM      5  C   UNL     1     -37.691 -11.423  24.334  1.00  0.00    -0.004 A 
ATOM      6  C   UNL     1     -37.279 -11.115  25.649  1.00  0.00     0.008 A 
ATOM      7  C   UNL     1     -36.849  -9.830  25.985  1.00  0.00     0.004 A 
ENDROOT
BRANCH   4   8
ATOM      8  O   UNL     1     -38.262 -10.538  22.094  1.00  0.00    -0.508 OA
ATOM      9  H   UNL     1     -38.264 -11.415  21.595  1.00  0.00     0.293 HD
ENDBRANCH   4   8
BRANCH   5  10
ATOM     10  C   UNL     1     -38.136 -12.840  23.983  1.00  0.00     0.017 C 
ATOM     11  C   UNL     1     -39.057 -13.392  25.075  1.00  0.00     0.012 C 
ATOM     12  C   UNL     1     -36.962 -13.800  23.724  1.00  0.00     0.012 C 
ENDBRANCH   5  10
TORSDOF 2
ENDMDL
MODEL 9
REMARK VINA RESULT:    -5.203      2.011      4.037
REMARK INTER + INTRA:          -5.850
REMARK INTER:                  -5.738
REMARK INTRA:                  -0.112
REMARK UNBOUND:                -0.191
REMARK SMILES Cc1ccc(C(C)C)c(O)c1
REMARK SMILES IDX 1 1 2 2 11 3 9 4 5 5 4 6 3 7 10 8 6 10 7 11 8 12
REMARK H PARENT 10 9
REMARK Flexibility Score: inf
ROOT
ATOM      1  C   UNL     1     -26.955 -10.136  25.618  1.00  0.00     0.044 C 
ATOM      2  C   UNL     1     -26.051 -10.731  26.655  1.00  0.00    -0.047 A 
ATOM      3  C   UNL     1     -25.327 -11.895  26.376  1.00  0.00     0.049 A 
ATOM      4  C   UNL     1     -24.515 -12.491  27.350  1.00  0.00     0.119 A 
ATOM      5  C   UNL     1     -24.383 -11.885  28.629  1.00  0.00    -0.004 A 
ATOM      6  C   UNL     1     -25.172 -10.749  28.915  1.00  0.00     0.008 A 
ATOM      7  C   UNL     1     -25.991 -10.179  27.939  1.00  0.00     0.004 A 
ENDROOT
BRANCH   4   8
ATOM      8  O   UNL     1     -23.880 -13.689  27.010  1.00  0.00    -0.508 OA
ATOM      9  H   UNL     1     -23.015 -13.745  26.494  1.00  0.00     0.293 HD
ENDBRANCH   4   8
BRANCH   5  10
ATOM     10  C   UNL     1     -23.477 -12.478  29.704  1.00  0.00     0.017 C 
ATOM     11  C   UNL     1     -23.783 -11.845  31.064  1.00  0.00     0.012 C 
ATOM     12  C   UNL     1     -21.979 -12.358  29.373  1.00  0.00     0.012 C 
ENDBRANCH   5  10
TORSDOF 2
ENDMDL
