MODEL 1
REMARK VINA RESULT:    -4.492      0.000      0.000
REMARK INTER + INTRA:          -4.623
REMARK INTER:                  -4.623
REMARK INTRA:                   0.000
REMARK UNBOUND:                 0.000
REMARK SMILES Oc1ccc2[nH]ccc2c1
REMARK SMILES IDX 3 1 4 2 5 3 9 4 8 5 7 6 6 7 10 8 2 9 1 11
REMARK H PARENT 6 10 1 12
REMARK Flexibility Score: inf
ROOT
ATOM      1  C   UNL     1      22.681  39.102  12.161  1.00  0.00     0.048 A 
ATOM      2  C   UNL     1      22.942  38.330  13.308  1.00  0.00     0.030 A 
ATOM      3  C   UNL     1      24.169  38.504  13.945  1.00  0.00     0.046 A 
ATOM      4  C   UNL     1      25.101  39.394  13.479  1.00  0.00     0.003 A 
ATOM      5  C   UNL     1      26.190  39.326  14.321  1.00  0.00     0.028 A 
ATOM      6  C   UNL     1      25.852  38.375  15.278  1.00  0.00     0.083 A 
ATOM      7  N   UNL     1      24.616  37.875  15.044  1.00  0.00    -0.361 N 
ATOM      8  C   UNL     1      24.875  40.173  12.347  1.00  0.00     0.056 A 
ATOM      9  C   UNL     1      23.645  40.022  11.678  1.00  0.00     0.116 A 
ATOM     10  H   UNL     1      24.118  37.150  15.604  1.00  0.00     0.166 HD
ENDROOT
BRANCH   9  11
ATOM     11  O   UNL     1      23.386  40.785  10.542  1.00  0.00    -0.508 OA
ATOM     12  H   UNL     1      23.659  40.467   9.619  1.00  0.00     0.293 HD
ENDBRANCH   9  11
TORSDOF 1
ENDMDL
MODEL 2
REMARK VINA RESULT:    -4.054      1.002      2.486
REMARK INTER + INTRA:          -4.172
REMARK INTER:                  -4.172
REMARK INTRA:                   0.000
REMARK UNBOUND:                 0.000
REMARK SMILES Oc1ccc2[nH]ccc2c1
REMARK SMILES IDX 3 1 4 2 5 3 9 4 8 5 7 6 6 7 10 8 2 9 1 11
REMARK H PARENT 6 10 1 12
REMARK Flexibility Score: inf
ROOT
ATOM      1  C   UNL     1      24.874  40.130  12.454  1.00  0.00     0.048 A 
ATOM      2  C   UNL     1      24.864  39.597  13.756  1.00  0.00     0.030 A 
ATOM      3  C   UNL     1      23.709  38.947  14.185  1.00  0.00     0.046 A 
ATOM      4  C   UNL     1      22.611  38.824  13.375  1.00  0.00     0.003 A 
ATOM      5  C   UNL     1      21.650  38.140  14.087  1.00  0.00     0.028 A 
ATOM      6  C   UNL     1      22.231  37.875  15.323  1.00  0.00     0.083 A 
ATOM      7  N   UNL     1      23.490  38.371  15.377  1.00  0.00    -0.361 N 
ATOM      8  C   UNL     1      22.587  39.340  12.081  1.00  0.00     0.056 A 
ATOM      9  C   UNL     1      23.739  40.005  11.616  1.00  0.00     0.116 A 
ATOM     10  H   UNL     1      24.150  38.315  16.184  1.00  0.00     0.166 HD
ENDROOT
BRANCH   9  11
ATOM     11  O   UNL     1      23.749  40.533  10.327  1.00  0.00    -0.508 OA
ATOM     12  H   UNL     1      22.951  40.435   9.710  1.00  0.00     0.293 HD
ENDBRANCH   9  11
TORSDOF 1
ENDMDL
MODEL 3
REMARK VINA RESULT:    -3.920      2.511      3.583
REMARK INTER + INTRA:          -4.035
REMARK INTER:                  -4.035
REMARK INTRA:                   0.000
REMARK UNBOUND:                 0.000
REMARK SMILES Oc1ccc2[nH]ccc2c1
REMARK SMILES IDX 3 1 4 2 5 3 9 4 8 5 7 6 6 7 10 8 2 9 1 11
REMARK H PARENT 6 10 1 12
REMARK Flexibility Score: inf
ROOT
ATOM      1  C   UNL     1      24.485  37.876  14.792  1.00  0.00     0.048 A 
ATOM      2  C   UNL     1      23.465  38.008  13.832  1.00  0.00     0.030 A 
ATOM      3  C   UNL     1      23.617  38.984  12.849  1.00  0.00     0.046 A 
ATOM      4  C   UNL     1      24.720  39.797  12.808  1.00  0.00     0.003 A 
ATOM      5  C   UNL     1      24.567  40.643  11.732  1.00  0.00     0.028 A 
ATOM      6  C   UNL     1      23.348  40.289  11.161  1.00  0.00     0.083 A 
ATOM      7  N   UNL     1      22.772  39.275  11.848  1.00  0.00    -0.361 N 
ATOM      8  C   UNL     1      25.747  39.693  13.743  1.00  0.00     0.056 A 
ATOM      9  C   UNL     1      25.625  38.716  14.751  1.00  0.00     0.116 A 
ATOM     10  H   UNL     1      21.858  38.817  11.638  1.00  0.00     0.166 HD
ENDROOT
BRANCH   9  11
ATOM     11  O   UNL     1      26.634  38.586  15.702  1.00  0.00    -0.508 OA
ATOM     12  H   UNL     1      26.423  38.523  16.691  1.00  0.00     0.293 HD
ENDBRANCH   9  11
TORSDOF 1
ENDMDL
MODEL 4
REMARK VINA RESULT:    -3.868      2.041      2.496
REMARK INTER + INTRA:          -3.981
REMARK INTER:                  -3.981
REMARK INTRA:                   0.000
REMARK UNBOUND:                 0.000
REMARK SMILES Oc1ccc2[nH]ccc2c1
REMARK SMILES IDX 3 1 4 2 5 3 9 4 8 5 7 6 6 7 10 8 2 9 1 11
REMARK H PARENT 6 10 1 12
REMARK Flexibility Score: inf
ROOT
ATOM      1  C   UNL     1      23.908  39.298  13.905  1.00  0.00     0.048 A 
ATOM      2  C   UNL     1      25.127  39.501  14.579  1.00  0.00     0.030 A 
ATOM      3  C   UNL     1      26.286  38.993  13.996  1.00  0.00     0.046 A 
ATOM      4  C   UNL     1      26.254  38.314  12.806  1.00  0.00     0.003 A 
ATOM      5  C   UNL     1      27.548  37.948  12.507  1.00  0.00     0.028 A 
ATOM      6  C   UNL     1      28.317  38.437  13.558  1.00  0.00     0.083 A 
ATOM      7  N   UNL     1      27.541  39.075  14.465  1.00  0.00    -0.361 N 
ATOM      8  C   UNL     1      25.065  38.094  12.114  1.00  0.00     0.056 A 
ATOM      9  C   UNL     1      23.874  38.595  12.676  1.00  0.00     0.116 A 
ATOM     10  H   UNL     1      27.857  39.534  15.347  1.00  0.00     0.166 HD
ENDROOT
BRANCH   9  11
ATOM     11  O   UNL     1      22.667  38.393  12.010  1.00  0.00    -0.508 OA
ATOM     12  H   UNL     1      22.591  38.514  11.007  1.00  0.00     0.293 HD
ENDBRANCH   9  11
TORSDOF 1
ENDMDL
MODEL 5
REMARK VINA RESULT:    -3.859      7.336      8.946
REMARK INTER + INTRA:          -3.972
REMARK INTER:                  -3.972
REMARK INTRA:                   0.000
REMARK UNBOUND:                 0.000
REMARK SMILES Oc1ccc2[nH]ccc2c1
REMARK SMILES IDX 3 1 4 2 5 3 9 4 8 5 7 6 6 7 10 8 2 9 1 11
REMARK H PARENT 6 10 1 12
REMARK Flexibility Score: inf
ROOT
ATOM      1  C   UNL     1      34.167  39.349  15.535  1.00  0.00     0.048 A 
ATOM      2  C   UNL     1      32.883  39.461  16.100  1.00  0.00     0.030 A 
ATOM      3  C   UNL     1      31.810  38.919  15.394  1.00  0.00     0.046 A 
ATOM      4  C   UNL     1      31.986  38.294  14.188  1.00  0.00     0.003 A 
ATOM      5  C   UNL     1      30.746  37.876  13.757  1.00  0.00     0.028 A 
ATOM      6  C   UNL     1      29.860  38.279  14.751  1.00  0.00     0.083 A 
ATOM      7  N   UNL     1      30.516  38.916  15.749  1.00  0.00    -0.361 N 
ATOM      8  C   UNL     1      33.243  38.166  13.600  1.00  0.00     0.056 A 
ATOM      9  C   UNL     1      34.349  38.704  14.287  1.00  0.00     0.116 A 
ATOM     10  H   UNL     1      30.097  39.320  16.615  1.00  0.00     0.166 HD
ENDROOT
BRANCH   9  11
ATOM     11  O   UNL     1      35.620  38.593  13.727  1.00  0.00    -0.508 OA
ATOM     12  H   UNL     1      36.062  37.691  13.595  1.00  0.00     0.293 HD
ENDBRANCH   9  11
TORSDOF 1
ENDMDL
MODEL 6
REMARK VINA RESULT:    -3.768      8.169      9.596
REMARK INTER + INTRA:          -3.879
REMARK INTER:                  -3.879
REMARK INTRA:                   0.000
REMARK UNBOUND:                 0.000
REMARK SMILES Oc1ccc2[nH]ccc2c1
REMARK SMILES IDX 3 1 4 2 5 3 9 4 8 5 7 6 6 7 10 8 2 9 1 11
REMARK H PARENT 6 10 1 12
REMARK Flexibility Score: inf
ROOT
ATOM      1  C   UNL     1      32.113  38.361  13.887  1.00  0.00     0.048 A 
ATOM      2  C   UNL     1      33.476  38.441  13.544  1.00  0.00     0.030 A 
ATOM      3  C   UNL     1      34.319  39.161  14.388  1.00  0.00     0.046 A 
ATOM      4  C   UNL     1      33.850  39.776  15.519  1.00  0.00     0.003 A 
ATOM      5  C   UNL     1      34.921  40.395  16.125  1.00  0.00     0.028 A 
ATOM      6  C   UNL     1      36.013  40.114  15.309  1.00  0.00     0.083 A 
ATOM      7  N   UNL     1      35.639  39.360  14.249  1.00  0.00    -0.361 N 
ATOM      8  C   UNL     1      32.508  39.717  15.887  1.00  0.00     0.056 A 
ATOM      9  C   UNL     1      31.627  38.998  15.056  1.00  0.00     0.116 A 
ATOM     10  H   UNL     1      36.255  39.008  13.483  1.00  0.00     0.166 HD
ENDROOT
BRANCH   9  11
ATOM     11  O   UNL     1      30.278  38.920  15.394  1.00  0.00    -0.508 OA
ATOM     12  H   UNL     1      29.899  39.439  16.177  1.00  0.00     0.293 HD
ENDBRANCH   9  11
TORSDOF 1
ENDMDL
MODEL 7
REMARK VINA RESULT:    -3.752      1.759      2.459
REMARK INTER + INTRA:          -3.861
REMARK INTER:                  -3.861
REMARK INTRA:                   0.000
REMARK UNBOUND:                 0.000
REMARK SMILES Oc1ccc2[nH]ccc2c1
REMARK SMILES IDX 3 1 4 2 5 3 9 4 8 5 7 6 6 7 10 8 2 9 1 11
REMARK H PARENT 6 10 1 12
REMARK Flexibility Score: inf
ROOT
ATOM      1  C   UNL     1      21.437  37.900  13.859  1.00  0.00     0.048 A 
ATOM      2  C   UNL     1      22.708  37.925  14.465  1.00  0.00     0.030 A 
ATOM      3  C   UNL     1      23.726  38.620  13.814  1.00  0.00     0.046 A 
ATOM      4  C   UNL     1      23.511  39.263  12.624  1.00  0.00     0.003 A 
ATOM      5  C   UNL     1      24.702  39.845  12.250  1.00  0.00     0.028 A 
ATOM      6  C   UNL     1      25.600  39.518  13.261  1.00  0.00     0.083 A 
ATOM      7  N   UNL     1      24.998  38.769  14.214  1.00  0.00    -0.361 N 
ATOM      8  C   UNL     1      22.266  39.257  11.998  1.00  0.00     0.056 A 
ATOM      9  C   UNL     1      21.215  38.564  12.627  1.00  0.00     0.116 A 
ATOM     10  H   UNL     1      25.438  38.387  15.081  1.00  0.00     0.166 HD
ENDROOT
BRANCH   9  11
ATOM     11  O   UNL     1      19.958  38.538  12.028  1.00  0.00    -0.508 OA
ATOM     12  H   UNL     1      19.123  38.323  12.561  1.00  0.00     0.293 HD
ENDBRANCH   9  11
TORSDOF 1
ENDMDL
MODEL 8
REMARK VINA RESULT:    -3.749      2.392      3.659
REMARK INTER + INTRA:          -3.859
REMARK INTER:                  -3.859
REMARK INTRA:                   0.000
REMARK UNBOUND:                 0.000
REMARK SMILES Oc1ccc2[nH]ccc2c1
REMARK SMILES IDX 3 1 4 2 5 3 9 4 8 5 7 6 6 7 10 8 2 9 1 11
REMARK H PARENT 6 10 1 12
REMARK Flexibility Score: inf
ROOT
ATOM      1  C   UNL     1      25.586  39.688  12.918  1.00  0.00     0.048 A 
ATOM      2  C   UNL     1      24.489  39.459  12.066  1.00  0.00     0.030 A 
ATOM      3  C   UNL     1      23.321  38.951  12.631  1.00  0.00     0.046 A 
ATOM      4  C   UNL     1      23.230  38.677  13.970  1.00  0.00     0.003 A 
ATOM      5  C   UNL     1      21.961  38.193  14.205  1.00  0.00     0.028 A 
ATOM      6  C   UNL     1      21.333  38.200  12.964  1.00  0.00     0.083 A 
ATOM      7  N   UNL     1      22.169  38.664  12.005  1.00  0.00    -0.361 N 
ATOM      8  C   UNL     1      24.296  38.891  14.840  1.00  0.00     0.056 A 
ATOM      9  C   UNL     1      25.493  39.404  14.303  1.00  0.00     0.116 A 
ATOM     10  H   UNL     1      21.956  38.773  10.989  1.00  0.00     0.166 HD
ENDROOT
BRANCH   9  11
ATOM     11  O   UNL     1      26.579  39.629  15.145  1.00  0.00    -0.508 OA
ATOM     12  H   UNL     1      26.990  40.551  15.242  1.00  0.00     0.293 HD
ENDBRANCH   9  11
TORSDOF 1
ENDMDL
MODEL 9
REMARK VINA RESULT:    -3.684      1.417      2.140
REMARK INTER + INTRA:          -3.792
REMARK INTER:                  -3.792
REMARK INTRA:                   0.000
REMARK UNBOUND:                 0.000
REMARK SMILES Oc1ccc2[nH]ccc2c1
REMARK SMILES IDX 3 1 4 2 5 3 9 4 8 5 7 6 6 7 10 8 2 9 1 11
REMARK H PARENT 6 10 1 12
REMARK Flexibility Score: inf
ROOT
ATOM      1  C   UNL     1      23.314  40.032  11.639  1.00  0.00     0.048 A 
ATOM      2  C   UNL     1      24.646  40.236  12.046  1.00  0.00     0.030 A 
ATOM      3  C   UNL     1      25.118  39.492  13.126  1.00  0.00     0.046 A 
ATOM      4  C   UNL     1      24.323  38.589  13.780  1.00  0.00     0.003 A 
ATOM      5  C   UNL     1      25.079  38.029  14.786  1.00  0.00     0.028 A 
ATOM      6  C   UNL     1      26.326  38.638  14.687  1.00  0.00     0.083 A 
ATOM      7  N   UNL     1      26.345  39.531  13.670  1.00  0.00    -0.361 N 
ATOM      8  C   UNL     1      23.001  38.363  13.404  1.00  0.00     0.056 A 
ATOM      9  C   UNL     1      22.490  39.098  12.316  1.00  0.00     0.116 A 
ATOM     10  H   UNL     1      27.150  40.126  13.375  1.00  0.00     0.166 HD
ENDROOT
BRANCH   9  11
ATOM     11  O   UNL     1      21.172  38.897  11.914  1.00  0.00    -0.508 OA
ATOM     12  H   UNL     1      20.403  39.377  12.366  1.00  0.00     0.293 HD
ENDBRANCH   9  11
TORSDOF 1
ENDMDL
