MODEL 1
REMARK VINA RESULT:    -3.082      0.000      0.000
REMARK INTER + INTRA:          -3.589
REMARK INTER:                  -3.533
REMARK INTRA:                  -0.056
REMARK UNBOUND:                -0.056
REMARK SMILES CC(C)[C@H]([NH3+])C(=O)[O-]
REMARK SMILES IDX 4 1 5 2 6 6 7 7 8 8 2 9 1 10 3 11
REMARK H PARENT 5 3 5 4 5 5
REMARK Flexibility Score: inf
ROOT
ATOM      1  C   UNL     1      20.473  22.326   5.271  1.00  0.00     0.230 C 
ENDROOT
BRANCH   1   2
ATOM      2  N   UNL     1      20.553  21.866   3.877  1.00  0.00    -0.350 N 
ATOM      3  H   UNL     1      21.274  21.111   3.799  1.00  0.00     0.345 HD
ATOM      4  H   UNL     1      19.638  21.487   3.545  1.00  0.00     0.345 HD
ATOM      5  H   UNL     1      20.845  22.655   3.256  1.00  0.00     0.345 HD
ENDBRANCH   1   2
BRANCH   1   6
ATOM      6  C   UNL     1      21.800  22.890   5.721  1.00  0.00     0.099 C 
ATOM      7  O   UNL     1      22.585  22.181   6.407  1.00  0.00    -0.544 OA
ATOM      8  O   UNL     1      22.182  24.177   5.362  1.00  0.00    -0.544 OA
ENDBRANCH   1   6
BRANCH   1   9
ATOM      9  C   UNL     1      19.943  21.207   6.217  1.00  0.00     0.047 C 
ATOM     10  C   UNL     1      19.148  20.147   5.440  1.00  0.00     0.014 C 
ATOM     11  C   UNL     1      19.104  21.738   7.393  1.00  0.00     0.014 C 
ENDBRANCH   1   9
TORSDOF 3
ENDMDL
MODEL 2
REMARK VINA RESULT:    -2.888      6.770      7.386
REMARK INTER + INTRA:          -3.367
REMARK INTER:                  -3.292
REMARK INTRA:                  -0.075
REMARK UNBOUND:                -0.056
REMARK SMILES CC(C)[C@H]([NH3+])C(=O)[O-]
REMARK SMILES IDX 4 1 5 2 6 6 7 7 8 8 2 9 1 10 3 11
REMARK H PARENT 5 3 5 4 5 5
REMARK Flexibility Score: inf
ROOT
ATOM      1  C   UNL     1      21.032  25.937  11.461  1.00  0.00     0.230 C 
ENDROOT
BRANCH   1   2
ATOM      2  N   UNL     1      19.961  24.934  11.555  1.00  0.00    -0.350 N 
ATOM      3  H   UNL     1      19.054  25.364  11.259  1.00  0.00     0.345 HD
ATOM      4  H   UNL     1      20.154  24.110  10.944  1.00  0.00     0.345 HD
ATOM      5  H   UNL     1      19.859  24.613  12.545  1.00  0.00     0.345 HD
ENDBRANCH   1   2
BRANCH   1   6
ATOM      6  C   UNL     1      22.077  25.506  10.459  1.00  0.00     0.099 C 
ATOM      7  O   UNL     1      21.955  24.406   9.857  1.00  0.00    -0.544 OA
ATOM      8  O   UNL     1      23.162  26.325  10.168  1.00  0.00    -0.544 OA
ENDBRANCH   1   6
BRANCH   1   9
ATOM      9  C   UNL     1      21.639  26.266  12.858  1.00  0.00     0.047 C 
ATOM     10  C   UNL     1      22.432  25.075  13.417  1.00  0.00     0.014 C 
ATOM     11  C   UNL     1      20.597  26.735  13.889  1.00  0.00     0.014 C 
ENDBRANCH   1   9
TORSDOF 3
ENDMDL
MODEL 3
REMARK VINA RESULT:    -2.851      1.168      1.510
REMARK INTER + INTRA:          -3.324
REMARK INTER:                  -3.272
REMARK INTRA:                  -0.052
REMARK UNBOUND:                -0.056
REMARK SMILES CC(C)[C@H]([NH3+])C(=O)[O-]
REMARK SMILES IDX 4 1 5 2 6 6 7 7 8 8 2 9 1 10 3 11
REMARK H PARENT 5 3 5 4 5 5
REMARK Flexibility Score: inf
ROOT
ATOM      1  C   UNL     1      20.020  21.821   5.487  1.00  0.00     0.230 C 
ENDROOT
BRANCH   1   2
ATOM      2  N   UNL     1      19.718  20.741   4.535  1.00  0.00    -0.350 N 
ATOM      3  H   UNL     1      18.963  21.054   3.882  1.00  0.00     0.345 HD
ATOM      4  H   UNL     1      20.557  20.480   3.973  1.00  0.00     0.345 HD
ATOM      5  H   UNL     1      19.371  19.899   5.049  1.00  0.00     0.345 HD
ENDBRANCH   1   2
BRANCH   1   6
ATOM      6  C   UNL     1      21.438  22.310   5.301  1.00  0.00     0.099 C 
ATOM      7  O   UNL     1      21.787  22.828   4.207  1.00  0.00    -0.544 OA
ATOM      8  O   UNL     1      22.359  22.222   6.338  1.00  0.00    -0.544 OA
ENDBRANCH   1   6
BRANCH   1   9
ATOM      9  C   UNL     1      19.718  21.397   6.955  1.00  0.00     0.047 C 
ATOM     10  C   UNL     1      18.806  20.162   7.004  1.00  0.00     0.014 C 
ATOM     11  C   UNL     1      19.120  22.527   7.814  1.00  0.00     0.014 C 
ENDBRANCH   1   9
TORSDOF 3
ENDMDL
MODEL 4
REMARK VINA RESULT:    -2.820      1.211      1.722
REMARK INTER + INTRA:          -3.289
REMARK INTER:                  -3.239
REMARK INTRA:                  -0.050
REMARK UNBOUND:                -0.056
REMARK SMILES CC(C)[C@H]([NH3+])C(=O)[O-]
REMARK SMILES IDX 4 1 5 2 6 6 7 7 8 8 2 9 1 10 3 11
REMARK H PARENT 5 3 5 4 5 5
REMARK Flexibility Score: inf
ROOT
ATOM      1  C   UNL     1      20.254  22.496   6.113  1.00  0.00     0.230 C 
ENDROOT
BRANCH   1   2
ATOM      2  N   UNL     1      19.384  23.462   5.428  1.00  0.00    -0.350 N 
ATOM      3  H   UNL     1      19.155  24.249   6.079  1.00  0.00     0.345 HD
ATOM      4  H   UNL     1      19.844  23.857   4.578  1.00  0.00     0.345 HD
ATOM      5  H   UNL     1      18.486  23.002   5.151  1.00  0.00     0.345 HD
ENDBRANCH   1   2
BRANCH   1   6
ATOM      6  C   UNL     1      21.704  22.900   5.979  1.00  0.00     0.099 C 
ATOM      7  O   UNL     1      22.005  23.995   5.433  1.00  0.00    -0.544 OA
ATOM      8  O   UNL     1      22.715  22.088   6.480  1.00  0.00    -0.544 OA
ENDBRANCH   1   6
BRANCH   1   9
ATOM      9  C   UNL     1      19.989  21.038   5.632  1.00  0.00     0.047 C 
ATOM     10  C   UNL     1      19.659  20.996   4.132  1.00  0.00     0.014 C 
ATOM     11  C   UNL     1      18.893  20.313   6.432  1.00  0.00     0.014 C 
ENDBRANCH   1   9
TORSDOF 3
ENDMDL
MODEL 5
REMARK VINA RESULT:    -2.731      2.395      3.054
REMARK INTER + INTRA:          -3.186
REMARK INTER:                  -3.141
REMARK INTRA:                  -0.045
REMARK UNBOUND:                -0.056
REMARK SMILES CC(C)[C@H]([NH3+])C(=O)[O-]
REMARK SMILES IDX 4 1 5 2 6 6 7 7 8 8 2 9 1 10 3 11
REMARK H PARENT 5 3 5 4 5 5
REMARK Flexibility Score: inf
ROOT
ATOM      1  C   UNL     1      20.738  23.634   6.980  1.00  0.00     0.230 C 
ENDROOT
BRANCH   1   2
ATOM      2  N   UNL     1      19.597  24.047   6.149  1.00  0.00    -0.350 N 
ATOM      3  H   UNL     1      18.717  23.989   6.712  1.00  0.00     0.345 HD
ATOM      4  H   UNL     1      19.708  25.027   5.806  1.00  0.00     0.345 HD
ATOM      5  H   UNL     1      19.500  23.404   5.330  1.00  0.00     0.345 HD
ENDBRANCH   1   2
BRANCH   1   6
ATOM      6  C   UNL     1      21.370  22.378   6.427  1.00  0.00     0.099 C 
ATOM      7  O   UNL     1      22.620  22.228   6.478  1.00  0.00    -0.544 OA
ATOM      8  O   UNL     1      20.584  21.367   5.888  1.00  0.00    -0.544 OA
ENDBRANCH   1   6
BRANCH   1   9
ATOM      9  C   UNL     1      20.339  23.496   8.480  1.00  0.00     0.047 C 
ATOM     10  C   UNL     1      18.813  23.464   8.652  1.00  0.00     0.014 C 
ATOM     11  C   UNL     1      20.948  24.583   9.384  1.00  0.00     0.014 C 
ENDBRANCH   1   9
TORSDOF 3
ENDMDL
MODEL 6
REMARK VINA RESULT:    -2.630      2.558      3.052
REMARK INTER + INTRA:          -3.071
REMARK INTER:                  -3.020
REMARK INTRA:                  -0.050
REMARK UNBOUND:                -0.056
REMARK SMILES CC(C)[C@H]([NH3+])C(=O)[O-]
REMARK SMILES IDX 4 1 5 2 6 6 7 7 8 8 2 9 1 10 3 11
REMARK H PARENT 5 3 5 4 5 5
REMARK Flexibility Score: inf
ROOT
ATOM      1  C   UNL     1      20.348  23.568   6.619  1.00  0.00     0.230 C 
ENDROOT
BRANCH   1   2
ATOM      2  N   UNL     1      21.065  24.769   6.166  1.00  0.00    -0.350 N 
ATOM      3  H   UNL     1      20.374  25.508   5.899  1.00  0.00     0.345 HD
ATOM      4  H   UNL     1      21.686  25.149   6.914  1.00  0.00     0.345 HD
ATOM      5  H   UNL     1      21.640  24.544   5.322  1.00  0.00     0.345 HD
ENDBRANCH   1   2
BRANCH   1   6
ATOM      6  C   UNL     1      20.354  23.483   8.127  1.00  0.00     0.099 C 
ATOM      7  O   UNL     1      21.380  23.826   8.772  1.00  0.00    -0.544 OA
ATOM      8  O   UNL     1      19.225  23.058   8.818  1.00  0.00    -0.544 OA
ENDBRANCH   1   6
BRANCH   1   9
ATOM      9  C   UNL     1      20.899  22.277   5.942  1.00  0.00     0.047 C 
ATOM     10  C   UNL     1      21.433  22.570   4.532  1.00  0.00     0.014 C 
ATOM     11  C   UNL     1      19.882  21.123   5.890  1.00  0.00     0.014 C 
ENDBRANCH   1   9
TORSDOF 3
ENDMDL
MODEL 7
REMARK VINA RESULT:    -2.628      3.158      3.894
REMARK INTER + INTRA:          -3.069
REMARK INTER:                  -3.049
REMARK INTRA:                  -0.020
REMARK UNBOUND:                -0.056
REMARK SMILES CC(C)[C@H]([NH3+])C(=O)[O-]
REMARK SMILES IDX 4 1 5 2 6 6 7 7 8 8 2 9 1 10 3 11
REMARK H PARENT 5 3 5 4 5 5
REMARK Flexibility Score: inf
ROOT
ATOM      1  C   UNL     1      19.483  20.478   6.243  1.00  0.00     0.230 C 
ENDROOT
BRANCH   1   2
ATOM      2  N   UNL     1      19.201  20.016   4.876  1.00  0.00    -0.350 N 
ATOM      3  H   UNL     1      19.756  19.152   4.678  1.00  0.00     0.345 HD
ATOM      4  H   UNL     1      18.188  19.797   4.747  1.00  0.00     0.345 HD
ATOM      5  H   UNL     1      19.485  20.748   4.185  1.00  0.00     0.345 HD
ENDBRANCH   1   2
BRANCH   1   6
ATOM      6  C   UNL     1      18.367  20.078   7.180  1.00  0.00     0.099 C 
ATOM      7  O   UNL     1      17.168  20.282   6.853  1.00  0.00    -0.544 OA
ATOM      8  O   UNL     1      18.647  19.457   8.391  1.00  0.00    -0.544 OA
ENDBRANCH   1   6
BRANCH   1   9
ATOM      9  C   UNL     1      19.784  22.007   6.284  1.00  0.00     0.047 C 
ATOM     10  C   UNL     1      21.194  22.313   5.759  1.00  0.00     0.014 C 
ATOM     11  C   UNL     1      19.591  22.637   7.675  1.00  0.00     0.014 C 
ENDBRANCH   1   9
TORSDOF 3
ENDMDL
MODEL 8
REMARK VINA RESULT:    -2.596      7.311      7.879
REMARK INTER + INTRA:          -3.032
REMARK INTER:                  -2.968
REMARK INTRA:                  -0.064
REMARK UNBOUND:                -0.056
REMARK SMILES CC(C)[C@H]([NH3+])C(=O)[O-]
REMARK SMILES IDX 4 1 5 2 6 6 7 7 8 8 2 9 1 10 3 11
REMARK H PARENT 5 3 5 4 5 5
REMARK Flexibility Score: inf
ROOT
ATOM      1  C   UNL     1      22.035  25.672  11.881  1.00  0.00     0.230 C 
ENDROOT
BRANCH   1   2
ATOM      2  N   UNL     1      22.423  24.555  11.008  1.00  0.00    -0.350 N 
ATOM      3  H   UNL     1      21.682  23.817  11.036  1.00  0.00     0.345 HD
ATOM      4  H   UNL     1      22.545  24.866  10.019  1.00  0.00     0.345 HD
ATOM      5  H   UNL     1      23.316  24.128  11.348  1.00  0.00     0.345 HD
ENDBRANCH   1   2
BRANCH   1   6
ATOM      6  C   UNL     1      22.570  25.463  13.279  1.00  0.00     0.099 C 
ATOM      7  O   UNL     1      22.071  24.572  14.017  1.00  0.00    -0.544 OA
ATOM      8  O   UNL     1      23.630  26.226  13.753  1.00  0.00    -0.544 OA
ENDBRANCH   1   6
BRANCH   1   9
ATOM      9  C   UNL     1      20.496  25.916  11.856  1.00  0.00     0.047 C 
ATOM     10  C   UNL     1      19.976  26.056  10.418  1.00  0.00     0.014 C 
ATOM     11  C   UNL     1      20.049  27.124  12.698  1.00  0.00     0.014 C 
ENDBRANCH   1   9
TORSDOF 3
ENDMDL
MODEL 9
REMARK VINA RESULT:    -2.555      3.376      4.279
REMARK INTER + INTRA:          -2.984
REMARK INTER:                  -2.930
REMARK INTRA:                  -0.055
REMARK UNBOUND:                -0.056
REMARK SMILES CC(C)[C@H]([NH3+])C(=O)[O-]
REMARK SMILES IDX 4 1 5 2 6 6 7 7 8 8 2 9 1 10 3 11
REMARK H PARENT 5 3 5 4 5 5
REMARK Flexibility Score: inf
ROOT
ATOM      1  C   UNL     1      18.753  21.487   6.823  1.00  0.00     0.230 C 
ENDROOT
BRANCH   1   2
ATOM      2  N   UNL     1      19.185  22.427   7.868  1.00  0.00    -0.350 N 
ATOM      3  H   UNL     1      18.367  23.000   8.182  1.00  0.00     0.345 HD
ATOM      4  H   UNL     1      19.577  21.926   8.696  1.00  0.00     0.345 HD
ATOM      5  H   UNL     1      19.907  23.080   7.486  1.00  0.00     0.345 HD
ENDBRANCH   1   2
BRANCH   1   6
ATOM      6  C   UNL     1      18.042  20.303   7.435  1.00  0.00     0.099 C 
ATOM      7  O   UNL     1      16.875  20.008   7.063  1.00  0.00    -0.544 OA
ATOM      8  O   UNL     1      18.674  19.512   8.386  1.00  0.00    -0.544 OA
ENDBRANCH   1   6
BRANCH   1   9
ATOM      9  C   UNL     1      19.936  21.068   5.900  1.00  0.00     0.047 C 
ATOM     10  C   UNL     1      20.974  22.193   5.776  1.00  0.00     0.014 C 
ATOM     11  C   UNL     1      19.495  20.602   4.502  1.00  0.00     0.014 C 
ENDBRANCH   1   9
TORSDOF 3
ENDMDL
