MODEL 1
REMARK VINA RESULT:    -5.326      0.000      0.000
REMARK INTER + INTRA:          -5.326
REMARK INTER:                  -5.326
REMARK INTRA:                   0.000
REMARK UNBOUND:                 0.000
REMARK SMILES CC(C)=C1CC[C@H](C)CC1=O
REMARK SMILES IDX 8 1 7 2 6 3 5 4 4 5 2 6 1 7 3 8 10 9 11 10 9 11
REMARK H PARENT
REMARK Flexibility Score: inf
ROOT
ATOM      1  C   UNL     1      16.897   8.136  55.097  1.00  0.00     0.008 C 
ATOM      2  C   UNL     1      18.057   8.763  54.316  1.00  0.00    -0.006 C 
ATOM      3  C   UNL     1      17.814  10.265  54.100  1.00  0.00     0.008 C 
ATOM      4  C   UNL     1      18.915  10.888  53.231  1.00  0.00     0.039 C 
ATOM      5  C   UNL     1      20.312  10.593  53.759  1.00  0.00    -0.006 C 
ATOM      6  C   UNL     1      21.336  11.483  53.596  1.00  0.00    -0.070 C 
ATOM      7  C   UNL     1      22.712  11.225  54.165  1.00  0.00     0.039 C 
ATOM      8  C   UNL     1      21.128  12.791  52.868  1.00  0.00     0.039 C 
ATOM      9  C   UNL     1      20.516   9.238  54.354  1.00  0.00     0.159 C 
ATOM     10  O   UNL     1      21.626   8.648  54.273  1.00  0.00    -0.295 OA
ATOM     11  C   UNL     1      19.385   8.549  55.059  1.00  0.00     0.084 C 
ENDROOT
TORSDOF 0
ENDMDL
MODEL 2
REMARK VINA RESULT:    -5.178      9.839     11.364
REMARK INTER + INTRA:          -5.178
REMARK INTER:                  -5.178
REMARK INTRA:                   0.000
REMARK UNBOUND:                 0.000
REMARK SMILES CC(C)=C1CC[C@H](C)CC1=O
REMARK SMILES IDX 8 1 7 2 6 3 5 4 4 5 2 6 1 7 3 8 10 9 11 10 9 11
REMARK H PARENT
REMARK Flexibility Score: inf
ROOT
ATOM      1  C   UNL     1      17.410  19.269  56.474  1.00  0.00     0.008 C 
ATOM      2  C   UNL     1      16.222  18.505  57.071  1.00  0.00    -0.006 C 
ATOM      3  C   UNL     1      15.573  19.315  58.204  1.00  0.00     0.008 C 
ATOM      4  C   UNL     1      14.447  18.522  58.881  1.00  0.00     0.039 C 
ATOM      5  C   UNL     1      13.427  17.990  57.885  1.00  0.00    -0.006 C 
ATOM      6  C   UNL     1      12.111  17.848  58.223  1.00  0.00    -0.070 C 
ATOM      7  C   UNL     1      11.080  17.373  57.225  1.00  0.00     0.039 C 
ATOM      8  C   UNL     1      11.616  18.196  59.608  1.00  0.00     0.039 C 
ATOM      9  C   UNL     1      13.970  17.530  56.572  1.00  0.00     0.159 C 
ATOM     10  O   UNL     1      13.436  16.581  55.937  1.00  0.00    -0.295 OA
ATOM     11  C   UNL     1      15.181  18.195  55.985  1.00  0.00     0.084 C 
ENDROOT
TORSDOF 0
ENDMDL
MODEL 3
REMARK VINA RESULT:    -5.122     10.891     12.419
REMARK INTER + INTRA:          -5.122
REMARK INTER:                  -5.122
REMARK INTRA:                   0.000
REMARK UNBOUND:                 0.000
REMARK SMILES CC(C)=C1CC[C@H](C)CC1=O
REMARK SMILES IDX 8 1 7 2 6 3 5 4 4 5 2 6 1 7 3 8 10 9 11 10 9 11
REMARK H PARENT
REMARK Flexibility Score: inf
ROOT
ATOM      1  C   UNL     1      15.940  18.592  57.339  1.00  0.00     0.008 C 
ATOM      2  C   UNL     1      14.663  17.948  57.891  1.00  0.00    -0.006 C 
ATOM      3  C   UNL     1      14.283  18.572  59.243  1.00  0.00     0.008 C 
ATOM      4  C   UNL     1      13.066  17.868  59.858  1.00  0.00     0.039 C 
ATOM      5  C   UNL     1      11.887  17.794  58.898  1.00  0.00    -0.006 C 
ATOM      6  C   UNL     1      10.599  17.827  59.351  1.00  0.00    -0.070 C 
ATOM      7  C   UNL     1       9.422  17.810  58.403  1.00  0.00     0.039 C 
ATOM      8  C   UNL     1      10.290  17.921  60.828  1.00  0.00     0.039 C 
ATOM      9  C   UNL     1      12.225  17.566  57.461  1.00  0.00     0.159 C 
ATOM     10  O   UNL     1      11.458  16.916  56.702  1.00  0.00    -0.295 OA
ATOM     11  C   UNL     1      13.505  18.110  56.894  1.00  0.00     0.084 C 
ENDROOT
TORSDOF 0
ENDMDL
MODEL 4
REMARK VINA RESULT:    -5.119     10.545     11.472
REMARK INTER + INTRA:          -5.119
REMARK INTER:                  -5.119
REMARK INTRA:                   0.000
REMARK UNBOUND:                 0.000
REMARK SMILES CC(C)=C1CC[C@H](C)CC1=O
REMARK SMILES IDX 8 1 7 2 6 3 5 4 4 5 2 6 1 7 3 8 10 9 11 10 9 11
REMARK H PARENT
REMARK Flexibility Score: inf
ROOT
ATOM      1  C   UNL     1      10.658  17.618  60.437  1.00  0.00     0.008 C 
ATOM      2  C   UNL     1      11.696  18.248  59.500  1.00  0.00    -0.006 C 
ATOM      3  C   UNL     1      13.119  17.851  59.923  1.00  0.00     0.008 C 
ATOM      4  C   UNL     1      14.173  18.555  59.059  1.00  0.00     0.039 C 
ATOM      5  C   UNL     1      13.932  18.359  57.569  1.00  0.00    -0.006 C 
ATOM      6  C   UNL     1      14.970  18.306  56.682  1.00  0.00    -0.070 C 
ATOM      7  C   UNL     1      14.745  18.057  55.209  1.00  0.00     0.039 C 
ATOM      8  C   UNL     1      16.402  18.457  57.142  1.00  0.00     0.039 C 
ATOM      9  C   UNL     1      12.504  18.349  57.131  1.00  0.00     0.159 C 
ATOM     10  O   UNL     1      12.162  18.787  56.001  1.00  0.00    -0.295 OA
ATOM     11  C   UNL     1      11.441  17.816  58.047  1.00  0.00     0.084 C 
ENDROOT
TORSDOF 0
ENDMDL
MODEL 5
REMARK VINA RESULT:    -5.102     10.163     11.638
REMARK INTER + INTRA:          -5.102
REMARK INTER:                  -5.102
REMARK INTRA:                   0.000
REMARK UNBOUND:                 0.000
REMARK SMILES CC(C)=C1CC[C@H](C)CC1=O
REMARK SMILES IDX 8 1 7 2 6 3 5 4 4 5 2 6 1 7 3 8 10 9 11 10 9 11
REMARK H PARENT
REMARK Flexibility Score: inf
ROOT
ATOM      1  C   UNL     1      17.507  18.979  57.387  1.00  0.00     0.008 C 
ATOM      2  C   UNL     1      16.001  18.946  57.105  1.00  0.00    -0.006 C 
ATOM      3  C   UNL     1      15.578  17.566  56.578  1.00  0.00     0.008 C 
ATOM      4  C   UNL     1      14.093  17.546  56.194  1.00  0.00     0.039 C 
ATOM      5  C   UNL     1      13.193  18.042  57.318  1.00  0.00    -0.006 C 
ATOM      6  C   UNL     1      11.929  17.552  57.485  1.00  0.00    -0.070 C 
ATOM      7  C   UNL     1      11.048  17.997  58.629  1.00  0.00     0.039 C 
ATOM      8  C   UNL     1      11.364  16.508  56.549  1.00  0.00     0.039 C 
ATOM      9  C   UNL     1      13.731  19.167  58.140  1.00  0.00     0.159 C 
ATOM     10  O   UNL     1      12.967  20.034  58.643  1.00  0.00    -0.295 OA
ATOM     11  C   UNL     1      15.208  19.287  58.377  1.00  0.00     0.084 C 
ENDROOT
TORSDOF 0
ENDMDL
MODEL 6
REMARK VINA RESULT:    -4.953      9.940     11.208
REMARK INTER + INTRA:          -4.953
REMARK INTER:                  -4.953
REMARK INTRA:                   0.000
REMARK UNBOUND:                 0.000
REMARK SMILES CC(C)=C1CC[C@H](C)CC1=O
REMARK SMILES IDX 8 1 7 2 6 3 5 4 4 5 2 6 1 7 3 8 10 9 11 10 9 11
REMARK H PARENT
REMARK Flexibility Score: inf
ROOT
ATOM      1  C   UNL     1      14.104  17.495  53.738  1.00  0.00     0.008 C 
ATOM      2  C   UNL     1      13.759  18.044  55.127  1.00  0.00    -0.006 C 
ATOM      3  C   UNL     1      12.437  17.445  55.633  1.00  0.00     0.008 C 
ATOM      4  C   UNL     1      12.024  18.061  56.976  1.00  0.00     0.039 C 
ATOM      5  C   UNL     1      13.134  17.990  58.016  1.00  0.00    -0.006 C 
ATOM      6  C   UNL     1      12.853  17.860  59.347  1.00  0.00    -0.070 C 
ATOM      7  C   UNL     1      13.946  17.733  60.382  1.00  0.00     0.039 C 
ATOM      8  C   UNL     1      11.426  17.799  59.843  1.00  0.00     0.039 C 
ATOM      9  C   UNL     1      14.524  18.188  57.507  1.00  0.00     0.159 C 
ATOM     10  O   UNL     1      15.410  18.735  58.216  1.00  0.00    -0.295 OA
ATOM     11  C   UNL     1      14.888  17.739  56.122  1.00  0.00     0.084 C 
ENDROOT
TORSDOF 0
ENDMDL
MODEL 7
REMARK VINA RESULT:    -4.951      1.590      2.453
REMARK INTER + INTRA:          -4.951
REMARK INTER:                  -4.951
REMARK INTRA:                   0.000
REMARK UNBOUND:                 0.000
REMARK SMILES CC(C)=C1CC[C@H](C)CC1=O
REMARK SMILES IDX 8 1 7 2 6 3 5 4 4 5 2 6 1 7 3 8 10 9 11 10 9 11
REMARK H PARENT
REMARK Flexibility Score: inf
ROOT
ATOM      1  C   UNL     1      16.164   8.313  54.655  1.00  0.00     0.008 C 
ATOM      2  C   UNL     1      17.495   9.063  54.782  1.00  0.00    -0.006 C 
ATOM      3  C   UNL     1      18.679   8.090  54.671  1.00  0.00     0.008 C 
ATOM      4  C   UNL     1      20.015   8.809  54.899  1.00  0.00     0.039 C 
ATOM      5  C   UNL     1      20.179  10.032  54.007  1.00  0.00    -0.006 C 
ATOM      6  C   UNL     1      21.408  10.425  53.560  1.00  0.00    -0.070 C 
ATOM      7  C   UNL     1      21.577  11.604  52.630  1.00  0.00     0.039 C 
ATOM      8  C   UNL     1      22.660   9.671  53.946  1.00  0.00     0.039 C 
ATOM      9  C   UNL     1      18.942  10.830  53.755  1.00  0.00     0.159 C 
ATOM     10  O   UNL     1      18.990  12.079  53.589  1.00  0.00    -0.295 OA
ATOM     11  C   UNL     1      17.605  10.150  53.701  1.00  0.00     0.084 C 
ENDROOT
TORSDOF 0
ENDMDL
MODEL 8
REMARK VINA RESULT:    -4.912      1.822      4.695
REMARK INTER + INTRA:          -4.912
REMARK INTER:                  -4.912
REMARK INTRA:                   0.000
REMARK UNBOUND:                 0.000
REMARK SMILES CC(C)=C1CC[C@H](C)CC1=O
REMARK SMILES IDX 8 1 7 2 6 3 5 4 4 5 2 6 1 7 3 8 10 9 11 10 9 11
REMARK H PARENT
REMARK Flexibility Score: inf
ROOT
ATOM      1  C   UNL     1      21.613  12.517  53.120  1.00  0.00     0.008 C 
ATOM      2  C   UNL     1      20.628  11.342  53.120  1.00  0.00    -0.006 C 
ATOM      3  C   UNL     1      21.096  10.244  54.088  1.00  0.00     0.008 C 
ATOM      4  C   UNL     1      20.177   9.017  54.024  1.00  0.00     0.039 C 
ATOM      5  C   UNL     1      18.709   9.376  54.213  1.00  0.00    -0.006 C 
ATOM      6  C   UNL     1      17.838   8.512  54.813  1.00  0.00    -0.070 C 
ATOM      7  C   UNL     1      16.393   8.880  55.056  1.00  0.00     0.039 C 
ATOM      8  C   UNL     1      18.291   7.154  55.299  1.00  0.00     0.039 C 
ATOM      9  C   UNL     1      18.266  10.665  53.604  1.00  0.00     0.159 C 
ATOM     10  O   UNL     1      17.098  10.811  53.155  1.00  0.00    -0.295 OA
ATOM     11  C   UNL     1      19.221  11.820  53.509  1.00  0.00     0.084 C 
ENDROOT
TORSDOF 0
ENDMDL
MODEL 9
REMARK VINA RESULT:    -4.906     12.312     13.425
REMARK INTER + INTRA:          -4.906
REMARK INTER:                  -4.906
REMARK INTRA:                   0.000
REMARK UNBOUND:                 0.000
REMARK SMILES CC(C)=C1CC[C@H](C)CC1=O
REMARK SMILES IDX 8 1 7 2 6 3 5 4 4 5 2 6 1 7 3 8 10 9 11 10 9 11
REMARK H PARENT
REMARK Flexibility Score: inf
ROOT
ATOM      1  C   UNL     1       7.197  17.575  60.339  1.00  0.00     0.008 C 
ATOM      2  C   UNL     1       8.586  18.133  60.010  1.00  0.00    -0.006 C 
ATOM      3  C   UNL     1       9.639  17.568  60.976  1.00  0.00     0.008 C 
ATOM      4  C   UNL     1      11.017  18.195  60.727  1.00  0.00     0.039 C 
ATOM      5  C   UNL     1      11.449  18.096  59.271  1.00  0.00    -0.006 C 
ATOM      6  C   UNL     1      12.765  17.973  58.927  1.00  0.00    -0.070 C 
ATOM      7  C   UNL     1      13.200  17.818  57.488  1.00  0.00     0.039 C 
ATOM      8  C   UNL     1      13.851  17.949  59.979  1.00  0.00     0.039 C 
ATOM      9  C   UNL     1      10.367  18.257  58.254  1.00  0.00     0.159 C 
ATOM     10  O   UNL     1      10.597  18.781  57.131  1.00  0.00    -0.295 OA
ATOM     11  C   UNL     1       8.972  17.798  58.561  1.00  0.00     0.084 C 
ENDROOT
TORSDOF 0
ENDMDL
