MODEL 1
REMARK VINA RESULT:    -4.697      0.000      0.000
REMARK INTER + INTRA:          -5.816
REMARK INTER:                  -5.658
REMARK INTRA:                  -0.158
REMARK UNBOUND:                -0.158
REMARK SMILES O=c1c(O)c(-c2ccc(O)c(O)c2)oc2cc(O)cc(O)c12
REMARK SMILES IDX 5 1 3 2 2 3 1 4 22 5 20 6 19 7 17 8 16 9 15 10 14 11 6 12
REMARK SMILES IDX 7 13 8 14 9 15 13 16 11 17 10 18 12 20 4 22 21 24 18 26
REMARK H PARENT 10 19 12 21 4 23 21 25 18 27
REMARK Flexibility Score: inf
ROOT
ATOM      1  C   UNL     1      23.562  46.165  87.172  1.00  0.00     0.180 A 
ATOM      2  C   UNL     1      23.058  45.414  88.249  1.00  0.00     0.208 A 
ATOM      3  C   UNL     1      21.938  45.892  88.946  1.00  0.00     0.238 A 
ATOM      4  O   UNL     1      21.524  45.244  89.942  1.00  0.00    -0.285 OA
ATOM      5  C   UNL     1      21.325  47.105  88.549  1.00  0.00     0.111 A 
ATOM      6  C   UNL     1      20.161  47.663  89.159  1.00  0.00     0.134 A 
ATOM      7  C   UNL     1      19.719  48.933  88.770  1.00  0.00     0.093 A 
ATOM      8  C   UNL     1      20.360  49.636  87.747  1.00  0.00     0.123 A 
ATOM      9  C   UNL     1      21.461  49.075  87.105  1.00  0.00     0.094 A 
ATOM     10  C   UNL     1      21.947  47.825  87.497  1.00  0.00     0.146 A 
ATOM     11  O   UNL     1      23.006  47.330  86.866  1.00  0.00    -0.452 OA
ENDROOT
BRANCH   1  12
ATOM     12  C   UNL     1      24.724  45.714  86.372  1.00  0.00     0.025 A 
ATOM     13  C   UNL     1      24.691  44.510  85.646  1.00  0.00     0.016 A 
ATOM     14  C   UNL     1      25.791  44.116  84.879  1.00  0.00     0.051 A 
ATOM     15  C   UNL     1      26.933  44.924  84.817  1.00  0.00     0.157 A 
ATOM     16  C   UNL     1      25.865  46.530  86.289  1.00  0.00     0.062 A 
ATOM     17  C   UNL     1      26.969  46.135  85.520  1.00  0.00     0.158 A 
BRANCH  15  18
ATOM     18  O   UNL     1      28.033  44.534  84.055  1.00  0.00    -0.504 OA
ATOM     19  H   UNL     1      28.194  43.563  83.816  1.00  0.00     0.293 HD
ENDBRANCH  15  18
BRANCH  17  20
ATOM     20  O   UNL     1      28.104  46.940  85.451  1.00  0.00    -0.504 OA
ATOM     21  H   UNL     1      29.011  46.558  85.207  1.00  0.00     0.293 HD
ENDBRANCH  17  20
ENDBRANCH   1  12
BRANCH   2  22
ATOM     22  O   UNL     1      23.691  44.230  88.637  1.00  0.00    -0.502 OA
ATOM     23  H   UNL     1      23.238  43.537  89.221  1.00  0.00     0.293 HD
ENDBRANCH   2  22
BRANCH   6  24
ATOM     24  O   UNL     1      19.394  47.003  90.124  1.00  0.00    -0.507 OA
ATOM     25  H   UNL     1      19.328  47.277  91.092  1.00  0.00     0.293 HD
ENDBRANCH   6  24
BRANCH   8  26
ATOM     26  O   UNL     1      19.904  50.893  87.355  1.00  0.00    -0.508 OA
ATOM     27  H   UNL     1      19.289  51.442  87.945  1.00  0.00     0.293 HD
ENDBRANCH   8  26
TORSDOF 6
ENDMDL
MODEL 2
REMARK VINA RESULT:    -4.684      2.519      7.512
REMARK INTER + INTRA:          -5.801
REMARK INTER:                  -5.717
REMARK INTRA:                  -0.083
REMARK UNBOUND:                -0.158
REMARK SMILES O=c1c(O)c(-c2ccc(O)c(O)c2)oc2cc(O)cc(O)c12
REMARK SMILES IDX 5 1 3 2 2 3 1 4 22 5 20 6 19 7 17 8 16 9 15 10 14 11 6 12
REMARK SMILES IDX 7 13 8 14 9 15 13 16 11 17 10 18 12 20 4 22 21 24 18 26
REMARK H PARENT 10 19 12 21 4 23 21 25 18 27
REMARK Flexibility Score: inf
ROOT
ATOM      1  C   UNL     1      20.649  48.311  88.235  1.00  0.00     0.180 A 
ATOM      2  C   UNL     1      21.399  48.465  87.055  1.00  0.00     0.208 A 
ATOM      3  C   UNL     1      22.261  47.431  86.657  1.00  0.00     0.238 A 
ATOM      4  O   UNL     1      22.969  47.597  85.630  1.00  0.00    -0.285 OA
ATOM      5  C   UNL     1      22.350  46.249  87.432  1.00  0.00     0.111 A 
ATOM      6  C   UNL     1      23.161  45.122  87.101  1.00  0.00     0.134 A 
ATOM      7  C   UNL     1      23.272  44.062  88.009  1.00  0.00     0.093 A 
ATOM      8  C   UNL     1      22.550  44.059  89.205  1.00  0.00     0.123 A 
ATOM      9  C   UNL     1      21.712  45.127  89.510  1.00  0.00     0.094 A 
ATOM     10  C   UNL     1      21.608  46.217  88.641  1.00  0.00     0.146 A 
ATOM     11  O   UNL     1      20.804  47.220  88.975  1.00  0.00    -0.452 OA
ENDROOT
BRANCH   1  12
ATOM     12  C   UNL     1      19.701  49.346  88.706  1.00  0.00     0.025 A 
ATOM     13  C   UNL     1      18.341  49.053  88.914  1.00  0.00     0.016 A 
ATOM     14  C   UNL     1      17.469  50.040  89.382  1.00  0.00     0.051 A 
ATOM     15  C   UNL     1      17.945  51.328  89.660  1.00  0.00     0.157 A 
ATOM     16  C   UNL     1      20.175  50.634  89.006  1.00  0.00     0.062 A 
ATOM     17  C   UNL     1      19.301  51.624  89.475  1.00  0.00     0.158 A 
BRANCH  15  18
ATOM     18  O   UNL     1      17.078  52.315  90.125  1.00  0.00    -0.504 OA
ATOM     19  H   UNL     1      16.794  53.090  89.537  1.00  0.00     0.293 HD
ENDBRANCH  15  18
BRANCH  17  20
ATOM     20  O   UNL     1      19.773  52.904  89.759  1.00  0.00    -0.504 OA
ATOM     21  H   UNL     1      19.394  53.723  89.298  1.00  0.00     0.293 HD
ENDBRANCH  17  20
ENDBRANCH   1  12
BRANCH   2  22
ATOM     22  O   UNL     1      21.312  49.648  86.316  1.00  0.00    -0.502 OA
ATOM     23  H   UNL     1      20.489  50.239  86.331  1.00  0.00     0.293 HD
ENDBRANCH   2  22
BRANCH   6  24
ATOM     24  O   UNL     1      23.848  44.984  85.892  1.00  0.00    -0.507 OA
ATOM     25  H   UNL     1      23.896  44.133  85.352  1.00  0.00     0.293 HD
ENDBRANCH   6  24
BRANCH   8  26
ATOM     26  O   UNL     1      22.655  42.992  90.095  1.00  0.00    -0.508 OA
ATOM     27  H   UNL     1      22.661  42.031  89.773  1.00  0.00     0.293 HD
ENDBRANCH   8  26
TORSDOF 6
ENDMDL
MODEL 3
REMARK VINA RESULT:    -4.466      1.764      2.799
REMARK INTER + INTRA:          -5.538
REMARK INTER:                  -5.256
REMARK INTRA:                  -0.281
REMARK UNBOUND:                -0.158
REMARK SMILES O=c1c(O)c(-c2ccc(O)c(O)c2)oc2cc(O)cc(O)c12
REMARK SMILES IDX 5 1 3 2 2 3 1 4 22 5 20 6 19 7 17 8 16 9 15 10 14 11 6 12
REMARK SMILES IDX 7 13 8 14 9 15 13 16 11 17 10 18 12 20 4 22 21 24 18 26
REMARK H PARENT 10 19 12 21 4 23 21 25 18 27
REMARK Flexibility Score: inf
ROOT
ATOM      1  C   UNL     1      21.701  47.043  88.431  1.00  0.00     0.180 A 
ATOM      2  C   UNL     1      20.790  46.116  88.967  1.00  0.00     0.208 A 
ATOM      3  C   UNL     1      19.546  46.572  89.429  1.00  0.00     0.238 A 
ATOM      4  O   UNL     1      18.757  45.746  89.957  1.00  0.00    -0.285 OA
ATOM      5  C   UNL     1      19.219  47.947  89.332  1.00  0.00     0.111 A 
ATOM      6  C   UNL     1      17.971  48.513  89.731  1.00  0.00     0.134 A 
ATOM      7  C   UNL     1      17.807  49.904  89.712  1.00  0.00     0.093 A 
ATOM      8  C   UNL     1      18.823  50.743  89.246  1.00  0.00     0.123 A 
ATOM      9  C   UNL     1      20.022  50.195  88.799  1.00  0.00     0.094 A 
ATOM     10  C   UNL     1      20.229  48.814  88.840  1.00  0.00     0.146 A 
ATOM     11  O   UNL     1      21.392  48.334  88.414  1.00  0.00    -0.452 OA
ENDROOT
BRANCH   1  12
ATOM     12  C   UNL     1      23.022  46.634  87.901  1.00  0.00     0.025 A 
ATOM     13  C   UNL     1      24.197  46.802  88.654  1.00  0.00     0.016 A 
ATOM     14  C   UNL     1      25.430  46.387  88.143  1.00  0.00     0.051 A 
ATOM     15  C   UNL     1      25.504  45.788  86.880  1.00  0.00     0.157 A 
ATOM     16  C   UNL     1      23.100  46.014  86.642  1.00  0.00     0.062 A 
ATOM     17  C   UNL     1      24.337  45.598  86.129  1.00  0.00     0.158 A 
BRANCH  15  18
ATOM     18  O   UNL     1      26.732  45.374  86.365  1.00  0.00    -0.504 OA
ATOM     19  H   UNL     1      27.113  44.459  86.575  1.00  0.00     0.293 HD
ENDBRANCH  15  18
BRANCH  17  20
ATOM     20  O   UNL     1      24.413  44.995  84.875  1.00  0.00    -0.504 OA
ATOM     21  H   UNL     1      24.644  44.014  84.771  1.00  0.00     0.293 HD
ENDBRANCH  17  20
ENDBRANCH   1  12
BRANCH   2  22
ATOM     22  O   UNL     1      21.141  44.767  89.073  1.00  0.00    -0.502 OA
ATOM     23  H   UNL     1      21.435  44.348  89.947  1.00  0.00     0.293 HD
ENDBRANCH   2  22
BRANCH   6  24
ATOM     24  O   UNL     1      16.862  47.759  90.125  1.00  0.00    -0.507 OA
ATOM     25  H   UNL     1      16.688  47.441  91.066  1.00  0.00     0.293 HD
ENDBRANCH   6  24
BRANCH   8  26
ATOM     26  O   UNL     1      18.644  52.124  89.216  1.00  0.00    -0.508 OA
ATOM     27  H   UNL     1      19.341  52.741  88.815  1.00  0.00     0.293 HD
ENDBRANCH   8  26
TORSDOF 6
ENDMDL
MODEL 4
REMARK VINA RESULT:    -4.359      2.044      3.872
REMARK INTER + INTRA:          -5.409
REMARK INTER:                  -5.170
REMARK INTRA:                  -0.239
REMARK UNBOUND:                -0.158
REMARK SMILES O=c1c(O)c(-c2ccc(O)c(O)c2)oc2cc(O)cc(O)c12
REMARK SMILES IDX 5 1 3 2 2 3 1 4 22 5 20 6 19 7 17 8 16 9 15 10 14 11 6 12
REMARK SMILES IDX 7 13 8 14 9 15 13 16 11 17 10 18 12 20 4 22 21 24 18 26
REMARK H PARENT 10 19 12 21 4 23 21 25 18 27
REMARK Flexibility Score: inf
ROOT
ATOM      1  C   UNL     1      21.802  47.591  88.169  1.00  0.00     0.180 A 
ATOM      2  C   UNL     1      21.562  48.977  88.210  1.00  0.00     0.208 A 
ATOM      3  C   UNL     1      20.325  49.440  88.684  1.00  0.00     0.238 A 
ATOM      4  O   UNL     1      20.097  50.677  88.668  1.00  0.00    -0.285 OA
ATOM      5  C   UNL     1      19.350  48.514  89.129  1.00  0.00     0.111 A 
ATOM      6  C   UNL     1      18.077  48.874  89.667  1.00  0.00     0.134 A 
ATOM      7  C   UNL     1      17.141  47.874  89.952  1.00  0.00     0.093 A 
ATOM      8  C   UNL     1      17.455  46.523  89.781  1.00  0.00     0.123 A 
ATOM      9  C   UNL     1      18.714  46.159  89.312  1.00  0.00     0.094 A 
ATOM     10  C   UNL     1      19.657  47.137  88.984  1.00  0.00     0.146 A 
ATOM     11  O   UNL     1      20.843  46.747  88.531  1.00  0.00    -0.452 OA
ENDROOT
BRANCH   1  12
ATOM     12  C   UNL     1      23.090  47.028  87.705  1.00  0.00     0.025 A 
ATOM     13  C   UNL     1      24.268  47.176  88.459  1.00  0.00     0.016 A 
ATOM     14  C   UNL     1      25.468  46.615  88.013  1.00  0.00     0.051 A 
ATOM     15  C   UNL     1      25.506  45.888  86.816  1.00  0.00     0.157 A 
ATOM     16  C   UNL     1      23.130  46.280  86.516  1.00  0.00     0.062 A 
ATOM     17  C   UNL     1      24.333  45.717  86.068  1.00  0.00     0.158 A 
BRANCH  15  18
ATOM     18  O   UNL     1      26.700  45.329  86.367  1.00  0.00    -0.504 OA
ATOM     19  H   UNL     1      27.553  45.393  86.912  1.00  0.00     0.293 HD
ENDBRANCH  15  18
BRANCH  17  20
ATOM     20  O   UNL     1      24.373  44.988  84.882  1.00  0.00    -0.504 OA
ATOM     21  H   UNL     1      24.333  45.444  83.978  1.00  0.00     0.293 HD
ENDBRANCH  17  20
ENDBRANCH   1  12
BRANCH   2  22
ATOM     22  O   UNL     1      22.531  49.871  87.747  1.00  0.00    -0.502 OA
ATOM     23  H   UNL     1      22.359  50.866  87.668  1.00  0.00     0.293 HD
ENDBRANCH   2  22
BRANCH   6  24
ATOM     24  O   UNL     1      17.698  50.187  89.963  1.00  0.00    -0.507 OA
ATOM     25  H   UNL     1      16.745  50.509  90.031  1.00  0.00     0.293 HD
ENDBRANCH   6  24
BRANCH   8  26
ATOM     26  O   UNL     1      16.522  45.533  90.082  1.00  0.00    -0.508 OA
ATOM     27  H   UNL     1      16.397  45.191  91.028  1.00  0.00     0.293 HD
ENDBRANCH   8  26
TORSDOF 6
ENDMDL
MODEL 5
REMARK VINA RESULT:    -4.278      1.737      2.345
REMARK INTER + INTRA:          -5.311
REMARK INTER:                  -5.779
REMARK INTRA:                   0.468
REMARK UNBOUND:                -0.158
REMARK SMILES O=c1c(O)c(-c2ccc(O)c(O)c2)oc2cc(O)cc(O)c12
REMARK SMILES IDX 5 1 3 2 2 3 1 4 22 5 20 6 19 7 17 8 16 9 15 10 14 11 6 12
REMARK SMILES IDX 7 13 8 14 9 15 13 16 11 17 10 18 12 20 4 22 21 24 18 26
REMARK H PARENT 10 19 12 21 4 23 21 25 18 27
REMARK Flexibility Score: inf
ROOT
ATOM      1  C   UNL     1      23.629  47.396  86.978  1.00  0.00     0.180 A 
ATOM      2  C   UNL     1      22.409  46.725  87.169  1.00  0.00     0.208 A 
ATOM      3  C   UNL     1      21.326  47.426  87.722  1.00  0.00     0.238 A 
ATOM      4  O   UNL     1      20.253  46.806  87.941  1.00  0.00    -0.285 OA
ATOM      5  C   UNL     1      21.470  48.793  88.060  1.00  0.00     0.111 A 
ATOM      6  C   UNL     1      20.426  49.612  88.588  1.00  0.00     0.134 A 
ATOM      7  C   UNL     1      20.718  50.915  89.009  1.00  0.00     0.093 A 
ATOM      8  C   UNL     1      22.000  51.451  88.859  1.00  0.00     0.123 A 
ATOM      9  C   UNL     1      23.009  50.680  88.290  1.00  0.00     0.094 A 
ATOM     10  C   UNL     1      22.758  49.364  87.894  1.00  0.00     0.146 A 
ATOM     11  O   UNL     1      23.753  48.660  87.366  1.00  0.00    -0.452 OA
ENDROOT
BRANCH   1  12
ATOM     12  C   UNL     1      24.809  46.732  86.378  1.00  0.00     0.025 A 
ATOM     13  C   UNL     1      26.105  47.253  86.539  1.00  0.00     0.016 A 
ATOM     14  C   UNL     1      27.206  46.595  85.984  1.00  0.00     0.051 A 
ATOM     15  C   UNL     1      27.029  45.403  85.271  1.00  0.00     0.157 A 
ATOM     16  C   UNL     1      24.641  45.524  85.679  1.00  0.00     0.062 A 
ATOM     17  C   UNL     1      25.745  44.864  85.121  1.00  0.00     0.158 A 
BRANCH  15  18
ATOM     18  O   UNL     1      28.124  44.745  84.713  1.00  0.00    -0.504 OA
ATOM     19  H   UNL     1      28.006  43.961  84.083  1.00  0.00     0.293 HD
ENDBRANCH  15  18
BRANCH  17  20
ATOM     20  O   UNL     1      25.573  43.674  84.417  1.00  0.00    -0.504 OA
ATOM     21  H   UNL     1      24.652  43.301  84.222  1.00  0.00     0.293 HD
ENDBRANCH  17  20
ENDBRANCH   1  12
BRANCH   2  22
ATOM     22  O   UNL     1      22.295  45.369  86.848  1.00  0.00    -0.502 OA
ATOM     23  H   UNL     1      22.946  44.673  87.190  1.00  0.00     0.293 HD
ENDBRANCH   2  22
BRANCH   6  24
ATOM     24  O   UNL     1      19.093  49.205  88.694  1.00  0.00    -0.507 OA
ATOM     25  H   UNL     1      18.390  49.677  89.242  1.00  0.00     0.293 HD
ENDBRANCH   6  24
BRANCH   8  26
ATOM     26  O   UNL     1      22.276  52.754  89.266  1.00  0.00    -0.508 OA
ATOM     27  H   UNL     1      21.665  53.526  89.026  1.00  0.00     0.293 HD
ENDBRANCH   8  26
TORSDOF 6
ENDMDL
MODEL 6
REMARK VINA RESULT:    -4.265      1.779      7.193
REMARK INTER + INTRA:          -5.296
REMARK INTER:                  -4.980
REMARK INTRA:                  -0.316
REMARK UNBOUND:                -0.158
REMARK SMILES O=c1c(O)c(-c2ccc(O)c(O)c2)oc2cc(O)cc(O)c12
REMARK SMILES IDX 5 1 3 2 2 3 1 4 22 5 20 6 19 7 17 8 16 9 15 10 14 11 6 12
REMARK SMILES IDX 7 13 8 14 9 15 13 16 11 17 10 18 12 20 4 22 21 24 18 26
REMARK H PARENT 10 19 12 21 4 23 21 25 18 27
REMARK Flexibility Score: inf
ROOT
ATOM      1  C   UNL     1      23.213  48.240  87.743  1.00  0.00     0.180 A 
ATOM      2  C   UNL     1      24.375  48.977  88.037  1.00  0.00     0.208 A 
ATOM      3  C   UNL     1      25.602  48.555  87.503  1.00  0.00     0.238 A 
ATOM      4  O   UNL     1      26.645  49.186  87.812  1.00  0.00    -0.285 OA
ATOM      5  C   UNL     1      25.651  47.413  86.667  1.00  0.00     0.111 A 
ATOM      6  C   UNL     1      26.834  46.918  86.039  1.00  0.00     0.134 A 
ATOM      7  C   UNL     1      26.789  45.705  85.341  1.00  0.00     0.093 A 
ATOM      8  C   UNL     1      25.591  45.003  85.193  1.00  0.00     0.123 A 
ATOM      9  C   UNL     1      24.420  45.507  85.753  1.00  0.00     0.094 A 
ATOM     10  C   UNL     1      24.440  46.696  86.486  1.00  0.00     0.146 A 
ATOM     11  O   UNL     1      23.302  47.137  87.011  1.00  0.00    -0.452 OA
ENDROOT
BRANCH   1  12
ATOM     12  C   UNL     1      21.879  48.638  88.249  1.00  0.00     0.025 A 
ATOM     13  C   UNL     1      21.361  48.107  89.443  1.00  0.00     0.016 A 
ATOM     14  C   UNL     1      20.109  48.514  89.913  1.00  0.00     0.051 A 
ATOM     15  C   UNL     1      19.365  49.466  89.205  1.00  0.00     0.157 A 
ATOM     16  C   UNL     1      21.137  49.607  87.554  1.00  0.00     0.062 A 
ATOM     17  C   UNL     1      19.882  50.016  88.025  1.00  0.00     0.158 A 
BRANCH  15  18
ATOM     18  O   UNL     1      18.116  49.874  89.670  1.00  0.00    -0.504 OA
ATOM     19  H   UNL     1      17.744  49.540  90.551  1.00  0.00     0.293 HD
ENDBRANCH  15  18
BRANCH  17  20
ATOM     20  O   UNL     1      19.142  50.968  87.326  1.00  0.00    -0.504 OA
ATOM     21  H   UNL     1      18.719  50.758  86.430  1.00  0.00     0.293 HD
ENDBRANCH  17  20
ENDBRANCH   1  12
BRANCH   2  22
ATOM     22  O   UNL     1      24.307  50.090  88.880  1.00  0.00    -0.502 OA
ATOM     23  H   UNL     1      23.461  50.344  89.377  1.00  0.00     0.293 HD
ENDBRANCH   2  22
BRANCH   6  24
ATOM     24  O   UNL     1      28.060  47.589  86.047  1.00  0.00    -0.507 OA
ATOM     25  H   UNL     1      28.956  47.153  85.889  1.00  0.00     0.293 HD
ENDBRANCH   6  24
BRANCH   8  26
ATOM     26  O   UNL     1      25.553  43.805  84.484  1.00  0.00    -0.508 OA
ATOM     27  H   UNL     1      24.881  43.649  83.741  1.00  0.00     0.293 HD
ENDBRANCH   8  26
TORSDOF 6
ENDMDL
MODEL 7
REMARK VINA RESULT:    -4.184      2.867      4.879
REMARK INTER + INTRA:          -5.198
REMARK INTER:                  -4.978
REMARK INTRA:                  -0.220
REMARK UNBOUND:                -0.158
REMARK SMILES O=c1c(O)c(-c2ccc(O)c(O)c2)oc2cc(O)cc(O)c12
REMARK SMILES IDX 5 1 3 2 2 3 1 4 22 5 20 6 19 7 17 8 16 9 15 10 14 11 6 12
REMARK SMILES IDX 7 13 8 14 9 15 13 16 11 17 10 18 12 20 4 22 21 24 18 26
REMARK H PARENT 10 19 12 21 4 23 21 25 18 27
REMARK Flexibility Score: inf
ROOT
ATOM      1  C   UNL     1      21.469  49.399  88.246  1.00  0.00     0.180 A 
ATOM      2  C   UNL     1      20.116  49.372  88.626  1.00  0.00     0.208 A 
ATOM      3  C   UNL     1      19.541  50.527  89.178  1.00  0.00     0.238 A 
ATOM      4  O   UNL     1      18.345  50.481  89.566  1.00  0.00    -0.285 OA
ATOM      5  C   UNL     1      20.320  51.700  89.327  1.00  0.00     0.111 A 
ATOM      6  C   UNL     1      19.829  52.940  89.837  1.00  0.00     0.134 A 
ATOM      7  C   UNL     1      20.722  53.995  90.064  1.00  0.00     0.093 A 
ATOM      8  C   UNL     1      22.075  53.877  89.736  1.00  0.00     0.123 A 
ATOM      9  C   UNL     1      22.552  52.692  89.183  1.00  0.00     0.094 A 
ATOM     10  C   UNL     1      21.693  51.608  88.980  1.00  0.00     0.146 A 
ATOM     11  O   UNL     1      22.191  50.492  88.459  1.00  0.00    -0.452 OA
ENDROOT
BRANCH   1  12
ATOM     12  C   UNL     1      22.139  48.229  87.634  1.00  0.00     0.025 A 
ATOM     13  C   UNL     1      22.531  48.232  86.284  1.00  0.00     0.016 A 
ATOM     14  C   UNL     1      23.183  47.125  85.734  1.00  0.00     0.051 A 
ATOM     15  C   UNL     1      23.464  46.006  86.527  1.00  0.00     0.157 A 
ATOM     16  C   UNL     1      22.443  47.111  88.430  1.00  0.00     0.062 A 
ATOM     17  C   UNL     1      23.097  46.000  87.879  1.00  0.00     0.158 A 
BRANCH  15  18
ATOM     18  O   UNL     1      24.113  44.899  85.982  1.00  0.00    -0.504 OA
ATOM     19  H   UNL     1      23.927  44.590  85.035  1.00  0.00     0.293 HD
ENDBRANCH  15  18
BRANCH  17  20
ATOM     20  O   UNL     1      23.384  44.888  88.667  1.00  0.00    -0.504 OA
ATOM     21  H   UNL     1      23.824  44.062  88.279  1.00  0.00     0.293 HD
ENDBRANCH  17  20
ENDBRANCH   1  12
BRANCH   2  22
ATOM     22  O   UNL     1      19.371  48.197  88.490  1.00  0.00    -0.502 OA
ATOM     23  H   UNL     1      19.502  47.397  89.096  1.00  0.00     0.293 HD
ENDBRANCH   2  22
BRANCH   6  24
ATOM     24  O   UNL     1      18.481  53.193  90.110  1.00  0.00    -0.507 OA
ATOM     25  H   UNL     1      17.904  53.843  89.599  1.00  0.00     0.293 HD
ENDBRANCH   6  24
BRANCH   8  26
ATOM     26  O   UNL     1      22.953  54.937  89.950  1.00  0.00    -0.508 OA
ATOM     27  H   UNL     1      22.724  55.881  89.662  1.00  0.00     0.293 HD
ENDBRANCH   8  26
TORSDOF 6
ENDMDL
MODEL 8
REMARK VINA RESULT:    -4.172      1.554      6.676
REMARK INTER + INTRA:          -5.183
REMARK INTER:                  -5.172
REMARK INTRA:                  -0.011
REMARK UNBOUND:                -0.158
REMARK SMILES O=c1c(O)c(-c2ccc(O)c(O)c2)oc2cc(O)cc(O)c12
REMARK SMILES IDX 5 1 3 2 2 3 1 4 22 5 20 6 19 7 17 8 16 9 15 10 14 11 6 12
REMARK SMILES IDX 7 13 8 14 9 15 13 16 11 17 10 18 12 20 4 22 21 24 18 26
REMARK H PARENT 10 19 12 21 4 23 21 25 18 27
REMARK Flexibility Score: inf
ROOT
ATOM      1  C   UNL     1      23.187  46.822  87.266  1.00  0.00     0.180 A 
ATOM      2  C   UNL     1      23.454  45.563  86.699  1.00  0.00     0.208 A 
ATOM      3  C   UNL     1      24.678  45.358  86.044  1.00  0.00     0.238 A 
ATOM      4  O   UNL     1      24.888  44.248  85.491  1.00  0.00    -0.285 OA
ATOM      5  C   UNL     1      25.628  46.406  85.980  1.00  0.00     0.111 A 
ATOM      6  C   UNL     1      26.917  46.296  85.377  1.00  0.00     0.134 A 
ATOM      7  C   UNL     1      27.722  47.436  85.256  1.00  0.00     0.093 A 
ATOM      8  C   UNL     1      27.311  48.666  85.775  1.00  0.00     0.123 A 
ATOM      9  C   UNL     1      26.080  48.770  86.417  1.00  0.00     0.094 A 
ATOM     10  C   UNL     1      25.239  47.659  86.521  1.00  0.00     0.146 A 
ATOM     11  O   UNL     1      24.069  47.804  87.132  1.00  0.00    -0.452 OA
ENDROOT
BRANCH   1  12
ATOM     12  C   UNL     1      21.929  47.107  87.994  1.00  0.00     0.025 A 
ATOM     13  C   UNL     1      21.449  46.244  88.995  1.00  0.00     0.016 A 
ATOM     14  C   UNL     1      20.272  46.546  89.685  1.00  0.00     0.051 A 
ATOM     15  C   UNL     1      19.565  47.720  89.395  1.00  0.00     0.157 A 
ATOM     16  C   UNL     1      21.226  48.293  87.722  1.00  0.00     0.062 A 
ATOM     17  C   UNL     1      20.045  48.597  88.414  1.00  0.00     0.158 A 
BRANCH  15  18
ATOM     18  O   UNL     1      18.390  48.023  90.079  1.00  0.00    -0.504 OA
ATOM     19  H   UNL     1      17.480  47.811  89.689  1.00  0.00     0.293 HD
ENDBRANCH  15  18
BRANCH  17  20
ATOM     20  O   UNL     1      19.343  49.767  88.131  1.00  0.00    -0.504 OA
ATOM     21  H   UNL     1      19.357  50.184  87.208  1.00  0.00     0.293 HD
ENDBRANCH  17  20
ENDBRANCH   1  12
BRANCH   2  22
ATOM     22  O   UNL     1      22.493  44.549  86.755  1.00  0.00    -0.502 OA
ATOM     23  H   UNL     1      22.601  43.671  86.263  1.00  0.00     0.293 HD
ENDBRANCH   2  22
BRANCH   6  24
ATOM     24  O   UNL     1      27.460  45.095  84.911  1.00  0.00    -0.507 OA
ATOM     25  H   UNL     1      27.590  44.863  83.938  1.00  0.00     0.293 HD
ENDBRANCH   6  24
BRANCH   8  26
ATOM     26  O   UNL     1      28.125  49.791  85.663  1.00  0.00    -0.508 OA
ATOM     27  H   UNL     1      28.778  49.900  84.895  1.00  0.00     0.293 HD
ENDBRANCH   8  26
TORSDOF 6
ENDMDL
MODEL 9
REMARK VINA RESULT:    -4.024      2.091      7.181
REMARK INTER + INTRA:          -5.005
REMARK INTER:                  -4.766
REMARK INTRA:                  -0.238
REMARK UNBOUND:                -0.158
REMARK SMILES O=c1c(O)c(-c2ccc(O)c(O)c2)oc2cc(O)cc(O)c12
REMARK SMILES IDX 5 1 3 2 2 3 1 4 22 5 20 6 19 7 17 8 16 9 15 10 14 11 6 12
REMARK SMILES IDX 7 13 8 14 9 15 13 16 11 17 10 18 12 20 4 22 21 24 18 26
REMARK H PARENT 10 19 12 21 4 23 21 25 18 27
REMARK Flexibility Score: inf
ROOT
ATOM      1  C   UNL     1      22.201  48.880  87.765  1.00  0.00     0.180 A 
ATOM      2  C   UNL     1      22.005  47.505  87.545  1.00  0.00     0.208 A 
ATOM      3  C   UNL     1      23.067  46.739  87.038  1.00  0.00     0.238 A 
ATOM      4  O   UNL     1      22.870  45.521  86.793  1.00  0.00    -0.285 OA
ATOM      5  C   UNL     1      24.315  47.353  86.775  1.00  0.00     0.111 A 
ATOM      6  C   UNL     1      25.472  46.665  86.298  1.00  0.00     0.134 A 
ATOM      7  C   UNL     1      26.614  47.395  85.947  1.00  0.00     0.093 A 
ATOM      8  C   UNL     1      26.663  48.781  86.118  1.00  0.00     0.123 A 
ATOM      9  C   UNL     1      25.561  49.454  86.638  1.00  0.00     0.094 A 
ATOM     10  C   UNL     1      24.394  48.757  86.963  1.00  0.00     0.146 A 
ATOM     11  O   UNL     1      23.361  49.439  87.446  1.00  0.00    -0.452 OA
ENDROOT
BRANCH   1  12
ATOM     12  C   UNL     1      21.137  49.748  88.321  1.00  0.00     0.025 A 
ATOM     13  C   UNL     1      21.215  50.255  89.630  1.00  0.00     0.016 A 
ATOM     14  C   UNL     1      20.211  51.092  90.125  1.00  0.00     0.051 A 
ATOM     15  C   UNL     1      19.123  51.444  89.316  1.00  0.00     0.157 A 
ATOM     16  C   UNL     1      20.054  50.122  87.507  1.00  0.00     0.062 A 
ATOM     17  C   UNL     1      19.046  50.961  88.003  1.00  0.00     0.158 A 
BRANCH  15  18
ATOM     18  O   UNL     1      18.119  52.276  89.806  1.00  0.00    -0.504 OA
ATOM     19  H   UNL     1      17.138  52.049  89.690  1.00  0.00     0.293 HD
ENDBRANCH  15  18
BRANCH  17  20
ATOM     20  O   UNL     1      17.966  51.318  87.199  1.00  0.00    -0.504 OA
ATOM     21  H   UNL     1      18.096  51.820  86.328  1.00  0.00     0.293 HD
ENDBRANCH  17  20
ENDBRANCH   1  12
BRANCH   2  22
ATOM     22  O   UNL     1      20.758  46.924  87.792  1.00  0.00    -0.502 OA
ATOM     23  H   UNL     1      20.229  47.111  88.636  1.00  0.00     0.293 HD
ENDBRANCH   2  22
BRANCH   6  24
ATOM     24  O   UNL     1      25.559  45.275  86.179  1.00  0.00    -0.507 OA
ATOM     25  H   UNL     1      25.727  44.782  85.315  1.00  0.00     0.293 HD
ENDBRANCH   6  24
BRANCH   8  26
ATOM     26  O   UNL     1      27.809  49.498  85.781  1.00  0.00    -0.508 OA
ATOM     27  H   UNL     1      27.929  49.905  84.861  1.00  0.00     0.293 HD
ENDBRANCH   8  26
TORSDOF 6
ENDMDL
