MODEL 1
REMARK VINA RESULT:    -4.447      0.000      0.000
REMARK INTER + INTRA:          -6.692
REMARK INTER:                  -6.266
REMARK INTRA:                  -0.425
REMARK UNBOUND:                -0.425
REMARK SMILES CCCCCCCCC(=O)[O-]
REMARK SMILES IDX 6 1 7 2 8 3 9 4 10 5 11 6 5 7 4 8 3 9 2 10 1 11
REMARK H PARENT
REMARK Flexibility Score: inf
ROOT
ATOM      1  C   UNL     1     -24.904 -29.123  40.507  1.00  0.00     0.000 C 
ENDROOT
BRANCH   1   2
ATOM      2  C   UNL     1     -25.698 -27.832  40.758  1.00  0.00     0.006 C 
BRANCH   2   3
ATOM      3  C   UNL     1     -25.072 -27.015  41.891  1.00  0.00     0.053 C 
BRANCH   3   4
ATOM      4  C   UNL     1     -25.175 -25.551  41.601  1.00  0.00     0.041 C 
ATOM      5  O   UNL     1     -26.305 -25.008  41.480  1.00  0.00    -0.550 OA
ATOM      6  O   UNL     1     -24.025 -24.796  41.415  1.00  0.00    -0.550 OA
ENDBRANCH   3   4
ENDBRANCH   2   3
ENDBRANCH   1   2
BRANCH   1   7
ATOM      7  C   UNL     1     -23.407 -28.967  40.818  1.00  0.00     0.000 C 
BRANCH   7   8
ATOM      8  C   UNL     1     -22.612 -28.398  39.633  1.00  0.00    -0.000 C 
BRANCH   8   9
ATOM      9  C   UNL     1     -21.835 -27.140  40.049  1.00  0.00    -0.000 C 
BRANCH   9  10
ATOM     10  C   UNL     1     -20.947 -26.592  38.921  1.00  0.00    -0.003 C 
ATOM     11  C   UNL     1     -21.173 -27.309  37.591  1.00  0.00     0.004 C 
ENDBRANCH   9  10
ENDBRANCH   8   9
ENDBRANCH   7   8
ENDBRANCH   1   7
TORSDOF 7
ENDMDL
MODEL 2
REMARK VINA RESULT:    -4.375      2.148      3.173
REMARK INTER + INTRA:          -6.590
REMARK INTER:                  -6.218
REMARK INTRA:                  -0.372
REMARK UNBOUND:                -0.425
REMARK SMILES CCCCCCCCC(=O)[O-]
REMARK SMILES IDX 6 1 7 2 8 3 9 4 10 5 11 6 5 7 4 8 3 9 2 10 1 11
REMARK H PARENT
REMARK Flexibility Score: inf
ROOT
ATOM      1  C   UNL     1     -22.397 -28.088  39.850  1.00  0.00     0.000 C 
ENDROOT
BRANCH   1   2
ATOM      2  C   UNL     1     -23.123 -29.399  40.188  1.00  0.00     0.006 C 
BRANCH   2   3
ATOM      3  C   UNL     1     -24.338 -29.137  41.081  1.00  0.00     0.053 C 
BRANCH   3   4
ATOM      4  C   UNL     1     -25.551 -28.862  40.250  1.00  0.00     0.041 C 
ATOM      5  O   UNL     1     -25.914 -29.684  39.367  1.00  0.00    -0.550 OA
ATOM      6  O   UNL     1     -26.252 -27.675  40.415  1.00  0.00    -0.550 OA
ENDBRANCH   3   4
ENDBRANCH   2   3
ENDBRANCH   1   2
BRANCH   1   7
ATOM      7  C   UNL     1     -21.900 -28.042  38.397  1.00  0.00     0.000 C 
BRANCH   7   8
ATOM      8  C   UNL     1     -20.918 -26.889  38.142  1.00  0.00    -0.000 C 
BRANCH   8   9
ATOM      9  C   UNL     1     -20.852 -25.948  39.355  1.00  0.00    -0.000 C 
BRANCH   9  10
ATOM     10  C   UNL     1     -19.451 -25.351  39.565  1.00  0.00    -0.003 C 
ATOM     11  C   UNL     1     -18.367 -26.103  38.795  1.00  0.00     0.004 C 
ENDBRANCH   9  10
ENDBRANCH   8   9
ENDBRANCH   7   8
ENDBRANCH   1   7
TORSDOF 7
ENDMDL
MODEL 3
REMARK VINA RESULT:    -4.352      1.997      3.450
REMARK INTER + INTRA:          -6.559
REMARK INTER:                  -6.004
REMARK INTRA:                  -0.555
REMARK UNBOUND:                -0.425
REMARK SMILES CCCCCCCCC(=O)[O-]
REMARK SMILES IDX 6 1 7 2 8 3 9 4 10 5 11 6 5 7 4 8 3 9 2 10 1 11
REMARK H PARENT
REMARK Flexibility Score: inf
ROOT
ATOM      1  C   UNL     1     -22.115 -28.127  38.247  1.00  0.00     0.000 C 
ENDROOT
BRANCH   1   2
ATOM      2  C   UNL     1     -22.604 -28.489  39.658  1.00  0.00     0.006 C 
BRANCH   2   3
ATOM      3  C   UNL     1     -24.063 -28.952  39.630  1.00  0.00     0.053 C 
BRANCH   3   4
ATOM      4  C   UNL     1     -24.856 -28.251  40.687  1.00  0.00     0.041 C 
ATOM      5  O   UNL     1     -24.409 -28.163  41.860  1.00  0.00    -0.550 OA
ATOM      6  O   UNL     1     -26.112 -27.740  40.388  1.00  0.00    -0.550 OA
ENDBRANCH   3   4
ENDBRANCH   2   3
ENDBRANCH   1   2
BRANCH   1   7
ATOM      7  C   UNL     1     -21.073 -26.997  38.251  1.00  0.00     0.000 C 
BRANCH   7   8
ATOM      8  C   UNL     1     -20.884 -26.372  39.641  1.00  0.00    -0.000 C 
BRANCH   8   9
ATOM      9  C   UNL     1     -20.935 -24.838  39.563  1.00  0.00    -0.000 C 
BRANCH   9  10
ATOM     10  C   UNL     1     -21.686 -24.210  40.748  1.00  0.00    -0.003 C 
ATOM     11  C   UNL     1     -22.943 -24.989  41.130  1.00  0.00     0.004 C 
ENDBRANCH   9  10
ENDBRANCH   8   9
ENDBRANCH   7   8
ENDBRANCH   1   7
TORSDOF 7
ENDMDL
MODEL 4
REMARK VINA RESULT:    -4.338      0.917      1.189
REMARK INTER + INTRA:          -6.539
REMARK INTER:                  -6.199
REMARK INTRA:                  -0.340
REMARK UNBOUND:                -0.425
REMARK SMILES CCCCCCCCC(=O)[O-]
REMARK SMILES IDX 6 1 7 2 8 3 9 4 10 5 11 6 5 7 4 8 3 9 2 10 1 11
REMARK H PARENT
REMARK Flexibility Score: inf
ROOT
ATOM      1  C   UNL     1     -25.637 -28.568  39.976  1.00  0.00     0.000 C 
ENDROOT
BRANCH   1   2
ATOM      2  C   UNL     1     -25.467 -27.680  41.218  1.00  0.00     0.006 C 
BRANCH   2   3
ATOM      3  C   UNL     1     -26.547 -26.596  41.268  1.00  0.00     0.053 C 
BRANCH   3   4
ATOM      4  C   UNL     1     -25.937 -25.260  41.555  1.00  0.00     0.041 C 
ATOM      5  O   UNL     1     -26.669 -24.283  41.862  1.00  0.00    -0.550 OA
ATOM      6  O   UNL     1     -24.565 -25.082  41.433  1.00  0.00    -0.550 OA
ENDBRANCH   3   4
ENDBRANCH   2   3
ENDBRANCH   1   2
BRANCH   1   7
ATOM      7  C   UNL     1     -24.377 -29.387  39.656  1.00  0.00     0.000 C 
BRANCH   7   8
ATOM      8  C   UNL     1     -23.180 -29.003  40.539  1.00  0.00    -0.000 C 
BRANCH   8   9
ATOM      9  C   UNL     1     -22.280 -27.982  39.826  1.00  0.00    -0.000 C 
BRANCH   9  10
ATOM     10  C   UNL     1     -22.223 -28.203  38.306  1.00  0.00    -0.003 C 
ATOM     11  C   UNL     1     -21.169 -27.335  37.622  1.00  0.00     0.004 C 
ENDBRANCH   9  10
ENDBRANCH   8   9
ENDBRANCH   7   8
ENDBRANCH   1   7
TORSDOF 7
ENDMDL
MODEL 5
REMARK VINA RESULT:    -4.266      2.252      4.237
REMARK INTER + INTRA:          -6.437
REMARK INTER:                  -5.809
REMARK INTRA:                  -0.628
REMARK UNBOUND:                -0.425
REMARK SMILES CCCCCCCCC(=O)[O-]
REMARK SMILES IDX 6 1 7 2 8 3 9 4 10 5 11 6 5 7 4 8 3 9 2 10 1 11
REMARK H PARENT
REMARK Flexibility Score: inf
ROOT
ATOM      1  C   UNL     1     -24.130 -29.130  41.063  1.00  0.00     0.000 C 
ENDROOT
BRANCH   1   2
ATOM      2  C   UNL     1     -22.755 -29.112  40.377  1.00  0.00     0.006 C 
BRANCH   2   3
ATOM      3  C   UNL     1     -22.857 -28.527  38.965  1.00  0.00     0.053 C 
BRANCH   3   4
ATOM      4  C   UNL     1     -21.730 -27.578  38.708  1.00  0.00     0.041 C 
ATOM      5  O   UNL     1     -21.259 -27.453  37.547  1.00  0.00    -0.550 OA
ATOM      6  O   UNL     1     -21.165 -26.869  39.760  1.00  0.00    -0.550 OA
ENDBRANCH   3   4
ENDBRANCH   2   3
ENDBRANCH   1   2
BRANCH   1   7
ATOM      7  C   UNL     1     -25.221 -28.449  40.223  1.00  0.00     0.000 C 
BRANCH   7   8
ATOM      8  C   UNL     1     -26.067 -27.460  41.040  1.00  0.00    -0.000 C 
BRANCH   8   9
ATOM      9  C   UNL     1     -25.190 -26.674  42.026  1.00  0.00    -0.000 C 
BRANCH   9  10
ATOM     10  C   UNL     1     -24.900 -25.242  41.549  1.00  0.00    -0.003 C 
ATOM     11  C   UNL     1     -23.405 -24.945  41.444  1.00  0.00     0.004 C 
ENDBRANCH   9  10
ENDBRANCH   8   9
ENDBRANCH   7   8
ENDBRANCH   1   7
TORSDOF 7
ENDMDL
MODEL 6
REMARK VINA RESULT:    -4.261      2.354      3.652
REMARK INTER + INTRA:          -6.429
REMARK INTER:                  -5.915
REMARK INTRA:                  -0.515
REMARK UNBOUND:                -0.425
REMARK SMILES CCCCCCCCC(=O)[O-]
REMARK SMILES IDX 6 1 7 2 8 3 9 4 10 5 11 6 5 7 4 8 3 9 2 10 1 11
REMARK H PARENT
REMARK Flexibility Score: inf
ROOT
ATOM      1  C   UNL     1     -22.261 -28.322  38.859  1.00  0.00     0.000 C 
ENDROOT
BRANCH   1   2
ATOM      2  C   UNL     1     -22.643 -28.113  40.332  1.00  0.00     0.006 C 
BRANCH   2   3
ATOM      3  C   UNL     1     -23.518 -29.263  40.838  1.00  0.00     0.053 C 
BRANCH   3   4
ATOM      4  C   UNL     1     -24.928 -29.097  40.367  1.00  0.00     0.041 C 
ATOM      5  O   UNL     1     -25.586 -28.072  40.686  1.00  0.00    -0.550 OA
ATOM      6  O   UNL     1     -25.532 -30.098  39.617  1.00  0.00    -0.550 OA
ENDBRANCH   3   4
ENDBRANCH   2   3
ENDBRANCH   1   2
BRANCH   1   7
ATOM      7  C   UNL     1     -21.426 -27.163  38.293  1.00  0.00     0.000 C 
BRANCH   7   8
ATOM      8  C   UNL     1     -20.741 -26.335  39.390  1.00  0.00    -0.000 C 
BRANCH   8   9
ATOM      9  C   UNL     1     -21.189 -24.867  39.329  1.00  0.00    -0.000 C 
BRANCH   9  10
ATOM     10  C   UNL     1     -21.506 -24.287  40.716  1.00  0.00    -0.003 C 
ATOM     11  C   UNL     1     -22.956 -24.518  41.136  1.00  0.00     0.004 C 
ENDBRANCH   9  10
ENDBRANCH   8   9
ENDBRANCH   7   8
ENDBRANCH   1   7
TORSDOF 7
ENDMDL
MODEL 7
REMARK VINA RESULT:    -4.220      1.723      4.076
REMARK INTER + INTRA:          -6.372
REMARK INTER:                  -5.883
REMARK INTRA:                  -0.489
REMARK UNBOUND:                -0.425
REMARK SMILES CCCCCCCCC(=O)[O-]
REMARK SMILES IDX 6 1 7 2 8 3 9 4 10 5 11 6 5 7 4 8 3 9 2 10 1 11
REMARK H PARENT
REMARK Flexibility Score: inf
ROOT
ATOM      1  C   UNL     1     -21.143 -26.995  38.496  1.00  0.00     0.000 C 
ENDROOT
BRANCH   1   2
ATOM      2  C   UNL     1     -21.069 -26.538  39.961  1.00  0.00     0.006 C 
BRANCH   2   3
ATOM      3  C   UNL     1     -20.547 -25.102  40.061  1.00  0.00     0.053 C 
BRANCH   3   4
ATOM      4  C   UNL     1     -21.584 -24.208  40.663  1.00  0.00     0.041 C 
ATOM      5  O   UNL     1     -22.461 -24.684  41.432  1.00  0.00    -0.550 OA
ATOM      6  O   UNL     1     -21.613 -22.859  40.336  1.00  0.00    -0.550 OA
ENDBRANCH   3   4
ENDBRANCH   2   3
ENDBRANCH   1   2
BRANCH   1   7
ATOM      7  C   UNL     1     -22.163 -28.123  38.278  1.00  0.00     0.000 C 
BRANCH   7   8
ATOM      8  C   UNL     1     -22.710 -28.692  39.596  1.00  0.00    -0.000 C 
BRANCH   8   9
ATOM      9  C   UNL     1     -24.130 -29.245  39.407  1.00  0.00    -0.000 C 
BRANCH   9  10
ATOM     10  C   UNL     1     -25.159 -28.557  40.318  1.00  0.00    -0.003 C 
ATOM     11  C   UNL     1     -24.515 -27.604  41.323  1.00  0.00     0.004 C 
ENDBRANCH   9  10
ENDBRANCH   8   9
ENDBRANCH   7   8
ENDBRANCH   1   7
TORSDOF 7
ENDMDL
MODEL 8
REMARK VINA RESULT:    -4.152      2.403      4.686
REMARK INTER + INTRA:          -6.277
REMARK INTER:                  -5.856
REMARK INTRA:                  -0.421
REMARK UNBOUND:                -0.425
REMARK SMILES CCCCCCCCC(=O)[O-]
REMARK SMILES IDX 6 1 7 2 8 3 9 4 10 5 11 6 5 7 4 8 3 9 2 10 1 11
REMARK H PARENT
REMARK Flexibility Score: inf
ROOT
ATOM      1  C   UNL     1     -22.196 -28.242  38.601  1.00  0.00     0.000 C 
ENDROOT
BRANCH   1   2
ATOM      2  C   UNL     1     -21.223 -27.063  38.445  1.00  0.00     0.006 C 
BRANCH   2   3
ATOM      3  C   UNL     1     -20.915 -26.425  39.802  1.00  0.00     0.053 C 
BRANCH   3   4
ATOM      4  C   UNL     1     -19.930 -25.310  39.646  1.00  0.00     0.041 C 
ATOM      5  O   UNL     1     -20.327 -24.116  39.597  1.00  0.00    -0.550 OA
ATOM      6  O   UNL     1     -18.577 -25.592  39.504  1.00  0.00    -0.550 OA
ENDBRANCH   3   4
ENDBRANCH   2   3
ENDBRANCH   1   2
BRANCH   1   7
ATOM      7  C   UNL     1     -22.570 -28.512  40.067  1.00  0.00     0.000 C 
BRANCH   7   8
ATOM      8  C   UNL     1     -23.917 -29.236  40.211  1.00  0.00    -0.000 C 
BRANCH   8   9
ATOM      9  C   UNL     1     -25.053 -28.234  40.462  1.00  0.00    -0.000 C 
BRANCH   9  10
ATOM     10  C   UNL     1     -24.711 -27.213  41.559  1.00  0.00    -0.003 C 
ATOM     11  C   UNL     1     -25.741 -26.090  41.664  1.00  0.00     0.004 C 
ENDBRANCH   9  10
ENDBRANCH   8   9
ENDBRANCH   7   8
ENDBRANCH   1   7
TORSDOF 7
ENDMDL
MODEL 9
REMARK VINA RESULT:    -4.140      2.567      4.670
REMARK INTER + INTRA:          -6.259
REMARK INTER:                  -5.907
REMARK INTRA:                  -0.352
REMARK UNBOUND:                -0.425
REMARK SMILES CCCCCCCCC(=O)[O-]
REMARK SMILES IDX 6 1 7 2 8 3 9 4 10 5 11 6 5 7 4 8 3 9 2 10 1 11
REMARK H PARENT
REMARK Flexibility Score: inf
ROOT
ATOM      1  C   UNL     1     -23.318 -29.153  40.791  1.00  0.00     0.000 C 
ENDROOT
BRANCH   1   2
ATOM      2  C   UNL     1     -22.615 -28.501  39.591  1.00  0.00     0.006 C 
BRANCH   2   3
ATOM      3  C   UNL     1     -21.927 -27.196  40.002  1.00  0.00     0.053 C 
BRANCH   3   4
ATOM      4  C   UNL     1     -20.951 -26.765  38.954  1.00  0.00     0.041 C 
ATOM      5  O   UNL     1     -20.000 -25.996  39.253  1.00  0.00    -0.550 OA
ATOM      6  O   UNL     1     -21.120 -27.172  37.637  1.00  0.00    -0.550 OA
ENDBRANCH   3   4
ENDBRANCH   2   3
ENDBRANCH   1   2
BRANCH   1   7
ATOM      7  C   UNL     1     -24.772 -29.547  40.485  1.00  0.00     0.000 C 
BRANCH   7   8
ATOM      8  C   UNL     1     -25.706 -28.332  40.382  1.00  0.00    -0.000 C 
BRANCH   8   9
ATOM      9  C   UNL     1     -25.432 -27.332  41.516  1.00  0.00    -0.000 C 
BRANCH   9  10
ATOM     10  C   UNL     1     -26.545 -26.283  41.662  1.00  0.00    -0.003 C 
ATOM     11  C   UNL     1     -26.020 -24.850  41.593  1.00  0.00     0.004 C 
ENDBRANCH   9  10
ENDBRANCH   8   9
ENDBRANCH   7   8
ENDBRANCH   1   7
TORSDOF 7
ENDMDL
