MODEL 1
REMARK VINA RESULT:    -4.931      0.000      0.000
REMARK INTER + INTRA:          -7.132
REMARK INTER:                  -7.525
REMARK INTRA:                   0.392
REMARK UNBOUND:                 0.392
REMARK SMILES CC1=CCC[C@H](C)C(=O)C[C@H](C(C)C)C(=O)C1
REMARK SMILES IDX 8 1 9 2 6 3 7 4 5 5 4 6 3 7 2 8 1 9 10 11 11 12 15 13 16 14
REMARK SMILES IDX 17 15 12 17 13 18 14 19
REMARK H PARENT
REMARK Flexibility Score: 70.00
ROOT
ATOM      1  C   UNL     1      17.684  24.957   4.840  1.00  0.00     0.136 C 
ATOM      2  O   UNL     1      17.915  23.794   5.134  1.00  0.00    -0.299 OA
ENDROOT
BRANCH   1   3
ATOM      3  C   UNL     1      16.383  25.619   5.280  1.00  0.00     0.053 C 
ATOM      4  C   UNL     1      15.337  25.656   4.154  1.00  0.00     0.016 C 
BRANCH   3   5
ATOM      5  C   UNL     1      15.804  24.977   6.562  1.00  0.00     0.015 C 
BRANCH   5   6
ATOM      6  C   UNL     1      15.993  25.848   7.816  1.00  0.00     0.028 C 
BRANCH   6   7
ATOM      7  C   UNL     1      17.245  25.516   8.592  1.00  0.00    -0.028 C 
ATOM      8  C   UNL     1      18.502  25.962   8.330  1.00  0.00    -0.070 CG0
ATOM      9  C   UNL     1      19.621  25.395   9.171  1.00  0.00     0.039 C 
ATOM     10  G   UNL     1      18.848  27.045   7.309  1.00  0.00     0.000 G0
ENDBRANCH   6   7
ENDBRANCH   5   6
ENDBRANCH   3   5
ENDBRANCH   1   3
BRANCH   1  11
ATOM     11  C   UNL     1      18.682  25.717   3.996  1.00  0.00     0.087 C 
BRANCH  11  12
ATOM     12  C   UNL     1      19.354  26.924   4.715  1.00  0.00     0.066 C 
BRANCH  12  13
ATOM     13  C   UNL     1      19.724  26.569   6.154  1.00  0.00     0.140 C 
ATOM     14  O   UNL     1      20.760  25.966   6.396  1.00  0.00    -0.299 OA
BRANCH  13  15
ATOM     15  C   UNL     1      18.853  27.032   7.296  1.00  0.00     0.106 CG0
ATOM     16  G   UNL     1      18.516  25.955   8.326  1.00  0.00     0.000 G0
ENDBRANCH  13  15
ENDBRANCH  12  13
BRANCH  12  17
ATOM     17  C   UNL     1      20.552  27.570   3.933  1.00  0.00    -0.006 C 
ATOM     18  C   UNL     1      21.406  26.537   3.175  1.00  0.00     0.008 C 
ATOM     19  C   UNL     1      20.042  28.616   2.920  1.00  0.00     0.008 C 
ENDBRANCH  12  17
ENDBRANCH  11  12
ENDBRANCH   1  11
TORSDOF 1
ENDMDL
MODEL 2
REMARK VINA RESULT:    -4.789      1.512      4.254
REMARK INTER + INTRA:          -6.916
REMARK INTER:                  -7.376
REMARK INTRA:                   0.460
REMARK UNBOUND:                 0.392
REMARK SMILES CC1=CCC[C@H](C)C(=O)C[C@H](C(C)C)C(=O)C1
REMARK SMILES IDX 8 1 9 2 6 3 7 4 5 5 4 6 3 7 2 8 1 9 10 11 11 12 15 13 16 14
REMARK SMILES IDX 17 15 12 17 13 18 14 19
REMARK H PARENT
REMARK Flexibility Score: 70.00
ROOT
ATOM      1  C   UNL     1      16.030  25.057   7.308  1.00  0.00     0.136 C 
ATOM      2  O   UNL     1      15.633  24.250   8.135  1.00  0.00    -0.299 OA
ENDROOT
BRANCH   1   3
ATOM      3  C   UNL     1      15.830  24.796   5.820  1.00  0.00     0.053 C 
ATOM      4  C   UNL     1      15.055  25.930   5.127  1.00  0.00     0.016 C 
BRANCH   3   5
ATOM      5  C   UNL     1      17.161  24.501   5.091  1.00  0.00     0.015 C 
BRANCH   5   6
ATOM      6  C   UNL     1      17.323  25.290   3.779  1.00  0.00     0.028 C 
BRANCH   6   7
ATOM      7  C   UNL     1      18.679  25.936   3.632  1.00  0.00    -0.028 C 
ATOM      8  C   UNL     1      19.242  26.838   4.478  1.00  0.00    -0.070 CG0
ATOM      9  C   UNL     1      20.561  27.442   4.059  1.00  0.00     0.039 C 
ATOM     10  G   UNL     1      18.679  27.219   5.846  1.00  0.00     0.000 G0
ENDBRANCH   6   7
ENDBRANCH   5   6
ENDBRANCH   3   5
ENDBRANCH   1   3
BRANCH   1  11
ATOM     11  C   UNL     1      16.762  26.294   7.776  1.00  0.00     0.087 C 
BRANCH  11  12
ATOM     12  C   UNL     1      18.251  26.056   8.171  1.00  0.00     0.066 C 
BRANCH  12  13
ATOM     13  C   UNL     1      19.186  26.397   7.012  1.00  0.00     0.140 C 
ATOM     14  O   UNL     1      20.323  25.948   6.981  1.00  0.00    -0.299 OA
BRANCH  13  15
ATOM     15  C   UNL     1      18.687  27.227   5.854  1.00  0.00     0.106 CG0
ATOM     16  G   UNL     1      19.246  26.830   4.490  1.00  0.00     0.000 G0
ENDBRANCH  13  15
ENDBRANCH  12  13
BRANCH  12  17
ATOM     17  C   UNL     1      18.690  26.740   9.513  1.00  0.00    -0.006 C 
ATOM     18  C   UNL     1      17.537  27.468  10.228  1.00  0.00     0.008 C 
ATOM     19  C   UNL     1      19.286  25.701  10.485  1.00  0.00     0.008 C 
ENDBRANCH  12  17
ENDBRANCH  11  12
ENDBRANCH   1  11
TORSDOF 1
ENDMDL
MODEL 3
REMARK VINA RESULT:    -4.765      1.801      3.638
REMARK INTER + INTRA:          -6.879
REMARK INTER:                  -7.887
REMARK INTRA:                   1.008
REMARK UNBOUND:                 0.392
REMARK SMILES CC1=CCC[C@H](C)C(=O)C[C@H](C(C)C)C(=O)C1
REMARK SMILES IDX 8 1 9 2 6 3 7 4 5 5 4 6 3 7 2 8 1 9 10 11 11 12 15 13 16 14
REMARK SMILES IDX 17 15 12 17 13 18 14 19
REMARK H PARENT
REMARK Flexibility Score: 70.00
ROOT
ATOM      1  C   UNL     1      18.628  26.611   7.014  1.00  0.00     0.136 C 
ATOM      2  O   UNL     1      17.864  27.561   6.920  1.00  0.00    -0.299 OA
ENDROOT
BRANCH   1   3
ATOM      3  C   UNL     1      18.386  25.530   8.062  1.00  0.00     0.053 C 
ATOM      4  C   UNL     1      19.312  25.682   9.281  1.00  0.00     0.016 C 
BRANCH   3   5
ATOM      5  C   UNL     1      16.903  25.451   8.492  1.00  0.00     0.015 C 
BRANCH   5   6
ATOM      6  C   UNL     1      16.108  24.374   7.734  1.00  0.00     0.028 C 
BRANCH   6   7
ATOM      7  C   UNL     1      15.335  24.918   6.557  1.00  0.00    -0.028 C 
ATOM      8  C   UNL     1      15.819  25.151   5.308  1.00  0.00    -0.070 CG0
ATOM      9  C   UNL     1      14.887  25.817   4.324  1.00  0.00     0.039 C 
ATOM     10  G   UNL     1      17.198  24.719   4.813  1.00  0.00     0.000 G0
ENDBRANCH   6   7
ENDBRANCH   5   6
ENDBRANCH   3   5
ENDBRANCH   1   3
BRANCH   1  11
ATOM     11  C   UNL     1      19.837  26.545   6.110  1.00  0.00     0.087 C 
BRANCH  11  12
ATOM     12  C   UNL     1      19.578  25.875   4.728  1.00  0.00     0.066 C 
BRANCH  12  13
ATOM     13  C   UNL     1      18.091  25.888   4.382  1.00  0.00     0.140 C 
ATOM     14  O   UNL     1      17.617  26.799   3.719  1.00  0.00    -0.299 OA
BRANCH  13  15
ATOM     15  C   UNL     1      17.208  24.733   4.788  1.00  0.00     0.106 CG0
ATOM     16  G   UNL     1      15.820  25.129   5.289  1.00  0.00     0.000 G0
ENDBRANCH  13  15
ENDBRANCH  12  13
BRANCH  12  17
ATOM     17  C   UNL     1      20.468  26.423   3.557  1.00  0.00    -0.006 C 
ATOM     18  C   UNL     1      20.542  27.960   3.521  1.00  0.00     0.008 C 
ATOM     19  C   UNL     1      21.905  25.870   3.659  1.00  0.00     0.008 C 
ENDBRANCH  12  17
ENDBRANCH  11  12
ENDBRANCH   1  11
TORSDOF 1
ENDMDL
MODEL 4
REMARK VINA RESULT:    -4.335      1.891      4.852
REMARK INTER + INTRA:          -6.224
REMARK INTER:                  -6.084
REMARK INTRA:                  -0.140
REMARK UNBOUND:                 0.392
REMARK SMILES CC1=CCC[C@H](C)C(=O)C[C@H](C(C)C)C(=O)C1
REMARK SMILES IDX 8 1 9 2 6 3 7 4 5 5 4 6 3 7 2 8 1 9 10 11 11 12 15 13 16 14
REMARK SMILES IDX 17 15 12 17 13 18 14 19
REMARK H PARENT
REMARK Flexibility Score: 70.00
ROOT
ATOM      1  C   UNL     1      19.575  26.845   5.901  1.00  0.00     0.136 C 
ATOM      2  O   UNL     1      19.164  27.966   6.162  1.00  0.00    -0.299 OA
ENDROOT
BRANCH   1   3
ATOM      3  C   UNL     1      20.304  26.578   4.589  1.00  0.00     0.053 C 
ATOM      4  C   UNL     1      21.072  25.245   4.608  1.00  0.00     0.016 C 
BRANCH   3   5
ATOM      5  C   UNL     1      19.361  26.663   3.367  1.00  0.00     0.015 C 
BRANCH   5   6
ATOM      6  C   UNL     1      18.274  25.573   3.362  1.00  0.00     0.028 C 
BRANCH   6   7
ATOM      7  C   UNL     1      16.939  26.056   3.874  1.00  0.00    -0.028 C 
ATOM      8  C   UNL     1      16.258  25.570   4.945  1.00  0.00    -0.070 CG0
ATOM      9  C   UNL     1      14.878  26.131   5.194  1.00  0.00     0.039 C 
ATOM     10  G   UNL     1      16.817  24.563   5.949  1.00  0.00     0.000 G0
ENDBRANCH   6   7
ENDBRANCH   5   6
ENDBRANCH   3   5
ENDBRANCH   1   3
BRANCH   1  11
ATOM     11  C   UNL     1      19.311  25.718   6.874  1.00  0.00     0.087 C 
BRANCH  11  12
ATOM     12  C   UNL     1      18.091  25.946   7.815  1.00  0.00     0.066 C 
BRANCH  12  13
ATOM     13  C   UNL     1      16.897  25.099   7.379  1.00  0.00     0.140 C 
ATOM     14  O   UNL     1      15.974  24.885   8.152  1.00  0.00    -0.299 OA
BRANCH  13  15
ATOM     15  C   UNL     1      16.809  24.585   5.963  1.00  0.00     0.106 CG0
ATOM     16  G   UNL     1      16.247  25.581   4.950  1.00  0.00     0.000 G0
ENDBRANCH  13  15
ENDBRANCH  12  13
BRANCH  12  17
ATOM     17  C   UNL     1      18.406  25.792   9.345  1.00  0.00    -0.006 C 
ATOM     18  C   UNL     1      19.844  25.319   9.623  1.00  0.00     0.008 C 
ATOM     19  C   UNL     1      18.181  27.126  10.085  1.00  0.00     0.008 C 
ENDBRANCH  12  17
ENDBRANCH  11  12
ENDBRANCH   1  11
TORSDOF 1
ENDMDL
MODEL 5
REMARK VINA RESULT:    -3.843      1.937      3.293
REMARK INTER + INTRA:          -5.472
REMARK INTER:                  -6.934
REMARK INTRA:                   1.462
REMARK UNBOUND:                 0.392
REMARK SMILES CC1=CCC[C@H](C)C(=O)C[C@H](C(C)C)C(=O)C1
REMARK SMILES IDX 8 1 9 2 6 3 7 4 5 5 4 6 3 7 2 8 1 9 10 11 11 12 15 13 16 14
REMARK SMILES IDX 17 15 12 17 13 18 14 19
REMARK H PARENT
REMARK Flexibility Score: 70.00
ROOT
ATOM      1  C   UNL     1      18.883  26.345   7.258  1.00  0.00     0.136 C 
ATOM      2  O   UNL     1      19.795  25.619   7.626  1.00  0.00    -0.299 OA
ENDROOT
BRANCH   1   3
ATOM      3  C   UNL     1      17.516  26.263   7.927  1.00  0.00     0.053 C 
ATOM      4  C   UNL     1      17.401  27.209   9.135  1.00  0.00     0.016 C 
BRANCH   3   5
ATOM      5  C   UNL     1      16.359  26.489   6.927  1.00  0.00     0.015 C 
BRANCH   5   6
ATOM      6  C   UNL     1      15.980  25.221   6.142  1.00  0.00     0.028 C 
BRANCH   6   7
ATOM      7  C   UNL     1      17.129  24.257   5.971  1.00  0.00    -0.028 C 
ATOM      8  C   UNL     1      17.884  24.088   4.854  1.00  0.00    -0.070 CG0
ATOM      9  C   UNL     1      18.903  22.973   4.876  1.00  0.00     0.039 C 
ATOM     10  G   UNL     1      17.830  24.988   3.621  1.00  0.00     0.000 G0
ENDBRANCH   6   7
ENDBRANCH   5   6
ENDBRANCH   3   5
ENDBRANCH   1   3
BRANCH   1  11
ATOM     11  C   UNL     1      19.114  27.289   6.101  1.00  0.00     0.087 C 
BRANCH  11  12
ATOM     12  C   UNL     1      19.576  26.600   4.782  1.00  0.00     0.066 C 
BRANCH  12  13
ATOM     13  C   UNL     1      18.397  26.379   3.837  1.00  0.00     0.140 C 
ATOM     14  O   UNL     1      17.930  27.312   3.200  1.00  0.00    -0.299 OA
BRANCH  13  15
ATOM     15  C   UNL     1      17.850  24.989   3.621  1.00  0.00     0.106 CG0
ATOM     16  G   UNL     1      17.884  24.085   4.851  1.00  0.00     0.000 G0
ENDBRANCH  13  15
ENDBRANCH  12  13
BRANCH  12  17
ATOM     17  C   UNL     1      20.790  27.295   4.070  1.00  0.00    -0.006 C 
ATOM     18  C   UNL     1      21.684  26.308   3.297  1.00  0.00     0.008 C 
ATOM     19  C   UNL     1      20.298  28.377   3.087  1.00  0.00     0.008 C 
ENDBRANCH  12  17
ENDBRANCH  11  12
ENDBRANCH   1  11
TORSDOF 1
ENDMDL
MODEL 6
REMARK VINA RESULT:    -3.576      1.760      4.043
REMARK INTER + INTRA:          -5.065
REMARK INTER:                  -5.850
REMARK INTRA:                   0.786
REMARK UNBOUND:                 0.392
REMARK SMILES CC1=CCC[C@H](C)C(=O)C[C@H](C(C)C)C(=O)C1
REMARK SMILES IDX 8 1 9 2 6 3 7 4 5 5 4 6 3 7 2 8 1 9 10 11 11 12 15 13 16 14
REMARK SMILES IDX 17 15 12 17 13 18 14 19
REMARK H PARENT
REMARK Flexibility Score: 70.00
ROOT
ATOM      1  C   UNL     1      16.553  24.582   5.618  1.00  0.00     0.136 C 
ATOM      2  O   UNL     1      15.771  24.158   6.456  1.00  0.00    -0.299 OA
ENDROOT
BRANCH   1   3
ATOM      3  C   UNL     1      16.058  25.475   4.486  1.00  0.00     0.053 C 
ATOM      4  C   UNL     1      15.338  26.732   5.005  1.00  0.00     0.016 C 
BRANCH   3   5
ATOM      5  C   UNL     1      17.185  25.846   3.495  1.00  0.00     0.015 C 
BRANCH   5   6
ATOM      6  C   UNL     1      17.798  27.232   3.763  1.00  0.00     0.028 C 
BRANCH   6   7
ATOM      7  C   UNL     1      19.195  27.385   3.213  1.00  0.00    -0.028 C 
ATOM      8  C   UNL     1      20.301  26.704   3.611  1.00  0.00    -0.070 CG0
ATOM      9  C   UNL     1      21.619  27.116   3.000  1.00  0.00     0.039 C 
ATOM     10  G   UNL     1      20.293  25.510   4.564  1.00  0.00     0.000 G0
ENDBRANCH   6   7
ENDBRANCH   5   6
ENDBRANCH   3   5
ENDBRANCH   1   3
BRANCH   1  11
ATOM     11  C   UNL     1      18.006  24.173   5.691  1.00  0.00     0.087 C 
BRANCH  11  12
ATOM     12  C   UNL     1      18.859  24.990   6.707  1.00  0.00     0.066 C 
BRANCH  12  13
ATOM     13  C   UNL     1      19.916  25.827   5.987  1.00  0.00     0.140 C 
ATOM     14  O   UNL     1      20.505  26.721   6.577  1.00  0.00    -0.299 OA
BRANCH  13  15
ATOM     15  C   UNL     1      20.299  25.502   4.564  1.00  0.00     0.106 CG0
ATOM     16  G   UNL     1      20.321  26.699   3.615  1.00  0.00     0.000 G0
ENDBRANCH  13  15
ENDBRANCH  12  13
BRANCH  12  17
ATOM     17  C   UNL     1      18.025  25.836   7.733  1.00  0.00    -0.006 C 
ATOM     18  C   UNL     1      18.567  25.748   9.171  1.00  0.00     0.008 C 
ATOM     19  C   UNL     1      17.991  27.320   7.316  1.00  0.00     0.008 C 
ENDBRANCH  12  17
ENDBRANCH  11  12
ENDBRANCH   1  11
TORSDOF 1
ENDMDL
MODEL 7
REMARK VINA RESULT:    -3.402     17.939     20.593
REMARK INTER + INTRA:          -4.800
REMARK INTER:                  -5.732
REMARK INTRA:                   0.932
REMARK UNBOUND:                 0.392
REMARK SMILES CC1=CCC[C@H](C)C(=O)C[C@H](C(C)C)C(=O)C1
REMARK SMILES IDX 8 1 9 2 6 3 7 4 5 5 4 6 3 7 2 8 1 9 10 11 11 12 15 13 16 14
REMARK SMILES IDX 17 15 12 17 13 18 14 19
REMARK H PARENT
REMARK Flexibility Score: 70.00
ROOT
ATOM      1  C   UNL     1      31.350  17.260  -3.838  1.00  0.00     0.136 C 
ATOM      2  O   UNL     1      31.023  16.389  -3.047  1.00  0.00    -0.299 OA
ENDROOT
BRANCH   1   3
ATOM      3  C   UNL     1      30.311  18.236  -4.380  1.00  0.00     0.053 C 
ATOM      4  C   UNL     1      29.900  19.289  -3.337  1.00  0.00     0.016 C 
BRANCH   3   5
ATOM      5  C   UNL     1      30.765  18.903  -5.699  1.00  0.00     0.015 C 
BRANCH   5   6
ATOM      6  C   UNL     1      30.839  17.921  -6.881  1.00  0.00     0.028 C 
BRANCH   6   7
ATOM      7  C   UNL     1      30.186  16.590  -6.595  1.00  0.00    -0.028 C 
ATOM      8  C   UNL     1      30.740  15.362  -6.773  1.00  0.00    -0.070 CG0
ATOM      9  C   UNL     1      29.849  14.166  -6.535  1.00  0.00     0.039 C 
ATOM     10  G   UNL     1      32.207  15.109  -7.116  1.00  0.00     0.000 G0
ENDBRANCH   6   7
ENDBRANCH   5   6
ENDBRANCH   3   5
ENDBRANCH   1   3
BRANCH   1  11
ATOM     11  C   UNL     1      32.785  17.330  -4.308  1.00  0.00     0.087 C 
BRANCH  11  12
ATOM     12  C   UNL     1      33.331  16.007  -4.922  1.00  0.00     0.066 C 
BRANCH  12  13
ATOM     13  C   UNL     1      33.202  16.014  -6.444  1.00  0.00     0.140 C 
ATOM     14  O   UNL     1      33.939  16.714  -7.125  1.00  0.00    -0.299 OA
BRANCH  13  15
ATOM     15  C   UNL     1      32.218  15.095  -7.125  1.00  0.00     0.106 CG0
ATOM     16  G   UNL     1      30.753  15.348  -6.776  1.00  0.00     0.000 G0
ENDBRANCH  13  15
ENDBRANCH  12  13
BRANCH  12  17
ATOM     17  C   UNL     1      34.774  15.612  -4.447  1.00  0.00    -0.006 C 
ATOM     18  C   UNL     1      34.980  15.780  -2.931  1.00  0.00     0.008 C 
ATOM     19  C   UNL     1      35.090  14.149  -4.821  1.00  0.00     0.008 C 
ENDBRANCH  12  17
ENDBRANCH  11  12
ENDBRANCH   1  11
TORSDOF 1
ENDMDL
MODEL 8
REMARK VINA RESULT:    -2.962      1.965      3.903
REMARK INTER + INTRA:          -4.128
REMARK INTER:                  -4.351
REMARK INTRA:                   0.222
REMARK UNBOUND:                 0.392
REMARK SMILES CC1=CCC[C@H](C)C(=O)C[C@H](C(C)C)C(=O)C1
REMARK SMILES IDX 8 1 9 2 6 3 7 4 5 5 4 6 3 7 2 8 1 9 10 11 11 12 15 13 16 14
REMARK SMILES IDX 17 15 12 17 13 18 14 19
REMARK H PARENT
REMARK Flexibility Score: 70.00
ROOT
ATOM      1  C   UNL     1      19.750  26.159   7.231  1.00  0.00     0.136 C 
ATOM      2  O   UNL     1      20.970  26.123   7.294  1.00  0.00    -0.299 OA
ENDROOT
BRANCH   1   3
ATOM      3  C   UNL     1      18.905  25.746   8.431  1.00  0.00     0.053 C 
ATOM      4  C   UNL     1      19.757  25.172   9.576  1.00  0.00     0.016 C 
BRANCH   3   5
ATOM      5  C   UNL     1      17.995  26.891   8.930  1.00  0.00     0.015 C 
BRANCH   5   6
ATOM      6  C   UNL     1      16.589  26.866   8.305  1.00  0.00     0.028 C 
BRANCH   6   7
ATOM      7  C   UNL     1      16.130  25.481   7.919  1.00  0.00    -0.028 C 
ATOM      8  C   UNL     1      15.623  25.101   6.717  1.00  0.00    -0.070 CG0
ATOM      9  C   UNL     1      15.114  23.683   6.603  1.00  0.00     0.039 C 
ATOM     10  G   UNL     1      15.606  25.973   5.464  1.00  0.00     0.000 G0
ENDBRANCH   6   7
ENDBRANCH   5   6
ENDBRANCH   3   5
ENDBRANCH   1   3
BRANCH   1  11
ATOM     11  C   UNL     1      19.090  26.575   5.937  1.00  0.00     0.087 C 
BRANCH  11  12
ATOM     12  C   UNL     1      18.182  25.486   5.293  1.00  0.00     0.066 C 
BRANCH  12  13
ATOM     13  C   UNL     1      16.917  26.106   4.702  1.00  0.00     0.140 C 
ATOM     14  O   UNL     1      16.950  26.664   3.615  1.00  0.00    -0.299 OA
BRANCH  13  15
ATOM     15  C   UNL     1      15.597  25.965   5.420  1.00  0.00     0.106 CG0
ATOM     16  G   UNL     1      15.645  25.123   6.694  1.00  0.00     0.000 G0
ENDBRANCH  13  15
ENDBRANCH  12  13
BRANCH  12  17
ATOM     17  C   UNL     1      18.913  24.540   4.276  1.00  0.00    -0.006 C 
ATOM     18  C   UNL     1      20.317  25.039   3.887  1.00  0.00     0.008 C 
ATOM     19  C   UNL     1      19.046  23.116   4.854  1.00  0.00     0.008 C 
ENDBRANCH  12  17
ENDBRANCH  11  12
ENDBRANCH   1  11
TORSDOF 1
ENDMDL
MODEL 9
REMARK VINA RESULT:    -2.218      1.817      4.697
REMARK INTER + INTRA:          -2.992
REMARK INTER:                  -3.284
REMARK INTRA:                   0.292
REMARK UNBOUND:                 0.392
REMARK SMILES CC1=CCC[C@H](C)C(=O)C[C@H](C(C)C)C(=O)C1
REMARK SMILES IDX 8 1 9 2 6 3 7 4 5 5 4 6 3 7 2 8 1 9 10 11 11 12 15 13 16 14
REMARK SMILES IDX 17 15 12 17 13 18 14 19
REMARK H PARENT
REMARK Flexibility Score: 70.00
ROOT
ATOM      1  C   UNL     1      18.300  25.375   8.261  1.00  0.00     0.136 C 
ATOM      2  O   UNL     1      18.968  24.969   9.201  1.00  0.00    -0.299 OA
ENDROOT
BRANCH   1   3
ATOM      3  C   UNL     1      17.697  26.775   8.294  1.00  0.00     0.053 C 
ATOM      4  C   UNL     1      17.889  27.461   9.657  1.00  0.00     0.016 C 
BRANCH   3   5
ATOM      5  C   UNL     1      18.217  27.664   7.141  1.00  0.00     0.015 C 
BRANCH   5   6
ATOM      6  C   UNL     1      19.693  27.404   6.793  1.00  0.00     0.028 C 
BRANCH   6   7
ATOM      7  C   UNL     1      20.003  27.588   5.327  1.00  0.00    -0.028 C 
ATOM      8  C   UNL     1      20.040  26.615   4.378  1.00  0.00    -0.070 CG0
ATOM      9  C   UNL     1      20.497  27.020   2.997  1.00  0.00     0.039 C 
ATOM     10  G   UNL     1      19.580  25.174   4.590  1.00  0.00     0.000 G0
ENDBRANCH   6   7
ENDBRANCH   5   6
ENDBRANCH   3   5
ENDBRANCH   1   3
BRANCH   1  11
ATOM     11  C   UNL     1      18.042  24.457   7.089  1.00  0.00     0.087 C 
BRANCH  11  12
ATOM     12  C   UNL     1      17.291  25.122   5.897  1.00  0.00     0.066 C 
BRANCH  12  13
ATOM     13  C   UNL     1      18.080  24.970   4.598  1.00  0.00     0.140 C 
ATOM     14  O   UNL     1      17.501  24.756   3.543  1.00  0.00    -0.299 OA
BRANCH  13  15
ATOM     15  C   UNL     1      19.577  25.162   4.594  1.00  0.00     0.106 CG0
ATOM     16  G   UNL     1      20.041  26.604   4.401  1.00  0.00     0.000 G0
ENDBRANCH  13  15
ENDBRANCH  12  13
BRANCH  12  17
ATOM     17  C   UNL     1      15.793  24.684   5.740  1.00  0.00    -0.006 C 
ATOM     18  C   UNL     1      15.220  24.020   7.006  1.00  0.00     0.008 C 
ATOM     19  C   UNL     1      14.905  25.893   5.381  1.00  0.00     0.008 C 
ENDBRANCH  12  17
ENDBRANCH  11  12
ENDBRANCH   1  11
TORSDOF 1
ENDMDL
