MODEL 1
REMARK VINA RESULT:    -4.006      0.000      0.000
REMARK INTER + INTRA:          -4.487
REMARK INTER:                  -4.474
REMARK INTRA:                  -0.013
REMARK UNBOUND:                -0.013
REMARK SMILES CCCC(=O)[O-]
REMARK SMILES IDX 3 1 4 2 5 3 6 4 2 5 1 6
REMARK H PARENT
REMARK Flexibility Score: inf
ROOT
ATOM      1  C   UNL     1      23.358  58.346  33.197  1.00  0.00     0.052 C 
ENDROOT
BRANCH   1   2
ATOM      2  C   UNL     1      24.453  59.366  33.195  1.00  0.00     0.041 C 
ATOM      3  O   UNL     1      24.631  60.107  34.196  1.00  0.00    -0.550 OA
ATOM      4  O   UNL     1      25.247  59.530  32.066  1.00  0.00    -0.550 OA
ENDBRANCH   1   2
BRANCH   1   5
ATOM      5  C   UNL     1      23.646  57.249  32.168  1.00  0.00     0.003 C 
ATOM      6  C   UNL     1      22.374  56.494  31.798  1.00  0.00     0.004 C 
ENDBRANCH   1   5
TORSDOF 2
ENDMDL
MODEL 2
REMARK VINA RESULT:    -3.873      1.110      2.057
REMARK INTER + INTRA:          -4.338
REMARK INTER:                  -4.313
REMARK INTRA:                  -0.025
REMARK UNBOUND:                -0.013
REMARK SMILES CCCC(=O)[O-]
REMARK SMILES IDX 3 1 4 2 5 3 6 4 2 5 1 6
REMARK H PARENT
REMARK Flexibility Score: inf
ROOT
ATOM      1  C   UNL     1      23.501  58.151  33.057  1.00  0.00     0.052 C 
ENDROOT
BRANCH   1   2
ATOM      2  C   UNL     1      24.446  59.309  33.127  1.00  0.00     0.041 C 
ATOM      3  O   UNL     1      25.197  59.574  32.153  1.00  0.00    -0.550 OA
ATOM      4  O   UNL     1      24.532  60.067  34.289  1.00  0.00    -0.550 OA
ENDBRANCH   1   2
BRANCH   1   5
ATOM      5  C   UNL     1      22.433  58.265  34.148  1.00  0.00     0.003 C 
ATOM      6  C   UNL     1      21.037  58.371  33.543  1.00  0.00     0.004 C 
ENDBRANCH   1   5
TORSDOF 2
ENDMDL
MODEL 3
REMARK VINA RESULT:    -3.622      3.278      3.939
REMARK INTER + INTRA:          -4.058
REMARK INTER:                  -4.052
REMARK INTRA:                  -0.006
REMARK UNBOUND:                -0.013
REMARK SMILES CCCC(=O)[O-]
REMARK SMILES IDX 3 1 4 2 5 3 6 4 2 5 1 6
REMARK H PARENT
REMARK Flexibility Score: inf
ROOT
ATOM      1  C   UNL     1      22.805  56.798  31.942  1.00  0.00     0.052 C 
ENDROOT
BRANCH   1   2
ATOM      2  C   UNL     1      21.717  56.300  32.841  1.00  0.00     0.041 C 
ATOM      3  O   UNL     1      21.819  55.175  33.395  1.00  0.00    -0.550 OA
ATOM      4  O   UNL     1      20.568  57.059  33.027  1.00  0.00    -0.550 OA
ENDBRANCH   1   2
BRANCH   1   5
ATOM      5  C   UNL     1      23.575  57.938  32.614  1.00  0.00     0.003 C 
ATOM      6  C   UNL     1      25.020  57.988  32.127  1.00  0.00     0.004 C 
ENDBRANCH   1   5
TORSDOF 2
ENDMDL
MODEL 4
REMARK VINA RESULT:    -3.618      1.861      2.381
REMARK INTER + INTRA:          -4.053
REMARK INTER:                  -3.983
REMARK INTRA:                  -0.070
REMARK UNBOUND:                -0.013
REMARK SMILES CCCC(=O)[O-]
REMARK SMILES IDX 3 1 4 2 5 3 6 4 2 5 1 6
REMARK H PARENT
REMARK Flexibility Score: inf
ROOT
ATOM      1  C   UNL     1      22.908  58.532  33.540  1.00  0.00     0.052 C 
ENDROOT
BRANCH   1   2
ATOM      2  C   UNL     1      23.626  58.526  34.853  1.00  0.00     0.041 C 
ATOM      3  O   UNL     1      24.067  59.599  35.339  1.00  0.00    -0.550 OA
ATOM      4  O   UNL     1      23.852  57.326  35.516  1.00  0.00    -0.550 OA
ENDBRANCH   1   2
BRANCH   1   5
ATOM      5  C   UNL     1      23.530  57.510  32.585  1.00  0.00     0.003 C 
ATOM      6  C   UNL     1      24.903  57.967  32.107  1.00  0.00     0.004 C 
ENDBRANCH   1   5
TORSDOF 2
ENDMDL
MODEL 5
REMARK VINA RESULT:    -3.606      1.689      2.319
REMARK INTER + INTRA:          -4.040
REMARK INTER:                  -4.034
REMARK INTRA:                  -0.006
REMARK UNBOUND:                -0.013
REMARK SMILES CCCC(=O)[O-]
REMARK SMILES IDX 3 1 4 2 5 3 6 4 2 5 1 6
REMARK H PARENT
REMARK Flexibility Score: inf
ROOT
ATOM      1  C   UNL     1      23.931  58.732  34.111  1.00  0.00     0.052 C 
ENDROOT
BRANCH   1   2
ATOM      2  C   UNL     1      24.644  58.660  32.797  1.00  0.00     0.041 C 
ATOM      3  O   UNL     1      25.186  59.687  32.314  1.00  0.00    -0.550 OA
ATOM      4  O   UNL     1      24.666  57.468  32.083  1.00  0.00    -0.550 OA
ENDBRANCH   1   2
BRANCH   1   5
ATOM      5  C   UNL     1      22.512  58.173  33.982  1.00  0.00     0.003 C 
ATOM      6  C   UNL     1      21.658  58.552  35.187  1.00  0.00     0.004 C 
ENDBRANCH   1   5
TORSDOF 2
ENDMDL
MODEL 6
REMARK VINA RESULT:    -3.585      2.123      2.590
REMARK INTER + INTRA:          -4.017
REMARK INTER:                  -4.005
REMARK INTRA:                  -0.012
REMARK UNBOUND:                -0.013
REMARK SMILES CCCC(=O)[O-]
REMARK SMILES IDX 3 1 4 2 5 3 6 4 2 5 1 6
REMARK H PARENT
REMARK Flexibility Score: inf
ROOT
ATOM      1  C   UNL     1      22.783  58.474  33.540  1.00  0.00     0.052 C 
ENDROOT
BRANCH   1   2
ATOM      2  C   UNL     1      23.637  58.480  34.769  1.00  0.00     0.041 C 
ATOM      3  O   UNL     1      23.902  57.403  35.363  1.00  0.00    -0.550 OA
ATOM      4  O   UNL     1      24.099  59.684  35.288  1.00  0.00    -0.550 OA
ENDBRANCH   1   2
BRANCH   1   5
ATOM      5  C   UNL     1      21.311  58.275  33.912  1.00  0.00     0.003 C 
ATOM      6  C   UNL     1      20.563  57.524  32.816  1.00  0.00     0.004 C 
ENDBRANCH   1   5
TORSDOF 2
ENDMDL
MODEL 7
REMARK VINA RESULT:    -3.488      2.095      2.522
REMARK INTER + INTRA:          -3.909
REMARK INTER:                  -3.864
REMARK INTRA:                  -0.045
REMARK UNBOUND:                -0.013
REMARK SMILES CCCC(=O)[O-]
REMARK SMILES IDX 3 1 4 2 5 3 6 4 2 5 1 6
REMARK H PARENT
REMARK Flexibility Score: inf
ROOT
ATOM      1  C   UNL     1      23.304  58.219  33.082  1.00  0.00     0.052 C 
ENDROOT
BRANCH   1   2
ATOM      2  C   UNL     1      23.056  57.826  34.504  1.00  0.00     0.041 C 
ATOM      3  O   UNL     1      24.021  57.572  35.270  1.00  0.00    -0.550 OA
ATOM      4  O   UNL     1      21.754  57.692  34.970  1.00  0.00    -0.550 OA
ENDBRANCH   1   2
BRANCH   1   5
ATOM      5  C   UNL     1      23.559  56.979  32.221  1.00  0.00     0.003 C 
ATOM      6  C   UNL     1      22.250  56.378  31.719  1.00  0.00     0.004 C 
ENDBRANCH   1   5
TORSDOF 2
ENDMDL
MODEL 8
REMARK VINA RESULT:    -3.402      3.364      4.240
REMARK INTER + INTRA:          -3.813
REMARK INTER:                  -3.775
REMARK INTRA:                  -0.038
REMARK UNBOUND:                -0.013
REMARK SMILES CCCC(=O)[O-]
REMARK SMILES IDX 3 1 4 2 5 3 6 4 2 5 1 6
REMARK H PARENT
REMARK Flexibility Score: inf
ROOT
ATOM      1  C   UNL     1      20.991  57.523  33.020  1.00  0.00     0.052 C 
ENDROOT
BRANCH   1   2
ATOM      2  C   UNL     1      21.725  56.285  32.611  1.00  0.00     0.041 C 
ATOM      3  O   UNL     1      22.191  56.180  31.447  1.00  0.00    -0.550 OA
ATOM      4  O   UNL     1      21.852  55.226  33.501  1.00  0.00    -0.550 OA
ENDBRANCH   1   2
BRANCH   1   5
ATOM      5  C   UNL     1      21.935  58.493  33.734  1.00  0.00     0.003 C 
ATOM      6  C   UNL     1      21.685  58.498  35.239  1.00  0.00     0.004 C 
ENDBRANCH   1   5
TORSDOF 2
ENDMDL
MODEL 9
REMARK VINA RESULT:    -3.370     12.400     13.130
REMARK INTER + INTRA:          -3.777
REMARK INTER:                  -3.766
REMARK INTRA:                  -0.011
REMARK UNBOUND:                -0.013
REMARK SMILES CCCC(=O)[O-]
REMARK SMILES IDX 3 1 4 2 5 3 6 4 2 5 1 6
REMARK H PARENT
REMARK Flexibility Score: inf
ROOT
ATOM      1  C   UNL     1      35.109  57.050  28.345  1.00  0.00     0.052 C 
ENDROOT
BRANCH   1   2
ATOM      2  C   UNL     1      35.891  56.669  27.127  1.00  0.00     0.041 C 
ATOM      3  O   UNL     1      37.106  56.357  27.227  1.00  0.00    -0.550 OA
ATOM      4  O   UNL     1      35.290  56.705  25.875  1.00  0.00    -0.550 OA
ENDBRANCH   1   2
BRANCH   1   5
ATOM      5  C   UNL     1      36.001  57.791  29.344  1.00  0.00     0.003 C 
ATOM      6  C   UNL     1      35.262  58.057  30.651  1.00  0.00     0.004 C 
ENDBRANCH   1   5
TORSDOF 2
ENDMDL
