MODEL 1
REMARK VINA RESULT:    -2.900      0.000      0.000
REMARK INTER + INTRA:          -7.701
REMARK INTER:                  -5.105
REMARK INTRA:                  -2.596
REMARK UNBOUND:                -2.596
REMARK SMILES CCCCCCC=CCCCCCCCC(=O)[O-]
REMARK SMILES IDX 10 1 11 2 12 3 13 4 14 5 15 6 16 7 17 8 18 9 9 10 8 11 7 12
REMARK SMILES IDX 6 13 5 14 4 15 3 16 2 17 1 18
REMARK H PARENT
REMARK Flexibility Score: inf
ROOT
ATOM      1  C   UNL     1      -4.954  -7.329   0.115  1.00  0.00     0.004 C 
ENDROOT
BRANCH   1   2
ATOM      2  C   UNL     1      -4.324  -8.525  -0.623  1.00  0.00     0.000 C 
BRANCH   2   3
ATOM      3  C   UNL     1      -4.944  -8.766  -2.010  1.00  0.00     0.000 C 
BRANCH   3   4
ATOM      4  C   UNL     1      -5.404  -7.464  -2.684  1.00  0.00     0.000 C 
BRANCH   4   5
ATOM      5  C   UNL     1      -6.177  -7.720  -3.990  1.00  0.00     0.006 C 
BRANCH   5   6
ATOM      6  C   UNL     1      -6.758  -9.139  -4.050  1.00  0.00     0.053 C 
BRANCH   6   7
ATOM      7  C   UNL     1      -8.120  -9.154  -4.673  1.00  0.00     0.041 C 
ATOM      8  O   UNL     1      -8.478 -10.123  -5.393  1.00  0.00    -0.550 OA
ATOM      9  O   UNL     1      -9.005  -8.109  -4.436  1.00  0.00    -0.550 OA
ENDBRANCH   6   7
ENDBRANCH   5   6
ENDBRANCH   4   5
ENDBRANCH   3   4
ENDBRANCH   2   3
ENDBRANCH   1   2
BRANCH   1  10
ATOM     10  C   UNL     1      -5.488  -7.664   1.519  1.00  0.00     0.027 C 
BRANCH  10  11
ATOM     11  C   UNL     1      -5.846  -9.123   1.661  1.00  0.00    -0.031 C 
ATOM     12  C   UNL     1      -7.087  -9.625   1.516  1.00  0.00    -0.031 C 
BRANCH  12  13
ATOM     13  C   UNL     1      -8.290  -8.823   1.092  1.00  0.00     0.027 C 
BRANCH  13  14
ATOM     14  C   UNL     1      -8.411  -8.795  -0.437  1.00  0.00     0.004 C 
BRANCH  14  15
ATOM     15  C   UNL     1      -8.689  -7.386  -0.983  1.00  0.00     0.000 C 
BRANCH  15  16
ATOM     16  C   UNL     1      -8.640  -6.307   0.114  1.00  0.00    -0.000 C 
BRANCH  16  17
ATOM     17  C   UNL     1      -8.460  -4.893  -0.459  1.00  0.00    -0.003 C 
ATOM     18  C   UNL     1      -7.910  -4.898  -1.885  1.00  0.00     0.004 C 
ENDBRANCH  16  17
ENDBRANCH  15  16
ENDBRANCH  14  15
ENDBRANCH  13  14
ENDBRANCH  12  13
ENDBRANCH  10  11
ENDBRANCH   1  10
TORSDOF 13
ENDMDL
MODEL 2
REMARK VINA RESULT:    -2.892     11.362     13.452
REMARK INTER + INTRA:          -7.686
REMARK INTER:                  -5.598
REMARK INTRA:                  -2.088
REMARK UNBOUND:                -2.596
REMARK SMILES CCCCCCC=CCCCCCCCC(=O)[O-]
REMARK SMILES IDX 10 1 11 2 12 3 13 4 14 5 15 6 16 7 17 8 18 9 9 10 8 11 7 12
REMARK SMILES IDX 6 13 5 14 4 15 3 16 2 17 1 18
REMARK H PARENT
REMARK Flexibility Score: inf
ROOT
ATOM      1  C   UNL     1      -9.379  -2.158  10.275  1.00  0.00     0.004 C 
ENDROOT
BRANCH   1   2
ATOM      2  C   UNL     1      -7.998  -2.445   9.660  1.00  0.00     0.000 C 
BRANCH   2   3
ATOM      3  C   UNL     1      -7.764  -1.693   8.338  1.00  0.00     0.000 C 
BRANCH   3   4
ATOM      4  C   UNL     1      -8.889  -0.696   8.021  1.00  0.00     0.000 C 
BRANCH   4   5
ATOM      5  C   UNL     1      -8.369   0.576   7.327  1.00  0.00     0.006 C 
BRANCH   5   6
ATOM      6  C   UNL     1      -8.767   0.630   5.846  1.00  0.00     0.053 C 
BRANCH   6   7
ATOM      7  C   UNL     1      -7.767  -0.069   4.977  1.00  0.00     0.041 C 
ATOM      8  O   UNL     1      -6.670   0.483   4.702  1.00  0.00    -0.550 OA
ATOM      9  O   UNL     1      -8.036  -1.344   4.494  1.00  0.00    -0.550 OA
ENDBRANCH   6   7
ENDBRANCH   5   6
ENDBRANCH   4   5
ENDBRANCH   3   4
ENDBRANCH   2   3
ENDBRANCH   1   2
BRANCH   1  10
ATOM     10  C   UNL     1      -9.327  -1.567  11.696  1.00  0.00     0.027 C 
BRANCH  10  11
ATOM     11  C   UNL     1      -9.849  -0.152  11.745  1.00  0.00    -0.031 C 
ATOM     12  C   UNL     1      -9.086   0.940  11.943  1.00  0.00    -0.031 C 
BRANCH  12  13
ATOM     13  C   UNL     1      -7.583   0.925  12.047  1.00  0.00     0.027 C 
BRANCH  13  14
ATOM     14  C   UNL     1      -6.944   1.263  10.693  1.00  0.00     0.004 C 
BRANCH  14  15
ATOM     15  C   UNL     1      -5.656   0.466  10.432  1.00  0.00     0.000 C 
BRANCH  15  16
ATOM     16  C   UNL     1      -4.411   1.367  10.345  1.00  0.00    -0.000 C 
BRANCH  16  17
ATOM     17  C   UNL     1      -3.477   0.971   9.191  1.00  0.00    -0.003 C 
ATOM     18  C   UNL     1      -4.224   0.347   8.013  1.00  0.00     0.004 C 
ENDBRANCH  16  17
ENDBRANCH  15  16
ENDBRANCH  14  15
ENDBRANCH  13  14
ENDBRANCH  12  13
ENDBRANCH  10  11
ENDBRANCH   1  10
TORSDOF 13
ENDMDL
MODEL 3
REMARK VINA RESULT:    -2.846     16.259     18.539
REMARK INTER + INTRA:          -7.605
REMARK INTER:                  -5.828
REMARK INTRA:                  -1.777
REMARK UNBOUND:                -2.596
REMARK SMILES CCCCCCC=CCCCCCCCC(=O)[O-]
REMARK SMILES IDX 10 1 11 2 12 3 13 4 14 5 15 6 16 7 17 8 18 9 9 10 8 11 7 12
REMARK SMILES IDX 6 13 5 14 4 15 3 16 2 17 1 18
REMARK H PARENT
REMARK Flexibility Score: inf
ROOT
ATOM      1  C   UNL     1      -1.167   8.474   2.753  1.00  0.00     0.004 C 
ENDROOT
BRANCH   1   2
ATOM      2  C   UNL     1      -1.765   9.867   2.488  1.00  0.00     0.000 C 
BRANCH   2   3
ATOM      3  C   UNL     1      -3.283   9.829   2.242  1.00  0.00     0.000 C 
BRANCH   3   4
ATOM      4  C   UNL     1      -4.089   9.760   3.548  1.00  0.00     0.000 C 
BRANCH   4   5
ATOM      5  C   UNL     1      -4.765   8.391   3.751  1.00  0.00     0.006 C 
BRANCH   5   6
ATOM      6  C   UNL     1      -4.884   7.606   2.438  1.00  0.00     0.053 C 
BRANCH   6   7
ATOM      7  C   UNL     1      -4.776   6.129   2.665  1.00  0.00     0.041 C 
ATOM      8  O   UNL     1      -4.047   5.680   3.588  1.00  0.00    -0.550 OA
ATOM      9  O   UNL     1      -5.503   5.248   1.872  1.00  0.00    -0.550 OA
ENDBRANCH   6   7
ENDBRANCH   5   6
ENDBRANCH   4   5
ENDBRANCH   3   4
ENDBRANCH   2   3
ENDBRANCH   1   2
BRANCH   1  10
ATOM     10  C   UNL     1      -0.622   8.282   4.180  1.00  0.00     0.027 C 
BRANCH  10  11
ATOM     11  C   UNL     1      -0.801   9.516   5.031  1.00  0.00    -0.031 C 
ATOM     12  C   UNL     1       0.179  10.109   5.736  1.00  0.00    -0.031 C 
BRANCH  12  13
ATOM     13  C   UNL     1       1.627   9.691   5.707  1.00  0.00     0.027 C 
BRANCH  13  14
ATOM     14  C   UNL     1       1.928   8.702   6.842  1.00  0.00     0.004 C 
BRANCH  14  15
ATOM     15  C   UNL     1       2.848   7.555   6.397  1.00  0.00     0.000 C 
BRANCH  15  16
ATOM     16  C   UNL     1       3.023   7.495   4.869  1.00  0.00    -0.000 C 
BRANCH  16  17
ATOM     17  C   UNL     1       2.314   6.285   4.242  1.00  0.00    -0.003 C 
ATOM     18  C   UNL     1       1.804   5.292   5.286  1.00  0.00     0.004 C 
ENDBRANCH  16  17
ENDBRANCH  15  16
ENDBRANCH  14  15
ENDBRANCH  13  14
ENDBRANCH  12  13
ENDBRANCH  10  11
ENDBRANCH   1  10
TORSDOF 13
ENDMDL
MODEL 4
REMARK VINA RESULT:    -2.845     15.259     17.707
REMARK INTER + INTRA:          -7.603
REMARK INTER:                  -6.390
REMARK INTRA:                  -1.213
REMARK UNBOUND:                -2.596
REMARK SMILES CCCCCCC=CCCCCCCCC(=O)[O-]
REMARK SMILES IDX 10 1 11 2 12 3 13 4 14 5 15 6 16 7 17 8 18 9 9 10 8 11 7 12
REMARK SMILES IDX 6 13 5 14 4 15 3 16 2 17 1 18
REMARK H PARENT
REMARK Flexibility Score: inf
ROOT
ATOM      1  C   UNL     1      -5.804   9.901   3.093  1.00  0.00     0.004 C 
ENDROOT
BRANCH   1   2
ATOM      2  C   UNL     1      -5.773   9.208   1.719  1.00  0.00     0.000 C 
BRANCH   2   3
ATOM      3  C   UNL     1      -6.961   8.256   1.503  1.00  0.00     0.000 C 
BRANCH   3   4
ATOM      4  C   UNL     1      -6.603   6.790   1.792  1.00  0.00     0.000 C 
BRANCH   4   5
ATOM      5  C   UNL     1      -5.201   6.415   1.278  1.00  0.00     0.006 C 
BRANCH   5   6
ATOM      6  C   UNL     1      -5.010   4.896   1.176  1.00  0.00     0.053 C 
BRANCH   6   7
ATOM      7  C   UNL     1      -4.908   4.259   2.528  1.00  0.00     0.041 C 
ATOM      8  O   UNL     1      -5.621   3.262   2.815  1.00  0.00    -0.550 OA
ATOM      9  O   UNL     1      -4.005   4.751   3.463  1.00  0.00    -0.550 OA
ENDBRANCH   6   7
ENDBRANCH   5   6
ENDBRANCH   4   5
ENDBRANCH   3   4
ENDBRANCH   2   3
ENDBRANCH   1   2
BRANCH   1  10
ATOM     10  C   UNL     1      -4.435   9.976   3.793  1.00  0.00     0.027 C 
BRANCH  10  11
ATOM     11  C   UNL     1      -3.896   8.610   4.143  1.00  0.00    -0.031 C 
ATOM     12  C   UNL     1      -2.589   8.301   4.227  1.00  0.00    -0.031 C 
BRANCH  12  13
ATOM     13  C   UNL     1      -1.464   9.293   4.079  1.00  0.00     0.027 C 
BRANCH  13  14
ATOM     14  C   UNL     1      -1.134   9.942   5.430  1.00  0.00     0.004 C 
BRANCH  14  15
ATOM     15  C   UNL     1       0.362   9.867   5.772  1.00  0.00     0.000 C 
BRANCH  15  16
ATOM     16  C   UNL     1       1.035   8.602   5.210  1.00  0.00    -0.000 C 
BRANCH  16  17
ATOM     17  C   UNL     1       1.939   7.908   6.240  1.00  0.00    -0.003 C 
ATOM     18  C   UNL     1       2.496   8.875   7.284  1.00  0.00     0.004 C 
ENDBRANCH  16  17
ENDBRANCH  15  16
ENDBRANCH  14  15
ENDBRANCH  13  14
ENDBRANCH  12  13
ENDBRANCH  10  11
ENDBRANCH   1  10
TORSDOF 13
ENDMDL
MODEL 5
REMARK VINA RESULT:    -2.845      2.326      4.073
REMARK INTER + INTRA:          -7.603
REMARK INTER:                  -5.291
REMARK INTRA:                  -2.313
REMARK UNBOUND:                -2.596
REMARK SMILES CCCCCCC=CCCCCCCCC(=O)[O-]
REMARK SMILES IDX 10 1 11 2 12 3 13 4 14 5 15 6 16 7 17 8 18 9 9 10 8 11 7 12
REMARK SMILES IDX 6 13 5 14 4 15 3 16 2 17 1 18
REMARK H PARENT
REMARK Flexibility Score: inf
ROOT
ATOM      1  C   UNL     1      -9.376  -5.775  -1.992  1.00  0.00     0.004 C 
ENDROOT
BRANCH   1   2
ATOM      2  C   UNL     1      -9.786  -6.977  -2.861  1.00  0.00     0.000 C 
BRANCH   2   3
ATOM      3  C   UNL     1      -8.810  -7.236  -4.022  1.00  0.00     0.000 C 
BRANCH   3   4
ATOM      4  C   UNL     1      -8.397  -8.712  -4.127  1.00  0.00     0.000 C 
BRANCH   4   5
ATOM      5  C   UNL     1      -6.872  -8.903  -4.044  1.00  0.00     0.006 C 
BRANCH   5   6
ATOM      6  C   UNL     1      -6.122  -7.565  -4.022  1.00  0.00     0.053 C 
BRANCH   6   7
ATOM      7  C   UNL     1      -4.863  -7.649  -3.214  1.00  0.00     0.041 C 
ATOM      8  O   UNL     1      -4.102  -6.651  -3.121  1.00  0.00    -0.550 OA
ATOM      9  O   UNL     1      -4.544  -8.823  -2.542  1.00  0.00    -0.550 OA
ENDBRANCH   6   7
ENDBRANCH   5   6
ENDBRANCH   4   5
ENDBRANCH   3   4
ENDBRANCH   2   3
ENDBRANCH   1   2
BRANCH   1  10
ATOM     10  C   UNL     1      -8.849  -6.154  -0.597  1.00  0.00     0.027 C 
BRANCH  10  11
ATOM     11  C   UNL     1      -7.499  -6.826  -0.659  1.00  0.00    -0.031 C 
ATOM     12  C   UNL     1      -7.250  -8.085  -0.255  1.00  0.00    -0.031 C 
BRANCH  12  13
ATOM     13  C   UNL     1      -8.301  -9.051   0.230  1.00  0.00     0.027 C 
BRANCH  13  14
ATOM     14  C   UNL     1      -7.921  -9.619   1.604  1.00  0.00     0.004 C 
BRANCH  14  15
ATOM     15  C   UNL     1      -9.034  -9.435   2.648  1.00  0.00     0.000 C 
BRANCH  15  16
ATOM     16  C   UNL     1      -9.195  -7.969   3.088  1.00  0.00    -0.000 C 
BRANCH  16  17
ATOM     17  C   UNL     1      -7.896  -7.380   3.660  1.00  0.00    -0.003 C 
ATOM     18  C   UNL     1      -7.479  -6.084   2.964  1.00  0.00     0.004 C 
ENDBRANCH  16  17
ENDBRANCH  15  16
ENDBRANCH  14  15
ENDBRANCH  13  14
ENDBRANCH  12  13
ENDBRANCH  10  11
ENDBRANCH   1  10
TORSDOF 13
ENDMDL
MODEL 6
REMARK VINA RESULT:    -2.832      2.958      5.331
REMARK INTER + INTRA:          -7.580
REMARK INTER:                  -5.448
REMARK INTRA:                  -2.132
REMARK UNBOUND:                -2.596
REMARK SMILES CCCCCCC=CCCCCCCCC(=O)[O-]
REMARK SMILES IDX 10 1 11 2 12 3 13 4 14 5 15 6 16 7 17 8 18 9 9 10 8 11 7 12
REMARK SMILES IDX 6 13 5 14 4 15 3 16 2 17 1 18
REMARK H PARENT
REMARK Flexibility Score: inf
ROOT
ATOM      1  C   UNL     1      -9.803  -5.206  -3.117  1.00  0.00     0.004 C 
ENDROOT
BRANCH   1   2
ATOM      2  C   UNL     1      -8.497  -4.520  -2.678  1.00  0.00     0.000 C 
BRANCH   2   3
ATOM      3  C   UNL     1      -7.328  -4.785  -3.643  1.00  0.00     0.000 C 
BRANCH   3   4
ATOM      4  C   UNL     1      -6.527  -3.514  -3.961  1.00  0.00     0.000 C 
BRANCH   4   5
ATOM      5  C   UNL     1      -5.021  -3.686  -3.695  1.00  0.00     0.006 C 
BRANCH   5   6
ATOM      6  C   UNL     1      -4.633  -5.157  -3.496  1.00  0.00     0.053 C 
BRANCH   6   7
ATOM      7  C   UNL     1      -3.457  -5.540  -4.342  1.00  0.00     0.041 C 
ATOM      8  O   UNL     1      -3.125  -6.749  -4.458  1.00  0.00    -0.550 OA
ATOM      9  O   UNL     1      -2.744  -4.562  -5.025  1.00  0.00    -0.550 OA
ENDBRANCH   6   7
ENDBRANCH   5   6
ENDBRANCH   4   5
ENDBRANCH   3   4
ENDBRANCH   2   3
ENDBRANCH   1   2
BRANCH   1  10
ATOM     10  C   UNL     1      -9.745  -6.744  -3.101  1.00  0.00     0.027 C 
BRANCH  10  11
ATOM     11  C   UNL     1      -9.626  -7.327  -4.488  1.00  0.00    -0.031 C 
ATOM     12  C   UNL     1      -8.768  -8.302  -4.839  1.00  0.00    -0.031 C 
BRANCH  12  13
ATOM     13  C   UNL     1      -7.863  -9.031  -3.878  1.00  0.00     0.027 C 
BRANCH  13  14
ATOM     14  C   UNL     1      -6.472  -8.383  -3.849  1.00  0.00     0.004 C 
BRANCH  14  15
ATOM     15  C   UNL     1      -5.832  -8.421  -2.452  1.00  0.00     0.000 C 
BRANCH  15  16
ATOM     16  C   UNL     1      -6.560  -7.514  -1.444  1.00  0.00    -0.000 C 
BRANCH  16  17
ATOM     17  C   UNL     1      -7.215  -8.309  -0.303  1.00  0.00    -0.003 C 
ATOM     18  C   UNL     1      -8.541  -7.701   0.155  1.00  0.00     0.004 C 
ENDBRANCH  16  17
ENDBRANCH  15  16
ENDBRANCH  14  15
ENDBRANCH  13  14
ENDBRANCH  12  13
ENDBRANCH  10  11
ENDBRANCH   1  10
TORSDOF 13
ENDMDL
MODEL 7
REMARK VINA RESULT:    -2.816      2.808      4.752
REMARK INTER + INTRA:          -7.552
REMARK INTER:                  -4.901
REMARK INTRA:                  -2.650
REMARK UNBOUND:                -2.596
REMARK SMILES CCCCCCC=CCCCCCCCC(=O)[O-]
REMARK SMILES IDX 10 1 11 2 12 3 13 4 14 5 15 6 16 7 17 8 18 9 9 10 8 11 7 12
REMARK SMILES IDX 6 13 5 14 4 15 3 16 2 17 1 18
REMARK H PARENT
REMARK Flexibility Score: inf
ROOT
ATOM      1  C   UNL     1      -5.138  -7.298  -2.985  1.00  0.00     0.004 C 
ENDROOT
BRANCH   1   2
ATOM      2  C   UNL     1      -4.669  -8.480  -2.119  1.00  0.00     0.000 C 
BRANCH   2   3
ATOM      3  C   UNL     1      -5.054  -8.326  -0.638  1.00  0.00     0.000 C 
BRANCH   3   4
ATOM      4  C   UNL     1      -6.314  -7.468  -0.443  1.00  0.00     0.000 C 
BRANCH   4   5
ATOM      5  C   UNL     1      -7.583  -8.320  -0.258  1.00  0.00     0.006 C 
BRANCH   5   6
ATOM      6  C   UNL     1      -8.656  -7.588   0.558  1.00  0.00     0.053 C 
BRANCH   6   7
ATOM      7  C   UNL     1      -8.605  -7.967   2.007  1.00  0.00     0.041 C 
ATOM      8  O   UNL     1      -8.848  -9.150   2.362  1.00  0.00    -0.550 OA
ATOM      9  O   UNL     1      -8.262  -7.018   2.963  1.00  0.00    -0.550 OA
ENDBRANCH   6   7
ENDBRANCH   5   6
ENDBRANCH   4   5
ENDBRANCH   3   4
ENDBRANCH   2   3
ENDBRANCH   1   2
BRANCH   1  10
ATOM     10  C   UNL     1      -5.926  -7.709  -4.242  1.00  0.00     0.027 C 
BRANCH  10  11
ATOM     11  C   UNL     1      -6.812  -8.906  -3.994  1.00  0.00    -0.031 C 
ATOM     12  C   UNL     1      -8.158  -8.873  -3.974  1.00  0.00    -0.031 C 
BRANCH  12  13
ATOM     13  C   UNL     1      -8.988  -7.656  -4.293  1.00  0.00     0.027 C 
BRANCH  13  14
ATOM     14  C   UNL     1      -9.620  -7.083  -3.018  1.00  0.00     0.004 C 
BRANCH  14  15
ATOM     15  C   UNL     1      -9.217  -5.622  -2.763  1.00  0.00     0.000 C 
BRANCH  15  16
ATOM     16  C   UNL     1      -8.568  -4.965  -3.994  1.00  0.00    -0.000 C 
BRANCH  16  17
ATOM     17  C   UNL     1      -7.226  -4.293  -3.664  1.00  0.00    -0.003 C 
ATOM     18  C   UNL     1      -6.978  -4.176  -2.161  1.00  0.00     0.004 C 
ENDBRANCH  16  17
ENDBRANCH  15  16
ENDBRANCH  14  15
ENDBRANCH  13  14
ENDBRANCH  12  13
ENDBRANCH  10  11
ENDBRANCH   1  10
TORSDOF 13
ENDMDL
MODEL 8
REMARK VINA RESULT:    -2.775     17.680     19.730
REMARK INTER + INTRA:          -7.480
REMARK INTER:                  -5.675
REMARK INTRA:                  -1.805
REMARK UNBOUND:                -2.596
REMARK SMILES CCCCCCC=CCCCCCCCC(=O)[O-]
REMARK SMILES IDX 10 1 11 2 12 3 13 4 14 5 15 6 16 7 17 8 18 9 9 10 8 11 7 12
REMARK SMILES IDX 6 13 5 14 4 15 3 16 2 17 1 18
REMARK H PARENT
REMARK Flexibility Score: inf
ROOT
ATOM      1  C   UNL     1       0.189   9.011   5.225  1.00  0.00     0.004 C 
ENDROOT
BRANCH   1   2
ATOM      2  C   UNL     1      -0.579   9.491   3.980  1.00  0.00     0.000 C 
BRANCH   2   3
ATOM      3  C   UNL     1      -1.496   8.407   3.388  1.00  0.00     0.000 C 
BRANCH   3   4
ATOM      4  C   UNL     1      -2.769   8.192   4.221  1.00  0.00     0.000 C 
BRANCH   4   5
ATOM      5  C   UNL     1      -3.489   9.513   4.546  1.00  0.00     0.006 C 
BRANCH   5   6
ATOM      6  C   UNL     1      -4.160  10.125   3.309  1.00  0.00     0.053 C 
BRANCH   6   7
ATOM      7  C   UNL     1      -4.988   9.117   2.571  1.00  0.00     0.041 C 
ATOM      8  O   UNL     1      -5.922   8.512   3.159  1.00  0.00    -0.550 OA
ATOM      9  O   UNL     1      -4.744   8.866   1.226  1.00  0.00    -0.550 OA
ENDBRANCH   6   7
ENDBRANCH   5   6
ENDBRANCH   4   5
ENDBRANCH   3   4
ENDBRANCH   2   3
ENDBRANCH   1   2
BRANCH   1  10
ATOM     10  C   UNL     1       0.967  10.120   5.954  1.00  0.00     0.027 C 
BRANCH  10  11
ATOM     11  C   UNL     1       1.850   9.574   7.049  1.00  0.00    -0.031 C 
ATOM     12  C   UNL     1       3.195   9.536   7.002  1.00  0.00    -0.031 C 
BRANCH  12  13
ATOM     13  C   UNL     1       4.028  10.123   5.892  1.00  0.00     0.027 C 
BRANCH  13  14
ATOM     14  C   UNL     1       4.573   9.014   4.980  1.00  0.00     0.004 C 
BRANCH  14  15
ATOM     15  C   UNL     1       3.657   8.734   3.778  1.00  0.00     0.000 C 
BRANCH  15  16
ATOM     16  C   UNL     1       3.017   7.336   3.837  1.00  0.00    -0.000 C 
BRANCH  16  17
ATOM     17  C   UNL     1       3.494   6.519   5.048  1.00  0.00    -0.003 C 
ATOM     18  C   UNL     1       2.342   5.864   5.810  1.00  0.00     0.004 C 
ENDBRANCH  16  17
ENDBRANCH  15  16
ENDBRANCH  14  15
ENDBRANCH  13  14
ENDBRANCH  12  13
ENDBRANCH  10  11
ENDBRANCH   1  10
TORSDOF 13
ENDMDL
MODEL 9
REMARK VINA RESULT:    -2.461     17.612     19.067
REMARK INTER + INTRA:          -6.928
REMARK INTER:                  -5.527
REMARK INTRA:                  -1.402
REMARK UNBOUND:                -2.596
REMARK SMILES CCCCCCC=CCCCCCCCC(=O)[O-]
REMARK SMILES IDX 10 1 11 2 12 3 13 4 14 5 15 6 16 7 17 8 18 9 9 10 8 11 7 12
REMARK SMILES IDX 6 13 5 14 4 15 3 16 2 17 1 18
REMARK H PARENT
REMARK Flexibility Score: inf
ROOT
ATOM      1  C   UNL     1       0.032   6.940   2.521  1.00  0.00     0.004 C 
ENDROOT
BRANCH   1   2
ATOM      2  C   UNL     1       1.315   7.767   2.722  1.00  0.00     0.000 C 
BRANCH   2   3
ATOM      3  C   UNL     1       2.482   6.933   3.278  1.00  0.00     0.000 C 
BRANCH   3   4
ATOM      4  C   UNL     1       2.051   6.006   4.425  1.00  0.00     0.000 C 
BRANCH   4   5
ATOM      5  C   UNL     1       1.977   6.738   5.777  1.00  0.00     0.006 C 
BRANCH   5   6
ATOM      6  C   UNL     1       3.007   7.871   5.877  1.00  0.00     0.053 C 
BRANCH   6   7
ATOM      7  C   UNL     1       2.576   8.926   6.850  1.00  0.00     0.041 C 
ATOM      8  O   UNL     1       3.415   9.453   7.627  1.00  0.00    -0.550 OA
ATOM      9  O   UNL     1       1.252   9.347   6.879  1.00  0.00    -0.550 OA
ENDBRANCH   6   7
ENDBRANCH   5   6
ENDBRANCH   4   5
ENDBRANCH   3   4
ENDBRANCH   2   3
ENDBRANCH   1   2
BRANCH   1  10
ATOM     10  C   UNL     1      -1.174   7.438   3.338  1.00  0.00     0.027 C 
BRANCH  10  11
ATOM     11  C   UNL     1      -0.838   8.648   4.174  1.00  0.00    -0.031 C 
ATOM     12  C   UNL     1      -1.745   9.489   4.705  1.00  0.00    -0.031 C 
BRANCH  12  13
ATOM     13  C   UNL     1      -3.238   9.294   4.629  1.00  0.00     0.027 C 
BRANCH  13  14
ATOM     14  C   UNL     1      -3.834  10.125   3.484  1.00  0.00     0.004 C 
BRANCH  14  15
ATOM     15  C   UNL     1      -4.446   9.252   2.378  1.00  0.00     0.000 C 
BRANCH  15  16
ATOM     16  C   UNL     1      -5.579   8.349   2.897  1.00  0.00    -0.000 C 
BRANCH  16  17
ATOM     17  C   UNL     1      -6.888   8.536   2.113  1.00  0.00    -0.003 C 
ATOM     18  C   UNL     1      -7.693   9.745   2.587  1.00  0.00     0.004 C 
ENDBRANCH  16  17
ENDBRANCH  15  16
ENDBRANCH  14  15
ENDBRANCH  13  14
ENDBRANCH  12  13
ENDBRANCH  10  11
ENDBRANCH   1  10
TORSDOF 13
ENDMDL
