MODEL 1
REMARK VINA RESULT:    -5.381      0.000      0.000
REMARK INTER + INTRA:          -6.463
REMARK INTER:                  -6.324
REMARK INTRA:                  -0.139
REMARK UNBOUND:                -0.139
REMARK SMILES O=C([O-])C=Cc1ccc(O)c(O)c1
REMARK SMILES IDX 6 1 13 2 7 3 11 4 8 5 9 6 5 7 4 8 2 9 1 10 3 11 12 12 10 14
REMARK H PARENT 12 13 10 15
REMARK Flexibility Score: inf
ROOT
ATOM      1  C   UNL     1      30.136  -5.473  34.189  1.00  0.00    -0.022 A 
ATOM      2  C   UNL     1      30.859  -4.927  33.115  1.00  0.00     0.058 A 
ATOM      3  C   UNL     1      29.913  -4.679  35.331  1.00  0.00     0.012 A 
ATOM      4  C   UNL     1      31.331  -3.611  33.162  1.00  0.00     0.157 A 
ATOM      5  C   UNL     1      30.384  -3.363  35.380  1.00  0.00     0.051 A 
ATOM      6  C   UNL     1      31.091  -2.823  34.299  1.00  0.00     0.157 A 
ENDROOT
BRANCH   1   7
ATOM      7  C   UNL     1      29.668  -6.878  34.089  1.00  0.00     0.010 C 
ATOM      8  C   UNL     1      28.905  -7.475  35.015  1.00  0.00     0.025 C 
BRANCH   8   9
ATOM      9  C   UNL     1      28.449  -8.869  34.876  1.00  0.00     0.064 C 
ATOM     10  O   UNL     1      29.262  -9.800  34.634  1.00  0.00    -0.545 OA
ATOM     11  O   UNL     1      27.099  -9.163  35.017  1.00  0.00    -0.545 OA
ENDBRANCH   8   9
ENDBRANCH   1   7
BRANCH   4  12
ATOM     12  O   UNL     1      32.037  -3.105  32.070  1.00  0.00    -0.504 OA
ATOM     13  H   UNL     1      31.859  -2.180  31.696  1.00  0.00     0.293 HD
ENDBRANCH   4  12
BRANCH   6  14
ATOM     14  O   UNL     1      31.557  -1.510  34.351  1.00  0.00    -0.504 OA
ATOM     15  H   UNL     1      31.528  -0.904  33.539  1.00  0.00     0.293 HD
ENDBRANCH   6  14
TORSDOF 4
ENDMDL
MODEL 2
REMARK VINA RESULT:    -5.285      3.193      4.619
REMARK INTER + INTRA:          -6.351
REMARK INTER:                  -6.223
REMARK INTRA:                  -0.128
REMARK UNBOUND:                -0.139
REMARK SMILES O=C([O-])C=Cc1ccc(O)c(O)c1
REMARK SMILES IDX 6 1 13 2 7 3 11 4 8 5 9 6 5 7 4 8 2 9 1 10 3 11 12 12 10 14
REMARK H PARENT 12 13 10 15
REMARK Flexibility Score: inf
ROOT
ATOM      1  C   UNL     1      30.014  -3.907  35.112  1.00  0.00    -0.022 A 
ATOM      2  C   UNL     1      30.939  -2.981  34.601  1.00  0.00     0.058 A 
ATOM      3  C   UNL     1      29.953  -5.192  34.539  1.00  0.00     0.012 A 
ATOM      4  C   UNL     1      31.805  -3.331  33.559  1.00  0.00     0.157 A 
ATOM      5  C   UNL     1      30.817  -5.544  33.498  1.00  0.00     0.051 A 
ATOM      6  C   UNL     1      31.746  -4.620  33.006  1.00  0.00     0.157 A 
ENDROOT
BRANCH   1   7
ATOM      7  C   UNL     1      29.113  -3.478  36.210  1.00  0.00     0.010 C 
ATOM      8  C   UNL     1      28.228  -2.477  36.100  1.00  0.00     0.025 C 
BRANCH   8   9
ATOM      9  C   UNL     1      27.341  -2.087  37.208  1.00  0.00     0.064 C 
ATOM     10  O   UNL     1      27.745  -2.095  38.401  1.00  0.00    -0.545 OA
ATOM     11  O   UNL     1      26.035  -1.700  36.934  1.00  0.00    -0.545 OA
ENDBRANCH   8   9
ENDBRANCH   1   7
BRANCH   4  12
ATOM     12  O   UNL     1      32.715  -2.385  33.087  1.00  0.00    -0.504 OA
ATOM     13  H   UNL     1      32.516  -1.802  32.283  1.00  0.00     0.293 HD
ENDBRANCH   4  12
BRANCH   6  14
ATOM     14  O   UNL     1      32.607  -4.976  31.968  1.00  0.00    -0.504 OA
ATOM     15  H   UNL     1      32.409  -5.763  31.361  1.00  0.00     0.293 HD
ENDBRANCH   6  14
TORSDOF 4
ENDMDL
MODEL 3
REMARK VINA RESULT:    -5.263      3.122      4.675
REMARK INTER + INTRA:          -6.325
REMARK INTER:                  -6.197
REMARK INTRA:                  -0.128
REMARK UNBOUND:                -0.139
REMARK SMILES O=C([O-])C=Cc1ccc(O)c(O)c1
REMARK SMILES IDX 6 1 13 2 7 3 11 4 8 5 9 6 5 7 4 8 2 9 1 10 3 11 12 12 10 14
REMARK H PARENT 12 13 10 15
REMARK Flexibility Score: inf
ROOT
ATOM      1  C   UNL     1      30.184  -3.736  35.217  1.00  0.00    -0.022 A 
ATOM      2  C   UNL     1      29.664  -4.374  34.079  1.00  0.00     0.058 A 
ATOM      3  C   UNL     1      31.575  -3.533  35.306  1.00  0.00     0.012 A 
ATOM      4  C   UNL     1      30.505  -4.781  33.037  1.00  0.00     0.157 A 
ATOM      5  C   UNL     1      32.417  -3.939  34.266  1.00  0.00     0.051 A 
ATOM      6  C   UNL     1      31.889  -4.560  33.129  1.00  0.00     0.157 A 
ENDROOT
BRANCH   1   7
ATOM      7  C   UNL     1      29.248  -3.335  36.297  1.00  0.00     0.010 C 
ATOM      8  C   UNL     1      28.236  -2.473  36.122  1.00  0.00     0.025 C 
BRANCH   8   9
ATOM      9  C   UNL     1      27.319  -2.108  37.215  1.00  0.00     0.064 C 
ATOM     10  O   UNL     1      27.686  -2.154  38.419  1.00  0.00    -0.545 OA
ATOM     11  O   UNL     1      26.025  -1.703  36.913  1.00  0.00    -0.545 OA
ENDBRANCH   8   9
ENDBRANCH   1   7
BRANCH   4  12
ATOM     12  O   UNL     1      29.948  -5.403  31.920  1.00  0.00    -0.504 OA
ATOM     13  H   UNL     1      28.980  -5.264  31.653  1.00  0.00     0.293 HD
ENDBRANCH   4  12
BRANCH   6  14
ATOM     14  O   UNL     1      32.732  -4.962  32.093  1.00  0.00    -0.504 OA
ATOM     15  H   UNL     1      32.364  -5.316  31.218  1.00  0.00     0.293 HD
ENDBRANCH   6  14
TORSDOF 4
ENDMDL
MODEL 4
REMARK VINA RESULT:    -5.109      5.785      7.285
REMARK INTER + INTRA:          -6.144
REMARK INTER:                  -6.009
REMARK INTRA:                  -0.135
REMARK UNBOUND:                -0.139
REMARK SMILES O=C([O-])C=Cc1ccc(O)c(O)c1
REMARK SMILES IDX 6 1 13 2 7 3 11 4 8 5 9 6 5 7 4 8 2 9 1 10 3 11 12 12 10 14
REMARK H PARENT 12 13 10 15
REMARK Flexibility Score: inf
ROOT
ATOM      1  C   UNL     1      25.997  -1.774  35.465  1.00  0.00    -0.022 A 
ATOM      2  C   UNL     1      25.168  -1.233  36.462  1.00  0.00     0.058 A 
ATOM      3  C   UNL     1      25.425  -2.137  34.230  1.00  0.00     0.012 A 
ATOM      4  C   UNL     1      23.802  -1.033  36.230  1.00  0.00     0.157 A 
ATOM      5  C   UNL     1      24.061  -1.938  33.997  1.00  0.00     0.051 A 
ATOM      6  C   UNL     1      23.246  -1.385  34.990  1.00  0.00     0.157 A 
ENDROOT
BRANCH   1   7
ATOM      7  C   UNL     1      27.436  -1.974  35.769  1.00  0.00     0.010 C 
ATOM      8  C   UNL     1      28.166  -2.987  35.280  1.00  0.00     0.025 C 
BRANCH   8   9
ATOM      9  C   UNL     1      29.595  -3.147  35.594  1.00  0.00     0.064 C 
ATOM     10  O   UNL     1      29.979  -3.918  36.513  1.00  0.00    -0.545 OA
ATOM     11  O   UNL     1      30.539  -2.437  34.862  1.00  0.00    -0.545 OA
ENDBRANCH   8   9
ENDBRANCH   1   7
BRANCH   4  12
ATOM     12  O   UNL     1      23.017  -0.484  37.244  1.00  0.00    -0.504 OA
ATOM     13  H   UNL     1      23.283  -0.538  38.220  1.00  0.00     0.293 HD
ENDBRANCH   4  12
BRANCH   6  14
ATOM     14  O   UNL     1      21.886  -1.186  34.753  1.00  0.00    -0.504 OA
ATOM     15  H   UNL     1      21.348  -0.512  35.285  1.00  0.00     0.293 HD
ENDBRANCH   6  14
TORSDOF 4
ENDMDL
MODEL 5
REMARK VINA RESULT:    -5.104      3.909      4.822
REMARK INTER + INTRA:          -6.139
REMARK INTER:                  -6.007
REMARK INTRA:                  -0.132
REMARK UNBOUND:                -0.139
REMARK SMILES O=C([O-])C=Cc1ccc(O)c(O)c1
REMARK SMILES IDX 6 1 13 2 7 3 11 4 8 5 9 6 5 7 4 8 2 9 1 10 3 11 12 12 10 14
REMARK H PARENT 12 13 10 15
REMARK Flexibility Score: inf
ROOT
ATOM      1  C   UNL     1      27.362  -3.342  34.517  1.00  0.00    -0.022 A 
ATOM      2  C   UNL     1      27.746  -2.580  35.632  1.00  0.00     0.058 A 
ATOM      3  C   UNL     1      26.210  -2.964  33.799  1.00  0.00     0.012 A 
ATOM      4  C   UNL     1      27.015  -1.449  36.015  1.00  0.00     0.157 A 
ATOM      5  C   UNL     1      25.480  -1.835  34.179  1.00  0.00     0.051 A 
ATOM      6  C   UNL     1      25.878  -1.072  35.283  1.00  0.00     0.157 A 
ENDROOT
BRANCH   1   7
ATOM      7  C   UNL     1      28.167  -4.538  34.163  1.00  0.00     0.010 C 
ATOM      8  C   UNL     1      29.462  -4.683  34.477  1.00  0.00     0.025 C 
BRANCH   8   9
ATOM      9  C   UNL     1      30.226  -5.890  34.120  1.00  0.00     0.064 C 
ATOM     10  O   UNL     1      31.434  -5.818  33.770  1.00  0.00    -0.545 OA
ATOM     11  O   UNL     1      29.605  -7.131  34.171  1.00  0.00    -0.545 OA
ENDBRANCH   8   9
ENDBRANCH   1   7
BRANCH   4  12
ATOM     12  O   UNL     1      27.436  -0.714  37.123  1.00  0.00    -0.504 OA
ATOM     13  H   UNL     1      27.988  -1.128  37.865  1.00  0.00     0.293 HD
ENDBRANCH   4  12
BRANCH   6  14
ATOM     14  O   UNL     1      25.147   0.055  35.658  1.00  0.00    -0.504 OA
ATOM     15  H   UNL     1      25.144   0.897  35.094  1.00  0.00     0.293 HD
ENDBRANCH   6  14
TORSDOF 4
ENDMDL
MODEL 6
REMARK VINA RESULT:    -5.010      0.944      1.874
REMARK INTER + INTRA:          -6.028
REMARK INTER:                  -5.894
REMARK INTRA:                  -0.134
REMARK UNBOUND:                -0.139
REMARK SMILES O=C([O-])C=Cc1ccc(O)c(O)c1
REMARK SMILES IDX 6 1 13 2 7 3 11 4 8 5 9 6 5 7 4 8 2 9 1 10 3 11 12 12 10 14
REMARK H PARENT 12 13 10 15
REMARK Flexibility Score: inf
ROOT
ATOM      1  C   UNL     1      29.674  -5.805  34.290  1.00  0.00    -0.022 A 
ATOM      2  C   UNL     1      29.454  -4.577  34.937  1.00  0.00     0.058 A 
ATOM      3  C   UNL     1      30.688  -5.888  33.316  1.00  0.00     0.012 A 
ATOM      4  C   UNL     1      30.240  -3.458  34.640  1.00  0.00     0.157 A 
ATOM      5  C   UNL     1      31.475  -4.771  33.018  1.00  0.00     0.051 A 
ATOM      6  C   UNL     1      31.258  -3.556  33.678  1.00  0.00     0.157 A 
ENDROOT
BRANCH   1   7
ATOM      7  C   UNL     1      28.802  -6.956  34.636  1.00  0.00     0.010 C 
ATOM      8  C   UNL     1      29.246  -8.215  34.760  1.00  0.00     0.025 C 
BRANCH   8   9
ATOM      9  C   UNL     1      28.354  -9.330  35.116  1.00  0.00     0.064 C 
ATOM     10  O   UNL     1      28.776 -10.516  35.160  1.00  0.00    -0.545 OA
ATOM     11  O   UNL     1      27.021  -9.071  35.412  1.00  0.00    -0.545 OA
ENDBRANCH   8   9
ENDBRANCH   1   7
BRANCH   4  12
ATOM     12  O   UNL     1      29.995  -2.261  35.311  1.00  0.00    -0.504 OA
ATOM     13  H   UNL     1      29.876  -1.383  34.820  1.00  0.00     0.293 HD
ENDBRANCH   4  12
BRANCH   6  14
ATOM     14  O   UNL     1      32.047  -2.445  33.380  1.00  0.00    -0.504 OA
ATOM     15  H   UNL     1      32.968  -2.544  32.970  1.00  0.00     0.293 HD
ENDBRANCH   6  14
TORSDOF 4
ENDMDL
MODEL 7
REMARK VINA RESULT:    -4.862      4.129      4.902
REMARK INTER + INTRA:          -5.854
REMARK INTER:                  -5.715
REMARK INTRA:                  -0.139
REMARK UNBOUND:                -0.139
REMARK SMILES O=C([O-])C=Cc1ccc(O)c(O)c1
REMARK SMILES IDX 6 1 13 2 7 3 11 4 8 5 9 6 5 7 4 8 2 9 1 10 3 11 12 12 10 14
REMARK H PARENT 12 13 10 15
REMARK Flexibility Score: inf
ROOT
ATOM      1  C   UNL     1      27.459  -3.246  34.712  1.00  0.00    -0.022 A 
ATOM      2  C   UNL     1      26.273  -2.882  34.052  1.00  0.00     0.058 A 
ATOM      3  C   UNL     1      27.907  -2.456  35.789  1.00  0.00     0.012 A 
ATOM      4  C   UNL     1      25.532  -1.770  34.469  1.00  0.00     0.157 A 
ATOM      5  C   UNL     1      27.168  -1.346  36.207  1.00  0.00     0.051 A 
ATOM      6  C   UNL     1      25.979  -0.999  35.554  1.00  0.00     0.157 A 
ENDROOT
BRANCH   1   7
ATOM      7  C   UNL     1      28.211  -4.427  34.220  1.00  0.00     0.010 C 
ATOM      8  C   UNL     1      29.476  -4.702  34.568  1.00  0.00     0.025 C 
BRANCH   8   9
ATOM      9  C   UNL     1      30.187  -5.891  34.069  1.00  0.00     0.064 C 
ATOM     10  O   UNL     1      29.607  -7.004  33.969  1.00  0.00    -0.545 OA
ATOM     11  O   UNL     1      31.522  -5.784  33.701  1.00  0.00    -0.545 OA
ENDBRANCH   8   9
ENDBRANCH   1   7
BRANCH   4  12
ATOM     12  O   UNL     1      24.355  -1.449  33.793  1.00  0.00    -0.504 OA
ATOM     13  H   UNL     1      23.569  -1.011  34.259  1.00  0.00     0.293 HD
ENDBRANCH   4  12
BRANCH   6  14
ATOM     14  O   UNL     1      25.244   0.108  35.975  1.00  0.00    -0.504 OA
ATOM     15  H   UNL     1      25.645   1.039  35.984  1.00  0.00     0.293 HD
ENDBRANCH   6  14
TORSDOF 4
ENDMDL
MODEL 8
REMARK VINA RESULT:    -4.860      3.873      4.582
REMARK INTER + INTRA:          -5.851
REMARK INTER:                  -5.726
REMARK INTRA:                  -0.125
REMARK UNBOUND:                -0.139
REMARK SMILES O=C([O-])C=Cc1ccc(O)c(O)c1
REMARK SMILES IDX 6 1 13 2 7 3 11 4 8 5 9 6 5 7 4 8 2 9 1 10 3 11 12 12 10 14
REMARK H PARENT 12 13 10 15
REMARK Flexibility Score: inf
ROOT
ATOM      1  C   UNL     1      31.742  -3.379  34.552  1.00  0.00    -0.022 A 
ATOM      2  C   UNL     1      31.793  -3.906  33.251  1.00  0.00     0.058 A 
ATOM      3  C   UNL     1      32.866  -3.527  35.389  1.00  0.00     0.012 A 
ATOM      4  C   UNL     1      32.945  -4.546  32.779  1.00  0.00     0.157 A 
ATOM      5  C   UNL     1      34.018  -4.166  34.920  1.00  0.00     0.051 A 
ATOM      6  C   UNL     1      34.065  -4.674  33.616  1.00  0.00     0.157 A 
ENDROOT
BRANCH   1   7
ATOM      7  C   UNL     1      30.491  -2.721  35.003  1.00  0.00     0.010 C 
ATOM      8  C   UNL     1      29.545  -3.336  35.726  1.00  0.00     0.025 C 
BRANCH   8   9
ATOM      9  C   UNL     1      28.321  -2.647  36.167  1.00  0.00     0.064 C 
ATOM     10  O   UNL     1      28.012  -2.580  37.386  1.00  0.00    -0.545 OA
ATOM     11  O   UNL     1      27.491  -2.057  35.221  1.00  0.00    -0.545 OA
ENDBRANCH   8   9
ENDBRANCH   1   7
BRANCH   4  12
ATOM     12  O   UNL     1      32.957  -5.047  31.477  1.00  0.00    -0.504 OA
ATOM     13  H   UNL     1      33.671  -4.786  30.807  1.00  0.00     0.293 HD
ENDBRANCH   4  12
BRANCH   6  14
ATOM     14  O   UNL     1      35.216  -5.309  33.152  1.00  0.00    -0.504 OA
ATOM     15  H   UNL     1      36.135  -5.059  33.497  1.00  0.00     0.293 HD
ENDBRANCH   6  14
TORSDOF 4
ENDMDL
MODEL 9
REMARK VINA RESULT:    -4.829      3.583      5.633
REMARK INTER + INTRA:          -5.815
REMARK INTER:                  -5.683
REMARK INTRA:                  -0.132
REMARK UNBOUND:                -0.139
REMARK SMILES O=C([O-])C=Cc1ccc(O)c(O)c1
REMARK SMILES IDX 6 1 13 2 7 3 11 4 8 5 9 6 5 7 4 8 2 9 1 10 3 11 12 12 10 14
REMARK H PARENT 12 13 10 15
REMARK Flexibility Score: inf
ROOT
ATOM      1  C   UNL     1      28.468  -3.253  35.174  1.00  0.00    -0.022 A 
ATOM      2  C   UNL     1      29.787  -3.115  35.637  1.00  0.00     0.058 A 
ATOM      3  C   UNL     1      28.181  -4.260  34.232  1.00  0.00     0.012 A 
ATOM      4  C   UNL     1      30.798  -3.974  35.193  1.00  0.00     0.157 A 
ATOM      5  C   UNL     1      29.190  -5.119  33.786  1.00  0.00     0.051 A 
ATOM      6  C   UNL     1      30.498  -4.984  34.265  1.00  0.00     0.157 A 
ENDROOT
BRANCH   1   7
ATOM      7  C   UNL     1      27.438  -2.307  35.671  1.00  0.00     0.010 C 
ATOM      8  C   UNL     1      27.445  -1.778  36.903  1.00  0.00     0.025 C 
BRANCH   8   9
ATOM      9  C   UNL     1      26.412  -0.832  37.357  1.00  0.00     0.064 C 
ATOM     10  O   UNL     1      25.281  -0.786  36.805  1.00  0.00    -0.545 OA
ATOM     11  O   UNL     1      26.689   0.024  38.416  1.00  0.00    -0.545 OA
ENDBRANCH   8   9
ENDBRANCH   1   7
BRANCH   4  12
ATOM     12  O   UNL     1      32.093  -3.809  35.685  1.00  0.00    -0.504 OA
ATOM     13  H   UNL     1      32.609  -4.571  36.108  1.00  0.00     0.293 HD
ENDBRANCH   4  12
BRANCH   6  14
ATOM     14  O   UNL     1      31.501  -5.845  33.819  1.00  0.00    -0.504 OA
ATOM     15  H   UNL     1      31.449  -6.845  33.976  1.00  0.00     0.293 HD
ENDBRANCH   6  14
TORSDOF 4
ENDMDL
