MODEL 1
REMARK VINA RESULT:    -4.325      0.000      0.000
REMARK INTER + INTRA:          -4.594
REMARK INTER:                  -4.578
REMARK INTRA:                  -0.016
REMARK UNBOUND:                -0.016
REMARK SMILES O=C([O-])c1cccnc1
REMARK SMILES IDX 4 1 5 2 9 3 6 4 8 5 7 6 2 7 1 8 3 9
REMARK H PARENT
REMARK Flexibility Score: inf
ROOT
ATOM      1  C   UNL     1       3.197 -36.859  17.485  1.00  0.00     0.016 A 
ATOM      2  C   UNL     1       4.171 -35.899  17.807  1.00  0.00     0.013 A 
ATOM      3  C   UNL     1       2.624 -37.605  18.529  1.00  0.00     0.120 A 
ATOM      4  C   UNL     1       4.549 -35.703  19.137  1.00  0.00     0.021 A 
ATOM      5  N   UNL     1       3.011 -37.395  19.816  1.00  0.00    -0.264 NA
ATOM      6  C   UNL     1       3.952 -36.469  20.138  1.00  0.00     0.111 A 
ENDROOT
BRANCH   1   7
ATOM      7  C   UNL     1       2.782 -37.082  16.084  1.00  0.00     0.073 C 
ATOM      8  O   UNL     1       1.714 -36.579  15.645  1.00  0.00    -0.545 OA
ATOM      9  O   UNL     1       3.566 -37.849  15.230  1.00  0.00    -0.545 OA
ENDBRANCH   1   7
TORSDOF 1
ENDMDL
MODEL 2
REMARK VINA RESULT:    -4.218      0.932      1.932
REMARK INTER + INTRA:          -4.481
REMARK INTER:                  -4.465
REMARK INTRA:                  -0.016
REMARK UNBOUND:                -0.016
REMARK SMILES O=C([O-])c1cccnc1
REMARK SMILES IDX 4 1 5 2 9 3 6 4 8 5 7 6 2 7 1 8 3 9
REMARK H PARENT
REMARK Flexibility Score: inf
ROOT
ATOM      1  C   UNL     1       3.244 -36.797  17.487  1.00  0.00     0.016 A 
ATOM      2  C   UNL     1       2.701 -37.593  18.509  1.00  0.00     0.013 A 
ATOM      3  C   UNL     1       4.212 -35.837  17.832  1.00  0.00     0.120 A 
ATOM      4  C   UNL     1       3.122 -37.423  19.829  1.00  0.00     0.021 A 
ATOM      5  N   UNL     1       4.603 -35.691  19.126  1.00  0.00    -0.264 NA
ATOM      6  C   UNL     1       4.084 -36.456  20.121  1.00  0.00     0.111 A 
ENDROOT
BRANCH   1   7
ATOM      7  C   UNL     1       2.814 -36.961  16.083  1.00  0.00     0.073 C 
ATOM      8  O   UNL     1       3.488 -37.664  15.284  1.00  0.00    -0.545 OA
ATOM      9  O   UNL     1       1.657 -36.342  15.623  1.00  0.00    -0.545 OA
ENDBRANCH   1   7
TORSDOF 1
ENDMDL
MODEL 3
REMARK VINA RESULT:    -4.079      2.903      3.670
REMARK INTER + INTRA:          -4.334
REMARK INTER:                  -4.311
REMARK INTRA:                  -0.023
REMARK UNBOUND:                -0.016
REMARK SMILES O=C([O-])c1cccnc1
REMARK SMILES IDX 4 1 5 2 9 3 6 4 8 5 7 6 2 7 1 8 3 9
REMARK H PARENT
REMARK Flexibility Score: inf
ROOT
ATOM      1  C   UNL     1       3.963 -36.701  19.050  1.00  0.00     0.016 A 
ATOM      2  C   UNL     1       3.869 -36.353  17.692  1.00  0.00     0.013 A 
ATOM      3  C   UNL     1       2.922 -37.455  19.619  1.00  0.00     0.120 A 
ATOM      4  C   UNL     1       2.763 -36.754  16.941  1.00  0.00     0.021 A 
ATOM      5  N   UNL     1       1.855 -37.832  18.865  1.00  0.00    -0.264 NA
ATOM      6  C   UNL     1       1.755 -37.501  17.551  1.00  0.00     0.111 A 
ENDROOT
BRANCH   1   7
ATOM      7  C   UNL     1       5.126 -36.288  19.863  1.00  0.00     0.073 C 
ATOM      8  O   UNL     1       5.402 -36.887  20.936  1.00  0.00    -0.545 OA
ATOM      9  O   UNL     1       5.932 -35.231  19.455  1.00  0.00    -0.545 OA
ENDBRANCH   1   7
TORSDOF 1
ENDMDL
MODEL 4
REMARK VINA RESULT:    -4.022      1.726      1.983
REMARK INTER + INTRA:          -4.274
REMARK INTER:                  -4.255
REMARK INTRA:                  -0.019
REMARK UNBOUND:                -0.016
REMARK SMILES O=C([O-])c1cccnc1
REMARK SMILES IDX 4 1 5 2 9 3 6 4 8 5 7 6 2 7 1 8 3 9
REMARK H PARENT
REMARK Flexibility Score: inf
ROOT
ATOM      1  C   UNL     1       3.889 -36.814  18.779  1.00  0.00     0.016 A 
ATOM      2  C   UNL     1       4.476 -35.590  18.417  1.00  0.00     0.013 A 
ATOM      3  C   UNL     1       4.343 -37.452  19.947  1.00  0.00     0.120 A 
ATOM      4  C   UNL     1       5.484 -35.035  19.207  1.00  0.00     0.021 A 
ATOM      5  N   UNL     1       5.327 -36.890  20.698  1.00  0.00    -0.264 NA
ATOM      6  C   UNL     1       5.901 -35.707  20.356  1.00  0.00     0.111 A 
ENDROOT
BRANCH   1   7
ATOM      7  C   UNL     1       2.820 -37.418  17.957  1.00  0.00     0.073 C 
ATOM      8  O   UNL     1       1.750 -37.816  18.491  1.00  0.00    -0.545 OA
ATOM      9  O   UNL     1       2.979 -37.556  16.583  1.00  0.00    -0.545 OA
ENDBRANCH   1   7
TORSDOF 1
ENDMDL
MODEL 5
REMARK VINA RESULT:    -4.011      3.036      3.955
REMARK INTER + INTRA:          -4.262
REMARK INTER:                  -4.239
REMARK INTRA:                  -0.023
REMARK UNBOUND:                -0.016
REMARK SMILES O=C([O-])c1cccnc1
REMARK SMILES IDX 4 1 5 2 9 3 6 4 8 5 7 6 2 7 1 8 3 9
REMARK H PARENT
REMARK Flexibility Score: inf
ROOT
ATOM      1  C   UNL     1       3.935 -36.740  19.134  1.00  0.00     0.016 A 
ATOM      2  C   UNL     1       2.881 -37.461  19.719  1.00  0.00     0.013 A 
ATOM      3  C   UNL     1       3.843 -36.412  17.770  1.00  0.00     0.120 A 
ATOM      4  C   UNL     1       1.778 -37.837  18.951  1.00  0.00     0.021 A 
ATOM      5  N   UNL     1       2.757 -36.792  17.044  1.00  0.00    -0.264 NA
ATOM      6  C   UNL     1       1.733 -37.489  17.601  1.00  0.00     0.111 A 
ENDROOT
BRANCH   1   7
ATOM      7  C   UNL     1       5.112 -36.331  19.929  1.00  0.00     0.073 C 
ATOM      8  O   UNL     1       5.393 -36.920  21.007  1.00  0.00    -0.545 OA
ATOM      9  O   UNL     1       5.928 -35.291  19.498  1.00  0.00    -0.545 OA
ENDBRANCH   1   7
TORSDOF 1
ENDMDL
MODEL 6
REMARK VINA RESULT:    -4.011      1.986      2.653
REMARK INTER + INTRA:          -4.262
REMARK INTER:                  -4.243
REMARK INTRA:                  -0.019
REMARK UNBOUND:                -0.016
REMARK SMILES O=C([O-])c1cccnc1
REMARK SMILES IDX 4 1 5 2 9 3 6 4 8 5 7 6 2 7 1 8 3 9
REMARK H PARENT
REMARK Flexibility Score: inf
ROOT
ATOM      1  C   UNL     1       3.991 -36.805  18.908  1.00  0.00     0.016 A 
ATOM      2  C   UNL     1       4.384 -37.420  20.109  1.00  0.00     0.013 A 
ATOM      3  C   UNL     1       4.614 -35.600  18.541  1.00  0.00     0.120 A 
ATOM      4  C   UNL     1       5.370 -36.835  20.906  1.00  0.00     0.021 A 
ATOM      5  N   UNL     1       5.570 -35.051  19.336  1.00  0.00    -0.264 NA
ATOM      6  C   UNL     1       5.958 -35.637  20.498  1.00  0.00     0.111 A 
ENDROOT
BRANCH   1   7
ATOM      7  C   UNL     1       2.949 -37.408  18.050  1.00  0.00     0.073 C 
ATOM      8  O   UNL     1       3.125 -37.509  16.807  1.00  0.00    -0.545 OA
ATOM      9  O   UNL     1       1.761 -37.871  18.602  1.00  0.00    -0.545 OA
ENDBRANCH   1   7
TORSDOF 1
ENDMDL
MODEL 7
REMARK VINA RESULT:    -3.509      3.419      4.202
REMARK INTER + INTRA:          -3.730
REMARK INTER:                  -3.707
REMARK INTRA:                  -0.023
REMARK UNBOUND:                -0.016
REMARK SMILES O=C([O-])c1cccnc1
REMARK SMILES IDX 4 1 5 2 9 3 6 4 8 5 7 6 2 7 1 8 3 9
REMARK H PARENT
REMARK Flexibility Score: inf
ROOT
ATOM      1  C   UNL     1       4.731 -36.558  19.670  1.00  0.00     0.016 A 
ATOM      2  C   UNL     1       4.826 -35.381  18.909  1.00  0.00     0.013 A 
ATOM      3  C   UNL     1       3.945 -37.612  19.174  1.00  0.00     0.120 A 
ATOM      4  C   UNL     1       4.150 -35.277  17.692  1.00  0.00     0.021 A 
ATOM      5  N   UNL     1       3.295 -37.485  17.986  1.00  0.00    -0.264 NA
ATOM      6  C   UNL     1       3.381 -36.351  17.242  1.00  0.00     0.111 A 
ENDROOT
BRANCH   1   7
ATOM      7  C   UNL     1       5.439 -36.690  20.961  1.00  0.00     0.073 C 
ATOM      8  O   UNL     1       5.542 -37.812  21.523  1.00  0.00    -0.545 OA
ATOM      9  O   UNL     1       6.003 -35.576  21.572  1.00  0.00    -0.545 OA
ENDBRANCH   1   7
TORSDOF 1
ENDMDL
MODEL 8
REMARK VINA RESULT:    -3.199      4.954      5.951
REMARK INTER + INTRA:          -3.402
REMARK INTER:                  -3.382
REMARK INTRA:                  -0.020
REMARK UNBOUND:                -0.016
REMARK SMILES O=C([O-])c1cccnc1
REMARK SMILES IDX 4 1 5 2 9 3 6 4 8 5 7 6 2 7 1 8 3 9
REMARK H PARENT
REMARK Flexibility Score: inf
ROOT
ATOM      1  C   UNL     1       5.185 -36.008  22.241  1.00  0.00     0.016 A 
ATOM      2  C   UNL     1       4.236 -35.385  21.414  1.00  0.00     0.013 A 
ATOM      3  C   UNL     1       5.748 -37.223  21.813  1.00  0.00     0.120 A 
ATOM      4  C   UNL     1       3.871 -35.971  20.200  1.00  0.00     0.021 A 
ATOM      5  N   UNL     1       5.375 -37.773  20.627  1.00  0.00    -0.264 NA
ATOM      6  C   UNL     1       4.458 -37.178  19.820  1.00  0.00     0.111 A 
ENDROOT
BRANCH   1   7
ATOM      7  C   UNL     1       5.586 -35.405  23.530  1.00  0.00     0.073 C 
ATOM      8  O   UNL     1       5.772 -34.163  23.624  1.00  0.00    -0.545 OA
ATOM      9  O   UNL     1       5.762 -36.200  24.656  1.00  0.00    -0.545 OA
ENDBRANCH   1   7
TORSDOF 1
ENDMDL
MODEL 9
REMARK VINA RESULT:    -2.002      4.357      5.459
REMARK INTER + INTRA:          -2.136
REMARK INTER:                  -2.112
REMARK INTRA:                  -0.024
REMARK UNBOUND:                -0.016
REMARK SMILES O=C([O-])c1cccnc1
REMARK SMILES IDX 4 1 5 2 9 3 6 4 8 5 7 6 2 7 1 8 3 9
REMARK H PARENT
REMARK Flexibility Score: inf
ROOT
ATOM      1  C   UNL     1       5.635 -36.139  22.055  1.00  0.00     0.016 A 
ATOM      2  C   UNL     1       5.821 -37.121  23.042  1.00  0.00     0.013 A 
ATOM      3  C   UNL     1       5.704 -34.788  22.437  1.00  0.00     0.120 A 
ATOM      4  C   UNL     1       6.067 -36.748  24.365  1.00  0.00     0.021 A 
ATOM      5  N   UNL     1       5.944 -34.452  23.732  1.00  0.00    -0.264 NA
ATOM      6  C   UNL     1       6.125 -35.394  24.694  1.00  0.00     0.111 A 
ENDROOT
BRANCH   1   7
ATOM      7  C   UNL     1       5.374 -36.512  20.649  1.00  0.00     0.073 C 
ATOM      8  O   UNL     1       5.227 -35.624  19.768  1.00  0.00    -0.545 OA
ATOM      9  O   UNL     1       5.289 -37.850  20.279  1.00  0.00    -0.545 OA
ENDBRANCH   1   7
TORSDOF 1
ENDMDL
