MODEL 1
REMARK VINA RESULT:    -7.847      0.000      0.000
REMARK INTER + INTRA:          -9.534
REMARK INTER:                  -9.223
REMARK INTRA:                  -0.311
REMARK UNBOUND:                -0.311
REMARK SMILES O=c1cc(-c2ccc(O)c(O)c2)oc2cc(O)cc(O)c12
REMARK SMILES IDX 4 1 3 2 2 3 1 4 21 5 19 6 18 7 16 8 15 9 14 10 13 11 5 12
REMARK SMILES IDX 6 13 7 14 8 15 12 16 10 17 9 18 11 20 20 22 17 24
REMARK H PARENT 9 19 11 21 20 23 17 25
REMARK Flexibility Score: inf
ROOT
ATOM      1  C   UNL     1     -38.770  12.587   8.513  1.00  0.00     0.138 A 
ATOM      2  C   UNL     1     -38.902  11.260   8.945  1.00  0.00     0.100 A 
ATOM      3  C   UNL     1     -39.988  10.900   9.745  1.00  0.00     0.197 A 
ATOM      4  O   UNL     1     -40.114   9.690  10.067  1.00  0.00    -0.289 OA
ATOM      5  C   UNL     1     -40.928  11.882  10.138  1.00  0.00     0.107 A 
ATOM      6  C   UNL     1     -42.051  11.640  10.985  1.00  0.00     0.134 A 
ATOM      7  C   UNL     1     -42.978  12.663  11.212  1.00  0.00     0.093 A 
ATOM      8  C   UNL     1     -42.790  13.939  10.671  1.00  0.00     0.123 A 
ATOM      9  C   UNL     1     -41.670  14.200   9.887  1.00  0.00     0.094 A 
ATOM     10  C   UNL     1     -40.744  13.190   9.615  1.00  0.00     0.146 A 
ATOM     11  O   UNL     1     -39.696  13.478   8.851  1.00  0.00    -0.456 OA
ENDROOT
BRANCH   1  12
ATOM     12  C   UNL     1     -37.634  13.024   7.661  1.00  0.00     0.021 A 
ATOM     13  C   UNL     1     -36.403  12.345   7.667  1.00  0.00     0.016 A 
ATOM     14  C   UNL     1     -35.348  12.784   6.864  1.00  0.00     0.051 A 
ATOM     15  C   UNL     1     -35.494  13.910   6.046  1.00  0.00     0.157 A 
ATOM     16  C   UNL     1     -37.775  14.162   6.850  1.00  0.00     0.062 A 
ATOM     17  C   UNL     1     -36.723  14.610   6.041  1.00  0.00     0.158 A 
BRANCH  15  18
ATOM     18  O   UNL     1     -34.402  14.295   5.266  1.00  0.00    -0.504 OA
ATOM     19  H   UNL     1     -33.572  14.736   5.635  1.00  0.00     0.293 HD
ENDBRANCH  15  18
BRANCH  17  20
ATOM     20  O   UNL     1     -36.941  15.744   5.256  1.00  0.00    -0.504 OA
ATOM     21  H   UNL     1     -37.695  16.399   5.407  1.00  0.00     0.293 HD
ENDBRANCH  17  20
ENDBRANCH   1  12
BRANCH   6  22
ATOM     22  O   UNL     1     -42.287  10.428  11.643  1.00  0.00    -0.507 OA
ATOM     23  H   UNL     1     -42.987   9.754  11.374  1.00  0.00     0.293 HD
ENDBRANCH   6  22
BRANCH   8  24
ATOM     24  O   UNL     1     -43.711  14.956  10.914  1.00  0.00    -0.508 OA
ATOM     25  H   UNL     1     -43.430  15.840  11.323  1.00  0.00     0.293 HD
ENDBRANCH   8  24
TORSDOF 5
ENDMDL
MODEL 2
REMARK VINA RESULT:    -7.693      5.367     11.528
REMARK INTER + INTRA:          -9.353
REMARK INTER:                  -9.047
REMARK INTRA:                  -0.307
REMARK UNBOUND:                -0.311
REMARK SMILES O=c1cc(-c2ccc(O)c(O)c2)oc2cc(O)cc(O)c12
REMARK SMILES IDX 4 1 3 2 2 3 1 4 21 5 19 6 18 7 16 8 15 9 14 10 13 11 5 12
REMARK SMILES IDX 6 13 7 14 8 15 12 16 10 17 9 18 11 20 20 22 17 24
REMARK H PARENT 9 19 11 21 20 23 17 25
REMARK Flexibility Score: inf
ROOT
ATOM      1  C   UNL     1     -33.222  14.695   2.950  1.00  0.00     0.138 A 
ATOM      2  C   UNL     1     -33.540  14.889   1.599  1.00  0.00     0.100 A 
ATOM      3  C   UNL     1     -32.514  15.031   0.663  1.00  0.00     0.197 A 
ATOM      4  O   UNL     1     -32.828  15.142  -0.551  1.00  0.00    -0.289 OA
ATOM      5  C   UNL     1     -31.164  15.010   1.088  1.00  0.00     0.107 A 
ATOM      6  C   UNL     1     -30.038  15.185   0.230  1.00  0.00     0.134 A 
ATOM      7  C   UNL     1     -28.747  15.028   0.745  1.00  0.00     0.093 A 
ATOM      8  C   UNL     1     -28.539  14.763   2.102  1.00  0.00     0.123 A 
ATOM      9  C   UNL     1     -29.630  14.642   2.958  1.00  0.00     0.094 A 
ATOM     10  C   UNL     1     -30.933  14.760   2.468  1.00  0.00     0.146 A 
ATOM     11  O   UNL     1     -31.947  14.624   3.316  1.00  0.00    -0.456 OA
ENDROOT
BRANCH   1  12
ATOM     12  C   UNL     1     -34.274  14.539   3.988  1.00  0.00     0.021 A 
ATOM     13  C   UNL     1     -35.521  15.178   3.876  1.00  0.00     0.016 A 
ATOM     14  C   UNL     1     -36.487  15.022   4.872  1.00  0.00     0.051 A 
ATOM     15  C   UNL     1     -36.230  14.236   6.001  1.00  0.00     0.157 A 
ATOM     16  C   UNL     1     -34.010  13.762   5.128  1.00  0.00     0.062 A 
ATOM     17  C   UNL     1     -34.974  13.600   6.131  1.00  0.00     0.158 A 
BRANCH  15  18
ATOM     18  O   UNL     1     -37.240  14.120   6.958  1.00  0.00    -0.504 OA
ATOM     19  H   UNL     1     -37.409  14.799   7.685  1.00  0.00     0.293 HD
ENDBRANCH  15  18
BRANCH  17  20
ATOM     20  O   UNL     1     -34.643  12.804   7.231  1.00  0.00    -0.504 OA
ATOM     21  H   UNL     1     -33.715  12.743   7.624  1.00  0.00     0.293 HD
ENDBRANCH  17  20
ENDBRANCH   1  12
BRANCH   6  22
ATOM     22  O   UNL     1     -30.132  15.536  -1.121  1.00  0.00    -0.507 OA
ATOM     23  H   UNL     1     -29.356  15.824  -1.696  1.00  0.00     0.293 HD
ENDBRANCH   6  22
BRANCH   8  24
ATOM     24  O   UNL     1     -27.249  14.622   2.609  1.00  0.00    -0.508 OA
ATOM     25  H   UNL     1     -27.061  14.678   3.604  1.00  0.00     0.293 HD
ENDBRANCH   8  24
TORSDOF 5
ENDMDL
MODEL 3
REMARK VINA RESULT:    -7.383      2.371      7.194
REMARK INTER + INTRA:          -8.989
REMARK INTER:                  -8.710
REMARK INTRA:                  -0.279
REMARK UNBOUND:                -0.311
REMARK SMILES O=c1cc(-c2ccc(O)c(O)c2)oc2cc(O)cc(O)c12
REMARK SMILES IDX 4 1 3 2 2 3 1 4 21 5 19 6 18 7 16 8 15 9 14 10 13 11 5 12
REMARK SMILES IDX 6 13 7 14 8 15 12 16 10 17 9 18 11 20 20 22 17 24
REMARK H PARENT 9 19 11 21 20 23 17 25
REMARK Flexibility Score: inf
ROOT
ATOM      1  C   UNL     1     -40.963  11.600   8.910  1.00  0.00     0.138 A 
ATOM      2  C   UNL     1     -41.431  10.766   7.885  1.00  0.00     0.100 A 
ATOM      3  C   UNL     1     -40.616  10.504   6.782  1.00  0.00     0.197 A 
ATOM      4  O   UNL     1     -41.038   9.703   5.908  1.00  0.00    -0.289 OA
ATOM      5  C   UNL     1     -39.338  11.106   6.693  1.00  0.00     0.107 A 
ATOM      6  C   UNL     1     -38.438  10.944   5.597  1.00  0.00     0.134 A 
ATOM      7  C   UNL     1     -37.154  11.495   5.672  1.00  0.00     0.093 A 
ATOM      8  C   UNL     1     -36.758  12.254   6.778  1.00  0.00     0.123 A 
ATOM      9  C   UNL     1     -37.648  12.463   7.828  1.00  0.00     0.094 A 
ATOM     10  C   UNL     1     -38.925  11.897   7.798  1.00  0.00     0.146 A 
ATOM     11  O   UNL     1     -39.738  12.109   8.827  1.00  0.00    -0.456 OA
ENDROOT
BRANCH   1  12
ATOM     12  C   UNL     1     -41.789  11.912  10.104  1.00  0.00     0.021 A 
ATOM     13  C   UNL     1     -41.806  13.197  10.675  1.00  0.00     0.016 A 
ATOM     14  C   UNL     1     -42.583  13.459  11.805  1.00  0.00     0.051 A 
ATOM     15  C   UNL     1     -43.353  12.449  12.393  1.00  0.00     0.157 A 
ATOM     16  C   UNL     1     -42.551  10.895  10.703  1.00  0.00     0.062 A 
ATOM     17  C   UNL     1     -43.334  11.149  11.837  1.00  0.00     0.158 A 
BRANCH  15  18
ATOM     18  O   UNL     1     -44.109  12.779  13.519  1.00  0.00    -0.504 OA
ATOM     19  H   UNL     1     -43.970  12.371  14.432  1.00  0.00     0.293 HD
ENDBRANCH  15  18
BRANCH  17  20
ATOM     20  O   UNL     1     -44.071  10.090  12.371  1.00  0.00    -0.504 OA
ATOM     21  H   UNL     1     -43.659   9.291  12.831  1.00  0.00     0.293 HD
ENDBRANCH  17  20
ENDBRANCH   1  12
BRANCH   6  22
ATOM     22  O   UNL     1     -38.763  10.278   4.412  1.00  0.00    -0.507 OA
ATOM     23  H   UNL     1     -39.196   9.368   4.362  1.00  0.00     0.293 HD
ENDBRANCH   6  22
BRANCH   8  24
ATOM     24  O   UNL     1     -35.483  12.811   6.837  1.00  0.00    -0.508 OA
ATOM     25  H   UNL     1     -34.953  12.832   7.701  1.00  0.00     0.293 HD
ENDBRANCH   8  24
TORSDOF 5
ENDMDL
MODEL 4
REMARK VINA RESULT:    -7.349      6.293      9.599
REMARK INTER + INTRA:          -8.949
REMARK INTER:                  -8.673
REMARK INTRA:                  -0.276
REMARK UNBOUND:                -0.311
REMARK SMILES O=c1cc(-c2ccc(O)c(O)c2)oc2cc(O)cc(O)c12
REMARK SMILES IDX 4 1 3 2 2 3 1 4 21 5 19 6 18 7 16 8 15 9 14 10 13 11 5 12
REMARK SMILES IDX 6 13 7 14 8 15 12 16 10 17 9 18 11 20 20 22 17 24
REMARK H PARENT 9 19 11 21 20 23 17 25
REMARK Flexibility Score: inf
ROOT
ATOM      1  C   UNL     1     -32.222  13.904   1.862  1.00  0.00     0.138 A 
ATOM      2  C   UNL     1     -32.729  12.950   0.969  1.00  0.00     0.100 A 
ATOM      3  C   UNL     1     -34.020  12.452   1.152  1.00  0.00     0.197 A 
ATOM      4  O   UNL     1     -34.471  11.643   0.299  1.00  0.00    -0.289 OA
ATOM      5  C   UNL     1     -34.795  12.890   2.252  1.00  0.00     0.107 A 
ATOM      6  C   UNL     1     -36.107  12.422   2.561  1.00  0.00     0.134 A 
ATOM      7  C   UNL     1     -36.822  13.013   3.609  1.00  0.00     0.093 A 
ATOM      8  C   UNL     1     -36.248  14.014   4.398  1.00  0.00     0.123 A 
ATOM      9  C   UNL     1     -34.948  14.441   4.139  1.00  0.00     0.094 A 
ATOM     10  C   UNL     1     -34.221  13.894   3.078  1.00  0.00     0.146 A 
ATOM     11  O   UNL     1     -32.989  14.339   2.856  1.00  0.00    -0.456 OA
ENDROOT
BRANCH   1  12
ATOM     12  C   UNL     1     -30.855  14.466   1.715  1.00  0.00     0.021 A 
ATOM     13  C   UNL     1     -30.003  14.634   2.821  1.00  0.00     0.016 A 
ATOM     14  C   UNL     1     -28.726  15.175   2.654  1.00  0.00     0.051 A 
ATOM     15  C   UNL     1     -28.275  15.566   1.389  1.00  0.00     0.157 A 
ATOM     16  C   UNL     1     -30.407  14.871   0.447  1.00  0.00     0.062 A 
ATOM     17  C   UNL     1     -29.127  15.415   0.271  1.00  0.00     0.158 A 
BRANCH  15  18
ATOM     18  O   UNL     1     -26.987  16.097   1.292  1.00  0.00    -0.504 OA
ATOM     19  H   UNL     1     -26.333  15.861   0.561  1.00  0.00     0.293 HD
ENDBRANCH  15  18
BRANCH  17  20
ATOM     20  O   UNL     1     -28.749  15.787  -1.021  1.00  0.00    -0.504 OA
ATOM     21  H   UNL     1     -29.279  15.562  -1.851  1.00  0.00     0.293 HD
ENDBRANCH  17  20
ENDBRANCH   1  12
BRANCH   6  22
ATOM     22  O   UNL     1     -36.739  11.370   1.890  1.00  0.00    -0.507 OA
ATOM     23  H   UNL     1     -37.180  11.446   0.986  1.00  0.00     0.293 HD
ENDBRANCH   6  22
BRANCH   8  24
ATOM     24  O   UNL     1     -36.962  14.587   5.449  1.00  0.00    -0.508 OA
ATOM     25  H   UNL     1     -37.197  14.058   6.281  1.00  0.00     0.293 HD
ENDBRANCH   8  24
TORSDOF 5
ENDMDL
MODEL 5
REMARK VINA RESULT:    -7.189      7.297     10.423
REMARK INTER + INTRA:          -8.761
REMARK INTER:                  -8.485
REMARK INTRA:                  -0.276
REMARK UNBOUND:                -0.311
REMARK SMILES O=c1cc(-c2ccc(O)c(O)c2)oc2cc(O)cc(O)c12
REMARK SMILES IDX 4 1 3 2 2 3 1 4 21 5 19 6 18 7 16 8 15 9 14 10 13 11 5 12
REMARK SMILES IDX 6 13 7 14 8 15 12 16 10 17 9 18 11 20 20 22 17 24
REMARK H PARENT 9 19 11 21 20 23 17 25
REMARK Flexibility Score: inf
ROOT
ATOM      1  C   UNL     1     -31.997  14.217   1.593  1.00  0.00     0.138 A 
ATOM      2  C   UNL     1     -32.479  14.764   2.790  1.00  0.00     0.100 A 
ATOM      3  C   UNL     1     -33.641  14.248   3.366  1.00  0.00     0.197 A 
ATOM      4  O   UNL     1     -34.015  14.717   4.472  1.00  0.00    -0.289 OA
ATOM      5  C   UNL     1     -34.339  13.198   2.722  1.00  0.00     0.107 A 
ATOM      6  C   UNL     1     -35.556  12.621   3.196  1.00  0.00     0.134 A 
ATOM      7  C   UNL     1     -36.094  11.510   2.537  1.00  0.00     0.093 A 
ATOM      8  C   UNL     1     -35.493  10.993   1.385  1.00  0.00     0.123 A 
ATOM      9  C   UNL     1     -34.335  11.583   0.885  1.00  0.00     0.094 A 
ATOM     10  C   UNL     1     -33.754  12.672   1.540  1.00  0.00     0.146 A 
ATOM     11  O   UNL     1     -32.642  13.196   1.037  1.00  0.00    -0.456 OA
ENDROOT
BRANCH   1  12
ATOM     12  C   UNL     1     -30.767  14.729   0.936  1.00  0.00     0.021 A 
ATOM     13  C   UNL     1     -30.697  14.920  -0.454  1.00  0.00     0.016 A 
ATOM     14  C   UNL     1     -29.523  15.392  -1.045  1.00  0.00     0.051 A 
ATOM     15  C   UNL     1     -28.395  15.676  -0.268  1.00  0.00     0.157 A 
ATOM     16  C   UNL     1     -29.630  15.000   1.715  1.00  0.00     0.062 A 
ATOM     17  C   UNL     1     -28.449  15.475   1.131  1.00  0.00     0.158 A 
BRANCH  15  18
ATOM     18  O   UNL     1     -27.255  16.148  -0.921  1.00  0.00    -0.504 OA
ATOM     19  H   UNL     1     -27.204  16.320  -1.914  1.00  0.00     0.293 HD
ENDBRANCH  15  18
BRANCH  17  20
ATOM     20  O   UNL     1     -27.363  15.731   1.971  1.00  0.00    -0.504 OA
ATOM     21  H   UNL     1     -27.438  15.851   2.971  1.00  0.00     0.293 HD
ENDBRANCH  17  20
ENDBRANCH   1  12
BRANCH   6  22
ATOM     22  O   UNL     1     -36.282  13.113   4.285  1.00  0.00    -0.507 OA
ATOM     23  H   UNL     1     -35.899  13.283   5.203  1.00  0.00     0.293 HD
ENDBRANCH   6  22
BRANCH   8  24
ATOM     24  O   UNL     1     -36.044   9.896   0.728  1.00  0.00    -0.508 OA
ATOM     25  H   UNL     1     -35.527   9.386   0.020  1.00  0.00     0.293 HD
ENDBRANCH   8  24
TORSDOF 5
ENDMDL
MODEL 6
REMARK VINA RESULT:    -7.081      1.740      3.237
REMARK INTER + INTRA:          -8.634
REMARK INTER:                  -8.363
REMARK INTRA:                  -0.271
REMARK UNBOUND:                -0.311
REMARK SMILES O=c1cc(-c2ccc(O)c(O)c2)oc2cc(O)cc(O)c12
REMARK SMILES IDX 4 1 3 2 2 3 1 4 21 5 19 6 18 7 16 8 15 9 14 10 13 11 5 12
REMARK SMILES IDX 6 13 7 14 8 15 12 16 10 17 9 18 11 20 20 22 17 24
REMARK H PARENT 9 19 11 21 20 23 17 25
REMARK Flexibility Score: inf
ROOT
ATOM      1  C   UNL     1     -37.633  12.939   7.605  1.00  0.00     0.138 A 
ATOM      2  C   UNL     1     -38.434  13.881   8.265  1.00  0.00     0.100 A 
ATOM      3  C   UNL     1     -39.472  13.446   9.090  1.00  0.00     0.197 A 
ATOM      4  O   UNL     1     -40.135  14.313   9.718  1.00  0.00    -0.289 OA
ATOM      5  C   UNL     1     -39.727  12.061   9.230  1.00  0.00     0.107 A 
ATOM      6  C   UNL     1     -40.783  11.504  10.012  1.00  0.00     0.134 A 
ATOM      7  C   UNL     1     -40.867  10.116  10.168  1.00  0.00     0.093 A 
ATOM      8  C   UNL     1     -39.969   9.262   9.522  1.00  0.00     0.123 A 
ATOM      9  C   UNL     1     -38.968   9.794   8.714  1.00  0.00     0.094 A 
ATOM     10  C   UNL     1     -38.837  11.177   8.565  1.00  0.00     0.146 A 
ATOM     11  O   UNL     1     -37.859  11.644   7.796  1.00  0.00    -0.456 OA
ENDROOT
BRANCH   1  12
ATOM     12  C   UNL     1     -36.516  13.347   6.714  1.00  0.00     0.021 A 
ATOM     13  C   UNL     1     -35.209  12.867   6.903  1.00  0.00     0.016 A 
ATOM     14  C   UNL     1     -34.176  13.276   6.057  1.00  0.00     0.051 A 
ATOM     15  C   UNL     1     -34.420  14.175   5.013  1.00  0.00     0.157 A 
ATOM     16  C   UNL     1     -36.759  14.261   5.675  1.00  0.00     0.062 A 
ATOM     17  C   UNL     1     -35.729  14.676   4.822  1.00  0.00     0.158 A 
BRANCH  15  18
ATOM     18  O   UNL     1     -33.344  14.541   4.202  1.00  0.00    -0.504 OA
ATOM     19  H   UNL     1     -32.503  13.993   4.099  1.00  0.00     0.293 HD
ENDBRANCH  15  18
BRANCH  17  20
ATOM     20  O   UNL     1     -36.049  15.579   3.806  1.00  0.00    -0.504 OA
ATOM     21  H   UNL     1     -36.813  16.237   3.855  1.00  0.00     0.293 HD
ENDBRANCH  17  20
ENDBRANCH   1  12
BRANCH   6  22
ATOM     22  O   UNL     1     -41.782  12.262  10.630  1.00  0.00    -0.507 OA
ATOM     23  H   UNL     1     -42.477  12.807  10.142  1.00  0.00     0.293 HD
ENDBRANCH   6  22
BRANCH   8  24
ATOM     24  O   UNL     1     -40.069   7.880   9.672  1.00  0.00    -0.508 OA
ATOM     25  H   UNL     1     -40.089   7.260   8.870  1.00  0.00     0.293 HD
ENDBRANCH   8  24
TORSDOF 5
ENDMDL
MODEL 7
REMARK VINA RESULT:    -7.061      2.806      7.009
REMARK INTER + INTRA:          -8.610
REMARK INTER:                  -8.342
REMARK INTRA:                  -0.268
REMARK UNBOUND:                -0.311
REMARK SMILES O=c1cc(-c2ccc(O)c(O)c2)oc2cc(O)cc(O)c12
REMARK SMILES IDX 4 1 3 2 2 3 1 4 21 5 19 6 18 7 16 8 15 9 14 10 13 11 5 12
REMARK SMILES IDX 6 13 7 14 8 15 12 16 10 17 9 18 11 20 20 22 17 24
REMARK H PARENT 9 19 11 21 20 23 17 25
REMARK Flexibility Score: inf
ROOT
ATOM      1  C   UNL     1     -40.608  11.814   9.107  1.00  0.00     0.138 A 
ATOM      2  C   UNL     1     -39.300  12.320   9.078  1.00  0.00     0.100 A 
ATOM      3  C   UNL     1     -38.486  12.062   7.975  1.00  0.00     0.197 A 
ATOM      4  O   UNL     1     -37.339  12.580   7.949  1.00  0.00    -0.289 OA
ATOM      5  C   UNL     1     -38.974  11.268   6.909  1.00  0.00     0.107 A 
ATOM      6  C   UNL     1     -38.220  10.907   5.753  1.00  0.00     0.134 A 
ATOM      7  C   UNL     1     -38.846  10.215   4.710  1.00  0.00     0.093 A 
ATOM      8  C   UNL     1     -40.182   9.818   4.808  1.00  0.00     0.123 A 
ATOM      9  C   UNL     1     -40.912  10.119   5.955  1.00  0.00     0.094 A 
ATOM     10  C   UNL     1     -40.325  10.839   6.999  1.00  0.00     0.146 A 
ATOM     11  O   UNL     1     -41.060  11.118   8.070  1.00  0.00    -0.456 OA
ENDROOT
BRANCH   1  12
ATOM     12  C   UNL     1     -41.516  12.058  10.257  1.00  0.00     0.021 A 
ATOM     13  C   UNL     1     -42.140  11.000  10.942  1.00  0.00     0.016 A 
ATOM     14  C   UNL     1     -42.998  11.259  12.012  1.00  0.00     0.051 A 
ATOM     15  C   UNL     1     -43.259  12.573  12.418  1.00  0.00     0.157 A 
ATOM     16  C   UNL     1     -41.789  13.377  10.656  1.00  0.00     0.062 A 
ATOM     17  C   UNL     1     -42.648  13.646  11.729  1.00  0.00     0.158 A 
BRANCH  15  18
ATOM     18  O   UNL     1     -44.124  12.762  13.497  1.00  0.00    -0.504 OA
ATOM     19  H   UNL     1     -44.053  12.263  14.372  1.00  0.00     0.293 HD
ENDBRANCH  15  18
BRANCH  17  20
ATOM     20  O   UNL     1     -42.864  14.982  12.072  1.00  0.00    -0.504 OA
ATOM     21  H   UNL     1     -43.566  15.290  12.729  1.00  0.00     0.293 HD
ENDBRANCH  17  20
ENDBRANCH   1  12
BRANCH   6  22
ATOM     22  O   UNL     1     -36.858  11.180   5.592  1.00  0.00    -0.507 OA
ATOM     23  H   UNL     1     -36.177  11.171   6.335  1.00  0.00     0.293 HD
ENDBRANCH   6  22
BRANCH   8  24
ATOM     24  O   UNL     1     -40.793   9.116   3.770  1.00  0.00    -0.508 OA
ATOM     25  H   UNL     1     -40.851   8.104   3.777  1.00  0.00     0.293 HD
ENDBRANCH   8  24
TORSDOF 5
ENDMDL
MODEL 8
REMARK VINA RESULT:    -6.941      2.499      7.384
REMARK INTER + INTRA:          -8.469
REMARK INTER:                  -8.199
REMARK INTRA:                  -0.269
REMARK UNBOUND:                -0.311
REMARK SMILES O=c1cc(-c2ccc(O)c(O)c2)oc2cc(O)cc(O)c12
REMARK SMILES IDX 4 1 3 2 2 3 1 4 21 5 19 6 18 7 16 8 15 9 14 10 13 11 5 12
REMARK SMILES IDX 6 13 7 14 8 15 12 16 10 17 9 18 11 20 20 22 17 24
REMARK H PARENT 9 19 11 21 20 23 17 25
REMARK Flexibility Score: inf
ROOT
ATOM      1  C   UNL     1     -39.674  10.994   7.548  1.00  0.00     0.138 A 
ATOM      2  C   UNL     1     -39.954  10.401   6.309  1.00  0.00     0.100 A 
ATOM      3  C   UNL     1     -39.053  10.552   5.254  1.00  0.00     0.197 A 
ATOM      4  O   UNL     1     -39.300   9.957   4.172  1.00  0.00    -0.289 OA
ATOM      5  C   UNL     1     -37.881  11.325   5.433  1.00  0.00     0.107 A 
ATOM      6  C   UNL     1     -36.912  11.580   4.417  1.00  0.00     0.134 A 
ATOM      7  C   UNL     1     -35.734  12.263   4.743  1.00  0.00     0.093 A 
ATOM      8  C   UNL     1     -35.519  12.753   6.034  1.00  0.00     0.123 A 
ATOM      9  C   UNL     1     -36.483  12.555   7.020  1.00  0.00     0.094 A 
ATOM     10  C   UNL     1     -37.653  11.848   6.734  1.00  0.00     0.146 A 
ATOM     11  O   UNL     1     -38.541  11.670   7.706  1.00  0.00    -0.456 OA
ENDROOT
BRANCH   1  12
ATOM     12  C   UNL     1     -40.599  10.867   8.704  1.00  0.00     0.021 A 
ATOM     13  C   UNL     1     -41.793  11.604   8.778  1.00  0.00     0.016 A 
ATOM     14  C   UNL     1     -42.638  11.473   9.882  1.00  0.00     0.051 A 
ATOM     15  C   UNL     1     -42.310  10.613  10.936  1.00  0.00     0.157 A 
ATOM     16  C   UNL     1     -40.262  10.015   9.768  1.00  0.00     0.062 A 
ATOM     17  C   UNL     1     -41.104   9.876  10.879  1.00  0.00     0.158 A 
BRANCH  15  18
ATOM     18  O   UNL     1     -43.199  10.526  12.008  1.00  0.00    -0.504 OA
ATOM     19  H   UNL     1     -43.822  11.270  12.287  1.00  0.00     0.293 HD
ENDBRANCH  15  18
BRANCH  17  20
ATOM     20  O   UNL     1     -40.706   9.003  11.894  1.00  0.00    -0.504 OA
ATOM     21  H   UNL     1     -41.160   8.123  12.092  1.00  0.00     0.293 HD
ENDBRANCH  17  20
ENDBRANCH   1  12
BRANCH   6  22
ATOM     22  O   UNL     1     -37.067  11.210   3.078  1.00  0.00    -0.507 OA
ATOM     23  H   UNL     1     -36.423  10.629   2.563  1.00  0.00     0.293 HD
ENDBRANCH   6  22
BRANCH   8  24
ATOM     24  O   UNL     1     -34.350  13.444   6.346  1.00  0.00    -0.508 OA
ATOM     25  H   UNL     1     -33.599  13.548   5.672  1.00  0.00     0.293 HD
ENDBRANCH   8  24
TORSDOF 5
ENDMDL
MODEL 9
REMARK VINA RESULT:    -6.845      2.508      7.608
REMARK INTER + INTRA:          -8.356
REMARK INTER:                  -8.043
REMARK INTRA:                  -0.313
REMARK UNBOUND:                -0.311
REMARK SMILES O=c1cc(-c2ccc(O)c(O)c2)oc2cc(O)cc(O)c12
REMARK SMILES IDX 4 1 3 2 2 3 1 4 21 5 19 6 18 7 16 8 15 9 14 10 13 11 5 12
REMARK SMILES IDX 6 13 7 14 8 15 12 16 10 17 9 18 11 20 20 22 17 24
REMARK H PARENT 9 19 11 21 20 23 17 25
REMARK Flexibility Score: inf
ROOT
ATOM      1  C   UNL     1     -38.274  11.952   7.293  1.00  0.00     0.138 A 
ATOM      2  C   UNL     1     -37.747  13.247   7.399  1.00  0.00     0.100 A 
ATOM      3  C   UNL     1     -37.068  13.806   6.316  1.00  0.00     0.197 A 
ATOM      4  O   UNL     1     -36.659  14.992   6.418  1.00  0.00    -0.289 OA
ATOM      5  C   UNL     1     -36.890  13.051   5.131  1.00  0.00     0.107 A 
ATOM      6  C   UNL     1     -36.179  13.503   3.979  1.00  0.00     0.134 A 
ATOM      7  C   UNL     1     -36.168  12.714   2.823  1.00  0.00     0.093 A 
ATOM      8  C   UNL     1     -36.790  11.462   2.798  1.00  0.00     0.123 A 
ATOM      9  C   UNL     1     -37.440  10.990   3.935  1.00  0.00     0.094 A 
ATOM     10  C   UNL     1     -37.498  11.768   5.093  1.00  0.00     0.146 A 
ATOM     11  O   UNL     1     -38.140  11.286   6.152  1.00  0.00    -0.456 OA
ENDROOT
BRANCH   1  12
ATOM     12  C   UNL     1     -39.004  11.309   8.416  1.00  0.00     0.021 A 
ATOM     13  C   UNL     1     -39.547  12.063   9.471  1.00  0.00     0.016 A 
ATOM     14  C   UNL     1     -40.219  11.430  10.519  1.00  0.00     0.051 A 
ATOM     15  C   UNL     1     -40.358  10.038  10.543  1.00  0.00     0.157 A 
ATOM     16  C   UNL     1     -39.131   9.910   8.447  1.00  0.00     0.062 A 
ATOM     17  C   UNL     1     -39.804   9.268   9.494  1.00  0.00     0.158 A 
BRANCH  15  18
ATOM     18  O   UNL     1     -41.043   9.470  11.619  1.00  0.00    -0.504 OA
ATOM     19  H   UNL     1     -41.194   8.478  11.731  1.00  0.00     0.293 HD
ENDBRANCH  15  18
BRANCH  17  20
ATOM     20  O   UNL     1     -39.898   7.875   9.452  1.00  0.00    -0.504 OA
ATOM     21  H   UNL     1     -40.030   7.293  10.266  1.00  0.00     0.293 HD
ENDBRANCH  17  20
ENDBRANCH   1  12
BRANCH   6  22
ATOM     22  O   UNL     1     -35.454  14.697   3.926  1.00  0.00    -0.507 OA
ATOM     23  H   UNL     1     -34.455  14.759   3.803  1.00  0.00     0.293 HD
ENDBRANCH   6  22
BRANCH   8  24
ATOM     24  O   UNL     1     -36.761  10.678   1.647  1.00  0.00    -0.508 OA
ATOM     25  H   UNL     1     -37.611  10.429   1.153  1.00  0.00     0.293 HD
ENDBRANCH   8  24
TORSDOF 5
ENDMDL
