MODEL 1
REMARK VINA RESULT:    -5.391      0.000      0.000
REMARK INTER + INTRA:          -5.391
REMARK INTER:                  -5.391
REMARK INTRA:                   0.000
REMARK UNBOUND:                 0.000
REMARK SMILES C=C1CCCC(C)(C)[C@]12CC=C(C)CC2
REMARK SMILES IDX 13 1 12 2 11 3 10 4 9 5 15 6 14 7 2 8 1 9 3 10 4 11 5 12
REMARK SMILES IDX 6 13 7 14 8 15
REMARK H PARENT
REMARK Flexibility Score: inf
ROOT
ATOM      1  C   UNL     1     143.742 143.997 131.551  1.00  0.00     0.039 C 
ATOM      2  C   UNL     1     142.694 143.668 132.578  1.00  0.00    -0.077 C 
ATOM      3  C   UNL     1     141.899 144.631 133.066  1.00  0.00    -0.027 C 
ATOM      4  C   UNL     1     140.851 144.285 134.092  1.00  0.00     0.039 C 
ATOM      5  C   UNL     1     140.034 142.972 133.742  1.00  0.00    -0.000 C 
ATOM      6  C   UNL     1     140.936 141.962 132.917  1.00  0.00     0.017 C 
ATOM      7  C   UNL     1     142.442 142.248 133.016  1.00  0.00     0.031 C 
ATOM      8  C   UNL     1     138.815 143.302 132.839  1.00  0.00    -0.070 C 
ATOM      9  C   UNL     1     138.760 144.390 132.039  1.00  0.00     0.008 C 
ATOM     10  C   UNL     1     137.768 142.229 132.621  1.00  0.00     0.031 C 
ATOM     11  C   UNL     1     137.275 141.660 133.945  1.00  0.00     0.005 C 
ATOM     12  C   UNL     1     138.446 141.183 134.804  1.00  0.00     0.008 C 
ATOM     13  C   UNL     1     139.488 142.308 135.099  1.00  0.00    -0.026 C 
ATOM     14  C   UNL     1     138.803 143.376 136.002  1.00  0.00     0.012 C 
ATOM     15  C   UNL     1     140.617 141.654 135.945  1.00  0.00     0.012 C 
ENDROOT
TORSDOF 0
ENDMDL
MODEL 2
REMARK VINA RESULT:    -5.352      2.525      4.207
REMARK INTER + INTRA:          -5.352
REMARK INTER:                  -5.352
REMARK INTRA:                   0.000
REMARK UNBOUND:                 0.000
REMARK SMILES C=C1CCCC(C)(C)[C@]12CC=C(C)CC2
REMARK SMILES IDX 13 1 12 2 11 3 10 4 9 5 15 6 14 7 2 8 1 9 3 10 4 11 5 12
REMARK SMILES IDX 6 13 7 14 8 15
REMARK H PARENT
REMARK Flexibility Score: inf
ROOT
ATOM      1  C   UNL     1     138.365 143.740 131.721  1.00  0.00     0.039 C 
ATOM      2  C   UNL     1     138.652 142.667 132.735  1.00  0.00    -0.077 C 
ATOM      3  C   UNL     1     137.675 141.847 133.147  1.00  0.00    -0.027 C 
ATOM      4  C   UNL     1     137.980 140.775 134.161  1.00  0.00     0.039 C 
ATOM      5  C   UNL     1     139.321 139.984 133.861  1.00  0.00    -0.000 C 
ATOM      6  C   UNL     1     140.361 140.921 133.118  1.00  0.00     0.017 C 
ATOM      7  C   UNL     1     140.050 142.420 133.242  1.00  0.00     0.031 C 
ATOM      8  C   UNL     1     139.056 138.787 132.907  1.00  0.00    -0.070 C 
ATOM      9  C   UNL     1     138.015 138.742 132.048  1.00  0.00     0.008 C 
ATOM     10  C   UNL     1     140.154 137.760 132.719  1.00  0.00     0.031 C 
ATOM     11  C   UNL     1     140.657 137.237 134.057  1.00  0.00     0.005 C 
ATOM     12  C   UNL     1     141.072 138.388 134.974  1.00  0.00     0.008 C 
ATOM     13  C   UNL     1     139.917 139.408 135.236  1.00  0.00    -0.026 C 
ATOM     14  C   UNL     1     138.812 138.685 136.060  1.00  0.00     0.012 C 
ATOM     15  C   UNL     1     140.510 140.520 136.147  1.00  0.00     0.012 C 
ENDROOT
TORSDOF 0
ENDMDL
MODEL 3
REMARK VINA RESULT:    -5.350      2.486      4.207
REMARK INTER + INTRA:          -5.350
REMARK INTER:                  -5.350
REMARK INTRA:                   0.000
REMARK UNBOUND:                 0.000
REMARK SMILES C=C1CCCC(C)(C)[C@]12CC=C(C)CC2
REMARK SMILES IDX 13 1 12 2 11 3 10 4 9 5 15 6 14 7 2 8 1 9 3 10 4 11 5 12
REMARK SMILES IDX 6 13 7 14 8 15
REMARK H PARENT
REMARK Flexibility Score: inf
ROOT
ATOM      1  C   UNL     1     143.999 138.432 131.359  1.00  0.00     0.039 C 
ATOM      2  C   UNL     1     143.680 139.468 132.401  1.00  0.00    -0.077 C 
ATOM      3  C   UNL     1     144.645 140.266 132.879  1.00  0.00    -0.027 C 
ATOM      4  C   UNL     1     144.308 141.302 133.920  1.00  0.00     0.039 C 
ATOM      5  C   UNL     1     142.983 142.112 133.601  1.00  0.00    -0.000 C 
ATOM      6  C   UNL     1     141.966 141.208 132.786  1.00  0.00     0.017 C 
ATOM      7  C   UNL     1     142.266 139.704 132.866  1.00  0.00     0.031 C 
ATOM      8  C   UNL     1     143.287 143.341 132.703  1.00  0.00    -0.070 C 
ATOM      9  C   UNL     1     144.360 143.412 131.886  1.00  0.00     0.008 C 
ATOM     10  C   UNL     1     142.202 144.381 132.514  1.00  0.00     0.031 C 
ATOM     11  C   UNL     1     141.653 144.857 133.852  1.00  0.00     0.005 C 
ATOM     12  C   UNL     1     141.200 143.675 134.709  1.00  0.00     0.008 C 
ATOM     13  C   UNL     1     142.339 142.640 134.975  1.00  0.00    -0.026 C 
ATOM     14  C   UNL     1     143.417 143.325 135.865  1.00  0.00     0.012 C 
ATOM     15  C   UNL     1     141.709 141.498 135.821  1.00  0.00     0.012 C 
ENDROOT
TORSDOF 0
ENDMDL
MODEL 4
REMARK VINA RESULT:    -5.323      3.362      5.905
REMARK INTER + INTRA:          -5.323
REMARK INTER:                  -5.323
REMARK INTRA:                   0.000
REMARK UNBOUND:                 0.000
REMARK SMILES C=C1CCCC(C)(C)[C@]12CC=C(C)CC2
REMARK SMILES IDX 13 1 12 2 11 3 10 4 9 5 15 6 14 7 2 8 1 9 3 10 4 11 5 12
REMARK SMILES IDX 6 13 7 14 8 15
REMARK H PARENT
REMARK Flexibility Score: inf
ROOT
ATOM      1  C   UNL     1     138.315 138.332 131.389  1.00  0.00     0.039 C 
ATOM      2  C   UNL     1     139.370 138.614 132.422  1.00  0.00    -0.077 C 
ATOM      3  C   UNL     1     140.134 137.621 132.898  1.00  0.00    -0.027 C 
ATOM      4  C   UNL     1     141.190 137.921 133.930  1.00  0.00     0.039 C 
ATOM      5  C   UNL     1     142.049 139.212 133.599  1.00  0.00    -0.000 C 
ATOM      6  C   UNL     1     141.180 140.260 132.786  1.00  0.00     0.017 C 
ATOM      7  C   UNL     1     139.666 140.020 132.878  1.00  0.00     0.031 C 
ATOM      8  C   UNL     1     143.258 138.856 132.693  1.00  0.00    -0.070 C 
ATOM      9  C   UNL     1     143.281 137.778 131.880  1.00  0.00     0.008 C 
ATOM     10  C   UNL     1     144.339 139.898 132.491  1.00  0.00     0.031 C 
ATOM     11  C   UNL     1     144.846 140.434 133.823  1.00  0.00     0.005 C 
ATOM     12  C   UNL     1     143.689 140.937 134.686  1.00  0.00     0.008 C 
ATOM     13  C   UNL     1     142.612 139.841 134.966  1.00  0.00    -0.026 C 
ATOM     14  C   UNL     1     143.261 138.741 135.856  1.00  0.00     0.012 C 
ATOM     15  C   UNL     1     141.502 140.519 135.818  1.00  0.00     0.012 C 
ENDROOT
TORSDOF 0
ENDMDL
MODEL 5
REMARK VINA RESULT:    -5.252      1.847      5.136
REMARK INTER + INTRA:          -5.252
REMARK INTER:                  -5.252
REMARK INTRA:                   0.000
REMARK UNBOUND:                 0.000
REMARK SMILES C=C1CCCC(C)(C)[C@]12CC=C(C)CC2
REMARK SMILES IDX 13 1 12 2 11 3 10 4 9 5 15 6 14 7 2 8 1 9 3 10 4 11 5 12
REMARK SMILES IDX 6 13 7 14 8 15
REMARK H PARENT
REMARK Flexibility Score: inf
ROOT
ATOM      1  C   UNL     1     138.760 143.631 135.385  1.00  0.00     0.039 C 
ATOM      2  C   UNL     1     139.970 143.435 134.514  1.00  0.00    -0.077 C 
ATOM      3  C   UNL     1     141.000 144.290 134.584  1.00  0.00    -0.027 C 
ATOM      4  C   UNL     1     142.207 144.078 133.707  1.00  0.00     0.039 C 
ATOM      5  C   UNL     1     142.699 142.572 133.662  1.00  0.00    -0.000 C 
ATOM      6  C   UNL     1     141.474 141.584 133.860  1.00  0.00     0.017 C 
ATOM      7  C   UNL     1     140.104 142.233 133.615  1.00  0.00     0.031 C 
ATOM      8  C   UNL     1     143.686 142.276 134.823  1.00  0.00    -0.070 C 
ATOM      9  C   UNL     1     143.704 142.980 135.976  1.00  0.00     0.008 C 
ATOM     10  C   UNL     1     144.468 140.978 134.792  1.00  0.00     0.031 C 
ATOM     11  C   UNL     1     145.184 140.796 133.461  1.00  0.00     0.005 C 
ATOM     12  C   UNL     1     144.209 140.931 132.292  1.00  0.00     0.008 C 
ATOM     13  C   UNL     1     143.460 142.302 132.274  1.00  0.00    -0.026 C 
ATOM     14  C   UNL     1     144.506 143.420 131.989  1.00  0.00     0.012 C 
ATOM     15  C   UNL     1     142.495 142.261 131.056  1.00  0.00     0.012 C 
ENDROOT
TORSDOF 0
ENDMDL
MODEL 6
REMARK VINA RESULT:    -5.238      1.351      4.496
REMARK INTER + INTRA:          -5.238
REMARK INTER:                  -5.238
REMARK INTRA:                   0.000
REMARK UNBOUND:                 0.000
REMARK SMILES C=C1CCCC(C)(C)[C@]12CC=C(C)CC2
REMARK SMILES IDX 13 1 12 2 11 3 10 4 9 5 15 6 14 7 2 8 1 9 3 10 4 11 5 12
REMARK SMILES IDX 6 13 7 14 8 15
REMARK H PARENT
REMARK Flexibility Score: inf
ROOT
ATOM      1  C   UNL     1     138.768 138.795 135.680  1.00  0.00     0.039 C 
ATOM      2  C   UNL     1     138.932 139.976 134.763  1.00  0.00    -0.077 C 
ATOM      3  C   UNL     1     138.033 140.970 134.772  1.00  0.00    -0.027 C 
ATOM      4  C   UNL     1     138.215 142.148 133.850  1.00  0.00     0.039 C 
ATOM      5  C   UNL     1     139.700 142.702 133.816  1.00  0.00    -0.000 C 
ATOM      6  C   UNL     1     140.733 141.529 134.085  1.00  0.00     0.017 C 
ATOM      7  C   UNL     1     140.148 140.124 133.884  1.00  0.00     0.031 C 
ATOM      8  C   UNL     1     139.927 143.747 134.941  1.00  0.00    -0.070 C 
ATOM      9  C   UNL     1     139.198 143.782 136.077  1.00  0.00     0.008 C 
ATOM     10  C   UNL     1     141.192 144.582 134.904  1.00  0.00     0.031 C 
ATOM     11  C   UNL     1     141.373 145.250 133.548  1.00  0.00     0.005 C 
ATOM     12  C   UNL     1     141.306 144.224 132.418  1.00  0.00     0.008 C 
ATOM     13  C   UNL     1     139.968 143.417 132.403  1.00  0.00    -0.026 C 
ATOM     14  C   UNL     1     138.814 144.401 132.051  1.00  0.00     0.012 C 
ATOM     15  C   UNL     1     140.077 142.404 131.228  1.00  0.00     0.012 C 
ENDROOT
TORSDOF 0
ENDMDL
MODEL 7
REMARK VINA RESULT:    -5.230      2.855      4.731
REMARK INTER + INTRA:          -5.230
REMARK INTER:                  -5.230
REMARK INTRA:                   0.000
REMARK UNBOUND:                 0.000
REMARK SMILES C=C1CCCC(C)(C)[C@]12CC=C(C)CC2
REMARK SMILES IDX 13 1 12 2 11 3 10 4 9 5 15 6 14 7 2 8 1 9 3 10 4 11 5 12
REMARK SMILES IDX 6 13 7 14 8 15
REMARK H PARENT
REMARK Flexibility Score: inf
ROOT
ATOM      1  C   UNL     1     143.337 138.439 135.308  1.00  0.00     0.039 C 
ATOM      2  C   UNL     1     142.131 138.673 134.441  1.00  0.00    -0.077 C 
ATOM      3  C   UNL     1     141.086 137.834 134.493  1.00  0.00    -0.027 C 
ATOM      4  C   UNL     1     139.884 138.085 133.620  1.00  0.00     0.039 C 
ATOM      5  C   UNL     1     139.418 139.600 133.606  1.00  0.00    -0.000 C 
ATOM      6  C   UNL     1     140.659 140.562 133.824  1.00  0.00     0.017 C 
ATOM      7  C   UNL     1     142.018 139.896 133.566  1.00  0.00     0.031 C 
ATOM      8  C   UNL     1     138.435 139.888 134.773  1.00  0.00    -0.070 C 
ATOM      9  C   UNL     1     138.404 139.161 135.911  1.00  0.00     0.008 C 
ATOM     10  C   UNL     1     137.675 141.199 134.768  1.00  0.00     0.031 C 
ATOM     11  C   UNL     1     136.962 141.420 133.441  1.00  0.00     0.005 C 
ATOM     12  C   UNL     1     137.935 141.293 132.269  1.00  0.00     0.008 C 
ATOM     13  C   UNL     1     138.661 139.910 132.224  1.00  0.00    -0.026 C 
ATOM     14  C   UNL     1     137.598 138.816 131.916  1.00  0.00     0.012 C 
ATOM     15  C   UNL     1     139.628 139.960 131.007  1.00  0.00     0.012 C 
ENDROOT
TORSDOF 0
ENDMDL
MODEL 8
REMARK VINA RESULT:    -5.185      3.343      5.265
REMARK INTER + INTRA:          -5.185
REMARK INTER:                  -5.185
REMARK INTRA:                   0.000
REMARK UNBOUND:                 0.000
REMARK SMILES C=C1CCCC(C)(C)[C@]12CC=C(C)CC2
REMARK SMILES IDX 13 1 12 2 11 3 10 4 9 5 15 6 14 7 2 8 1 9 3 10 4 11 5 12
REMARK SMILES IDX 6 13 7 14 8 15
REMARK H PARENT
REMARK Flexibility Score: inf
ROOT
ATOM      1  C   UNL     1     143.418 143.468 135.914  1.00  0.00     0.039 C 
ATOM      2  C   UNL     1     143.261 142.312 134.965  1.00  0.00    -0.077 C 
ATOM      3  C   UNL     1     144.170 141.327 134.943  1.00  0.00    -0.027 C 
ATOM      4  C   UNL     1     143.997 140.174 133.989  1.00  0.00     0.039 C 
ATOM      5  C   UNL     1     142.517 139.606 133.945  1.00  0.00    -0.000 C 
ATOM      6  C   UNL     1     141.474 140.760 134.250  1.00  0.00     0.017 C 
ATOM      7  C   UNL     1     142.044 142.177 134.086  1.00  0.00     0.031 C 
ATOM      8  C   UNL     1     142.304 138.527 135.040  1.00  0.00    -0.070 C 
ATOM      9  C   UNL     1     143.038 138.468 136.172  1.00  0.00     0.008 C 
ATOM     10  C   UNL     1     141.048 137.682 134.984  1.00  0.00     0.031 C 
ATOM     11  C   UNL     1     140.868 137.049 133.611  1.00  0.00     0.005 C 
ATOM     12  C   UNL     1     140.921 138.108 132.510  1.00  0.00     0.008 C 
ATOM     13  C   UNL     1     142.251 138.928 132.513  1.00  0.00    -0.026 C 
ATOM     14  C   UNL     1     143.413 137.966 132.130  1.00  0.00     0.012 C 
ATOM     15  C   UNL     1     142.128 139.972 131.367  1.00  0.00     0.012 C 
ENDROOT
TORSDOF 0
ENDMDL
MODEL 9
REMARK VINA RESULT:    -5.131      1.542      4.656
REMARK INTER + INTRA:          -5.131
REMARK INTER:                  -5.131
REMARK INTRA:                   0.000
REMARK UNBOUND:                 0.000
REMARK SMILES C=C1CCCC(C)(C)[C@]12CC=C(C)CC2
REMARK SMILES IDX 13 1 12 2 11 3 10 4 9 5 15 6 14 7 2 8 1 9 3 10 4 11 5 12
REMARK SMILES IDX 6 13 7 14 8 15
REMARK H PARENT
REMARK Flexibility Score: inf
ROOT
ATOM      1  C   UNL     1     136.906 141.356 133.377  1.00  0.00     0.039 C 
ATOM      2  C   UNL     1     138.083 142.162 133.851  1.00  0.00    -0.077 C 
ATOM      3  C   UNL     1     138.199 142.493 135.145  1.00  0.00    -0.027 C 
ATOM      4  C   UNL     1     139.386 143.298 135.606  1.00  0.00     0.039 C 
ATOM      5  C   UNL     1     140.764 142.793 135.006  1.00  0.00    -0.000 C 
ATOM      6  C   UNL     1     140.540 142.151 133.573  1.00  0.00     0.017 C 
ATOM      7  C   UNL     1     139.206 142.537 132.918  1.00  0.00     0.031 C 
ATOM      8  C   UNL     1     141.377 141.674 135.891  1.00  0.00    -0.070 C 
ATOM      9  C   UNL     1     140.639 140.885 136.701  1.00  0.00     0.008 C 
ATOM     10  C   UNL     1     142.810 141.255 135.633  1.00  0.00     0.031 C 
ATOM     11  C   UNL     1     143.744 142.458 135.620  1.00  0.00     0.005 C 
ATOM     12  C   UNL     1     143.251 143.523 134.641  1.00  0.00     0.008 C 
ATOM     13  C   UNL     1     141.802 144.017 134.952  1.00  0.00    -0.026 C 
ATOM     14  C   UNL     1     141.833 144.778 136.310  1.00  0.00     0.012 C 
ATOM     15  C   UNL     1     141.446 145.060 133.855  1.00  0.00     0.012 C 
ENDROOT
TORSDOF 0
ENDMDL
