MODEL 1
REMARK VINA RESULT:    -7.052      0.000      0.000
REMARK INTER + INTRA:         -12.378
REMARK INTER:                 -10.763
REMARK INTRA:                  -1.615
REMARK UNBOUND:                -1.615
REMARK SMILES CC(=O)CCC=C(C)CCC=C(C)CCC=C(C)C
REMARK SMILES IDX 10 1 11 2 12 3 13 4 14 5 15 6 16 7 18 8 17 9 19 10 9 11 7 12
REMARK SMILES IDX 6 13 8 14 5 15 4 16 2 17 3 18 1 19
REMARK H PARENT
REMARK Flexibility Score: inf
ROOT
ATOM      1  C   UNL     1     -13.157  10.909   2.246  1.00  0.00     0.032 C 
ENDROOT
BRANCH   1   2
ATOM      2  C   UNL     1     -13.943  11.322   1.025  1.00  0.00    -0.028 C 
ATOM      3  C   UNL     1     -14.176  12.600   0.647  1.00  0.00    -0.077 C 
ATOM      4  C   UNL     1     -15.048  12.837  -0.559  1.00  0.00     0.039 C 
BRANCH   3   5
ATOM      5  C   UNL     1     -13.572  13.796   1.360  1.00  0.00     0.034 C 
BRANCH   5   6
ATOM      6  C   UNL     1     -14.632  14.621   2.102  1.00  0.00     0.032 C 
BRANCH   6   7
ATOM      7  C   UNL     1     -14.697  16.035   1.570  1.00  0.00    -0.028 C 
ATOM      8  C   UNL     1     -16.981  15.752   0.579  1.00  0.00     0.039 C 
ATOM      9  C   UNL     1     -15.751  16.564   0.910  1.00  0.00    -0.080 C 
ATOM     10  C   UNL     1     -15.687  18.012   0.500  1.00  0.00     0.039 C 
ENDBRANCH   6   7
ENDBRANCH   5   6
ENDBRANCH   3   5
ENDBRANCH   1   2
BRANCH   1  11
ATOM     11  C   UNL     1     -14.024  10.938   3.512  1.00  0.00     0.034 C 
BRANCH  11  12
ATOM     12  C   UNL     1     -13.222  11.332   4.736  1.00  0.00    -0.077 C 
ATOM     13  C   UNL     1     -13.009  10.419   5.709  1.00  0.00    -0.028 C 
ATOM     14  C   UNL     1     -12.678  12.737   4.843  1.00  0.00     0.039 C 
BRANCH  13  15
ATOM     15  C   UNL     1     -12.231  10.722   6.968  1.00  0.00     0.035 C 
BRANCH  15  16
ATOM     16  C   UNL     1     -13.069  10.506   8.235  1.00  0.00     0.079 C 
BRANCH  16  17
ATOM     17  C   UNL     1     -14.216  11.478   8.326  1.00  0.00     0.130 C 
ATOM     18  O   UNL     1     -13.994  12.680   8.354  1.00  0.00    -0.300 OA
ATOM     19  C   UNL     1     -15.632  10.985   8.345  1.00  0.00     0.087 C 
ENDBRANCH  16  17
ENDBRANCH  15  16
ENDBRANCH  13  15
ENDBRANCH  11  12
ENDBRANCH   1  11
TORSDOF 9
ENDMDL
MODEL 2
REMARK VINA RESULT:    -6.748      2.429      7.302
REMARK INTER + INTRA:         -11.914
REMARK INTER:                 -10.701
REMARK INTRA:                  -1.213
REMARK UNBOUND:                -1.615
REMARK SMILES CC(=O)CCC=C(C)CCC=C(C)CCC=C(C)C
REMARK SMILES IDX 10 1 11 2 12 3 13 4 14 5 15 6 16 7 18 8 17 9 19 10 9 11 7 12
REMARK SMILES IDX 6 13 8 14 5 15 4 16 2 17 3 18 1 19
REMARK H PARENT
REMARK Flexibility Score: inf
ROOT
ATOM      1  C   UNL     1     -14.552  12.345   3.296  1.00  0.00     0.032 C 
ENDROOT
BRANCH   1   2
ATOM      2  C   UNL     1     -13.533  13.038   4.169  1.00  0.00    -0.028 C 
ATOM      3  C   UNL     1     -12.652  12.411   4.981  1.00  0.00    -0.077 C 
ATOM      4  C   UNL     1     -11.754  13.258   5.846  1.00  0.00     0.039 C 
BRANCH   3   5
ATOM      5  C   UNL     1     -12.506  10.901   5.033  1.00  0.00     0.034 C 
BRANCH   5   6
ATOM      6  C   UNL     1     -12.667  10.356   6.459  1.00  0.00     0.032 C 
BRANCH   6   7
ATOM      7  C   UNL     1     -14.126  10.228   6.836  1.00  0.00    -0.028 C 
ATOM      8  C   UNL     1     -14.031  12.057   8.546  1.00  0.00     0.039 C 
ATOM      9  C   UNL     1     -14.757  11.000   7.748  1.00  0.00    -0.080 C 
ATOM     10  C   UNL     1     -16.233  10.792   7.964  1.00  0.00     0.039 C 
ENDBRANCH   6   7
ENDBRANCH   5   6
ENDBRANCH   3   5
ENDBRANCH   1   2
BRANCH   1  11
ATOM     11  C   UNL     1     -13.944  11.913   1.954  1.00  0.00     0.034 C 
BRANCH  11  12
ATOM     12  C   UNL     1     -14.145  12.963   0.880  1.00  0.00    -0.077 C 
ATOM     13  C   UNL     1     -13.693  14.218   1.090  1.00  0.00    -0.028 C 
ATOM     14  C   UNL     1     -14.845  12.583  -0.404  1.00  0.00     0.039 C 
BRANCH  13  15
ATOM     15  C   UNL     1     -13.855  15.333   0.083  1.00  0.00     0.035 C 
BRANCH  15  16
ATOM     16  C   UNL     1     -14.062  16.697   0.754  1.00  0.00     0.079 C 
BRANCH  16  17
ATOM     17  C   UNL     1     -15.513  17.101   0.777  1.00  0.00     0.130 C 
ATOM     18  O   UNL     1     -15.816  18.283   0.712  1.00  0.00    -0.300 OA
ATOM     19  C   UNL     1     -16.592  16.061   0.842  1.00  0.00     0.087 C 
ENDBRANCH  16  17
ENDBRANCH  15  16
ENDBRANCH  13  15
ENDBRANCH  11  12
ENDBRANCH   1  11
TORSDOF 9
ENDMDL
MODEL 3
REMARK VINA RESULT:    -6.212      1.231      3.131
REMARK INTER + INTRA:         -11.095
REMARK INTER:                  -9.421
REMARK INTRA:                  -1.675
REMARK UNBOUND:                -1.615
REMARK SMILES CC(=O)CCC=C(C)CCC=C(C)CCC=C(C)C
REMARK SMILES IDX 10 1 11 2 12 3 13 4 14 5 15 6 16 7 18 8 17 9 19 10 9 11 7 12
REMARK SMILES IDX 6 13 8 14 5 15 4 16 2 17 3 18 1 19
REMARK H PARENT
REMARK Flexibility Score: inf
ROOT
ATOM      1  C   UNL     1     -14.431  14.496   3.649  1.00  0.00     0.032 C 
ENDROOT
BRANCH   1   2
ATOM      2  C   UNL     1     -15.439  15.117   2.713  1.00  0.00    -0.028 C 
ATOM      3  C   UNL     1     -15.133  15.840   1.611  1.00  0.00    -0.077 C 
ATOM      4  C   UNL     1     -16.263  16.457   0.828  1.00  0.00     0.039 C 
BRANCH   3   5
ATOM      5  C   UNL     1     -13.711  16.026   1.114  1.00  0.00     0.034 C 
BRANCH   5   6
ATOM      6  C   UNL     1     -13.399  15.126  -0.090  1.00  0.00     0.032 C 
BRANCH   6   7
ATOM      7  C   UNL     1     -13.355  13.669   0.312  1.00  0.00    -0.028 C 
ATOM      8  C   UNL     1     -15.572  13.128  -0.723  1.00  0.00     0.039 C 
ATOM      9  C   UNL     1     -14.306  12.758   0.013  1.00  0.00    -0.080 C 
ATOM     10  C   UNL     1     -14.084  11.326   0.430  1.00  0.00     0.039 C 
ENDBRANCH   6   7
ENDBRANCH   5   6
ENDBRANCH   3   5
ENDBRANCH   1   2
BRANCH   1  11
ATOM     11  C   UNL     1     -14.419  12.965   3.530  1.00  0.00     0.034 C 
BRANCH  11  12
ATOM     12  C   UNL     1     -13.433  12.332   4.491  1.00  0.00    -0.077 C 
ATOM     13  C   UNL     1     -13.465  10.996   4.686  1.00  0.00    -0.028 C 
ATOM     14  C   UNL     1     -12.435  13.210   5.211  1.00  0.00     0.039 C 
BRANCH  13  15
ATOM     15  C   UNL     1     -12.529  10.278   5.631  1.00  0.00     0.035 C 
BRANCH  15  16
ATOM     16  C   UNL     1     -13.222   9.876   6.940  1.00  0.00     0.079 C 
BRANCH  16  17
ATOM     17  C   UNL     1     -12.857  10.794   8.077  1.00  0.00     0.130 C 
ATOM     18  O   UNL     1     -11.682  10.969   8.365  1.00  0.00    -0.300 OA
ATOM     19  C   UNL     1     -13.923  11.526   8.836  1.00  0.00     0.087 C 
ENDBRANCH  16  17
ENDBRANCH  15  16
ENDBRANCH  13  15
ENDBRANCH  11  12
ENDBRANCH   1  11
TORSDOF 9
ENDMDL
MODEL 4
REMARK VINA RESULT:    -6.122      1.400      2.259
REMARK INTER + INTRA:         -10.958
REMARK INTER:                  -9.931
REMARK INTRA:                  -1.027
REMARK UNBOUND:                -1.615
REMARK SMILES CC(=O)CCC=C(C)CCC=C(C)CCC=C(C)C
REMARK SMILES IDX 10 1 11 2 12 3 13 4 14 5 15 6 16 7 18 8 17 9 19 10 9 11 7 12
REMARK SMILES IDX 6 13 8 14 5 15 4 16 2 17 3 18 1 19
REMARK H PARENT
REMARK Flexibility Score: inf
ROOT
ATOM      1  C   UNL     1     -13.783  12.940   4.366  1.00  0.00     0.032 C 
ENDROOT
BRANCH   1   2
ATOM      2  C   UNL     1     -13.997  11.938   3.257  1.00  0.00    -0.028 C 
ATOM      3  C   UNL     1     -13.797  12.181   1.941  1.00  0.00    -0.077 C 
ATOM      4  C   UNL     1     -14.135  11.091   0.957  1.00  0.00     0.039 C 
BRANCH   3   5
ATOM      5  C   UNL     1     -13.217  13.484   1.421  1.00  0.00     0.034 C 
BRANCH   5   6
ATOM      6  C   UNL     1     -13.975  14.000   0.190  1.00  0.00     0.032 C 
BRANCH   6   7
ATOM      7  C   UNL     1     -15.210  14.775   0.592  1.00  0.00    -0.028 C 
ATOM      8  C   UNL     1     -14.026  16.983   0.650  1.00  0.00     0.039 C 
ATOM      9  C   UNL     1     -15.254  16.113   0.776  1.00  0.00    -0.080 C 
ATOM     10  C   UNL     1     -16.579  16.747   1.113  1.00  0.00     0.039 C 
ENDBRANCH   6   7
ENDBRANCH   5   6
ENDBRANCH   3   5
ENDBRANCH   1   2
BRANCH   1  11
ATOM     11  C   UNL     1     -12.512  12.630   5.169  1.00  0.00     0.034 C 
BRANCH  11  12
ATOM     12  C   UNL     1     -12.772  11.623   6.271  1.00  0.00    -0.077 C 
ATOM     13  C   UNL     1     -13.245  12.053   7.460  1.00  0.00    -0.028 C 
ATOM     14  C   UNL     1     -12.496  10.160   6.015  1.00  0.00     0.039 C 
BRANCH  13  15
ATOM     15  C   UNL     1     -13.526  11.126   8.620  1.00  0.00     0.035 C 
BRANCH  15  16
ATOM     16  C   UNL     1     -14.666  11.638   9.510  1.00  0.00     0.079 C 
BRANCH  16  17
ATOM     17  C   UNL     1     -15.978  10.974   9.185  1.00  0.00     0.130 C 
ATOM     18  O   UNL     1     -16.893  11.006   9.995  1.00  0.00    -0.300 OA
ATOM     19  C   UNL     1     -16.185  10.303   7.860  1.00  0.00     0.087 C 
ENDBRANCH  16  17
ENDBRANCH  15  16
ENDBRANCH  13  15
ENDBRANCH  11  12
ENDBRANCH   1  11
TORSDOF 9
ENDMDL
MODEL 5
REMARK VINA RESULT:    -5.942      2.264      7.814
REMARK INTER + INTRA:         -10.684
REMARK INTER:                  -9.884
REMARK INTRA:                  -0.800
REMARK UNBOUND:                -1.615
REMARK SMILES CC(=O)CCC=C(C)CCC=C(C)CCC=C(C)C
REMARK SMILES IDX 10 1 11 2 12 3 13 4 14 5 15 6 16 7 18 8 17 9 19 10 9 11 7 12
REMARK SMILES IDX 6 13 8 14 5 15 4 16 2 17 3 18 1 19
REMARK H PARENT
REMARK Flexibility Score: inf
ROOT
ATOM      1  C   UNL     1     -13.103  12.660   5.418  1.00  0.00     0.032 C 
ENDROOT
BRANCH   1   2
ATOM      2  C   UNL     1     -12.244  11.769   6.283  1.00  0.00    -0.028 C 
ATOM      3  C   UNL     1     -12.528  11.417   7.558  1.00  0.00    -0.077 C 
ATOM      4  C   UNL     1     -11.522  10.581   8.306  1.00  0.00     0.039 C 
BRANCH   3   5
ATOM      5  C   UNL     1     -13.824  11.796   8.251  1.00  0.00     0.034 C 
BRANCH   5   6
ATOM      6  C   UNL     1     -14.286  10.717   9.240  1.00  0.00     0.032 C 
BRANCH   6   7
ATOM      7  C   UNL     1     -15.646  11.046   9.813  1.00  0.00    -0.028 C 
ATOM      8  C   UNL     1     -16.900   9.879   7.984  1.00  0.00     0.039 C 
ATOM      9  C   UNL     1     -16.824  10.655   9.277  1.00  0.00    -0.080 C 
ATOM     10  C   UNL     1     -18.095  11.008  10.005  1.00  0.00     0.039 C 
ENDBRANCH   6   7
ENDBRANCH   5   6
ENDBRANCH   3   5
ENDBRANCH   1   2
BRANCH   1  11
ATOM     11  C   UNL     1     -14.030  11.842   4.510  1.00  0.00     0.034 C 
BRANCH  11  12
ATOM     12  C   UNL     1     -14.024  12.358   3.085  1.00  0.00    -0.077 C 
ATOM     13  C   UNL     1     -14.411  13.629   2.841  1.00  0.00    -0.028 C 
ATOM     14  C   UNL     1     -13.585  11.441   1.968  1.00  0.00     0.039 C 
BRANCH  13  15
ATOM     15  C   UNL     1     -14.447  14.229   1.454  1.00  0.00     0.035 C 
BRANCH  15  16
ATOM     16  C   UNL     1     -14.325  15.758   1.480  1.00  0.00     0.079 C 
BRANCH  16  17
ATOM     17  C   UNL     1     -15.604  16.433   1.060  1.00  0.00     0.130 C 
ATOM     18  O   UNL     1     -16.677  15.883   1.260  1.00  0.00    -0.300 OA
ATOM     19  C   UNL     1     -15.575  17.794   0.429  1.00  0.00     0.087 C 
ENDBRANCH  16  17
ENDBRANCH  15  16
ENDBRANCH  13  15
ENDBRANCH  11  12
ENDBRANCH   1  11
TORSDOF 9
ENDMDL
MODEL 6
REMARK VINA RESULT:    -5.732      2.323      7.521
REMARK INTER + INTRA:         -10.363
REMARK INTER:                  -9.506
REMARK INTRA:                  -0.857
REMARK UNBOUND:                -1.615
REMARK SMILES CC(=O)CCC=C(C)CCC=C(C)CCC=C(C)C
REMARK SMILES IDX 10 1 11 2 12 3 13 4 14 5 15 6 16 7 18 8 17 9 19 10 9 11 7 12
REMARK SMILES IDX 6 13 8 14 5 15 4 16 2 17 3 18 1 19
REMARK H PARENT
REMARK Flexibility Score: inf
ROOT
ATOM      1  C   UNL     1     -14.162  10.910   3.296  1.00  0.00     0.032 C 
ENDROOT
BRANCH   1   2
ATOM      2  C   UNL     1     -13.216  10.377   4.346  1.00  0.00    -0.028 C 
ATOM      3  C   UNL     1     -13.099  10.862   5.603  1.00  0.00    -0.077 C 
ATOM      4  C   UNL     1     -12.048  10.262   6.502  1.00  0.00     0.039 C 
BRANCH   3   5
ATOM      5  C   UNL     1     -13.998  11.953   6.155  1.00  0.00     0.034 C 
BRANCH   5   6
ATOM      6  C   UNL     1     -14.409  11.680   7.609  1.00  0.00     0.032 C 
BRANCH   6   7
ATOM      7  C   UNL     1     -15.768  11.020   7.679  1.00  0.00    -0.028 C 
ATOM      8  C   UNL     1     -15.592  10.505  10.125  1.00  0.00     0.039 C 
ATOM      9  C   UNL     1     -16.322  10.514   8.803  1.00  0.00    -0.080 C 
ATOM     10  C   UNL     1     -17.715   9.946   8.722  1.00  0.00     0.039 C 
ENDBRANCH   6   7
ENDBRANCH   5   6
ENDBRANCH   3   5
ENDBRANCH   1   2
BRANCH   1  11
ATOM     11  C   UNL     1     -13.619  10.679   1.879  1.00  0.00     0.034 C 
BRANCH  11  12
ATOM     12  C   UNL     1     -14.038  11.783   0.928  1.00  0.00    -0.077 C 
ATOM     13  C   UNL     1     -13.936  13.070   1.324  1.00  0.00    -0.028 C 
ATOM     14  C   UNL     1     -14.561  11.419  -0.442  1.00  0.00     0.039 C 
BRANCH  13  15
ATOM     15  C   UNL     1     -14.337  14.236   0.449  1.00  0.00     0.035 C 
BRANCH  15  16
ATOM     16  C   UNL     1     -15.185  15.265   1.208  1.00  0.00     0.079 C 
BRANCH  16  17
ATOM     17  C   UNL     1     -14.825  16.679   0.834  1.00  0.00     0.130 C 
ATOM     18  O   UNL     1     -13.673  16.953   0.531  1.00  0.00    -0.300 OA
ATOM     19  C   UNL     1     -15.877  17.747   0.795  1.00  0.00     0.087 C 
ENDBRANCH  16  17
ENDBRANCH  15  16
ENDBRANCH  13  15
ENDBRANCH  11  12
ENDBRANCH   1  11
TORSDOF 9
ENDMDL
MODEL 7
REMARK VINA RESULT:    -5.126      2.315      7.261
REMARK INTER + INTRA:          -9.439
REMARK INTER:                  -8.722
REMARK INTRA:                  -0.717
REMARK UNBOUND:                -1.615
REMARK SMILES CC(=O)CCC=C(C)CCC=C(C)CCC=C(C)C
REMARK SMILES IDX 10 1 11 2 12 3 13 4 14 5 15 6 16 7 18 8 17 9 19 10 9 11 7 12
REMARK SMILES IDX 6 13 8 14 5 15 4 16 2 17 3 18 1 19
REMARK H PARENT
REMARK Flexibility Score: inf
ROOT
ATOM      1  C   UNL     1     -14.036  11.079   1.045  1.00  0.00     0.032 C 
ENDROOT
BRANCH   1   2
ATOM      2  C   UNL     1     -13.924  12.215   2.032  1.00  0.00    -0.028 C 
ATOM      3  C   UNL     1     -13.392  12.117   3.272  1.00  0.00    -0.077 C 
ATOM      4  C   UNL     1     -13.429  13.333   4.161  1.00  0.00     0.039 C 
BRANCH   3   5
ATOM      5  C   UNL     1     -12.732  10.851   3.790  1.00  0.00     0.034 C 
BRANCH   5   6
ATOM      6  C   UNL     1     -13.442  10.299   5.033  1.00  0.00     0.032 C 
BRANCH   6   7
ATOM      7  C   UNL     1     -12.487  10.174   6.199  1.00  0.00    -0.028 C 
ATOM      8  C   UNL     1     -13.523  12.060   7.484  1.00  0.00     0.039 C 
ATOM      9  C   UNL     1     -12.528  10.937   7.314  1.00  0.00    -0.080 C 
ATOM     10  C   UNL     1     -11.545  10.644   8.419  1.00  0.00     0.039 C 
ENDBRANCH   6   7
ENDBRANCH   5   6
ENDBRANCH   3   5
ENDBRANCH   1   2
BRANCH   1  11
ATOM     11  C   UNL     1     -14.436  11.580  -0.350  1.00  0.00     0.034 C 
BRANCH  11  12
ATOM     12  C   UNL     1     -14.718  13.069  -0.354  1.00  0.00    -0.077 C 
ATOM     13  C   UNL     1     -15.942  13.510   0.007  1.00  0.00    -0.028 C 
ATOM     14  C   UNL     1     -13.624  14.028  -0.763  1.00  0.00     0.039 C 
BRANCH  13  15
ATOM     15  C   UNL     1     -16.320  14.974   0.025  1.00  0.00     0.035 C 
BRANCH  15  16
ATOM     16  C   UNL     1     -15.792  15.694   1.272  1.00  0.00     0.079 C 
BRANCH  16  17
ATOM     17  C   UNL     1     -15.068  16.968   0.925  1.00  0.00     0.130 C 
ATOM     18  O   UNL     1     -13.845  16.993   0.930  1.00  0.00    -0.300 OA
ATOM     19  C   UNL     1     -15.833  18.198   0.536  1.00  0.00     0.087 C 
ENDBRANCH  16  17
ENDBRANCH  15  16
ENDBRANCH  13  15
ENDBRANCH  11  12
ENDBRANCH   1  11
TORSDOF 9
ENDMDL
MODEL 8
REMARK VINA RESULT:    -4.608      2.342      7.356
REMARK INTER + INTRA:          -8.648
REMARK INTER:                  -8.244
REMARK INTRA:                  -0.403
REMARK UNBOUND:                -1.615
REMARK SMILES CC(=O)CCC=C(C)CCC=C(C)CCC=C(C)C
REMARK SMILES IDX 10 1 11 2 12 3 13 4 14 5 15 6 16 7 18 8 17 9 19 10 9 11 7 12
REMARK SMILES IDX 6 13 8 14 5 15 4 16 2 17 3 18 1 19
REMARK H PARENT
REMARK Flexibility Score: inf
ROOT
ATOM      1  C   UNL     1     -12.973  11.386   3.088  1.00  0.00     0.032 C 
ENDROOT
BRANCH   1   2
ATOM      2  C   UNL     1     -13.612  10.490   4.122  1.00  0.00    -0.028 C 
ATOM      3  C   UNL     1     -14.169  10.914   5.279  1.00  0.00    -0.077 C 
ATOM      4  C   UNL     1     -14.695   9.877   6.238  1.00  0.00     0.039 C 
BRANCH   3   5
ATOM      5  C   UNL     1     -14.316  12.383   5.636  1.00  0.00     0.034 C 
BRANCH   5   6
ATOM      6  C   UNL     1     -13.198  12.864   6.570  1.00  0.00     0.032 C 
BRANCH   6   7
ATOM      7  C   UNL     1     -12.324  11.714   7.016  1.00  0.00    -0.028 C 
ATOM      8  C   UNL     1     -13.434  11.500   9.253  1.00  0.00     0.039 C 
ATOM      9  C   UNL     1     -12.435  11.076   8.202  1.00  0.00    -0.080 C 
ATOM     10  C   UNL     1     -11.529   9.902   8.473  1.00  0.00     0.039 C 
ENDBRANCH   6   7
ENDBRANCH   5   6
ENDBRANCH   3   5
ENDBRANCH   1   2
BRANCH   1  11
ATOM     11  C   UNL     1     -13.221  10.870   1.664  1.00  0.00     0.034 C 
BRANCH  11  12
ATOM     12  C   UNL     1     -13.963  11.884   0.817  1.00  0.00    -0.077 C 
ATOM     13  C   UNL     1     -13.986  13.178   1.205  1.00  0.00    -0.028 C 
ATOM     14  C   UNL     1     -14.662  11.427  -0.441  1.00  0.00     0.039 C 
BRANCH  13  15
ATOM     15  C   UNL     1     -14.707  14.258   0.432  1.00  0.00     0.035 C 
BRANCH  15  16
ATOM     16  C   UNL     1     -14.675  15.610   1.156  1.00  0.00     0.079 C 
BRANCH  16  17
ATOM     17  C   UNL     1     -15.883  16.451   0.836  1.00  0.00     0.130 C 
ATOM     18  O   UNL     1     -16.959  15.913   0.619  1.00  0.00    -0.300 OA
ATOM     19  C   UNL     1     -15.785  17.947   0.816  1.00  0.00     0.087 C 
ENDBRANCH  16  17
ENDBRANCH  15  16
ENDBRANCH  13  15
ENDBRANCH  11  12
ENDBRANCH   1  11
TORSDOF 9
ENDMDL
