MODEL 1
REMARK VINA RESULT:    -5.401      0.000      0.000
REMARK INTER + INTRA:          -6.104
REMARK INTER:                  -5.874
REMARK INTRA:                  -0.230
REMARK UNBOUND:                -0.230
REMARK SMILES C[C@H]1[C@H](C)CC[C@]2(C(=O)[O-])CC[C@@]3(C)C(=CC[C@@H]4[C@@]5(C)CC[C@@H](O)C(C)(C)[C@H]5CC[C@@]43C)[C@H]12
REMARK SMILES IDX 7 1 6 2 11 3 33 4 5 5 12 6 15 7 2 8 3 9 13 10 16 11 1 12
REMARK SMILES IDX 4 13 14 14 31 15 17 16 18 17 30 18 32 19 19 20 29 21 28 22
REMARK SMILES IDX 21 23 20 24 25 25 22 26 23 27 26 28 27 29 8 30 9 31 10 32
REMARK SMILES IDX 24 33
REMARK H PARENT 24 34
REMARK Flexibility Score: inf
ROOT
ATOM      1  C   UNL     1      59.126  44.914 128.630  1.00  0.00     0.017 C 
ATOM      2  C   UNL     1      59.923  46.156 129.150  1.00  0.00     0.014 C 
ATOM      3  C   UNL     1      60.121  43.730 128.542  1.00  0.00     0.014 C 
ATOM      4  C   UNL     1      58.511  45.160 127.200  1.00  0.00     0.030 C 
ATOM      5  C   UNL     1      59.447  47.457 128.513  1.00  0.00     0.004 C 
ATOM      6  C   UNL     1      59.468  42.396 128.194  1.00  0.00     0.013 C 
ATOM      7  C   UNL     1      58.061  43.848 126.517  1.00  0.00    -0.063 C 
ATOM      8  C   UNL     1      59.499  46.042 126.337  1.00  0.00    -0.003 C 
ATOM      9  C   UNL     1      59.715  47.452 126.992  1.00  0.00    -0.011 C 
ATOM     10  C   UNL     1      58.350  42.435 127.078  1.00  0.00    -0.006 C 
ATOM     11  C   UNL     1      57.209  43.940 125.464  1.00  0.00    -0.027 C 
ATOM     12  C   UNL     1      59.078  46.243 124.867  1.00  0.00     0.008 C 
ATOM     13  C   UNL     1      61.125  47.997 126.694  1.00  0.00     0.008 C 
ATOM     14  C   UNL     1      57.030  41.983 127.780  1.00  0.00     0.017 C 
ATOM     15  C   UNL     1      58.734  41.480 125.853  1.00  0.00    -0.020 C 
ATOM     16  C   UNL     1      57.111  42.898 124.374  1.00  0.00     0.032 C 
ATOM     17  C   UNL     1      57.593  41.463 124.748  1.00  0.00     0.006 C 
ATOM     18  C   UNL     1      59.102  40.026 126.312  1.00  0.00     0.008 C 
ATOM     19  C   UNL     1      60.031  42.056 125.174  1.00  0.00     0.012 C 
ATOM     20  C   UNL     1      56.455  40.311 124.752  1.00  0.00    -0.025 C 
ATOM     21  C   UNL     1      58.513  38.920 125.430  1.00  0.00     0.005 C 
ATOM     22  C   UNL     1      56.967  38.986 125.479  1.00  0.00     0.003 C 
ATOM     23  C   UNL     1      56.131  40.013 123.238  1.00  0.00     0.010 C 
ATOM     24  C   UNL     1      55.126  40.795 125.431  1.00  0.00     0.012 C 
ATOM     25  C   UNL     1      56.230  37.628 125.078  1.00  0.00    -0.006 C 
ATOM     26  C   UNL     1      55.322  38.744 122.970  1.00  0.00     0.033 C 
ATOM     27  C   UNL     1      56.023  37.513 123.541  1.00  0.00     0.120 C 
ATOM     28  C   UNL     1      57.003  36.367 125.561  1.00  0.00     0.014 C 
ATOM     29  C   UNL     1      54.852  37.531 125.798  1.00  0.00     0.014 C 
ENDROOT
BRANCH   1  30
ATOM     30  C   UNL     1      58.034  44.629 129.655  1.00  0.00     0.048 C 
ATOM     31  O   UNL     1      58.333  44.177 130.793  1.00  0.00    -0.550 OA
ATOM     32  O   UNL     1      56.706  44.955 129.396  1.00  0.00    -0.550 OA
ENDBRANCH   1  30
BRANCH  27  33
ATOM     33  O   UNL     1      57.259  37.352 122.882  1.00  0.00    -0.393 OA
ATOM     34  H   UNL     1      57.542  38.244 122.550  1.00  0.00     0.210 HD
ENDBRANCH  27  33
TORSDOF 2
ENDMDL
MODEL 2
REMARK VINA RESULT:    -4.970     11.698     14.059
REMARK INTER + INTRA:          -5.636
REMARK INTER:                  -5.476
REMARK INTRA:                  -0.160
REMARK UNBOUND:                -0.230
REMARK SMILES C[C@H]1[C@H](C)CC[C@]2(C(=O)[O-])CC[C@@]3(C)C(=CC[C@@H]4[C@@]5(C)CC[C@@H](O)C(C)(C)[C@H]5CC[C@@]43C)[C@H]12
REMARK SMILES IDX 7 1 6 2 11 3 33 4 5 5 12 6 15 7 2 8 3 9 13 10 16 11 1 12
REMARK SMILES IDX 4 13 14 14 31 15 17 16 18 17 30 18 32 19 19 20 29 21 28 22
REMARK SMILES IDX 21 23 20 24 25 25 22 26 23 27 26 28 27 29 8 30 9 31 10 32
REMARK SMILES IDX 24 33
REMARK H PARENT 24 34
REMARK Flexibility Score: inf
ROOT
ATOM      1  C   UNL     1      50.543  37.026 136.844  1.00  0.00     0.017 C 
ATOM      2  C   UNL     1      51.846  36.345 137.381  1.00  0.00     0.014 C 
ATOM      3  C   UNL     1      50.057  36.199 135.629  1.00  0.00     0.014 C 
ATOM      4  C   UNL     1      50.801  38.508 136.370  1.00  0.00     0.030 C 
ATOM      5  C   UNL     1      52.861  37.361 137.893  1.00  0.00     0.004 C 
ATOM      6  C   UNL     1      48.705  36.642 135.077  1.00  0.00     0.013 C 
ATOM      7  C   UNL     1      49.648  39.057 135.499  1.00  0.00    -0.063 C 
ATOM      8  C   UNL     1      52.232  38.617 135.709  1.00  0.00    -0.003 C 
ATOM      9  C   UNL     1      53.359  38.265 136.743  1.00  0.00    -0.011 C 
ATOM     10  C   UNL     1      48.466  38.201 134.983  1.00  0.00    -0.006 C 
ATOM     11  C   UNL     1      49.569  40.401 135.325  1.00  0.00    -0.027 C 
ATOM     12  C   UNL     1      52.556  39.988 135.080  1.00  0.00     0.008 C 
ATOM     13  C   UNL     1      54.576  37.624 136.047  1.00  0.00     0.008 C 
ATOM     14  C   UNL     1      47.274  38.510 135.942  1.00  0.00     0.017 C 
ATOM     15  C   UNL     1      48.153  38.639 133.476  1.00  0.00    -0.020 C 
ATOM     16  C   UNL     1      48.914  41.053 134.129  1.00  0.00     0.032 C 
ATOM     17  C   UNL     1      47.854  40.195 133.373  1.00  0.00     0.006 C 
ATOM     18  C   UNL     1      47.000  37.795 132.828  1.00  0.00     0.008 C 
ATOM     19  C   UNL     1      49.433  38.352 132.608  1.00  0.00     0.012 C 
ATOM     20  C   UNL     1      46.333  40.751 133.414  1.00  0.00    -0.025 C 
ATOM     21  C   UNL     1      46.002  38.619 132.008  1.00  0.00     0.005 C 
ATOM     22  C   UNL     1      45.293  39.641 132.929  1.00  0.00     0.003 C 
ATOM     23  C   UNL     1      46.296  41.995 132.445  1.00  0.00     0.010 C 
ATOM     24  C   UNL     1      45.926  41.254 134.843  1.00  0.00     0.012 C 
ATOM     25  C   UNL     1      43.894  40.176 132.377  1.00  0.00    -0.006 C 
ATOM     26  C   UNL     1      44.903  42.499 132.067  1.00  0.00     0.033 C 
ATOM     27  C   UNL     1      44.073  41.390 131.423  1.00  0.00     0.120 C 
ATOM     28  C   UNL     1      43.094  39.075 131.620  1.00  0.00     0.014 C 
ATOM     29  C   UNL     1      42.966  40.576 133.562  1.00  0.00     0.014 C 
ENDROOT
BRANCH   1  30
ATOM     30  C   UNL     1      49.522  36.982 137.975  1.00  0.00     0.048 C 
ATOM     31  O   UNL     1      49.105  35.875 138.410  1.00  0.00    -0.550 OA
ATOM     32  O   UNL     1      49.111  38.147 138.614  1.00  0.00    -0.550 OA
ENDBRANCH   1  30
BRANCH  27  33
ATOM     33  O   UNL     1      44.700  40.995 130.224  1.00  0.00    -0.393 OA
ATOM     34  H   UNL     1      45.298  41.735 129.939  1.00  0.00     0.210 HD
ENDBRANCH  27  33
TORSDOF 2
ENDMDL
MODEL 3
REMARK VINA RESULT:    -4.860      2.557      4.482
REMARK INTER + INTRA:          -5.516
REMARK INTER:                  -5.347
REMARK INTRA:                  -0.169
REMARK UNBOUND:                -0.230
REMARK SMILES C[C@H]1[C@H](C)CC[C@]2(C(=O)[O-])CC[C@@]3(C)C(=CC[C@@H]4[C@@]5(C)CC[C@@H](O)C(C)(C)[C@H]5CC[C@@]43C)[C@H]12
REMARK SMILES IDX 7 1 6 2 11 3 33 4 5 5 12 6 15 7 2 8 3 9 13 10 16 11 1 12
REMARK SMILES IDX 4 13 14 14 31 15 17 16 18 17 30 18 32 19 19 20 29 21 28 22
REMARK SMILES IDX 21 23 20 24 25 25 22 26 23 27 26 28 27 29 8 30 9 31 10 32
REMARK SMILES IDX 24 33
REMARK H PARENT 24 34
REMARK Flexibility Score: inf
ROOT
ATOM      1  C   UNL     1      59.604  41.771 125.012  1.00  0.00     0.017 C 
ATOM      2  C   UNL     1      60.793  42.775 124.841  1.00  0.00     0.014 C 
ATOM      3  C   UNL     1      59.141  41.356 123.593  1.00  0.00     0.014 C 
ATOM      4  C   UNL     1      58.382  42.422 125.767  1.00  0.00     0.030 C 
ATOM      5  C   UNL     1      60.784  43.868 125.904  1.00  0.00     0.004 C 
ATOM      6  C   UNL     1      58.082  40.258 123.582  1.00  0.00     0.013 C 
ATOM      7  C   UNL     1      57.084  41.597 125.610  1.00  0.00    -0.063 C 
ATOM      8  C   UNL     1      58.247  43.942 125.355  1.00  0.00    -0.003 C 
ATOM      9  C   UNL     1      59.525  44.753 125.768  1.00  0.00    -0.011 C 
ATOM     10  C   UNL     1      56.939  40.378 124.666  1.00  0.00    -0.006 C 
ATOM     11  C   UNL     1      56.069  41.839 126.477  1.00  0.00    -0.027 C 
ATOM     12  C   UNL     1      57.006  44.662 125.921  1.00  0.00     0.008 C 
ATOM     13  C   UNL     1      59.791  45.914 124.789  1.00  0.00     0.008 C 
ATOM     14  C   UNL     1      57.083  39.121 125.580  1.00  0.00     0.017 C 
ATOM     15  C   UNL     1      55.501  40.454 123.971  1.00  0.00    -0.020 C 
ATOM     16  C   UNL     1      54.615  41.574 126.160  1.00  0.00     0.032 C 
ATOM     17  C   UNL     1      54.336  40.518 125.048  1.00  0.00     0.006 C 
ATOM     18  C   UNL     1      55.263  39.290 122.946  1.00  0.00     0.008 C 
ATOM     19  C   UNL     1      55.432  41.783 123.132  1.00  0.00     0.012 C 
ATOM     20  C   UNL     1      53.577  39.169 125.527  1.00  0.00    -0.025 C 
ATOM     21  C   UNL     1      53.867  38.662 123.020  1.00  0.00     0.005 C 
ATOM     22  C   UNL     1      53.658  38.027 124.415  1.00  0.00     0.003 C 
ATOM     23  C   UNL     1      52.075  39.580 125.780  1.00  0.00     0.010 C 
ATOM     24  C   UNL     1      54.148  38.618 126.880  1.00  0.00     0.012 C 
ATOM     25  C   UNL     1      52.526  36.902 124.472  1.00  0.00    -0.006 C 
ATOM     26  C   UNL     1      51.088  38.423 125.932  1.00  0.00     0.033 C 
ATOM     27  C   UNL     1      51.115  37.512 124.707  1.00  0.00     0.120 C 
ATOM     28  C   UNL     1      52.476  36.044 123.175  1.00  0.00     0.014 C 
ATOM     29  C   UNL     1      52.844  35.875 125.599  1.00  0.00     0.014 C 
ENDROOT
BRANCH   1  30
ATOM     30  C   UNL     1      60.146  40.570 125.779  1.00  0.00     0.048 C 
ATOM     31  O   UNL     1      59.854  40.409 126.994  1.00  0.00    -0.550 OA
ATOM     32  O   UNL     1      60.880  39.580 125.133  1.00  0.00    -0.550 OA
ENDBRANCH   1  30
BRANCH  27  33
ATOM     33  O   UNL     1      50.699  38.254 123.583  1.00  0.00    -0.393 OA
ATOM     34  H   UNL     1      50.595  37.621 122.825  1.00  0.00     0.210 HD
ENDBRANCH  27  33
TORSDOF 2
ENDMDL
MODEL 4
REMARK VINA RESULT:    -4.842      1.684      2.165
REMARK INTER + INTRA:          -5.497
REMARK INTER:                  -5.249
REMARK INTRA:                  -0.248
REMARK UNBOUND:                -0.230
REMARK SMILES C[C@H]1[C@H](C)CC[C@]2(C(=O)[O-])CC[C@@]3(C)C(=CC[C@@H]4[C@@]5(C)CC[C@@H](O)C(C)(C)[C@H]5CC[C@@]43C)[C@H]12
REMARK SMILES IDX 7 1 6 2 11 3 33 4 5 5 12 6 15 7 2 8 3 9 13 10 16 11 1 12
REMARK SMILES IDX 4 13 14 14 31 15 17 16 18 17 30 18 32 19 19 20 29 21 28 22
REMARK SMILES IDX 21 23 20 24 25 25 22 26 23 27 26 28 27 29 8 30 9 31 10 32
REMARK SMILES IDX 24 33
REMARK H PARENT 24 34
REMARK Flexibility Score: inf
ROOT
ATOM      1  C   UNL     1      57.519  45.576 126.905  1.00  0.00     0.017 C 
ATOM      2  C   UNL     1      58.262  46.914 127.235  1.00  0.00     0.014 C 
ATOM      3  C   UNL     1      57.957  44.530 127.959  1.00  0.00     0.014 C 
ATOM      4  C   UNL     1      57.890  45.031 125.473  1.00  0.00     0.030 C 
ATOM      5  C   UNL     1      58.656  47.683 125.980  1.00  0.00     0.004 C 
ATOM      6  C   UNL     1      57.204  43.207 127.870  1.00  0.00     0.013 C 
ATOM      7  C   UNL     1      57.481  43.552 125.281  1.00  0.00    -0.063 C 
ATOM      8  C   UNL     1      59.408  45.337 125.160  1.00  0.00    -0.003 C 
ATOM      9  C   UNL     1      59.680  46.882 125.146  1.00  0.00    -0.011 C 
ATOM     10  C   UNL     1      56.946  42.646 126.416  1.00  0.00    -0.006 C 
ATOM     11  C   UNL     1      57.415  43.071 124.014  1.00  0.00    -0.027 C 
ATOM     12  C   UNL     1      59.937  44.734 123.842  1.00  0.00     0.008 C 
ATOM     13  C   UNL     1      61.115  47.202 125.610  1.00  0.00     0.008 C 
ATOM     14  C   UNL     1      55.396  42.619 126.237  1.00  0.00     0.017 C 
ATOM     15  C   UNL     1      57.595  41.193 126.243  1.00  0.00    -0.020 C 
ATOM     16  C   UNL     1      57.587  41.611 123.662  1.00  0.00     0.032 C 
ATOM     17  C   UNL     1      57.296  40.590 124.804  1.00  0.00     0.006 C 
ATOM     18  C   UNL     1      57.163  40.199 127.377  1.00  0.00     0.008 C 
ATOM     19  C   UNL     1      59.157  41.338 126.371  1.00  0.00     0.012 C 
ATOM     20  C   UNL     1      56.035  39.602 124.567  1.00  0.00    -0.025 C 
ATOM     21  C   UNL     1      56.821  38.790 126.881  1.00  0.00     0.005 C 
ATOM     22  C   UNL     1      55.613  38.860 125.915  1.00  0.00     0.003 C 
ATOM     23  C   UNL     1      56.501  38.551 123.488  1.00  0.00     0.010 C 
ATOM     24  C   UNL     1      54.793  40.359 123.981  1.00  0.00     0.012 C 
ATOM     25  C   UNL     1      54.815  37.487 125.748  1.00  0.00    -0.006 C 
ATOM     26  C   UNL     1      55.604  37.324 123.326  1.00  0.00     0.033 C 
ATOM     27  C   UNL     1      55.444  36.581 124.652  1.00  0.00     0.120 C 
ATOM     28  C   UNL     1      54.749  36.673 127.073  1.00  0.00     0.014 C 
ATOM     29  C   UNL     1      53.324  37.771 125.398  1.00  0.00     0.014 C 
ENDROOT
BRANCH   1  30
ATOM     30  C   UNL     1      56.025  45.863 127.013  1.00  0.00     0.048 C 
ATOM     31  O   UNL     1      55.486  46.001 128.143  1.00  0.00    -0.550 OA
ATOM     32  O   UNL     1      55.254  46.077 125.875  1.00  0.00    -0.550 OA
ENDBRANCH   1  30
BRANCH  27  33
ATOM     33  O   UNL     1      56.707  36.109 125.059  1.00  0.00    -0.393 OA
ATOM     34  H   UNL     1      56.863  36.427 125.987  1.00  0.00     0.210 HD
ENDBRANCH  27  33
TORSDOF 2
ENDMDL
MODEL 5
REMARK VINA RESULT:    -4.759      2.390      8.034
REMARK INTER + INTRA:          -5.407
REMARK INTER:                  -5.169
REMARK INTRA:                  -0.238
REMARK UNBOUND:                -0.230
REMARK SMILES C[C@H]1[C@H](C)CC[C@]2(C(=O)[O-])CC[C@@]3(C)C(=CC[C@@H]4[C@@]5(C)CC[C@@H](O)C(C)(C)[C@H]5CC[C@@]43C)[C@H]12
REMARK SMILES IDX 7 1 6 2 11 3 33 4 5 5 12 6 15 7 2 8 3 9 13 10 16 11 1 12
REMARK SMILES IDX 4 13 14 14 31 15 17 16 18 17 30 18 32 19 19 20 29 21 28 22
REMARK SMILES IDX 21 23 20 24 25 25 22 26 23 27 26 28 27 29 8 30 9 31 10 32
REMARK SMILES IDX 24 33
REMARK H PARENT 24 34
REMARK Flexibility Score: inf
ROOT
ATOM      1  C   UNL     1      53.830  37.414 126.090  1.00  0.00     0.017 C 
ATOM      2  C   UNL     1      52.570  36.504 126.277  1.00  0.00     0.014 C 
ATOM      3  C   UNL     1      53.758  38.528 127.163  1.00  0.00     0.014 C 
ATOM      4  C   UNL     1      53.867  38.090 124.667  1.00  0.00     0.030 C 
ATOM      5  C   UNL     1      52.024  35.991 124.948  1.00  0.00     0.004 C 
ATOM      6  C   UNL     1      54.996  39.418 127.217  1.00  0.00     0.013 C 
ATOM      7  C   UNL     1      54.869  39.266 124.598  1.00  0.00    -0.063 C 
ATOM      8  C   UNL     1      52.399  38.452 124.207  1.00  0.00    -0.003 C 
ATOM      9  C   UNL     1      51.515  37.161 124.078  1.00  0.00    -0.011 C 
ATOM     10  C   UNL     1      55.611  39.846 125.826  1.00  0.00    -0.006 C 
ATOM     11  C   UNL     1      55.258  39.698 123.372  1.00  0.00    -0.027 C 
ATOM     12  C   UNL     1      52.306  39.244 122.886  1.00  0.00     0.008 C 
ATOM     13  C   UNL     1      50.037  37.462 124.398  1.00  0.00     0.008 C 
ATOM     14  C   UNL     1      57.043  39.226 125.782  1.00  0.00     0.017 C 
ATOM     15  C   UNL     1      55.643  41.439 125.684  1.00  0.00    -0.020 C 
ATOM     16  C   UNL     1      55.742  41.103 123.094  1.00  0.00     0.032 C 
ATOM     17  C   UNL     1      56.310  41.888 124.314  1.00  0.00     0.006 C 
ATOM     18  C   UNL     1      56.328  42.142 126.907  1.00  0.00     0.008 C 
ATOM     19  C   UNL     1      54.157  41.958 125.669  1.00  0.00     0.012 C 
ATOM     20  C   UNL     1      57.884  42.263 124.245  1.00  0.00    -0.025 C 
ATOM     21  C   UNL     1      57.272  43.288 126.527  1.00  0.00     0.005 C 
ATOM     22  C   UNL     1      58.434  42.738 125.666  1.00  0.00     0.003 C 
ATOM     23  C   UNL     1      58.008  43.432 123.193  1.00  0.00     0.010 C 
ATOM     24  C   UNL     1      58.755  41.067 123.724  1.00  0.00     0.012 C 
ATOM     25  C   UNL     1      59.742  43.655 125.649  1.00  0.00    -0.006 C 
ATOM     26  C   UNL     1      59.344  44.175 123.182  1.00  0.00     0.033 C 
ATOM     27  C   UNL     1      59.660  44.759 124.558  1.00  0.00     0.120 C 
ATOM     28  C   UNL     1      60.003  44.342 127.021  1.00  0.00     0.014 C 
ATOM     29  C   UNL     1      61.009  42.780 125.412  1.00  0.00     0.014 C 
ENDROOT
BRANCH   1  30
ATOM     30  C   UNL     1      55.052  36.528 126.309  1.00  0.00     0.048 C 
ATOM     31  O   UNL     1      55.332  36.108 127.463  1.00  0.00    -0.550 OA
ATOM     32  O   UNL     1      55.816  36.085 125.234  1.00  0.00    -0.550 OA
ENDBRANCH   1  30
BRANCH  27  33
ATOM     33  O   UNL     1      58.671  45.709 124.883  1.00  0.00    -0.393 OA
ATOM     34  H   UNL     1      59.121  46.587 124.993  1.00  0.00     0.210 HD
ENDBRANCH  27  33
TORSDOF 2
ENDMDL
MODEL 6
REMARK VINA RESULT:    -4.659      3.278      8.393
REMARK INTER + INTRA:          -5.298
REMARK INTER:                  -5.144
REMARK INTRA:                  -0.154
REMARK UNBOUND:                -0.230
REMARK SMILES C[C@H]1[C@H](C)CC[C@]2(C(=O)[O-])CC[C@@]3(C)C(=CC[C@@H]4[C@@]5(C)CC[C@@H](O)C(C)(C)[C@H]5CC[C@@]43C)[C@H]12
REMARK SMILES IDX 7 1 6 2 11 3 33 4 5 5 12 6 15 7 2 8 3 9 13 10 16 11 1 12
REMARK SMILES IDX 4 13 14 14 31 15 17 16 18 17 30 18 32 19 19 20 29 21 28 22
REMARK SMILES IDX 21 23 20 24 25 25 22 26 23 27 26 28 27 29 8 30 9 31 10 32
REMARK SMILES IDX 24 33
REMARK H PARENT 24 34
REMARK Flexibility Score: inf
ROOT
ATOM      1  C   UNL     1      51.771  37.838 126.506  1.00  0.00     0.017 C 
ATOM      2  C   UNL     1      50.307  37.284 126.533  1.00  0.00     0.014 C 
ATOM      3  C   UNL     1      51.686  39.357 126.219  1.00  0.00     0.014 C 
ATOM      4  C   UNL     1      52.640  37.163 125.376  1.00  0.00     0.030 C 
ATOM      5  C   UNL     1      50.209  35.880 125.946  1.00  0.00     0.004 C 
ATOM      6  C   UNL     1      53.025  40.082 126.310  1.00  0.00     0.013 C 
ATOM      7  C   UNL     1      53.939  37.948 125.083  1.00  0.00    -0.063 C 
ATOM      8  C   UNL     1      51.742  36.883 124.106  1.00  0.00    -0.003 C 
ATOM      9  C   UNL     1      50.579  35.886 124.446  1.00  0.00    -0.011 C 
ATOM     10  C   UNL     1      54.268  39.337 125.682  1.00  0.00    -0.006 C 
ATOM     11  C   UNL     1      54.928  37.309 124.408  1.00  0.00    -0.027 C 
ATOM     12  C   UNL     1      52.503  36.347 122.876  1.00  0.00     0.008 C 
ATOM     13  C   UNL     1      49.330  36.170 123.589  1.00  0.00     0.008 C 
ATOM     14  C   UNL     1      55.246  39.062 126.867  1.00  0.00     0.017 C 
ATOM     15  C   UNL     1      54.946  40.226 124.538  1.00  0.00    -0.020 C 
ATOM     16  C   UNL     1      55.969  38.021 123.575  1.00  0.00     0.032 C 
ATOM     17  C   UNL     1      56.232  39.515 123.934  1.00  0.00     0.006 C 
ATOM     18  C   UNL     1      55.276  41.682 125.019  1.00  0.00     0.008 C 
ATOM     19  C   UNL     1      53.910  40.387 123.365  1.00  0.00     0.012 C 
ATOM     20  C   UNL     1      57.710  39.857 124.502  1.00  0.00    -0.025 C 
ATOM     21  C   UNL     1      56.644  42.201 124.564  1.00  0.00     0.005 C 
ATOM     22  C   UNL     1      57.760  41.310 125.161  1.00  0.00     0.003 C 
ATOM     23  C   UNL     1      58.681  39.787 123.261  1.00  0.00     0.010 C 
ATOM     24  C   UNL     1      58.202  38.796 125.546  1.00  0.00     0.012 C 
ATOM     25  C   UNL     1      59.196  42.004 125.237  1.00  0.00    -0.006 C 
ATOM     26  C   UNL     1      60.074  40.380 123.475  1.00  0.00     0.033 C 
ATOM     27  C   UNL     1      59.988  41.842 123.909  1.00  0.00     0.120 C 
ATOM     28  C   UNL     1      59.105  43.522 125.569  1.00  0.00     0.014 C 
ATOM     29  C   UNL     1      60.022  41.404 126.414  1.00  0.00     0.014 C 
ENDROOT
BRANCH   1  30
ATOM     30  C   UNL     1      52.368  37.579 127.885  1.00  0.00     0.048 C 
ATOM     31  O   UNL     1      53.043  36.537 128.098  1.00  0.00    -0.550 OA
ATOM     32  O   UNL     1      52.267  38.527 128.898  1.00  0.00    -0.550 OA
ENDBRANCH   1  30
BRANCH  27  33
ATOM     33  O   UNL     1      59.386  42.586 122.875  1.00  0.00    -0.393 OA
ATOM     34  H   UNL     1      59.130  41.950 122.157  1.00  0.00     0.210 HD
ENDBRANCH  27  33
TORSDOF 2
ENDMDL
MODEL 7
REMARK VINA RESULT:    -4.659      1.924      8.061
REMARK INTER + INTRA:          -5.298
REMARK INTER:                  -5.055
REMARK INTRA:                  -0.244
REMARK UNBOUND:                -0.230
REMARK SMILES C[C@H]1[C@H](C)CC[C@]2(C(=O)[O-])CC[C@@]3(C)C(=CC[C@@H]4[C@@]5(C)CC[C@@H](O)C(C)(C)[C@H]5CC[C@@]43C)[C@H]12
REMARK SMILES IDX 7 1 6 2 11 3 33 4 5 5 12 6 15 7 2 8 3 9 13 10 16 11 1 12
REMARK SMILES IDX 4 13 14 14 31 15 17 16 18 17 30 18 32 19 19 20 29 21 28 22
REMARK SMILES IDX 21 23 20 24 25 25 22 26 23 27 26 28 27 29 8 30 9 31 10 32
REMARK SMILES IDX 24 33
REMARK H PARENT 24 34
REMARK Flexibility Score: inf
ROOT
ATOM      1  C   UNL     1      54.475  37.689 124.523  1.00  0.00     0.017 C 
ATOM      2  C   UNL     1      53.315  36.670 124.267  1.00  0.00     0.014 C 
ATOM      3  C   UNL     1      54.467  38.029 126.034  1.00  0.00     0.014 C 
ATOM      4  C   UNL     1      54.281  39.024 123.707  1.00  0.00     0.030 C 
ATOM      5  C   UNL     1      52.638  36.889 122.919  1.00  0.00     0.004 C 
ATOM      6  C   UNL     1      55.639  38.899 126.479  1.00  0.00     0.013 C 
ATOM      7  C   UNL     1      55.184  40.168 124.225  1.00  0.00    -0.063 C 
ATOM      8  C   UNL     1      52.745  39.385 123.629  1.00  0.00    -0.003 C 
ATOM      9  C   UNL     1      51.941  38.268 122.875  1.00  0.00    -0.011 C 
ATOM     10  C   UNL     1      56.038  40.084 125.513  1.00  0.00    -0.006 C 
ATOM     11  C   UNL     1      55.380  41.238 123.415  1.00  0.00    -0.027 C 
ATOM     12  C   UNL     1      52.428  40.745 122.972  1.00  0.00     0.008 C 
ATOM     13  C   UNL     1      50.500  38.157 123.412  1.00  0.00     0.008 C 
ATOM     14  C   UNL     1      57.491  39.774 125.034  1.00  0.00     0.017 C 
ATOM     15  C   UNL     1      55.943  41.491 126.269  1.00  0.00    -0.020 C 
ATOM     16  C   UNL     1      55.728  42.619 123.921  1.00  0.00     0.032 C 
ATOM     17  C   UNL     1      56.395  42.688 125.328  1.00  0.00     0.006 C 
ATOM     18  C   UNL     1      56.732  41.504 127.624  1.00  0.00     0.008 C 
ATOM     19  C   UNL     1      54.436  41.741 126.648  1.00  0.00     0.012 C 
ATOM     20  C   UNL     1      57.917  43.239 125.364  1.00  0.00    -0.025 C 
ATOM     21  C   UNL     1      57.538  42.783 127.870  1.00  0.00     0.005 C 
ATOM     22  C   UNL     1      58.614  42.938 126.769  1.00  0.00     0.003 C 
ATOM     23  C   UNL     1      57.824  44.794 125.123  1.00  0.00     0.010 C 
ATOM     24  C   UNL     1      58.792  42.635 124.211  1.00  0.00     0.012 C 
ATOM     25  C   UNL     1      59.843  43.877 127.165  1.00  0.00    -0.006 C 
ATOM     26  C   UNL     1      59.094  45.590 125.427  1.00  0.00     0.033 C 
ATOM     27  C   UNL     1      59.546  45.375 126.870  1.00  0.00     0.120 C 
ATOM     28  C   UNL     1      60.232  43.744 128.666  1.00  0.00     0.014 C 
ATOM     29  C   UNL     1      61.125  43.439 126.397  1.00  0.00     0.014 C 
ENDROOT
BRANCH   1  30
ATOM     30  C   UNL     1      55.772  36.990 124.131  1.00  0.00     0.048 C 
ATOM     31  O   UNL     1      56.285  36.129 124.895  1.00  0.00    -0.550 OA
ATOM     32  O   UNL     1      56.355  37.209 122.887  1.00  0.00    -0.550 OA
ENDBRANCH   1  30
BRANCH  27  33
ATOM     33  O   UNL     1      58.545  45.864 127.734  1.00  0.00    -0.393 OA
ATOM     34  H   UNL     1      57.752  45.274 127.640  1.00  0.00     0.210 HD
ENDBRANCH  27  33
TORSDOF 2
ENDMDL
MODEL 8
REMARK VINA RESULT:    -4.578     12.733     16.397
REMARK INTER + INTRA:          -5.210
REMARK INTER:                  -4.963
REMARK INTRA:                  -0.247
REMARK UNBOUND:                -0.230
REMARK SMILES C[C@H]1[C@H](C)CC[C@]2(C(=O)[O-])CC[C@@]3(C)C(=CC[C@@H]4[C@@]5(C)CC[C@@H](O)C(C)(C)[C@H]5CC[C@@]43C)[C@H]12
REMARK SMILES IDX 7 1 6 2 11 3 33 4 5 5 12 6 15 7 2 8 3 9 13 10 16 11 1 12
REMARK SMILES IDX 4 13 14 14 31 15 17 16 18 17 30 18 32 19 19 20 29 21 28 22
REMARK SMILES IDX 21 23 20 24 25 25 22 26 23 27 26 28 27 29 8 30 9 31 10 32
REMARK SMILES IDX 24 33
REMARK H PARENT 24 34
REMARK Flexibility Score: inf
ROOT
ATOM      1  C   UNL     1      47.714  46.817 140.733  1.00  0.00     0.017 C 
ATOM      2  C   UNL     1      46.235  47.330 140.711  1.00  0.00     0.014 C 
ATOM      3  C   UNL     1      48.634  48.048 140.543  1.00  0.00     0.014 C 
ATOM      4  C   UNL     1      48.002  45.791 139.571  1.00  0.00     0.030 C 
ATOM      5  C   UNL     1      45.290  46.343 140.036  1.00  0.00     0.004 C 
ATOM      6  C   UNL     1      50.121  47.740 140.692  1.00  0.00     0.013 C 
ATOM      7  C   UNL     1      49.515  45.571 139.340  1.00  0.00    -0.063 C 
ATOM      8  C   UNL     1      47.195  46.207 138.278  1.00  0.00    -0.003 C 
ATOM      9  C   UNL     1      45.649  46.175 138.543  1.00  0.00    -0.011 C 
ATOM     10  C   UNL     1      50.627  46.398 140.029  1.00  0.00    -0.006 C 
ATOM     11  C   UNL     1      49.897  44.476 138.635  1.00  0.00    -0.027 C 
ATOM     12  C   UNL     1      47.494  45.361 137.023  1.00  0.00     0.008 C 
ATOM     13  C   UNL     1      44.913  47.230 137.694  1.00  0.00     0.008 C 
ATOM     14  C   UNL     1      51.145  45.509 141.203  1.00  0.00     0.017 C 
ATOM     15  C   UNL     1      51.771  46.693 138.950  1.00  0.00    -0.020 C 
ATOM     16  C   UNL     1      51.191  44.390 137.858  1.00  0.00     0.032 C 
ATOM     17  C   UNL     1      52.331  45.350 138.314  1.00  0.00     0.006 C 
ATOM     18  C   UNL     1      52.933  47.576 139.526  1.00  0.00     0.008 C 
ATOM     19  C   UNL     1      51.135  47.531 137.780  1.00  0.00     0.012 C 
ATOM     20  C   UNL     1      53.657  44.640 138.916  1.00  0.00    -0.025 C 
ATOM     21  C   UNL     1      54.335  47.115 139.118  1.00  0.00     0.005 C 
ATOM     22  C   UNL     1      54.593  45.692 139.667  1.00  0.00     0.003 C 
ATOM     23  C   UNL     1      54.416  44.016 137.682  1.00  0.00     0.010 C 
ATOM     24  C   UNL     1      53.306  43.466 139.895  1.00  0.00     0.012 C 
ATOM     25  C   UNL     1      56.135  45.299 139.800  1.00  0.00    -0.006 C 
ATOM     26  C   UNL     1      55.854  43.567 137.946  1.00  0.00     0.033 C 
ATOM     27  C   UNL     1      56.703  44.723 138.472  1.00  0.00     0.120 C 
ATOM     28  C   UNL     1      57.021  46.505 140.226  1.00  0.00     0.014 C 
ATOM     29  C   UNL     1      56.328  44.259 140.944  1.00  0.00     0.014 C 
ENDROOT
BRANCH   1  30
ATOM     30  C   UNL     1      47.940  46.176 142.099  1.00  0.00     0.048 C 
ATOM     31  O   UNL     1      48.062  46.897 143.125  1.00  0.00    -0.550 OA
ATOM     32  O   UNL     1      47.912  44.794 142.254  1.00  0.00    -0.550 OA
ENDBRANCH   1  30
BRANCH  27  33
ATOM     33  O   UNL     1      56.766  45.724 137.481  1.00  0.00    -0.393 OA
ATOM     34  H   UNL     1      57.004  46.577 137.930  1.00  0.00     0.210 HD
ENDBRANCH  27  33
TORSDOF 2
ENDMDL
