MODEL 1
REMARK VINA RESULT:    -4.751      0.000      0.000
REMARK INTER + INTRA:          -9.106
REMARK INTER:                  -7.251
REMARK INTRA:                  -1.856
REMARK UNBOUND:                -1.856
REMARK SMILES OC[C@@H]1O[C@H](O[C@]2(CO)O[C@@H](CO)[C@H](O)[C@@H]2O)[C@H](O)[C@H](O)[C@@H]1O
REMARK SMILES IDX 6 1 5 2 3 3 22 4 4 5 20 6 18 7 2 8 1 9 23 11 21 13 19 15
REMARK SMILES IDX 7 17 16 18 10 19 14 20 11 21 8 22 9 23 17 25 15 27 12 29
REMARK SMILES IDX 13 30
REMARK H PARENT 1 10 23 12 21 14 19 16 9 24 17 26 15 28 13 31
REMARK Flexibility Score: inf
ROOT
ATOM      1  O   UNL     1     162.115 174.799 184.805  1.00  0.00    -0.313 OA
ENDROOT
BRANCH   1   2
ATOM      2  C   UNL     1     160.786 175.041 185.295  1.00  0.00     0.285 C 
ATOM      3  C   UNL     1     160.053 172.932 184.480  1.00  0.00     0.178 C 
ATOM      4  C   UNL     1     160.535 172.270 185.841  1.00  0.00     0.177 C 
ATOM      5  O   UNL     1     159.877 174.346 184.471  1.00  0.00    -0.341 OA
ATOM      6  C   UNL     1     160.615 173.209 187.087  1.00  0.00     0.179 C 
ATOM      7  C   UNL     1     160.405 174.696 186.748  1.00  0.00     0.202 C 
BRANCH   3   8
ATOM      8  C   UNL     1     160.879 172.497 183.252  1.00  0.00     0.191 C 
BRANCH   8   9
ATOM      9  O   UNL     1     160.667 171.131 182.976  1.00  0.00    -0.394 OA
ATOM     10  H   UNL     1     161.485 170.800 182.513  1.00  0.00     0.210 HD
ENDBRANCH   8   9
ENDBRANCH   3   8
BRANCH   4  11
ATOM     11  O   UNL     1     161.775 171.623 185.668  1.00  0.00    -0.387 OA
ATOM     12  H   UNL     1     162.090 171.350 186.568  1.00  0.00     0.211 HD
ENDBRANCH   4  11
BRANCH   6  13
ATOM     13  O   UNL     1     161.828 173.005 187.766  1.00  0.00    -0.387 OA
ATOM     14  H   UNL     1     161.869 173.667 188.508  1.00  0.00     0.211 HD
ENDBRANCH   6  13
BRANCH   7  15
ATOM     15  O   UNL     1     160.991 175.575 187.672  1.00  0.00    -0.385 OA
ATOM     16  H   UNL     1     160.927 176.493 187.301  1.00  0.00     0.211 HD
ENDBRANCH   7  15
ENDBRANCH   1   2
BRANCH   1  17
ATOM     17  C   UNL     1     163.153 175.785 184.885  1.00  0.00     0.224 C 
ATOM     18  C   UNL     1     163.708 176.291 183.515  1.00  0.00     0.208 C 
ATOM     19  O   UNL     1     162.720 176.910 185.610  1.00  0.00    -0.337 OA
ATOM     20  C   UNL     1     164.061 177.739 183.792  1.00  0.00     0.180 C 
ATOM     21  C   UNL     1     163.403 178.055 185.149  1.00  0.00     0.179 C 
BRANCH  17  22
ATOM     22  C   UNL     1     164.265 175.108 185.770  1.00  0.00     0.225 C 
BRANCH  22  23
ATOM     23  O   UNL     1     163.942 174.993 187.132  1.00  0.00    -0.391 OA
ATOM     24  H   UNL     1     162.983 175.240 187.215  1.00  0.00     0.210 HD
ENDBRANCH  22  23
ENDBRANCH  17  22
BRANCH  18  25
ATOM     25  O   UNL     1     162.772 176.200 182.476  1.00  0.00    -0.385 OA
ATOM     26  H   UNL     1     163.163 175.566 181.815  1.00  0.00     0.211 HD
ENDBRANCH  18  25
BRANCH  20  27
ATOM     27  O   UNL     1     163.637 178.608 182.760  1.00  0.00    -0.387 OA
ATOM     28  H   UNL     1     162.778 178.275 182.392  1.00  0.00     0.211 HD
ENDBRANCH  20  27
BRANCH  21  29
ATOM     29  C   UNL     1     164.410 178.532 186.208  1.00  0.00     0.191 C 
BRANCH  29  30
ATOM     30  O   UNL     1     165.663 178.740 185.618  1.00  0.00    -0.394 OA
ATOM     31  H   UNL     1     165.493 179.140 184.729  1.00  0.00     0.210 HD
ENDBRANCH  29  30
ENDBRANCH  21  29
ENDBRANCH   1  17
TORSDOF 13
ENDMDL
MODEL 2
REMARK VINA RESULT:    -4.676      8.513     11.383
REMARK INTER + INTRA:          -8.992
REMARK INTER:                  -7.120
REMARK INTRA:                  -1.873
REMARK UNBOUND:                -1.856
REMARK SMILES OC[C@@H]1O[C@H](O[C@]2(CO)O[C@@H](CO)[C@H](O)[C@@H]2O)[C@H](O)[C@H](O)[C@@H]1O
REMARK SMILES IDX 6 1 5 2 3 3 22 4 4 5 20 6 18 7 2 8 1 9 23 11 21 13 19 15
REMARK SMILES IDX 7 17 16 18 10 19 14 20 11 21 8 22 9 23 17 25 15 27 12 29
REMARK SMILES IDX 13 30
REMARK H PARENT 1 10 23 12 21 14 19 16 9 24 17 26 15 28 13 31
REMARK Flexibility Score: inf
ROOT
ATOM      1  O   UNL     1     172.472 178.034 184.777  1.00  0.00    -0.313 OA
ENDROOT
BRANCH   1   2
ATOM      2  C   UNL     1     172.207 179.336 185.322  1.00  0.00     0.285 C 
ATOM      3  C   UNL     1     169.960 179.252 184.550  1.00  0.00     0.178 C 
ATOM      4  C   UNL     1     169.556 178.506 185.892  1.00  0.00     0.177 C 
ATOM      5  O   UNL     1     171.205 179.947 184.542  1.00  0.00    -0.341 OA
ATOM      6  C   UNL     1     170.482 178.737 187.130  1.00  0.00     0.179 C 
ATOM      7  C   UNL     1     171.774 179.504 186.791  1.00  0.00     0.202 C 
BRANCH   3   8
ATOM      8  C   UNL     1     169.842 178.370 183.291  1.00  0.00     0.191 C 
BRANCH   8   9
ATOM      9  O   UNL     1     168.486 178.153 182.968  1.00  0.00    -0.394 OA
ATOM     10  H   UNL     1     168.293 178.697 182.156  1.00  0.00     0.210 HD
ENDBRANCH   8   9
ENDBRANCH   3   8
BRANCH   4  11
ATOM     11  O   UNL     1     169.419 177.121 185.670  1.00  0.00    -0.387 OA
ATOM     12  H   UNL     1     169.439 176.978 184.689  1.00  0.00     0.211 HD
ENDBRANCH   4  11
BRANCH   6  13
ATOM     13  O   UNL     1     170.764 177.513 187.757  1.00  0.00    -0.387 OA
ATOM     14  H   UNL     1     170.532 177.610 188.720  1.00  0.00     0.211 HD
ENDBRANCH   6  13
BRANCH   7  15
ATOM     15  O   UNL     1     172.828 179.258 187.685  1.00  0.00    -0.385 OA
ATOM     16  H   UNL     1     173.649 179.667 187.307  1.00  0.00     0.211 HD
ENDBRANCH   7  15
ENDBRANCH   1   2
BRANCH   1  17
ATOM     17  C   UNL     1     173.763 177.417 184.857  1.00  0.00     0.224 C 
ATOM     18  C   UNL     1     174.442 177.094 183.487  1.00  0.00     0.208 C 
ATOM     19  O   UNL     1     174.655 178.217 185.596  1.00  0.00    -0.337 OA
ATOM     20  C   UNL     1     175.919 177.281 183.773  1.00  0.00     0.180 C 
ATOM     21  C   UNL     1     175.971 177.994 185.139  1.00  0.00     0.179 C 
BRANCH  17  22
ATOM     22  C   UNL     1     173.525 176.127 185.727  1.00  0.00     0.225 C 
BRANCH  22  23
ATOM     23  O   UNL     1     173.392 176.364 187.105  1.00  0.00    -0.391 OA
ATOM     24  H   UNL     1     173.957 175.686 187.562  1.00  0.00     0.210 HD
ENDBRANCH  22  23
ENDBRANCH  17  22
BRANCH  18  25
ATOM     25  O   UNL     1     174.027 177.947 182.455  1.00  0.00    -0.385 OA
ATOM     26  H   UNL     1     173.800 178.811 182.894  1.00  0.00     0.211 HD
ENDBRANCH  18  25
BRANCH  20  27
ATOM     27  O   UNL     1     176.584 177.999 182.753  1.00  0.00    -0.387 OA
ATOM     28  H   UNL     1     177.200 177.385 182.277  1.00  0.00     0.211 HD
ENDBRANCH  20  27
BRANCH  21  29
ATOM     29  C   UNL     1     176.771 177.214 186.194  1.00  0.00     0.191 C 
BRANCH  29  30
ATOM     30  O   UNL     1     177.328 176.064 185.619  1.00  0.00    -0.394 OA
ATOM     31  H   UNL     1     178.171 175.885 186.105  1.00  0.00     0.210 HD
ENDBRANCH  29  30
ENDBRANCH  21  29
ENDBRANCH   1  17
TORSDOF 13
ENDMDL
MODEL 3
REMARK VINA RESULT:    -4.613     11.534     13.237
REMARK INTER + INTRA:          -8.896
REMARK INTER:                  -6.676
REMARK INTRA:                  -2.220
REMARK UNBOUND:                -1.856
REMARK SMILES OC[C@@H]1O[C@H](O[C@]2(CO)O[C@@H](CO)[C@H](O)[C@@H]2O)[C@H](O)[C@H](O)[C@@H]1O
REMARK SMILES IDX 6 1 5 2 3 3 22 4 4 5 20 6 18 7 2 8 1 9 23 11 21 13 19 15
REMARK SMILES IDX 7 17 16 18 10 19 14 20 11 21 8 22 9 23 17 25 15 27 12 29
REMARK SMILES IDX 13 30
REMARK H PARENT 1 10 23 12 21 14 19 16 9 24 17 26 15 28 13 31
REMARK Flexibility Score: inf
ROOT
ATOM      1  O   UNL     1     162.166 162.853 183.314  1.00  0.00    -0.313 OA
ENDROOT
BRANCH   1   2
ATOM      2  C   UNL     1     163.188 163.740 183.797  1.00  0.00     0.285 C 
ATOM      3  C   UNL     1     162.352 163.570 186.015  1.00  0.00     0.178 C 
ATOM      4  C   UNL     1     163.246 162.275 186.224  1.00  0.00     0.177 C 
ATOM      5  O   UNL     1     162.686 164.423 184.923  1.00  0.00    -0.341 OA
ATOM      6  C   UNL     1     164.508 162.140 185.312  1.00  0.00     0.179 C 
ATOM      7  C   UNL     1     164.575 163.202 184.199  1.00  0.00     0.202 C 
BRANCH   3   8
ATOM      8  C   UNL     1     160.836 163.283 186.013  1.00  0.00     0.191 C 
BRANCH   8   9
ATOM      9  O   UNL     1     160.184 164.087 185.055  1.00  0.00    -0.394 OA
ATOM     10  H   UNL     1     160.838 164.784 184.771  1.00  0.00     0.210 HD
ENDBRANCH   8   9
ENDBRANCH   3   8
BRANCH   4  11
ATOM     11  O   UNL     1     162.466 161.107 186.108  1.00  0.00    -0.387 OA
ATOM     12  H   UNL     1     161.840 161.246 185.351  1.00  0.00     0.211 HD
ENDBRANCH   4  11
BRANCH   6  13
ATOM     13  O   UNL     1     164.586 160.841 184.785  1.00  0.00    -0.387 OA
ATOM     14  H   UNL     1     164.778 160.223 185.542  1.00  0.00     0.211 HD
ENDBRANCH   6  13
BRANCH   7  15
ATOM     15  O   UNL     1     165.333 162.807 183.086  1.00  0.00    -0.385 OA
ATOM     16  H   UNL     1     166.255 162.616 183.398  1.00  0.00     0.211 HD
ENDBRANCH   7  15
ENDBRANCH   1   2
BRANCH   1  17
ATOM     17  C   UNL     1     162.001 162.559 181.921  1.00  0.00     0.224 C 
ATOM     18  C   UNL     1     160.629 162.978 181.302  1.00  0.00     0.208 C 
ATOM     19  O   UNL     1     163.015 163.168 181.157  1.00  0.00    -0.337 OA
ATOM     20  C   UNL     1     160.985 163.355 179.877  1.00  0.00     0.180 C 
ATOM     21  C   UNL     1     162.524 163.447 179.865  1.00  0.00     0.179 C 
BRANCH  17  22
ATOM     22  C   UNL     1     162.259 161.010 181.816  1.00  0.00     0.225 C 
BRANCH  22  23
ATOM     23  O   UNL     1     163.608 160.631 181.912  1.00  0.00    -0.391 OA
ATOM     24  H   UNL     1     163.868 160.759 182.863  1.00  0.00     0.210 HD
ENDBRANCH  22  23
ENDBRANCH  17  22
BRANCH  18  25
ATOM     25  O   UNL     1     160.035 164.060 181.965  1.00  0.00    -0.385 OA
ATOM     26  H   UNL     1     159.073 164.038 181.711  1.00  0.00     0.211 HD
ENDBRANCH  18  25
BRANCH  20  27
ATOM     27  O   UNL     1     160.360 164.553 179.459  1.00  0.00    -0.387 OA
ATOM     28  H   UNL     1     160.739 164.824 178.584  1.00  0.00     0.211 HD
ENDBRANCH  20  27
BRANCH  21  29
ATOM     29  C   UNL     1     163.173 162.504 178.838  1.00  0.00     0.191 C 
BRANCH  29  30
ATOM     30  O   UNL     1     164.414 162.062 179.313  1.00  0.00    -0.394 OA
ATOM     31  H   UNL     1     165.101 162.465 178.725  1.00  0.00     0.210 HD
ENDBRANCH  29  30
ENDBRANCH  21  29
ENDBRANCH   1  17
TORSDOF 13
ENDMDL
MODEL 4
REMARK VINA RESULT:    -4.604     11.974     13.895
REMARK INTER + INTRA:          -8.883
REMARK INTER:                  -7.149
REMARK INTRA:                  -1.734
REMARK UNBOUND:                -1.856
REMARK SMILES OC[C@@H]1O[C@H](O[C@]2(CO)O[C@@H](CO)[C@H](O)[C@@H]2O)[C@H](O)[C@H](O)[C@@H]1O
REMARK SMILES IDX 6 1 5 2 3 3 22 4 4 5 20 6 18 7 2 8 1 9 23 11 21 13 19 15
REMARK SMILES IDX 7 17 16 18 10 19 14 20 11 21 8 22 9 23 17 25 15 27 12 29
REMARK SMILES IDX 13 30
REMARK H PARENT 1 10 23 12 21 14 19 16 9 24 17 26 15 28 13 31
REMARK Flexibility Score: inf
ROOT
ATOM      1  O   UNL     1     163.891 162.524 184.035  1.00  0.00    -0.313 OA
ENDROOT
BRANCH   1   2
ATOM      2  C   UNL     1     163.817 161.508 185.048  1.00  0.00     0.285 C 
ATOM      3  C   UNL     1     166.029 161.998 185.767  1.00  0.00     0.178 C 
ATOM      4  C   UNL     1     165.440 163.123 186.720  1.00  0.00     0.177 C 
ATOM      5  O   UNL     1     165.117 161.017 185.279  1.00  0.00    -0.341 OA
ATOM      6  C   UNL     1     163.952 162.957 187.165  1.00  0.00     0.179 C 
ATOM      7  C   UNL     1     163.218 161.817 186.434  1.00  0.00     0.202 C 
BRANCH   3   8
ATOM      8  C   UNL     1     166.877 162.552 184.603  1.00  0.00     0.191 C 
BRANCH   8   9
ATOM      9  O   UNL     1     166.843 161.668 183.505  1.00  0.00    -0.394 OA
ATOM     10  H   UNL     1     166.571 162.204 182.711  1.00  0.00     0.210 HD
ENDBRANCH   8   9
ENDBRANCH   3   8
BRANCH   4  11
ATOM     11  O   UNL     1     165.612 164.400 186.148  1.00  0.00    -0.387 OA
ATOM     12  H   UNL     1     164.826 164.946 186.409  1.00  0.00     0.211 HD
ENDBRANCH   4  11
BRANCH   6  13
ATOM     13  O   UNL     1     163.269 164.177 187.027  1.00  0.00    -0.387 OA
ATOM     14  H   UNL     1     162.474 164.010 186.451  1.00  0.00     0.211 HD
ENDBRANCH   6  13
BRANCH   7  15
ATOM     15  O   UNL     1     161.825 161.982 186.385  1.00  0.00    -0.385 OA
ATOM     16  H   UNL     1     161.426 161.117 186.110  1.00  0.00     0.211 HD
ENDBRANCH   7  15
ENDBRANCH   1   2
BRANCH   1  17
ATOM     17  C   UNL     1     163.124 162.459 182.826  1.00  0.00     0.224 C 
ATOM     18  C   UNL     1     163.833 163.013 181.548  1.00  0.00     0.208 C 
ATOM     19  O   UNL     1     162.731 161.135 182.553  1.00  0.00    -0.337 OA
ATOM     20  C   UNL     1     163.293 162.135 180.437  1.00  0.00     0.180 C 
ATOM     21  C   UNL     1     162.596 160.965 181.159  1.00  0.00     0.179 C 
BRANCH  17  22
ATOM     22  C   UNL     1     161.799 163.238 183.163  1.00  0.00     0.225 C 
BRANCH  22  23
ATOM     23  O   UNL     1     160.804 162.464 183.781  1.00  0.00    -0.391 OA
ATOM     24  H   UNL     1     160.506 161.798 183.105  1.00  0.00     0.210 HD
ENDBRANCH  22  23
ENDBRANCH  17  22
BRANCH  18  25
ATOM     25  O   UNL     1     165.230 162.924 181.613  1.00  0.00    -0.385 OA
ATOM     26  H   UNL     1     165.452 162.876 182.582  1.00  0.00     0.211 HD
ENDBRANCH  18  25
BRANCH  20  27
ATOM     27  O   UNL     1     164.302 161.706 179.544  1.00  0.00    -0.387 OA
ATOM     28  H   UNL     1     165.186 161.973 179.906  1.00  0.00     0.211 HD
ENDBRANCH  20  27
BRANCH  21  29
ATOM     29  C   UNL     1     161.111 160.827 180.785  1.00  0.00     0.191 C 
BRANCH  29  30
ATOM     30  O   UNL     1     160.401 160.254 181.848  1.00  0.00    -0.394 OA
ATOM     31  H   UNL     1     160.099 161.002 182.422  1.00  0.00     0.210 HD
ENDBRANCH  29  30
ENDBRANCH  21  29
ENDBRANCH   1  17
TORSDOF 13
ENDMDL
MODEL 5
REMARK VINA RESULT:    -4.604     16.011     18.228
REMARK INTER + INTRA:          -8.882
REMARK INTER:                  -7.013
REMARK INTRA:                  -1.869
REMARK UNBOUND:                -1.856
REMARK SMILES OC[C@@H]1O[C@H](O[C@]2(CO)O[C@@H](CO)[C@H](O)[C@@H]2O)[C@H](O)[C@H](O)[C@@H]1O
REMARK SMILES IDX 6 1 5 2 3 3 22 4 4 5 20 6 18 7 2 8 1 9 23 11 21 13 19 15
REMARK SMILES IDX 7 17 16 18 10 19 14 20 11 21 8 22 9 23 17 25 15 27 12 29
REMARK SMILES IDX 13 30
REMARK H PARENT 1 10 23 12 21 14 19 16 9 24 17 26 15 28 13 31
REMARK Flexibility Score: inf
ROOT
ATOM      1  O   UNL     1     178.651 169.641 184.789  1.00  0.00    -0.313 OA
ENDROOT
BRANCH   1   2
ATOM      2  C   UNL     1     179.838 170.272 185.293  1.00  0.00     0.285 C 
ATOM      3  C   UNL     1     179.109 172.388 184.493  1.00  0.00     0.178 C 
ATOM      4  C   UNL     1     178.311 172.595 185.850  1.00  0.00     0.177 C 
ATOM      5  O   UNL     1     180.125 171.388 184.482  1.00  0.00    -0.341 OA
ATOM      6  C   UNL     1     178.822 171.798 187.093  1.00  0.00     0.179 C 
ATOM      7  C   UNL     1     179.913 170.766 186.751  1.00  0.00     0.202 C 
BRANCH   3   8
ATOM      8  C   UNL     1     178.200 172.227 183.257  1.00  0.00     0.191 C 
BRANCH   8   9
ATOM      9  O   UNL     1     177.475 173.414 183.022  1.00  0.00    -0.394 OA
ATOM     10  H   UNL     1     178.060 174.169 183.305  1.00  0.00     0.210 HD
ENDBRANCH   8   9
ENDBRANCH   3   8
BRANCH   4  11
ATOM     11  O   UNL     1     176.938 172.333 185.665  1.00  0.00    -0.387 OA
ATOM     12  H   UNL     1     176.750 172.428 184.696  1.00  0.00     0.211 HD
ENDBRANCH   4  11
BRANCH   6  13
ATOM     13  O   UNL     1     177.740 171.198 187.758  1.00  0.00    -0.387 OA
ATOM     14  H   UNL     1     177.631 171.664 188.631  1.00  0.00     0.211 HD
ENDBRANCH   6  13
BRANCH   7  15
ATOM     15  O   UNL     1     179.993 169.704 187.666  1.00  0.00    -0.385 OA
ATOM     16  H   UNL     1     180.237 170.082 188.550  1.00  0.00     0.211 HD
ENDBRANCH   7  15
ENDBRANCH   1   2
BRANCH   1  17
ATOM     17  C   UNL     1     178.436 168.226 184.879  1.00  0.00     0.224 C 
ATOM     18  C   UNL     1     178.287 167.479 183.514  1.00  0.00     0.208 C 
ATOM     19  O   UNL     1     179.480 167.606 185.590  1.00  0.00    -0.337 OA
ATOM     20  C   UNL     1     178.900 166.121 183.787  1.00  0.00     0.180 C 
ATOM     21  C   UNL     1     179.636 166.281 185.132  1.00  0.00     0.179 C 
BRANCH  17  22
ATOM     22  C   UNL     1     177.157 168.083 185.784  1.00  0.00     0.225 C 
BRANCH  22  23
ATOM     23  O   UNL     1     177.379 168.303 187.154  1.00  0.00    -0.391 OA
ATOM     24  H   UNL     1     176.737 167.720 187.639  1.00  0.00     0.210 HD
ENDBRANCH  22  23
ENDBRANCH  17  22
BRANCH  18  25
ATOM     25  O   UNL     1     178.954 168.121 182.462  1.00  0.00    -0.385 OA
ATOM     26  H   UNL     1     179.716 167.527 182.223  1.00  0.00     0.211 HD
ENDBRANCH  18  25
BRANCH  20  27
ATOM     27  O   UNL     1     179.752 165.690 182.744  1.00  0.00    -0.387 OA
ATOM     28  H   UNL     1     180.015 166.476 182.199  1.00  0.00     0.211 HD
ENDBRANCH  20  27
BRANCH  21  29
ATOM     29  C   UNL     1     179.149 165.291 186.204  1.00  0.00     0.191 C 
BRANCH  29  30
ATOM     30  O   UNL     1     178.261 164.370 185.635  1.00  0.00    -0.394 OA
ATOM     31  H   UNL     1     178.699 164.021 184.820  1.00  0.00     0.210 HD
ENDBRANCH  29  30
ENDBRANCH  21  29
ENDBRANCH   1  17
TORSDOF 13
ENDMDL
MODEL 6
REMARK VINA RESULT:    -4.529      1.765      2.943
REMARK INTER + INTRA:          -8.767
REMARK INTER:                  -7.305
REMARK INTRA:                  -1.462
REMARK UNBOUND:                -1.856
REMARK SMILES OC[C@@H]1O[C@H](O[C@]2(CO)O[C@@H](CO)[C@H](O)[C@@H]2O)[C@H](O)[C@H](O)[C@@H]1O
REMARK SMILES IDX 6 1 5 2 3 3 22 4 4 5 20 6 18 7 2 8 1 9 23 11 21 13 19 15
REMARK SMILES IDX 7 17 16 18 10 19 14 20 11 21 8 22 9 23 17 25 15 27 12 29
REMARK SMILES IDX 13 30
REMARK H PARENT 1 10 23 12 21 14 19 16 9 24 17 26 15 28 13 31
REMARK Flexibility Score: inf
ROOT
ATOM      1  O   UNL     1     161.454 175.321 184.895  1.00  0.00    -0.313 OA
ENDROOT
BRANCH   1   2
ATOM      2  C   UNL     1     160.852 175.468 186.191  1.00  0.00     0.285 C 
ATOM      3  C   UNL     1     160.397 173.137 186.295  1.00  0.00     0.178 C 
ATOM      4  C   UNL     1     161.850 172.909 186.893  1.00  0.00     0.177 C 
ATOM      5  O   UNL     1     159.875 174.463 186.342  1.00  0.00    -0.341 OA
ATOM      6  C   UNL     1     162.507 174.124 187.624  1.00  0.00     0.179 C 
ATOM      7  C   UNL     1     161.711 175.433 187.470  1.00  0.00     0.202 C 
BRANCH   3   8
ATOM      8  C   UNL     1     160.209 172.548 184.882  1.00  0.00     0.191 C 
BRANCH   8   9
ATOM      9  O   UNL     1     160.045 171.149 184.950  1.00  0.00    -0.394 OA
ATOM     10  H   UNL     1     159.188 170.937 184.487  1.00  0.00     0.210 HD
ENDBRANCH   8   9
ENDBRANCH   3   8
BRANCH   4  11
ATOM     11  O   UNL     1     162.730 172.437 185.898  1.00  0.00    -0.387 OA
ATOM     12  H   UNL     1     162.695 173.083 185.146  1.00  0.00     0.211 HD
ENDBRANCH   4  11
BRANCH   6  13
ATOM     13  O   UNL     1     163.837 174.280 187.200  1.00  0.00    -0.387 OA
ATOM     14  H   UNL     1     164.365 174.595 187.982  1.00  0.00     0.211 HD
ENDBRANCH   6  13
BRANCH   7  15
ATOM     15  O   UNL     1     162.493 176.590 187.614  1.00  0.00    -0.385 OA
ATOM     16  H   UNL     1     163.221 176.387 188.256  1.00  0.00     0.211 HD
ENDBRANCH   7  15
ENDBRANCH   1   2
BRANCH   1  17
ATOM     17  C   UNL     1     161.670 176.434 184.018  1.00  0.00     0.224 C 
ATOM     18  C   UNL     1     162.876 177.358 184.386  1.00  0.00     0.208 C 
ATOM     19  O   UNL     1     161.857 175.999 182.693  1.00  0.00    -0.337 OA
ATOM     20  C   UNL     1     163.384 177.828 183.038  1.00  0.00     0.180 C 
ATOM     21  C   UNL     1     162.681 176.919 182.011  1.00  0.00     0.179 C 
BRANCH  17  22
ATOM     22  C   UNL     1     160.298 177.207 184.025  1.00  0.00     0.225 C 
BRANCH  22  23
ATOM     23  O   UNL     1     160.345 178.480 184.616  1.00  0.00    -0.391 OA
ATOM     24  H   UNL     1     159.609 178.505 185.285  1.00  0.00     0.210 HD
ENDBRANCH  22  23
ENDBRANCH  17  22
BRANCH  18  25
ATOM     25  O   UNL     1     163.886 176.687 185.089  1.00  0.00    -0.385 OA
ATOM     26  H   UNL     1     164.742 177.088 184.778  1.00  0.00     0.211 HD
ENDBRANCH  18  25
BRANCH  20  27
ATOM     27  O   UNL     1     164.794 177.778 182.941  1.00  0.00    -0.387 OA
ATOM     28  H   UNL     1     165.142 178.701 182.847  1.00  0.00     0.211 HD
ENDBRANCH  20  27
BRANCH  21  29
ATOM     29  C   UNL     1     161.854 177.704 180.980  1.00  0.00     0.191 C 
BRANCH  29  30
ATOM     30  O   UNL     1     161.857 179.067 181.303  1.00  0.00    -0.394 OA
ATOM     31  H   UNL     1     161.581 179.133 182.252  1.00  0.00     0.210 HD
ENDBRANCH  29  30
ENDBRANCH  21  29
ENDBRANCH   1  17
TORSDOF 13
ENDMDL
MODEL 7
REMARK VINA RESULT:    -4.404     10.319     12.996
REMARK INTER + INTRA:          -8.578
REMARK INTER:                  -6.746
REMARK INTRA:                  -1.832
REMARK UNBOUND:                -1.856
REMARK SMILES OC[C@@H]1O[C@H](O[C@]2(CO)O[C@@H](CO)[C@H](O)[C@@H]2O)[C@H](O)[C@H](O)[C@@H]1O
REMARK SMILES IDX 6 1 5 2 3 3 22 4 4 5 20 6 18 7 2 8 1 9 23 11 21 13 19 15
REMARK SMILES IDX 7 17 16 18 10 19 14 20 11 21 8 22 9 23 17 25 15 27 12 29
REMARK SMILES IDX 13 30
REMARK H PARENT 1 10 23 12 21 14 19 16 9 24 17 26 15 28 13 31
REMARK Flexibility Score: inf
ROOT
ATOM      1  O   UNL     1     162.125 163.319 183.415  1.00  0.00    -0.313 OA
ENDROOT
BRANCH   1   2
ATOM      2  C   UNL     1     161.073 162.577 182.780  1.00  0.00     0.285 C 
ATOM      3  C   UNL     1     161.029 164.107 180.962  1.00  0.00     0.178 C 
ATOM      4  C   UNL     1     162.176 163.263 180.259  1.00  0.00     0.177 C 
ATOM      5  O   UNL     1     160.303 163.472 182.010  1.00  0.00    -0.341 OA
ATOM      6  C   UNL     1     162.293 161.760 180.672  1.00  0.00     0.179 C 
ATOM      7  C   UNL     1     161.392 161.381 181.862  1.00  0.00     0.202 C 
BRANCH   3   8
ATOM      8  C   UNL     1     161.482 165.512 181.412  1.00  0.00     0.191 C 
BRANCH   8   9
ATOM      9  O   UNL     1     160.664 165.979 182.462  1.00  0.00    -0.394 OA
ATOM     10  H   UNL     1     159.959 166.547 182.047  1.00  0.00     0.210 HD
ENDBRANCH   8   9
ENDBRANCH   3   8
BRANCH   4  11
ATOM     11  O   UNL     1     163.429 163.887 180.428  1.00  0.00    -0.387 OA
ATOM     12  H   UNL     1     164.016 163.567 179.695  1.00  0.00     0.211 HD
ENDBRANCH   4  11
BRANCH   6  13
ATOM     13  O   UNL     1     163.636 161.431 180.920  1.00  0.00    -0.387 OA
ATOM     14  H   UNL     1     164.063 162.224 181.345  1.00  0.00     0.211 HD
ENDBRANCH   6  13
BRANCH   7  15
ATOM     15  O   UNL     1     161.850 160.267 182.584  1.00  0.00    -0.385 OA
ATOM     16  H   UNL     1     161.102 159.943 183.149  1.00  0.00     0.211 HD
ENDBRANCH   7  15
ENDBRANCH   1   2
BRANCH   1  17
ATOM     17  C   UNL     1     162.398 163.214 184.819  1.00  0.00     0.224 C 
ATOM     18  C   UNL     1     162.582 164.571 185.573  1.00  0.00     0.208 C 
ATOM     19  O   UNL     1     161.380 162.498 185.475  1.00  0.00    -0.337 OA
ATOM     20  C   UNL     1     162.025 164.285 186.953  1.00  0.00     0.180 C 
ATOM     21  C   UNL     1     161.281 162.943 186.810  1.00  0.00     0.179 C 
BRANCH  17  22
ATOM     22  C   UNL     1     163.680 162.305 184.899  1.00  0.00     0.225 C 
BRANCH  22  23
ATOM     23  O   UNL     1     163.427 160.925 184.827  1.00  0.00    -0.391 OA
ATOM     24  H   UNL     1     164.312 160.474 184.881  1.00  0.00     0.210 HD
ENDBRANCH  22  23
ENDBRANCH  17  22
BRANCH  18  25
ATOM     25  O   UNL     1     161.891 165.631 184.971  1.00  0.00    -0.385 OA
ATOM     26  H   UNL     1     161.321 166.023 185.687  1.00  0.00     0.211 HD
ENDBRANCH  18  25
BRANCH  20  27
ATOM     27  O   UNL     1     161.194 165.325 187.430  1.00  0.00    -0.387 OA
ATOM     28  H   UNL     1     161.464 165.552 188.357  1.00  0.00     0.211 HD
ENDBRANCH  20  27
BRANCH  21  29
ATOM     29  C   UNL     1     161.805 161.860 187.767  1.00  0.00     0.191 C 
BRANCH  29  30
ATOM     30  O   UNL     1     161.751 160.605 187.147  1.00  0.00    -0.394 OA
ATOM     31  H   UNL     1     162.626 160.471 186.704  1.00  0.00     0.210 HD
ENDBRANCH  29  30
ENDBRANCH  21  29
ENDBRANCH   1  17
TORSDOF 13
ENDMDL
MODEL 8
REMARK VINA RESULT:    -4.378     11.006     13.683
REMARK INTER + INTRA:          -8.537
REMARK INTER:                  -6.884
REMARK INTRA:                  -1.653
REMARK UNBOUND:                -1.856
REMARK SMILES OC[C@@H]1O[C@H](O[C@]2(CO)O[C@@H](CO)[C@H](O)[C@@H]2O)[C@H](O)[C@H](O)[C@@H]1O
REMARK SMILES IDX 6 1 5 2 3 3 22 4 4 5 20 6 18 7 2 8 1 9 23 11 21 13 19 15
REMARK SMILES IDX 7 17 16 18 10 19 14 20 11 21 8 22 9 23 17 25 15 27 12 29
REMARK SMILES IDX 13 30
REMARK H PARENT 1 10 23 12 21 14 19 16 9 24 17 26 15 28 13 31
REMARK Flexibility Score: inf
ROOT
ATOM      1  O   UNL     1     162.687 163.364 182.905  1.00  0.00    -0.313 OA
ENDROOT
BRANCH   1   2
ATOM      2  C   UNL     1     163.966 163.736 183.441  1.00  0.00     0.285 C 
ATOM      3  C   UNL     1     163.006 164.137 185.578  1.00  0.00     0.178 C 
ATOM      4  C   UNL     1     163.203 162.600 185.924  1.00  0.00     0.177 C 
ATOM      5  O   UNL     1     163.757 164.659 184.485  1.00  0.00    -0.341 OA
ATOM      6  C   UNL     1     164.322 161.843 185.140  1.00  0.00     0.179 C 
ATOM      7  C   UNL     1     164.932 162.669 183.993  1.00  0.00     0.202 C 
BRANCH   3   8
ATOM      8  C   UNL     1     161.527 164.558 185.448  1.00  0.00     0.191 C 
BRANCH   8   9
ATOM      9  O   UNL     1     160.870 164.436 186.689  1.00  0.00    -0.394 OA
ATOM     10  H   UNL     1     159.893 164.504 186.506  1.00  0.00     0.210 HD
ENDBRANCH   8   9
ENDBRANCH   3   8
BRANCH   4  11
ATOM     11  O   UNL     1     161.988 161.899 185.788  1.00  0.00    -0.387 OA
ATOM     12  H   UNL     1     161.981 161.188 186.480  1.00  0.00     0.211 HD
ENDBRANCH   4  11
BRANCH   6  13
ATOM     13  O   UNL     1     163.837 160.608 184.680  1.00  0.00    -0.387 OA
ATOM     14  H   UNL     1     164.481 159.907 184.970  1.00  0.00     0.211 HD
ENDBRANCH   6  13
BRANCH   7  15
ATOM     15  O   UNL     1     165.497 161.888 182.973  1.00  0.00    -0.385 OA
ATOM     16  H   UNL     1     165.474 160.941 183.266  1.00  0.00     0.211 HD
ENDBRANCH   7  15
ENDBRANCH   1   2
BRANCH   1  17
ATOM     17  C   UNL     1     162.526 162.893 181.560  1.00  0.00     0.224 C 
ATOM     18  C   UNL     1     162.526 161.339 181.386  1.00  0.00     0.208 C 
ATOM     19  O   UNL     1     161.333 163.383 180.998  1.00  0.00    -0.337 OA
ATOM     20  C   UNL     1     161.573 161.114 180.229  1.00  0.00     0.180 C 
ATOM     21  C   UNL     1     160.857 162.466 180.037  1.00  0.00     0.179 C 
BRANCH  17  22
ATOM     22  C   UNL     1     163.691 163.586 180.762  1.00  0.00     0.225 C 
BRANCH  22  23
ATOM     23  O   UNL     1     164.655 162.704 180.246  1.00  0.00    -0.391 OA
ATOM     24  H   UNL     1     165.453 163.256 180.029  1.00  0.00     0.210 HD
ENDBRANCH  22  23
ENDBRANCH  17  22
BRANCH  18  25
ATOM     25  O   UNL     1     162.085 160.659 182.529  1.00  0.00    -0.385 OA
ATOM     26  H   UNL     1     162.147 159.691 182.308  1.00  0.00     0.211 HD
ENDBRANCH  18  25
BRANCH  20  27
ATOM     27  O   UNL     1     160.677 160.046 180.463  1.00  0.00    -0.387 OA
ATOM     28  H   UNL     1     159.748 160.393 180.428  1.00  0.00     0.211 HD
ENDBRANCH  20  27
BRANCH  21  29
ATOM     29  C   UNL     1     161.033 163.043 178.623  1.00  0.00     0.191 C 
BRANCH  29  30
ATOM     30  O   UNL     1     161.957 162.274 177.904  1.00  0.00    -0.394 OA
ATOM     31  H   UNL     1     161.573 162.143 177.001  1.00  0.00     0.210 HD
ENDBRANCH  29  30
ENDBRANCH  21  29
ENDBRANCH   1  17
TORSDOF 13
ENDMDL
MODEL 9
REMARK VINA RESULT:    -4.305     11.719     14.564
REMARK INTER + INTRA:          -8.425
REMARK INTER:                  -6.635
REMARK INTRA:                  -1.790
REMARK UNBOUND:                -1.856
REMARK SMILES OC[C@@H]1O[C@H](O[C@]2(CO)O[C@@H](CO)[C@H](O)[C@@H]2O)[C@H](O)[C@H](O)[C@@H]1O
REMARK SMILES IDX 6 1 5 2 3 3 22 4 4 5 20 6 18 7 2 8 1 9 23 11 21 13 19 15
REMARK SMILES IDX 7 17 16 18 10 19 14 20 11 21 8 22 9 23 17 25 15 27 12 29
REMARK SMILES IDX 13 30
REMARK H PARENT 1 10 23 12 21 14 19 16 9 24 17 26 15 28 13 31
REMARK Flexibility Score: inf
ROOT
ATOM      1  O   UNL     1     161.354 162.904 179.492  1.00  0.00    -0.313 OA
ENDROOT
BRANCH   1   2
ATOM      2  C   UNL     1     162.605 163.488 179.887  1.00  0.00     0.285 C 
ATOM      3  C   UNL     1     161.698 164.125 181.990  1.00  0.00     0.178 C 
ATOM      4  C   UNL     1     162.081 162.692 182.557  1.00  0.00     0.177 C 
ATOM      5  O   UNL     1     162.338 164.540 180.786  1.00  0.00    -0.341 OA
ATOM      6  C   UNL     1     163.245 161.940 181.835  1.00  0.00     0.179 C 
ATOM      7  C   UNL     1     163.708 162.631 180.539  1.00  0.00     0.202 C 
BRANCH   3   8
ATOM      8  C   UNL     1     160.177 164.362 181.885  1.00  0.00     0.191 C 
BRANCH   8   9
ATOM      9  O   UNL     1     159.876 165.122 180.735  1.00  0.00    -0.394 OA
ATOM     10  H   UNL     1     159.918 164.499 179.959  1.00  0.00     0.210 HD
ENDBRANCH   8   9
ENDBRANCH   3   8
BRANCH   4  11
ATOM     11  O   UNL     1     160.948 161.855 182.604  1.00  0.00    -0.387 OA
ATOM     12  H   UNL     1     160.840 161.457 181.702  1.00  0.00     0.211 HD
ENDBRANCH   4  11
BRANCH   6  13
ATOM     13  O   UNL     1     162.882 160.603 181.600  1.00  0.00    -0.387 OA
ATOM     14  H   UNL     1     163.073 160.092 182.433  1.00  0.00     0.211 HD
ENDBRANCH   6  13
BRANCH   7  15
ATOM     15  O   UNL     1     164.314 161.760 179.619  1.00  0.00    -0.385 OA
ATOM     16  H   UNL     1     164.602 160.950 180.113  1.00  0.00     0.211 HD
ENDBRANCH   7  15
ENDBRANCH   1   2
BRANCH   1  17
ATOM     17  C   UNL     1     161.130 162.388 178.174  1.00  0.00     0.224 C 
ATOM     18  C   UNL     1     160.227 163.269 177.250  1.00  0.00     0.208 C 
ATOM     19  O   UNL     1     162.350 162.183 177.503  1.00  0.00    -0.337 OA
ATOM     20  C   UNL     1     160.803 163.035 175.868  1.00  0.00     0.180 C 
ATOM     21  C   UNL     1     162.151 162.330 176.114  1.00  0.00     0.179 C 
BRANCH  17  22
ATOM     22  C   UNL     1     160.526 160.955 178.413  1.00  0.00     0.225 C 
BRANCH  22  23
ATOM     23  O   UNL     1     160.636 160.484 179.731  1.00  0.00    -0.391 OA
ATOM     24  H   UNL     1     161.515 160.801 180.070  1.00  0.00     0.210 HD
ENDBRANCH  22  23
ENDBRANCH  17  22
BRANCH  18  25
ATOM     25  O   UNL     1     160.269 164.630 177.580  1.00  0.00    -0.385 OA
ATOM     26  H   UNL     1     159.589 165.069 177.000  1.00  0.00     0.211 HD
ENDBRANCH  18  25
BRANCH  20  27
ATOM     27  O   UNL     1     160.936 164.231 175.126  1.00  0.00    -0.387 OA
ATOM     28  H   UNL     1     161.045 164.989 175.755  1.00  0.00     0.211 HD
ENDBRANCH  20  27
BRANCH  21  29
ATOM     29  C   UNL     1     162.250 160.963 175.418  1.00  0.00     0.191 C 
BRANCH  29  30
ATOM     30  O   UNL     1     163.555 160.465 175.524  1.00  0.00    -0.394 OA
ATOM     31  H   UNL     1     164.119 161.216 175.838  1.00  0.00     0.210 HD
ENDBRANCH  29  30
ENDBRANCH  21  29
ENDBRANCH   1  17
TORSDOF 13
ENDMDL
