MODEL 1
REMARK VINA RESULT:    -4.734      0.000      0.000
REMARK INTER + INTRA:          -5.168
REMARK INTER:                  -5.149
REMARK INTRA:                  -0.020
REMARK UNBOUND:                -0.020
REMARK SMILES OCc1ccccc1
REMARK SMILES IDX 2 1 3 2 6 3 5 4 7 5 4 6 8 7 1 8
REMARK H PARENT 1 9
REMARK Flexibility Score: inf
ROOT
ATOM      1  C   UNL     1     -11.200  72.818  34.231  1.00  0.00     0.191 C 
ENDROOT
BRANCH   1   2
ATOM      2  C   UNL     1     -11.232  73.283  32.801  1.00  0.00    -0.023 A 
ATOM      3  C   UNL     1     -11.214  74.130  30.126  1.00  0.00     0.000 A 
ATOM      4  C   UNL     1     -10.851  75.018  31.142  1.00  0.00     0.000 A 
ATOM      5  C   UNL     1     -11.576  72.817  30.441  1.00  0.00     0.000 A 
ATOM      6  C   UNL     1     -10.854  74.596  32.476  1.00  0.00     0.006 A 
ATOM      7  C   UNL     1     -11.580  72.391  31.773  1.00  0.00     0.006 A 
ENDBRANCH   1   2
BRANCH   1   8
ATOM      8  O   UNL     1     -10.806  73.870  35.069  1.00  0.00    -0.392 OA
ATOM      9  H   UNL     1      -9.814  73.842  35.112  1.00  0.00     0.211 HD
ENDBRANCH   1   8
TORSDOF 2
ENDMDL
MODEL 2
REMARK VINA RESULT:    -4.729      0.146      1.719
REMARK INTER + INTRA:          -5.163
REMARK INTER:                  -5.144
REMARK INTRA:                  -0.020
REMARK UNBOUND:                -0.020
REMARK SMILES OCc1ccccc1
REMARK SMILES IDX 2 1 3 2 6 3 5 4 7 5 4 6 8 7 1 8
REMARK H PARENT 1 9
REMARK Flexibility Score: inf
ROOT
ATOM      1  C   UNL     1     -11.191  72.799  34.359  1.00  0.00     0.191 C 
ENDROOT
BRANCH   1   2
ATOM      2  C   UNL     1     -11.196  73.213  32.914  1.00  0.00    -0.023 A 
ATOM      3  C   UNL     1     -11.281  74.002  30.222  1.00  0.00     0.000 A 
ATOM      4  C   UNL     1     -11.606  72.690  30.575  1.00  0.00     0.000 A 
ATOM      5  C   UNL     1     -10.923  74.924  31.210  1.00  0.00     0.000 A 
ATOM      6  C   UNL     1     -11.570  72.296  31.917  1.00  0.00     0.006 A 
ATOM      7  C   UNL     1     -10.886  74.534  32.552  1.00  0.00     0.006 A 
ENDBRANCH   1   2
BRANCH   1   8
ATOM      8  O   UNL     1     -10.799  73.876  35.166  1.00  0.00    -0.392 OA
ATOM      9  H   UNL     1     -10.715  73.522  36.090  1.00  0.00     0.211 HD
ENDBRANCH   1   8
TORSDOF 2
ENDMDL
MODEL 3
REMARK VINA RESULT:    -4.716      2.611      3.635
REMARK INTER + INTRA:          -5.149
REMARK INTER:                  -5.130
REMARK INTRA:                  -0.019
REMARK UNBOUND:                -0.020
REMARK SMILES OCc1ccccc1
REMARK SMILES IDX 2 1 3 2 6 3 5 4 7 5 4 6 8 7 1 8
REMARK H PARENT 1 9
REMARK Flexibility Score: inf
ROOT
ATOM      1  C   UNL     1     -11.288  73.535  28.632  1.00  0.00     0.191 C 
ENDROOT
BRANCH   1   2
ATOM      2  C   UNL     1     -11.244  73.621  30.132  1.00  0.00    -0.023 A 
ATOM      3  C   UNL     1     -11.237  73.811  32.931  1.00  0.00     0.000 A 
ATOM      4  C   UNL     1     -10.863  74.912  32.157  1.00  0.00     0.000 A 
ATOM      5  C   UNL     1     -11.623  72.618  32.313  1.00  0.00     0.000 A 
ATOM      6  C   UNL     1     -10.872  74.821  30.760  1.00  0.00     0.006 A 
ATOM      7  C   UNL     1     -11.633  72.523  30.918  1.00  0.00     0.006 A 
ENDBRANCH   1   2
BRANCH   1   8
ATOM      8  O   UNL     1     -11.989  72.388  28.236  1.00  0.00    -0.392 OA
ATOM      9  H   UNL     1     -12.888  72.691  27.945  1.00  0.00     0.211 HD
ENDBRANCH   1   8
TORSDOF 2
ENDMDL
MODEL 4
REMARK VINA RESULT:    -4.707      2.632      4.014
REMARK INTER + INTRA:          -5.139
REMARK INTER:                  -5.121
REMARK INTRA:                  -0.018
REMARK UNBOUND:                -0.020
REMARK SMILES OCc1ccccc1
REMARK SMILES IDX 2 1 3 2 6 3 5 4 7 5 4 6 8 7 1 8
REMARK H PARENT 1 9
REMARK Flexibility Score: inf
ROOT
ATOM      1  C   UNL     1     -11.227  73.484  28.598  1.00  0.00     0.191 C 
ENDROOT
BRANCH   1   2
ATOM      2  C   UNL     1     -11.263  73.583  30.098  1.00  0.00    -0.023 A 
ATOM      3  C   UNL     1     -11.257  73.742  32.900  1.00  0.00     0.000 A 
ATOM      4  C   UNL     1     -11.616  72.548  32.269  1.00  0.00     0.000 A 
ATOM      5  C   UNL     1     -10.891  74.855  32.136  1.00  0.00     0.000 A 
ATOM      6  C   UNL     1     -11.615  72.465  30.873  1.00  0.00     0.006 A 
ATOM      7  C   UNL     1     -10.888  74.776  30.740  1.00  0.00     0.006 A 
ENDBRANCH   1   2
BRANCH   1   8
ATOM      8  O   UNL     1     -11.969  72.374  28.172  1.00  0.00    -0.392 OA
ATOM      9  H   UNL     1     -12.055  72.453  27.186  1.00  0.00     0.211 HD
ENDBRANCH   1   8
TORSDOF 2
ENDMDL
MODEL 5
REMARK VINA RESULT:    -4.687      3.320      4.481
REMARK INTER + INTRA:          -5.118
REMARK INTER:                  -5.109
REMARK INTRA:                  -0.009
REMARK UNBOUND:                -0.020
REMARK SMILES OCc1ccccc1
REMARK SMILES IDX 2 1 3 2 6 3 5 4 7 5 4 6 8 7 1 8
REMARK H PARENT 1 9
REMARK Flexibility Score: inf
ROOT
ATOM      1  C   UNL     1      -9.952  74.641  27.397  1.00  0.00     0.191 C 
ENDROOT
BRANCH   1   2
ATOM      2  C   UNL     1     -10.484  73.941  28.616  1.00  0.00    -0.023 A 
ATOM      3  C   UNL     1     -11.545  72.671  30.882  1.00  0.00     0.000 A 
ATOM      4  C   UNL     1     -10.954  73.932  31.001  1.00  0.00     0.000 A 
ATOM      5  C   UNL     1     -11.615  72.046  29.633  1.00  0.00     0.000 A 
ATOM      6  C   UNL     1     -10.430  74.569  29.872  1.00  0.00     0.006 A 
ATOM      7  C   UNL     1     -11.093  72.680  28.502  1.00  0.00     0.006 A 
ENDBRANCH   1   2
BRANCH   1   8
ATOM      8  O   UNL     1      -8.619  74.272  27.173  1.00  0.00    -0.392 OA
ATOM      9  H   UNL     1      -8.632  73.316  26.903  1.00  0.00     0.211 HD
ENDBRANCH   1   8
TORSDOF 2
ENDMDL
MODEL 6
REMARK VINA RESULT:    -4.606      1.409      1.850
REMARK INTER + INTRA:          -5.030
REMARK INTER:                  -5.011
REMARK INTRA:                  -0.019
REMARK UNBOUND:                -0.020
REMARK SMILES OCc1ccccc1
REMARK SMILES IDX 2 1 3 2 6 3 5 4 7 5 4 6 8 7 1 8
REMARK H PARENT 1 9
REMARK Flexibility Score: inf
ROOT
ATOM      1  C   UNL     1     -11.090  73.905  32.779  1.00  0.00     0.191 C 
ENDROOT
BRANCH   1   2
ATOM      2  C   UNL     1     -11.125  73.625  31.302  1.00  0.00    -0.023 A 
ATOM      3  C   UNL     1     -11.117  73.072  28.551  1.00  0.00     0.000 A 
ATOM      4  C   UNL     1     -10.604  74.283  29.021  1.00  0.00     0.000 A 
ATOM      5  C   UNL     1     -11.626  72.131  29.452  1.00  0.00     0.000 A 
ATOM      6  C   UNL     1     -10.602  74.558  30.392  1.00  0.00     0.006 A 
ATOM      7  C   UNL     1     -11.625  72.402  30.823  1.00  0.00     0.006 A 
ENDBRANCH   1   2
BRANCH   1   8
ATOM      8  O   UNL     1     -10.880  75.272  33.003  1.00  0.00    -0.392 OA
ATOM      9  H   UNL     1     -10.625  75.667  32.128  1.00  0.00     0.211 HD
ENDBRANCH   1   8
TORSDOF 2
ENDMDL
MODEL 7
REMARK VINA RESULT:    -4.606      1.410      2.448
REMARK INTER + INTRA:          -5.029
REMARK INTER:                  -5.010
REMARK INTRA:                  -0.019
REMARK UNBOUND:                -0.020
REMARK SMILES OCc1ccccc1
REMARK SMILES IDX 2 1 3 2 6 3 5 4 7 5 4 6 8 7 1 8
REMARK H PARENT 1 9
REMARK Flexibility Score: inf
ROOT
ATOM      1  C   UNL     1     -11.133  73.924  32.787  1.00  0.00     0.191 C 
ENDROOT
BRANCH   1   2
ATOM      2  C   UNL     1     -11.105  73.616  31.316  1.00  0.00    -0.023 A 
ATOM      3  C   UNL     1     -11.125  73.073  28.563  1.00  0.00     0.000 A 
ATOM      4  C   UNL     1     -11.657  72.145  29.461  1.00  0.00     0.000 A 
ATOM      5  C   UNL     1     -10.590  74.276  29.034  1.00  0.00     0.000 A 
ATOM      6  C   UNL     1     -11.653  72.416  30.834  1.00  0.00     0.006 A 
ATOM      7  C   UNL     1     -10.585  74.551  30.405  1.00  0.00     0.006 A 
ENDBRANCH   1   2
BRANCH   1   8
ATOM      8  O   UNL     1     -10.870  75.283  32.999  1.00  0.00    -0.392 OA
ATOM      9  H   UNL     1      -9.913  75.350  33.258  1.00  0.00     0.211 HD
ENDBRANCH   1   8
TORSDOF 2
ENDMDL
MODEL 8
REMARK VINA RESULT:    -4.557      3.381      4.851
REMARK INTER + INTRA:          -4.976
REMARK INTER:                  -4.959
REMARK INTRA:                  -0.017
REMARK UNBOUND:                -0.020
REMARK SMILES OCc1ccccc1
REMARK SMILES IDX 2 1 3 2 6 3 5 4 7 5 4 6 8 7 1 8
REMARK H PARENT 1 9
REMARK Flexibility Score: inf
ROOT
ATOM      1  C   UNL     1      -9.850  73.572  27.027  1.00  0.00     0.191 C 
ENDROOT
BRANCH   1   2
ATOM      2  C   UNL     1     -10.427  73.532  28.415  1.00  0.00    -0.023 A 
ATOM      3  C   UNL     1     -11.441  73.416  31.029  1.00  0.00     0.000 A 
ATOM      4  C   UNL     1     -11.694  72.372  30.135  1.00  0.00     0.000 A 
ATOM      5  C   UNL     1     -10.676  74.513  30.624  1.00  0.00     0.000 A 
ATOM      6  C   UNL     1     -11.185  72.425  28.833  1.00  0.00     0.006 A 
ATOM      7  C   UNL     1     -10.165  74.570  29.324  1.00  0.00     0.006 A 
ENDBRANCH   1   2
BRANCH   1   8
ATOM      8  O   UNL     1      -8.612  74.227  27.041  1.00  0.00    -0.392 OA
ATOM      9  H   UNL     1      -8.101  73.885  26.261  1.00  0.00     0.211 HD
ENDBRANCH   1   8
TORSDOF 2
ENDMDL
MODEL 9
REMARK VINA RESULT:    -4.499      3.172      4.276
REMARK INTER + INTRA:          -4.913
REMARK INTER:                  -4.898
REMARK INTRA:                  -0.015
REMARK UNBOUND:                -0.020
REMARK SMILES OCc1ccccc1
REMARK SMILES IDX 2 1 3 2 6 3 5 4 7 5 4 6 8 7 1 8
REMARK H PARENT 1 9
REMARK Flexibility Score: inf
ROOT
ATOM      1  C   UNL     1     -11.081  73.792  27.447  1.00  0.00     0.191 C 
ENDROOT
BRANCH   1   2
ATOM      2  C   UNL     1     -10.941  73.724  28.942  1.00  0.00    -0.023 A 
ATOM      3  C   UNL     1     -10.736  73.652  31.740  1.00  0.00     0.000 A 
ATOM      4  C   UNL     1     -10.008  74.596  31.011  1.00  0.00     0.000 A 
ATOM      5  C   UNL     1     -11.575  72.751  31.076  1.00  0.00     0.000 A 
ATOM      6  C   UNL     1     -10.112  74.637  29.616  1.00  0.00     0.006 A 
ATOM      7  C   UNL     1     -11.682  72.789  29.683  1.00  0.00     0.006 A 
ENDBRANCH   1   2
BRANCH   1   8
ATOM      8  O   UNL     1     -12.426  73.647  27.083  1.00  0.00    -0.392 OA
ATOM      9  H   UNL     1     -12.490  72.803  26.563  1.00  0.00     0.211 HD
ENDBRANCH   1   8
TORSDOF 2
ENDMDL
