MODEL 1
REMARK VINA RESULT:    -3.304      0.000      0.000
REMARK INTER + INTRA:          -4.023
REMARK INTER:                  -3.884
REMARK INTRA:                  -0.139
REMARK UNBOUND:                -0.139
REMARK SMILES CCCCC(=O)[O-]
REMARK SMILES IDX 4 1 5 2 6 3 7 4 3 5 2 6 1 7
REMARK H PARENT
REMARK Flexibility Score: inf
ROOT
ATOM      1  C   UNL     1      20.026  21.152  -6.528  1.00  0.00     0.053 C 
ENDROOT
BRANCH   1   2
ATOM      2  C   UNL     1      18.560  20.849  -6.576  1.00  0.00     0.041 C 
ATOM      3  O   UNL     1      18.064  20.277  -7.581  1.00  0.00    -0.550 OA
ATOM      4  O   UNL     1      17.748  21.169  -5.496  1.00  0.00    -0.550 OA
ENDBRANCH   1   2
BRANCH   1   5
ATOM      5  C   UNL     1      20.726  20.428  -5.367  1.00  0.00     0.006 C 
BRANCH   5   6
ATOM      6  C   UNL     1      20.647  18.894  -5.442  1.00  0.00    -0.003 C 
ATOM      7  C   UNL     1      19.947  18.276  -4.232  1.00  0.00     0.004 C 
ENDBRANCH   5   6
ENDBRANCH   1   5
TORSDOF 3
ENDMDL
MODEL 2
REMARK VINA RESULT:    -3.250      1.865      2.326
REMARK INTER + INTRA:          -3.959
REMARK INTER:                  -3.861
REMARK INTRA:                  -0.098
REMARK UNBOUND:                -0.139
REMARK SMILES CCCCC(=O)[O-]
REMARK SMILES IDX 4 1 5 2 6 3 7 4 3 5 2 6 1 7
REMARK H PARENT
REMARK Flexibility Score: inf
ROOT
ATOM      1  C   UNL     1      19.559  20.550  -7.529  1.00  0.00     0.053 C 
ENDROOT
BRANCH   1   2
ATOM      2  C   UNL     1      18.192  20.358  -6.946  1.00  0.00     0.041 C 
ATOM      3  O   UNL     1      17.417  19.488  -7.421  1.00  0.00    -0.550 OA
ATOM      4  O   UNL     1      17.787  21.119  -5.857  1.00  0.00    -0.550 OA
ENDBRANCH   1   2
BRANCH   1   5
ATOM      5  C   UNL     1      19.986  22.026  -7.519  1.00  0.00     0.006 C 
BRANCH   5   6
ATOM      6  C   UNL     1      21.149  22.339  -6.560  1.00  0.00    -0.003 C 
ATOM      7  C   UNL     1      21.662  21.101  -5.826  1.00  0.00     0.004 C 
ENDBRANCH   5   6
ENDBRANCH   1   5
TORSDOF 3
ENDMDL
MODEL 3
REMARK VINA RESULT:    -3.243     10.662     11.601
REMARK INTER + INTRA:          -3.950
REMARK INTER:                  -3.869
REMARK INTRA:                  -0.082
REMARK UNBOUND:                -0.139
REMARK SMILES CCCCC(=O)[O-]
REMARK SMILES IDX 4 1 5 2 6 3 7 4 3 5 2 6 1 7
REMARK H PARENT
REMARK Flexibility Score: inf
ROOT
ATOM      1  C   UNL     1      28.738  14.764  -9.958  1.00  0.00     0.053 C 
ENDROOT
BRANCH   1   2
ATOM      2  C   UNL     1      28.848  13.319 -10.338  1.00  0.00     0.041 C 
ATOM      3  O   UNL     1      29.439  12.986 -11.398  1.00  0.00    -0.550 OA
ATOM      4  O   UNL     1      28.326  12.338  -9.504  1.00  0.00    -0.550 OA
ENDBRANCH   1   2
BRANCH   1   5
ATOM      5  C   UNL     1      27.812  14.972  -8.749  1.00  0.00     0.006 C 
BRANCH   5   6
ATOM      6  C   UNL     1      26.352  15.285  -9.120  1.00  0.00    -0.003 C 
ATOM      7  C   UNL     1      26.221  16.006 -10.461  1.00  0.00     0.004 C 
ENDBRANCH   5   6
ENDBRANCH   1   5
TORSDOF 3
ENDMDL
MODEL 4
REMARK VINA RESULT:    -3.243     11.009     11.933
REMARK INTER + INTRA:          -3.950
REMARK INTER:                  -3.858
REMARK INTRA:                  -0.092
REMARK UNBOUND:                -0.139
REMARK SMILES CCCCC(=O)[O-]
REMARK SMILES IDX 4 1 5 2 6 3 7 4 3 5 2 6 1 7
REMARK H PARENT
REMARK Flexibility Score: inf
ROOT
ATOM      1  C   UNL     1      29.085  13.261 -10.837  1.00  0.00     0.053 C 
ENDROOT
BRANCH   1   2
ATOM      2  C   UNL     1      27.839  12.753 -11.497  1.00  0.00     0.041 C 
ATOM      3  O   UNL     1      27.718  12.807 -12.748  1.00  0.00    -0.550 OA
ATOM      4  O   UNL     1      26.826  12.190 -10.731  1.00  0.00    -0.550 OA
ENDBRANCH   1   2
BRANCH   1   5
ATOM      5  C   UNL     1      28.924  14.707 -10.341  1.00  0.00     0.006 C 
BRANCH   5   6
ATOM      6  C   UNL     1      28.352  14.825  -8.917  1.00  0.00    -0.003 C 
ATOM      7  C   UNL     1      26.868  15.190  -8.902  1.00  0.00     0.004 C 
ENDBRANCH   5   6
ENDBRANCH   1   5
TORSDOF 3
ENDMDL
MODEL 5
REMARK VINA RESULT:    -3.198      2.031      2.477
REMARK INTER + INTRA:          -3.898
REMARK INTER:                  -3.843
REMARK INTRA:                  -0.054
REMARK UNBOUND:                -0.139
REMARK SMILES CCCCC(=O)[O-]
REMARK SMILES IDX 4 1 5 2 6 3 7 4 3 5 2 6 1 7
REMARK H PARENT
REMARK Flexibility Score: inf
ROOT
ATOM      1  C   UNL     1      18.590  21.234  -7.175  1.00  0.00     0.053 C 
ENDROOT
BRANCH   1   2
ATOM      2  C   UNL     1      19.816  21.906  -7.713  1.00  0.00     0.041 C 
ATOM      3  O   UNL     1      20.713  22.310  -6.927  1.00  0.00    -0.550 OA
ATOM      4  O   UNL     1      19.983  22.057  -9.083  1.00  0.00    -0.550 OA
ENDBRANCH   1   2
BRANCH   1   5
ATOM      5  C   UNL     1      18.849  20.566  -5.816  1.00  0.00     0.006 C 
BRANCH   5   6
ATOM      6  C   UNL     1      19.263  19.087  -5.908  1.00  0.00    -0.003 C 
ATOM      7  C   UNL     1      20.024  18.605  -4.674  1.00  0.00     0.004 C 
ENDBRANCH   5   6
ENDBRANCH   1   5
TORSDOF 3
ENDMDL
MODEL 6
REMARK VINA RESULT:    -3.184      2.315      3.510
REMARK INTER + INTRA:          -3.882
REMARK INTER:                  -3.821
REMARK INTRA:                  -0.061
REMARK UNBOUND:                -0.139
REMARK SMILES CCCCC(=O)[O-]
REMARK SMILES IDX 4 1 5 2 6 3 7 4 3 5 2 6 1 7
REMARK H PARENT
REMARK Flexibility Score: inf
ROOT
ATOM      1  C   UNL     1      20.211  20.443  -5.365  1.00  0.00     0.053 C 
ENDROOT
BRANCH   1   2
ATOM      2  C   UNL     1      20.593  19.007  -5.171  1.00  0.00     0.041 C 
ATOM      3  O   UNL     1      21.468  18.479  -5.906  1.00  0.00    -0.550 OA
ATOM      4  O   UNL     1      20.006  18.262  -4.157  1.00  0.00    -0.550 OA
ENDBRANCH   1   2
BRANCH   1   5
ATOM      5  C   UNL     1      18.734  20.597  -5.758  1.00  0.00     0.006 C 
BRANCH   5   6
ATOM      6  C   UNL     1      18.507  20.905  -7.248  1.00  0.00    -0.003 C 
ATOM      7  C   UNL     1      19.560  21.849  -7.826  1.00  0.00     0.004 C 
ENDBRANCH   5   6
ENDBRANCH   1   5
TORSDOF 3
ENDMDL
MODEL 7
REMARK VINA RESULT:    -3.178      1.526      2.087
REMARK INTER + INTRA:          -3.874
REMARK INTER:                  -3.770
REMARK INTRA:                  -0.104
REMARK UNBOUND:                -0.139
REMARK SMILES CCCCC(=O)[O-]
REMARK SMILES IDX 4 1 5 2 6 3 7 4 3 5 2 6 1 7
REMARK H PARENT
REMARK Flexibility Score: inf
ROOT
ATOM      1  C   UNL     1      17.973  19.491  -7.210  1.00  0.00     0.053 C 
ENDROOT
BRANCH   1   2
ATOM      2  C   UNL     1      18.145  20.891  -6.706  1.00  0.00     0.041 C 
ATOM      3  O   UNL     1      17.716  21.212  -5.567  1.00  0.00    -0.550 OA
ATOM      4  O   UNL     1      18.808  21.833  -7.481  1.00  0.00    -0.550 OA
ENDBRANCH   1   2
BRANCH   1   5
ATOM      5  C   UNL     1      19.225  18.633  -6.964  1.00  0.00     0.006 C 
BRANCH   5   6
ATOM      6  C   UNL     1      19.090  17.641  -5.796  1.00  0.00    -0.003 C 
ATOM      7  C   UNL     1      19.663  18.183  -4.487  1.00  0.00     0.004 C 
ENDBRANCH   5   6
ENDBRANCH   1   5
TORSDOF 3
ENDMDL
MODEL 8
REMARK VINA RESULT:    -3.061      3.028      3.463
REMARK INTER + INTRA:          -3.737
REMARK INTER:                  -3.663
REMARK INTRA:                  -0.074
REMARK UNBOUND:                -0.139
REMARK SMILES CCCCC(=O)[O-]
REMARK SMILES IDX 4 1 5 2 6 3 7 4 3 5 2 6 1 7
REMARK H PARENT
REMARK Flexibility Score: inf
ROOT
ATOM      1  C   UNL     1      20.406  22.028  -7.066  1.00  0.00     0.053 C 
ENDROOT
BRANCH   1   2
ATOM      2  C   UNL     1      21.548  21.739  -6.139  1.00  0.00     0.041 C 
ATOM      3  O   UNL     1      21.901  20.551  -5.920  1.00  0.00    -0.550 OA
ATOM      4  O   UNL     1      22.241  22.785  -5.544  1.00  0.00    -0.550 OA
ENDBRANCH   1   2
BRANCH   1   5
ATOM      5  C   UNL     1      19.830  20.745  -7.686  1.00  0.00     0.006 C 
BRANCH   5   6
ATOM      6  C   UNL     1      18.350  20.492  -7.348  1.00  0.00    -0.003 C 
ATOM      7  C   UNL     1      17.950  21.045  -5.981  1.00  0.00     0.004 C 
ENDBRANCH   5   6
ENDBRANCH   1   5
TORSDOF 3
ENDMDL
MODEL 9
REMARK VINA RESULT:    -3.043      2.439      2.872
REMARK INTER + INTRA:          -3.716
REMARK INTER:                  -3.636
REMARK INTRA:                  -0.080
REMARK UNBOUND:                -0.139
REMARK SMILES CCCCC(=O)[O-]
REMARK SMILES IDX 4 1 5 2 6 3 7 4 3 5 2 6 1 7
REMARK H PARENT
REMARK Flexibility Score: inf
ROOT
ATOM      1  C   UNL     1      18.399  21.253  -6.674  1.00  0.00     0.053 C 
ENDROOT
BRANCH   1   2
ATOM      2  C   UNL     1      19.689  21.647  -7.326  1.00  0.00     0.041 C 
ATOM      3  O   UNL     1      19.707  22.003  -8.533  1.00  0.00    -0.550 OA
ATOM      4  O   UNL     1      20.868  21.650  -6.590  1.00  0.00    -0.550 OA
ENDBRANCH   1   2
BRANCH   1   5
ATOM      5  C   UNL     1      17.815  19.969  -7.284  1.00  0.00     0.006 C 
BRANCH   5   6
ATOM      6  C   UNL     1      18.677  18.715  -7.056  1.00  0.00    -0.003 C 
ATOM      7  C   UNL     1      18.055  17.451  -7.650  1.00  0.00     0.004 C 
ENDBRANCH   5   6
ENDBRANCH   1   5
TORSDOF 3
ENDMDL
