MODEL 1
REMARK VINA RESULT:    -2.831      0.000      0.000
REMARK INTER + INTRA:          -4.784
REMARK INTER:                  -3.824
REMARK INTRA:                  -0.960
REMARK UNBOUND:                -0.960
REMARK SMILES O=C[C@@H](O)[C@H](O)[C@H](O)CO
REMARK SMILES IDX 7 1 9 2 10 3 5 5 3 6 2 7 1 8 4 9 6 11 8 13
REMARK H PARENT 10 4 4 10 6 12 8 14
REMARK Flexibility Score: inf
ROOT
ATOM      1  C   UNL     1       6.753  -7.736 -35.879  1.00  0.00     0.171 C 
ENDROOT
BRANCH   1   2
ATOM      2  C   UNL     1       6.444  -6.253 -36.162  1.00  0.00     0.190 C 
BRANCH   2   3
ATOM      3  O   UNL     1       5.340  -6.117 -37.016  1.00  0.00    -0.394 OA
ATOM      4  H   UNL     1       4.628  -6.708 -36.655  1.00  0.00     0.210 HD
ENDBRANCH   2   3
ENDBRANCH   1   2
BRANCH   1   5
ATOM      5  C   UNL     1       5.702  -8.426 -34.969  1.00  0.00     0.181 C 
BRANCH   5   6
ATOM      6  C   UNL     1       4.622  -9.222 -35.748  1.00  0.00     0.209 C 
BRANCH   6   7
ATOM      7  C   UNL     1       3.250  -8.627 -35.557  1.00  0.00     0.258 C 
ATOM      8  O   UNL     1       2.996  -7.520 -36.005  1.00  0.00    -0.300 OA
ENDBRANCH   6   7
BRANCH   6   9
ATOM      9  O   UNL     1       4.929  -9.308 -37.118  1.00  0.00    -0.383 OA
ATOM     10  H   UNL     1       5.751  -9.860 -37.209  1.00  0.00     0.211 HD
ENDBRANCH   6   9
ENDBRANCH   5   6
BRANCH   5  11
ATOM     11  O   UNL     1       5.079  -7.459 -34.161  1.00  0.00    -0.387 OA
ATOM     12  H   UNL     1       4.740  -6.749 -34.768  1.00  0.00     0.211 HD
ENDBRANCH   5  11
ENDBRANCH   1   5
BRANCH   1  13
ATOM     13  O   UNL     1       8.033  -7.857 -35.312  1.00  0.00    -0.388 OA
ATOM     14  H   UNL     1       8.444  -8.674 -35.696  1.00  0.00     0.211 HD
ENDBRANCH   1  13
TORSDOF 8
ENDMDL
MODEL 2
REMARK VINA RESULT:    -2.799      1.446      2.365
REMARK INTER + INTRA:          -4.741
REMARK INTER:                  -4.066
REMARK INTRA:                  -0.675
REMARK UNBOUND:                -0.960
REMARK SMILES O=C[C@@H](O)[C@H](O)[C@H](O)CO
REMARK SMILES IDX 7 1 9 2 10 3 5 5 3 6 2 7 1 8 4 9 6 11 8 13
REMARK H PARENT 10 4 4 10 6 12 8 14
REMARK Flexibility Score: inf
ROOT
ATOM      1  C   UNL     1       4.785  -8.423 -36.071  1.00  0.00     0.171 C 
ENDROOT
BRANCH   1   2
ATOM      2  C   UNL     1       6.131  -7.721 -36.337  1.00  0.00     0.190 C 
BRANCH   2   3
ATOM      3  O   UNL     1       7.038  -7.947 -35.292  1.00  0.00    -0.394 OA
ATOM      4  H   UNL     1       7.778  -7.296 -35.413  1.00  0.00     0.210 HD
ENDBRANCH   2   3
ENDBRANCH   1   2
BRANCH   1   5
ATOM      5  C   UNL     1       4.417  -8.510 -34.566  1.00  0.00     0.181 C 
BRANCH   5   6
ATOM      6  C   UNL     1       2.927  -8.852 -34.302  1.00  0.00     0.209 C 
BRANCH   6   7
ATOM      7  C   UNL     1       2.116  -7.612 -34.016  1.00  0.00     0.258 C 
ATOM      8  O   UNL     1       1.948  -6.777 -34.890  1.00  0.00    -0.300 OA
ENDBRANCH   6   7
BRANCH   6   9
ATOM      9  O   UNL     1       2.362  -9.566 -35.373  1.00  0.00    -0.383 OA
ATOM     10  H   UNL     1       1.485  -9.922 -35.070  1.00  0.00     0.211 HD
ENDBRANCH   6   9
ENDBRANCH   5   6
BRANCH   5  11
ATOM     11  O   UNL     1       4.737  -7.293 -33.938  1.00  0.00    -0.387 OA
ATOM     12  H   UNL     1       4.540  -7.405 -32.971  1.00  0.00     0.211 HD
ENDBRANCH   5  11
ENDBRANCH   1   5
BRANCH   1  13
ATOM     13  O   UNL     1       4.799  -9.709 -36.636  1.00  0.00    -0.388 OA
ATOM     14  H   UNL     1       5.126 -10.331 -35.935  1.00  0.00     0.211 HD
ENDBRANCH   1  13
TORSDOF 8
ENDMDL
MODEL 3
REMARK VINA RESULT:    -2.773     14.770     16.041
REMARK INTER + INTRA:          -4.706
REMARK INTER:                  -4.027
REMARK INTRA:                  -0.679
REMARK UNBOUND:                -0.960
REMARK SMILES O=C[C@@H](O)[C@H](O)[C@H](O)CO
REMARK SMILES IDX 7 1 9 2 10 3 5 5 3 6 2 7 1 8 4 9 6 11 8 13
REMARK H PARENT 10 4 4 10 6 12 8 14
REMARK Flexibility Score: inf
ROOT
ATOM      1  C   UNL     1       4.582  -5.211 -18.906  1.00  0.00     0.171 C 
ENDROOT
BRANCH   1   2
ATOM      2  C   UNL     1       4.697  -3.781 -18.343  1.00  0.00     0.190 C 
BRANCH   2   3
ATOM      3  O   UNL     1       5.917  -3.190 -18.701  1.00  0.00    -0.394 OA
ATOM      4  H   UNL     1       5.950  -2.309 -18.245  1.00  0.00     0.210 HD
ENDBRANCH   2   3
ENDBRANCH   1   2
BRANCH   1   5
ATOM      5  C   UNL     1       4.591  -5.271 -20.457  1.00  0.00     0.181 C 
BRANCH   5   6
ATOM      6  C   UNL     1       4.221  -6.663 -21.034  1.00  0.00     0.209 C 
BRANCH   6   7
ATOM      7  C   UNL     1       4.888  -6.906 -22.365  1.00  0.00     0.258 C 
ATOM      8  O   UNL     1       5.986  -7.436 -22.411  1.00  0.00    -0.300 OA
ENDBRANCH   6   7
BRANCH   6   9
ATOM      9  O   UNL     1       4.539  -7.697 -20.135  1.00  0.00    -0.383 OA
ATOM     10  H   UNL     1       5.373  -8.131 -20.456  1.00  0.00     0.211 HD
ENDBRANCH   6   9
ENDBRANCH   5   6
BRANCH   5  11
ATOM     11  O   UNL     1       5.859  -4.890 -20.929  1.00  0.00    -0.387 OA
ATOM     12  H   UNL     1       5.739  -4.584 -21.867  1.00  0.00     0.211 HD
ENDBRANCH   5  11
ENDBRANCH   1   5
BRANCH   1  13
ATOM     13  O   UNL     1       3.421  -5.827 -18.408  1.00  0.00    -0.388 OA
ATOM     14  H   UNL     1       3.593  -6.041 -17.455  1.00  0.00     0.211 HD
ENDBRANCH   1  13
TORSDOF 8
ENDMDL
MODEL 4
REMARK VINA RESULT:    -2.754     16.228     17.179
REMARK INTER + INTRA:          -4.681
REMARK INTER:                  -3.713
REMARK INTRA:                  -0.968
REMARK UNBOUND:                -0.960
REMARK SMILES O=C[C@@H](O)[C@H](O)[C@H](O)CO
REMARK SMILES IDX 7 1 9 2 10 3 5 5 3 6 2 7 1 8 4 9 6 11 8 13
REMARK H PARENT 10 4 4 10 6 12 8 14
REMARK Flexibility Score: inf
ROOT
ATOM      1  C   UNL     1       5.226  -4.094 -18.337  1.00  0.00     0.171 C 
ENDROOT
BRANCH   1   2
ATOM      2  C   UNL     1       5.205  -2.925 -19.341  1.00  0.00     0.190 C 
BRANCH   2   3
ATOM      3  O   UNL     1       4.856  -3.365 -20.626  1.00  0.00    -0.394 OA
ATOM      4  H   UNL     1       5.590  -3.959 -20.932  1.00  0.00     0.210 HD
ENDBRANCH   2   3
ENDBRANCH   1   2
BRANCH   1   5
ATOM      5  C   UNL     1       3.814  -4.631 -17.980  1.00  0.00     0.181 C 
BRANCH   5   6
ATOM      6  C   UNL     1       3.406  -5.900 -18.775  1.00  0.00     0.209 C 
BRANCH   6   7
ATOM      7  C   UNL     1       2.201  -5.645 -19.645  1.00  0.00     0.258 C 
ATOM      8  O   UNL     1       2.309  -4.970 -20.656  1.00  0.00    -0.300 OA
ENDBRANCH   6   7
BRANCH   6   9
ATOM      9  O   UNL     1       4.471  -6.391 -19.550  1.00  0.00    -0.383 OA
ATOM     10  H   UNL     1       4.086  -6.786 -20.377  1.00  0.00     0.211 HD
ENDBRANCH   6   9
ENDBRANCH   5   6
BRANCH   5  11
ATOM     11  O   UNL     1       2.863  -3.618 -18.195  1.00  0.00    -0.387 OA
ATOM     12  H   UNL     1       2.345  -3.523 -17.352  1.00  0.00     0.211 HD
ENDBRANCH   5  11
ENDBRANCH   1   5
BRANCH   1  13
ATOM     13  O   UNL     1       5.901  -3.706 -17.167  1.00  0.00    -0.388 OA
ATOM     14  H   UNL     1       6.724  -3.231 -17.453  1.00  0.00     0.211 HD
ENDBRANCH   1  13
TORSDOF 8
ENDMDL
MODEL 5
REMARK VINA RESULT:    -2.754     14.689     15.967
REMARK INTER + INTRA:          -4.681
REMARK INTER:                  -4.018
REMARK INTRA:                  -0.663
REMARK UNBOUND:                -0.960
REMARK SMILES O=C[C@@H](O)[C@H](O)[C@H](O)CO
REMARK SMILES IDX 7 1 9 2 10 3 5 5 3 6 2 7 1 8 4 9 6 11 8 13
REMARK H PARENT 10 4 4 10 6 12 8 14
REMARK Flexibility Score: inf
ROOT
ATOM      1  C   UNL     1       3.542 -16.096 -21.623  1.00  0.00     0.171 C 
ENDROOT
BRANCH   1   2
ATOM      2  C   UNL     1       2.262 -16.941 -21.469  1.00  0.00     0.190 C 
BRANCH   2   3
ATOM      3  O   UNL     1       1.465 -16.872 -22.620  1.00  0.00    -0.394 OA
ATOM      4  H   UNL     1       2.078 -16.686 -23.379  1.00  0.00     0.210 HD
ENDBRANCH   2   3
ENDBRANCH   1   2
BRANCH   1   5
ATOM      5  C   UNL     1       3.276 -14.652 -22.126  1.00  0.00     0.181 C 
BRANCH   5   6
ATOM      6  C   UNL     1       4.498 -13.706 -21.993  1.00  0.00     0.209 C 
BRANCH   6   7
ATOM      7  C   UNL     1       4.074 -12.295 -21.670  1.00  0.00     0.258 C 
ATOM      8  O   UNL     1       3.392 -11.665 -22.463  1.00  0.00    -0.300 OA
ENDBRANCH   6   7
BRANCH   6   9
ATOM      9  O   UNL     1       5.412 -14.171 -21.030  1.00  0.00    -0.383 OA
ATOM     10  H   UNL     1       5.572 -13.433 -20.385  1.00  0.00     0.211 HD
ENDBRANCH   6   9
ENDBRANCH   5   6
BRANCH   5  11
ATOM     11  O   UNL     1       2.184 -14.109 -21.426  1.00  0.00    -0.387 OA
ATOM     12  H   UNL     1       1.445 -14.001 -22.080  1.00  0.00     0.211 HD
ENDBRANCH   5  11
ENDBRANCH   1   5
BRANCH   1  13
ATOM     13  O   UNL     1       4.441 -16.747 -22.484  1.00  0.00    -0.388 OA
ATOM     14  H   UNL     1       3.928 -17.016 -23.289  1.00  0.00     0.211 HD
ENDBRANCH   1  13
TORSDOF 8
ENDMDL
MODEL 6
REMARK VINA RESULT:    -2.732      2.007      4.335
REMARK INTER + INTRA:          -4.650
REMARK INTER:                  -3.963
REMARK INTRA:                  -0.687
REMARK UNBOUND:                -0.960
REMARK SMILES O=C[C@@H](O)[C@H](O)[C@H](O)CO
REMARK SMILES IDX 7 1 9 2 10 3 5 5 3 6 2 7 1 8 4 9 6 11 8 13
REMARK H PARENT 10 4 4 10 6 12 8 14
REMARK Flexibility Score: inf
ROOT
ATOM      1  C   UNL     1       2.488  -9.901 -34.453  1.00  0.00     0.171 C 
ENDROOT
BRANCH   1   2
ATOM      2  C   UNL     1       1.629  -9.213 -33.373  1.00  0.00     0.190 C 
BRANCH   2   3
ATOM      3  O   UNL     1       2.425  -8.479 -32.482  1.00  0.00    -0.394 OA
ATOM      4  H   UNL     1       2.860  -9.139 -31.880  1.00  0.00     0.210 HD
ENDBRANCH   2   3
ENDBRANCH   1   2
BRANCH   1   5
ATOM      5  C   UNL     1       3.225  -8.905 -35.387  1.00  0.00     0.181 C 
BRANCH   5   6
ATOM      6  C   UNL     1       4.690  -8.616 -34.965  1.00  0.00     0.209 C 
BRANCH   6   7
ATOM      7  C   UNL     1       5.553  -8.278 -36.156  1.00  0.00     0.258 C 
ATOM      8  O   UNL     1       5.132  -7.530 -37.023  1.00  0.00    -0.300 OA
ENDBRANCH   6   7
BRANCH   6   9
ATOM      9  O   UNL     1       4.760  -7.590 -34.007  1.00  0.00    -0.383 OA
ATOM     10  H   UNL     1       4.585  -7.996 -33.117  1.00  0.00     0.211 HD
ENDBRANCH   6   9
ENDBRANCH   5   6
BRANCH   5  11
ATOM     11  O   UNL     1       2.506  -7.698 -35.441  1.00  0.00    -0.387 OA
ATOM     12  H   UNL     1       1.684  -7.826 -34.898  1.00  0.00     0.211 HD
ENDBRANCH   5  11
ENDBRANCH   1   5
BRANCH   1  13
ATOM     13  O   UNL     1       1.690 -10.772 -35.213  1.00  0.00    -0.388 OA
ATOM     14  H   UNL     1       1.388 -10.265 -36.012  1.00  0.00     0.211 HD
ENDBRANCH   1  13
TORSDOF 8
ENDMDL
MODEL 7
REMARK VINA RESULT:    -2.692      2.491      3.560
REMARK INTER + INTRA:          -4.597
REMARK INTER:                  -3.918
REMARK INTRA:                  -0.679
REMARK UNBOUND:                -0.960
REMARK SMILES O=C[C@@H](O)[C@H](O)[C@H](O)CO
REMARK SMILES IDX 7 1 9 2 10 3 5 5 3 6 2 7 1 8 4 9 6 11 8 13
REMARK H PARENT 10 4 4 10 6 12 8 14
REMARK Flexibility Score: inf
ROOT
ATOM      1  C   UNL     1       4.066  -9.165 -35.428  1.00  0.00     0.171 C 
ENDROOT
BRANCH   1   2
ATOM      2  C   UNL     1       5.341  -8.375 -35.072  1.00  0.00     0.190 C 
BRANCH   2   3
ATOM      3  O   UNL     1       5.076  -7.388 -34.112  1.00  0.00    -0.394 OA
ATOM      4  H   UNL     1       5.485  -6.548 -34.448  1.00  0.00     0.210 HD
ENDBRANCH   2   3
ENDBRANCH   1   2
BRANCH   1   5
ATOM      5  C   UNL     1       2.932  -9.020 -34.378  1.00  0.00     0.181 C 
BRANCH   5   6
ATOM      6  C   UNL     1       2.116 -10.321 -34.152  1.00  0.00     0.209 C 
BRANCH   6   7
ATOM      7  C   UNL     1       1.177 -10.189 -32.979  1.00  0.00     0.258 C 
ATOM      8  O   UNL     1       1.331  -9.288 -32.171  1.00  0.00    -0.300 OA
ENDBRANCH   6   7
BRANCH   6   9
ATOM      9  O   UNL     1       1.404 -10.692 -35.306  1.00  0.00    -0.383 OA
ATOM     10  H   UNL     1       1.456  -9.937 -35.949  1.00  0.00     0.211 HD
ENDBRANCH   6   9
ENDBRANCH   5   6
BRANCH   5  11
ATOM     11  O   UNL     1       2.065  -7.985 -34.769  1.00  0.00    -0.387 OA
ATOM     12  H   UNL     1       2.503  -7.509 -35.523  1.00  0.00     0.211 HD
ENDBRANCH   5  11
ENDBRANCH   1   5
BRANCH   1  13
ATOM     13  O   UNL     1       4.381 -10.522 -35.611  1.00  0.00    -0.388 OA
ATOM     14  H   UNL     1       3.550 -11.037 -35.440  1.00  0.00     0.211 HD
ENDBRANCH   1  13
TORSDOF 8
ENDMDL
MODEL 8
REMARK VINA RESULT:    -2.678      1.970      2.697
REMARK INTER + INTRA:          -4.578
REMARK INTER:                  -3.867
REMARK INTRA:                  -0.710
REMARK UNBOUND:                -0.960
REMARK SMILES O=C[C@@H](O)[C@H](O)[C@H](O)CO
REMARK SMILES IDX 7 1 9 2 10 3 5 5 3 6 2 7 1 8 4 9 6 11 8 13
REMARK H PARENT 10 4 4 10 6 12 8 14
REMARK Flexibility Score: inf
ROOT
ATOM      1  C   UNL     1       4.730  -7.828 -34.690  1.00  0.00     0.171 C 
ENDROOT
BRANCH   1   2
ATOM      2  C   UNL     1       4.984  -7.219 -36.083  1.00  0.00     0.190 C 
BRANCH   2   3
ATOM      3  O   UNL     1       5.082  -8.216 -37.065  1.00  0.00    -0.394 OA
ATOM      4  H   UNL     1       4.554  -8.990 -36.736  1.00  0.00     0.210 HD
ENDBRANCH   2   3
ENDBRANCH   1   2
BRANCH   1   5
ATOM      5  C   UNL     1       3.357  -8.541 -34.566  1.00  0.00     0.181 C 
BRANCH   5   6
ATOM      6  C   UNL     1       3.453 -10.089 -34.539  1.00  0.00     0.209 C 
BRANCH   6   7
ATOM      7  C   UNL     1       2.104 -10.724 -34.310  1.00  0.00     0.258 C 
ATOM      8  O   UNL     1       1.437 -11.102 -35.260  1.00  0.00    -0.300 OA
ENDBRANCH   6   7
BRANCH   6   9
ATOM      9  O   UNL     1       4.035 -10.593 -35.716  1.00  0.00    -0.383 OA
ATOM     10  H   UNL     1       3.692 -11.516 -35.850  1.00  0.00     0.211 HD
ENDBRANCH   6   9
ENDBRANCH   5   6
BRANCH   5  11
ATOM     11  O   UNL     1       2.527  -8.141 -35.629  1.00  0.00    -0.387 OA
ATOM     12  H   UNL     1       1.658  -8.606 -35.508  1.00  0.00     0.211 HD
ENDBRANCH   5  11
ENDBRANCH   1   5
BRANCH   1  13
ATOM     13  O   UNL     1       4.845  -6.833 -33.706  1.00  0.00    -0.388 OA
ATOM     14  H   UNL     1       5.453  -6.136 -34.069  1.00  0.00     0.211 HD
ENDBRANCH   1  13
TORSDOF 8
ENDMDL
