MODEL 1
REMARK VINA RESULT:    -5.842      0.000      0.000
REMARK INTER + INTRA:          -8.013
REMARK INTER:                  -8.233
REMARK INTRA:                   0.220
REMARK UNBOUND:                 0.220
REMARK SMILES CC1=CCC(=C(C)C)C(=O)CC(C)=CCC1
REMARK SMILES IDX 12 1 14 2 13 3 15 4 16 5 2 6 1 7 3 8 11 10 9 11 10 12 5 13
REMARK SMILES IDX 6 14 7 15 8 16 4 17
REMARK H PARENT
REMARK Flexibility Score: 60.00
ROOT
ATOM      1  C   UNL     1       2.645  13.396  21.992  1.00  0.00    -0.070 C 
ATOM      2  C   UNL     1       3.610  12.443  22.048  1.00  0.00    -0.027 C 
ATOM      3  C   UNL     1       2.994  14.766  22.522  1.00  0.00     0.039 C 
ENDROOT
BRANCH   2   4
ATOM      4  C   UNL     1       3.450  10.989  21.673  1.00  0.00     0.032 C 
BRANCH   4   5
ATOM      5  C   UNL     1       2.594  10.197  22.670  1.00  0.00     0.034 C 
BRANCH   5   6
ATOM      6  C   UNL     1       1.488   9.460  21.941  1.00  0.00    -0.077 C 
ATOM      7  C   UNL     1       1.874   8.388  20.952  1.00  0.00     0.039 C 
ATOM      8  C   UNL     1       0.171   9.658  22.187  1.00  0.00    -0.023 CG0
ATOM      9  G   UNL     1      -0.404  10.691  23.126  1.00  0.00     0.000 G0
ENDBRANCH   5   6
ENDBRANCH   4   5
ENDBRANCH   2   4
BRANCH   1  10
ATOM     10  C   UNL     1       1.270  13.196  21.361  1.00  0.00     0.111 C 
BRANCH  10  11
ATOM     11  C   UNL     1       0.142  13.127  22.358  1.00  0.00     0.163 C 
ATOM     12  O   UNL     1      -0.011  14.108  23.137  1.00  0.00    -0.294 OA
BRANCH  11  13
ATOM     13  C   UNL     1      -0.823  11.978  22.414  1.00  0.00    -0.002 C 
ATOM     14  C   UNL     1      -2.079  12.092  21.879  1.00  0.00    -0.069 C 
ATOM     15  C   UNL     1      -2.498  13.310  21.085  1.00  0.00     0.039 C 
ATOM     16  C   UNL     1      -3.102  10.985  22.008  1.00  0.00     0.039 C 
BRANCH  13  17
ATOM     17  C   UNL     1      -0.399  10.697  23.130  1.00  0.00     0.066 CG0
ATOM     18  G   UNL     1       0.160   9.669  22.175  1.00  0.00     0.000 G0
ENDBRANCH  13  17
ENDBRANCH  11  13
ENDBRANCH  10  11
ENDBRANCH   1  10
TORSDOF 0
ENDMDL
MODEL 2
REMARK VINA RESULT:    -5.745      1.693      4.232
REMARK INTER + INTRA:          -7.876
REMARK INTER:                  -8.053
REMARK INTRA:                   0.177
REMARK UNBOUND:                 0.220
REMARK SMILES CC1=CCC(=C(C)C)C(=O)CC(C)=CCC1
REMARK SMILES IDX 12 1 14 2 13 3 15 4 16 5 2 6 1 7 3 8 11 10 9 11 10 12 5 13
REMARK SMILES IDX 6 14 7 15 8 16 4 17
REMARK H PARENT
REMARK Flexibility Score: 60.00
ROOT
ATOM      1  C   UNL     1      -2.599  12.567  21.983  1.00  0.00    -0.070 C 
ATOM      2  C   UNL     1      -2.474  11.226  22.158  1.00  0.00    -0.027 C 
ATOM      3  C   UNL     1      -3.796  13.053  21.202  1.00  0.00     0.039 C 
ENDROOT
BRANCH   2   4
ATOM      4  C   UNL     1      -1.312  10.517  22.813  1.00  0.00     0.032 C 
BRANCH   4   5
ATOM      5  C   UNL     1      -0.162  10.215  21.843  1.00  0.00     0.034 C 
BRANCH   5   6
ATOM      6  C   UNL     1       1.167  10.577  22.478  1.00  0.00    -0.077 C 
ATOM      7  C   UNL     1       1.751   9.634  23.500  1.00  0.00     0.039 C 
ATOM      8  C   UNL     1       1.894  11.662  22.120  1.00  0.00    -0.023 CG0
ATOM      9  G   UNL     1       1.468  12.721  21.132  1.00  0.00     0.000 G0
ENDBRANCH   5   6
ENDBRANCH   4   5
ENDBRANCH   2   4
BRANCH   1  10
ATOM     10  C   UNL     1      -1.662  13.607  22.590  1.00  0.00     0.111 C 
BRANCH  10  11
ATOM     11  C   UNL     1      -0.646  14.155  21.621  1.00  0.00     0.163 C 
ATOM     12  O   UNL     1      -1.072  14.857  20.662  1.00  0.00    -0.294 OA
BRANCH  11  13
ATOM     13  C   UNL     1       0.831  13.948  21.789  1.00  0.00    -0.002 C 
ATOM     14  C   UNL     1       1.590  14.852  22.486  1.00  0.00    -0.069 C 
ATOM     15  C   UNL     1       0.963  16.007  23.236  1.00  0.00     0.039 C 
ATOM     16  C   UNL     1       3.094  14.716  22.587  1.00  0.00     0.039 C 
BRANCH  13  17
ATOM     17  C   UNL     1       1.484  12.739  21.121  1.00  0.00     0.066 CG0
ATOM     18  G   UNL     1       1.885  11.682  22.122  1.00  0.00     0.000 G0
ENDBRANCH  13  17
ENDBRANCH  11  13
ENDBRANCH  10  11
ENDBRANCH   1  10
TORSDOF 0
ENDMDL
MODEL 3
REMARK VINA RESULT:    -5.736      2.301      5.637
REMARK INTER + INTRA:          -7.863
REMARK INTER:                  -8.345
REMARK INTRA:                   0.482
REMARK UNBOUND:                 0.220
REMARK SMILES CC1=CCC(=C(C)C)C(=O)CC(C)=CCC1
REMARK SMILES IDX 12 1 14 2 13 3 15 4 16 5 2 6 1 7 3 8 11 10 9 11 10 12 5 13
REMARK SMILES IDX 6 14 7 15 8 16 4 17
REMARK H PARENT
REMARK Flexibility Score: 60.00
ROOT
ATOM      1  C   UNL     1      -2.592  11.926  21.893  1.00  0.00    -0.070 C 
ATOM      2  C   UNL     1      -3.338  13.038  22.119  1.00  0.00    -0.027 C 
ATOM      3  C   UNL     1      -3.047  10.644  22.548  1.00  0.00     0.039 C 
ENDROOT
BRANCH   2   4
ATOM      4  C   UNL     1      -3.015  14.438  21.653  1.00  0.00     0.032 C 
BRANCH   4   5
ATOM      5  C   UNL     1      -2.277  15.272  22.708  1.00  0.00     0.034 C 
BRANCH   5   6
ATOM      6  C   UNL     1      -0.969  15.791  22.142  1.00  0.00    -0.077 C 
ATOM      7  C   UNL     1      -0.976  17.119  21.428  1.00  0.00     0.039 C 
ATOM      8  C   UNL     1       0.219  15.162  22.311  1.00  0.00    -0.023 CG0
ATOM      9  G   UNL     1       0.420  13.824  22.981  1.00  0.00     0.000 G0
ENDBRANCH   5   6
ENDBRANCH   4   5
ENDBRANCH   2   4
BRANCH   1  10
ATOM     10  C   UNL     1      -1.384  11.872  20.964  1.00  0.00     0.111 C 
BRANCH  10  11
ATOM     11  C   UNL     1      -0.076  11.627  21.673  1.00  0.00     0.163 C 
ATOM     12  O   UNL     1       0.234  10.432  21.931  1.00  0.00    -0.294 OA
BRANCH  11  13
ATOM     13  C   UNL     1       0.878  12.732  22.022  1.00  0.00    -0.002 C 
ATOM     14  C   UNL     1       2.154  12.739  21.523  1.00  0.00    -0.069 C 
ATOM     15  C   UNL     1       2.611  11.730  20.492  1.00  0.00     0.039 C 
ATOM     16  C   UNL     1       3.164  13.788  21.935  1.00  0.00     0.039 C 
BRANCH  13  17
ATOM     17  C   UNL     1       0.418  13.822  22.990  1.00  0.00     0.066 CG0
ATOM     18  G   UNL     1       0.232  15.153  22.302  1.00  0.00     0.000 G0
ENDBRANCH  13  17
ENDBRANCH  11  13
ENDBRANCH  10  11
ENDBRANCH   1  10
TORSDOF 0
ENDMDL
MODEL 4
REMARK VINA RESULT:    -5.620      2.062      4.551
REMARK INTER + INTRA:          -7.700
REMARK INTER:                  -8.223
REMARK INTRA:                   0.524
REMARK UNBOUND:                 0.220
REMARK SMILES CC1=CCC(=C(C)C)C(=O)CC(C)=CCC1
REMARK SMILES IDX 12 1 14 2 13 3 15 4 16 5 2 6 1 7 3 8 11 10 9 11 10 12 5 13
REMARK SMILES IDX 6 14 7 15 8 16 4 17
REMARK H PARENT
REMARK Flexibility Score: 60.00
ROOT
ATOM      1  C   UNL     1      -0.164  15.499  22.865  1.00  0.00    -0.070 C 
ATOM      2  C   UNL     1      -1.507  15.607  22.696  1.00  0.00    -0.027 C 
ATOM      3  C   UNL     1       0.634  16.780  22.891  1.00  0.00     0.039 C 
ENDROOT
BRANCH   2   4
ATOM      4  C   UNL     1      -2.481  14.462  22.539  1.00  0.00     0.032 C 
BRANCH   4   5
ATOM      5  C   UNL     1      -2.498  13.873  21.122  1.00  0.00     0.034 C 
BRANCH   5   6
ATOM      6  C   UNL     1      -2.062  12.421  21.154  1.00  0.00    -0.077 C 
ATOM      7  C   UNL     1      -3.044  11.391  21.651  1.00  0.00     0.039 C 
ATOM      8  C   UNL     1      -0.865  11.991  20.688  1.00  0.00    -0.023 CG0
ATOM      9  G   UNL     1       0.246  12.872  20.169  1.00  0.00     0.000 G0
ENDBRANCH   5   6
ENDBRANCH   4   5
ENDBRANCH   2   4
BRANCH   1  10
ATOM     10  C   UNL     1       0.571  14.185  23.110  1.00  0.00     0.111 C 
BRANCH  10  11
ATOM     11  C   UNL     1       1.650  13.889  22.099  1.00  0.00     0.163 C 
ATOM     12  O   UNL     1       2.737  14.521  22.202  1.00  0.00    -0.294 OA
BRANCH  11  13
ATOM     13  C   UNL     1       1.498  12.844  21.032  1.00  0.00    -0.002 C 
ATOM     14  C   UNL     1       2.480  11.911  20.821  1.00  0.00    -0.069 C 
ATOM     15  C   UNL     1       3.679  11.797  21.736  1.00  0.00     0.039 C 
ATOM     16  C   UNL     1       2.395  10.910  19.690  1.00  0.00     0.039 C 
BRANCH  13  17
ATOM     17  C   UNL     1       0.253  12.873  20.147  1.00  0.00     0.066 CG0
ATOM     18  G   UNL     1      -0.853  12.000  20.691  1.00  0.00     0.000 G0
ENDBRANCH  13  17
ENDBRANCH  11  13
ENDBRANCH  10  11
ENDBRANCH   1  10
TORSDOF 0
ENDMDL
MODEL 5
REMARK VINA RESULT:    -5.583      1.907      3.706
REMARK INTER + INTRA:          -7.648
REMARK INTER:                  -8.001
REMARK INTRA:                   0.353
REMARK UNBOUND:                 0.220
REMARK SMILES CC1=CCC(=C(C)C)C(=O)CC(C)=CCC1
REMARK SMILES IDX 12 1 14 2 13 3 15 4 16 5 2 6 1 7 3 8 11 10 9 11 10 12 5 13
REMARK SMILES IDX 6 14 7 15 8 16 4 17
REMARK H PARENT
REMARK Flexibility Score: 60.00
ROOT
ATOM      1  C   UNL     1       0.089   9.580  23.117  1.00  0.00    -0.070 C 
ATOM      2  C   UNL     1       1.427   9.418  22.944  1.00  0.00    -0.027 C 
ATOM      3  C   UNL     1      -0.747   8.329  23.245  1.00  0.00     0.039 C 
ENDROOT
BRANCH   2   4
ATOM      4  C   UNL     1       2.432  10.517  22.693  1.00  0.00     0.032 C 
BRANCH   4   5
ATOM      5  C   UNL     1       2.530  10.921  21.216  1.00  0.00     0.034 C 
BRANCH   5   6
ATOM      6  C   UNL     1       2.248  12.403  21.059  1.00  0.00    -0.077 C 
ATOM      7  C   UNL     1       3.343  13.380  21.407  1.00  0.00     0.039 C 
ATOM      8  C   UNL     1       1.093  12.893  20.549  1.00  0.00    -0.023 CG0
ATOM      9  G   UNL     1      -0.115  12.075  20.161  1.00  0.00     0.000 G0
ENDBRANCH   5   6
ENDBRANCH   4   5
ENDBRANCH   2   4
BRANCH   1  10
ATOM     10  C   UNL     1      -0.604  10.930  23.269  1.00  0.00     0.111 C 
BRANCH  10  11
ATOM     11  C   UNL     1      -1.576  11.248  22.162  1.00  0.00     0.163 C 
ATOM     12  O   UNL     1      -2.681  10.639  22.161  1.00  0.00    -0.294 OA
BRANCH  11  13
ATOM     13  C   UNL     1      -1.302  12.289  21.115  1.00  0.00    -0.002 C 
ATOM     14  C   UNL     1      -2.118  13.382  20.985  1.00  0.00    -0.069 C 
ATOM     15  C   UNL     1      -3.229  13.668  21.971  1.00  0.00     0.039 C 
ATOM     16  C   UNL     1      -1.920  14.394  19.878  1.00  0.00     0.039 C 
BRANCH  13  17
ATOM     17  C   UNL     1      -0.129  12.078  20.159  1.00  0.00     0.066 CG0
ATOM     18  G   UNL     1       1.076  12.902  20.546  1.00  0.00     0.000 G0
ENDBRANCH  13  17
ENDBRANCH  11  13
ENDBRANCH  10  11
ENDBRANCH   1  10
TORSDOF 0
ENDMDL
MODEL 6
REMARK VINA RESULT:    -5.516      2.312      3.519
REMARK INTER + INTRA:          -7.553
REMARK INTER:                  -7.678
REMARK INTRA:                   0.124
REMARK UNBOUND:                 0.220
REMARK SMILES CC1=CCC(=C(C)C)C(=O)CC(C)=CCC1
REMARK SMILES IDX 12 1 14 2 13 3 15 4 16 5 2 6 1 7 3 8 11 10 9 11 10 12 5 13
REMARK SMILES IDX 6 14 7 15 8 16 4 17
REMARK H PARENT
REMARK Flexibility Score: 60.00
ROOT
ATOM      1  C   UNL     1       1.718  10.110  21.876  1.00  0.00    -0.070 C 
ATOM      2  C   UNL     1       2.585  10.526  20.917  1.00  0.00    -0.027 C 
ATOM      3  C   UNL     1       2.309   9.625  23.178  1.00  0.00     0.039 C 
ENDROOT
BRANCH   2   4
ATOM      4  C   UNL     1       2.223  10.951  19.514  1.00  0.00     0.032 C 
BRANCH   4   5
ATOM      5  C   UNL     1       1.790  12.420  19.419  1.00  0.00     0.034 C 
BRANCH   5   6
ATOM      6  C   UNL     1       0.528  12.541  18.587  1.00  0.00    -0.077 C 
ATOM      7  C   UNL     1       0.588  12.134  17.136  1.00  0.00     0.039 C 
ATOM      8  C   UNL     1      -0.668  12.921  19.095  1.00  0.00    -0.023 CG0
ATOM      9  G   UNL     1      -0.917  13.376  20.513  1.00  0.00     0.000 G0
ENDBRANCH   5   6
ENDBRANCH   4   5
ENDBRANCH   2   4
BRANCH   1  10
ATOM     10  C   UNL     1       0.199  10.177  21.755  1.00  0.00     0.111 C 
BRANCH  10  11
ATOM     11  C   UNL     1      -0.396  11.478  22.229  1.00  0.00     0.163 C 
ATOM     12  O   UNL     1       0.023  11.948  23.323  1.00  0.00    -0.294 OA
BRANCH  11  13
ATOM     13  C   UNL     1      -1.407  12.249  21.431  1.00  0.00    -0.002 C 
ATOM     14  C   UNL     1      -2.736  11.915  21.473  1.00  0.00    -0.069 C 
ATOM     15  C   UNL     1      -3.262  10.867  22.429  1.00  0.00     0.039 C 
ATOM     16  C   UNL     1      -3.759  12.613  20.605  1.00  0.00     0.039 C 
BRANCH  13  17
ATOM     17  C   UNL     1      -0.920  13.378  20.523  1.00  0.00     0.066 CG0
ATOM     18  G   UNL     1      -0.682  12.908  19.108  1.00  0.00     0.000 G0
ENDBRANCH  13  17
ENDBRANCH  11  13
ENDBRANCH  10  11
ENDBRANCH   1  10
TORSDOF 0
ENDMDL
MODEL 7
REMARK VINA RESULT:    -5.501      1.787      2.345
REMARK INTER + INTRA:          -7.532
REMARK INTER:                  -7.804
REMARK INTRA:                   0.273
REMARK UNBOUND:                 0.220
REMARK SMILES CC1=CCC(=C(C)C)C(=O)CC(C)=CCC1
REMARK SMILES IDX 12 1 14 2 13 3 15 4 16 5 2 6 1 7 3 8 11 10 9 11 10 12 5 13
REMARK SMILES IDX 6 14 7 15 8 16 4 17
REMARK H PARENT
REMARK Flexibility Score: 60.00
ROOT
ATOM      1  C   UNL     1       0.107  14.347  22.100  1.00  0.00    -0.070 C 
ATOM      2  C   UNL     1       1.373  14.058  22.498  1.00  0.00    -0.027 C 
ATOM      3  C   UNL     1      -0.849  14.854  23.152  1.00  0.00     0.039 C 
ENDROOT
BRANCH   2   4
ATOM      4  C   UNL     1       2.458  13.447  21.643  1.00  0.00     0.032 C 
BRANCH   4   5
ATOM      5  C   UNL     1       2.722  11.970  21.965  1.00  0.00     0.034 C 
BRANCH   5   6
ATOM      6  C   UNL     1       2.227  11.091  20.833  1.00  0.00    -0.077 C 
ATOM      7  C   UNL     1       3.204  10.698  19.754  1.00  0.00     0.039 C 
ATOM      8  C   UNL     1       0.975  10.578  20.780  1.00  0.00    -0.023 CG0
ATOM      9  G   UNL     1      -0.139  10.870  21.756  1.00  0.00     0.000 G0
ENDBRANCH   5   6
ENDBRANCH   4   5
ENDBRANCH   2   4
BRANCH   1  10
ATOM     10  C   UNL     1      -0.382  14.272  20.657  1.00  0.00     0.111 C 
BRANCH  10  11
ATOM     11  C   UNL     1      -0.749  12.881  20.207  1.00  0.00     0.163 C 
ATOM     12  O   UNL     1      -0.621  12.611  18.981  1.00  0.00    -0.294 OA
BRANCH  11  13
ATOM     13  C   UNL     1      -1.197  11.811  21.159  1.00  0.00    -0.002 C 
ATOM     14  C   UNL     1      -2.514  11.701  21.522  1.00  0.00    -0.069 C 
ATOM     15  C   UNL     1      -3.590  12.546  20.875  1.00  0.00     0.039 C 
ATOM     16  C   UNL     1      -2.974  10.694  22.552  1.00  0.00     0.039 C 
BRANCH  13  17
ATOM     17  C   UNL     1      -0.147  10.878  21.761  1.00  0.00     0.066 CG0
ATOM     18  G   UNL     1       0.973  10.580  20.793  1.00  0.00     0.000 G0
ENDBRANCH  13  17
ENDBRANCH  11  13
ENDBRANCH  10  11
ENDBRANCH   1  10
TORSDOF 0
ENDMDL
MODEL 8
REMARK VINA RESULT:    -5.489      2.299      4.722
REMARK INTER + INTRA:          -7.515
REMARK INTER:                  -7.892
REMARK INTRA:                   0.377
REMARK UNBOUND:                 0.220
REMARK SMILES CC1=CCC(=C(C)C)C(=O)CC(C)=CCC1
REMARK SMILES IDX 12 1 14 2 13 3 15 4 16 5 2 6 1 7 3 8 11 10 9 11 10 12 5 13
REMARK SMILES IDX 6 14 7 15 8 16 4 17
REMARK H PARENT
REMARK Flexibility Score: 60.00
ROOT
ATOM      1  C   UNL     1      -1.473  14.969  21.941  1.00  0.00    -0.070 C 
ATOM      2  C   UNL     1      -2.266  14.626  20.893  1.00  0.00    -0.027 C 
ATOM      3  C   UNL     1      -2.154  15.511  23.174  1.00  0.00     0.039 C 
ENDROOT
BRANCH   2   4
ATOM      4  C   UNL     1      -1.797  14.163  19.534  1.00  0.00     0.032 C 
BRANCH   4   5
ATOM      5  C   UNL     1      -1.515  12.656  19.471  1.00  0.00     0.034 C 
BRANCH   5   6
ATOM      6  C   UNL     1      -0.294  12.388  18.612  1.00  0.00    -0.077 C 
ATOM      7  C   UNL     1      -0.355  12.752  17.150  1.00  0.00     0.039 C 
ATOM      8  C   UNL     1       0.874  11.910  19.104  1.00  0.00    -0.023 CG0
ATOM      9  G   UNL     1       1.119  11.478  20.530  1.00  0.00     0.000 G0
ENDBRANCH   5   6
ENDBRANCH   4   5
ENDBRANCH   2   4
BRANCH   1  10
ATOM     10  C   UNL     1       0.039  14.769  21.980  1.00  0.00     0.111 C 
BRANCH  10  11
ATOM     11  C   UNL     1       0.462  13.345  22.235  1.00  0.00     0.163 C 
ATOM     12  O   UNL     1      -0.153  12.705  23.132  1.00  0.00    -0.294 OA
BRANCH  11  13
ATOM     13  C   UNL     1       1.528  12.658  21.432  1.00  0.00    -0.002 C 
ATOM     14  C   UNL     1       2.824  13.101  21.464  1.00  0.00    -0.069 C 
ATOM     15  C   UNL     1       3.268  14.194  22.411  1.00  0.00     0.039 C 
ATOM     16  C   UNL     1       3.896  12.486  20.592  1.00  0.00     0.039 C 
BRANCH  13  17
ATOM     17  C   UNL     1       1.130  11.488  20.533  1.00  0.00     0.066 CG0
ATOM     18  G   UNL     1       0.876  11.924  19.110  1.00  0.00     0.000 G0
ENDBRANCH  13  17
ENDBRANCH  11  13
ENDBRANCH  10  11
ENDBRANCH   1  10
TORSDOF 0
ENDMDL
MODEL 9
REMARK VINA RESULT:    -5.464      2.294      4.187
REMARK INTER + INTRA:          -7.480
REMARK INTER:                  -8.008
REMARK INTRA:                   0.529
REMARK UNBOUND:                 0.220
REMARK SMILES CC1=CCC(=C(C)C)C(=O)CC(C)=CCC1
REMARK SMILES IDX 12 1 14 2 13 3 15 4 16 5 2 6 1 7 3 8 11 10 9 11 10 12 5 13
REMARK SMILES IDX 6 14 7 15 8 16 4 17
REMARK H PARENT
REMARK Flexibility Score: 60.00
ROOT
ATOM      1  C   UNL     1      -1.657  11.119  21.790  1.00  0.00    -0.070 C 
ATOM      2  C   UNL     1      -0.523  10.446  22.116  1.00  0.00    -0.027 C 
ATOM      3  C   UNL     1      -2.953  10.614  22.377  1.00  0.00     0.039 C 
ENDROOT
BRANCH   2   4
ATOM      4  C   UNL     1       0.859  10.711  21.568  1.00  0.00     0.032 C 
BRANCH   4   5
ATOM      5  C   UNL     1       1.698  11.634  22.461  1.00  0.00     0.034 C 
BRANCH   5   6
ATOM      6  C   UNL     1       2.074  12.894  21.705  1.00  0.00    -0.077 C 
ATOM      7  C   UNL     1       3.201  12.818  20.706  1.00  0.00     0.039 C 
ATOM      8  C   UNL     1       1.401  14.063  21.822  1.00  0.00    -0.023 CG0
ATOM      9  G   UNL     1       0.262  14.333  22.776  1.00  0.00     0.000 G0
ENDBRANCH   5   6
ENDBRANCH   4   5
ENDBRANCH   2   4
BRANCH   1  10
ATOM     10  C   UNL     1      -1.694  12.388  20.944  1.00  0.00     0.111 C 
BRANCH  10  11
ATOM     11  C   UNL     1      -2.038  13.633  21.722  1.00  0.00     0.163 C 
ATOM     12  O   UNL     1      -3.211  13.732  22.176  1.00  0.00    -0.294 OA
BRANCH  11  13
ATOM     13  C   UNL     1      -1.035  14.709  22.019  1.00  0.00    -0.002 C 
ATOM     14  C   UNL     1      -1.236  15.994  21.586  1.00  0.00    -0.069 C 
ATOM     15  C   UNL     1      -2.531  16.418  20.928  1.00  0.00     0.039 C 
ATOM     16  C   UNL     1      -0.196  17.073  21.789  1.00  0.00     0.039 C 
BRANCH  13  17
ATOM     17  C   UNL     1       0.245  14.334  22.765  1.00  0.00     0.066 CG0
ATOM     18  G   UNL     1       1.391  14.049  21.823  1.00  0.00     0.000 G0
ENDBRANCH  13  17
ENDBRANCH  11  13
ENDBRANCH  10  11
ENDBRANCH   1  10
TORSDOF 0
ENDMDL
