MODEL 1
REMARK VINA RESULT:    -3.001      0.000      0.000
REMARK INTER + INTRA:          -4.466
REMARK INTER:                  -3.791
REMARK INTRA:                  -0.675
REMARK UNBOUND:                -0.675
REMARK SMILES O=C(C=Cc1ccc(O)cc1)c1ccc(O)cc1O
REMARK SMILES IDX 4 1 3 2 5 3 6 4 7 5 8 6 11 7 10 8 9 9 2 11 1 12 12 13 18 14
REMARK SMILES IDX 13 15 17 16 14 17 15 18 19 19 16 21
REMARK H PARENT 9 10 19 20 16 22
REMARK Flexibility Score: inf
ROOT
ATOM      1  C   UNL     1      -9.885  -8.407  18.634  1.00  0.00     0.012 C 
ATOM      2  C   UNL     1     -10.914  -8.138  17.817  1.00  0.00     0.053 C 
ENDROOT
BRANCH   1   3
ATOM      3  C   UNL     1      -9.998  -8.446  20.113  1.00  0.00    -0.025 A 
ATOM      4  C   UNL     1      -8.989  -7.839  20.881  1.00  0.00     0.012 A 
ATOM      5  C   UNL     1      -9.048  -7.860  22.277  1.00  0.00     0.047 A 
ATOM      6  C   UNL     1     -10.111  -8.500  22.927  1.00  0.00     0.115 A 
ATOM      7  C   UNL     1     -11.055  -9.101  20.776  1.00  0.00     0.012 A 
ATOM      8  C   UNL     1     -11.110  -9.121  22.173  1.00  0.00     0.047 A 
BRANCH   6   9
ATOM      9  O   UNL     1     -10.180  -8.528  24.318  1.00  0.00    -0.508 OA
ATOM     10  H   UNL     1     -10.900  -8.022  24.822  1.00  0.00     0.293 HD
ENDBRANCH   6   9
ENDBRANCH   1   3
BRANCH   2  11
ATOM     11  C   UNL     1     -10.760  -8.089  16.345  1.00  0.00     0.189 C 
ATOM     12  O   UNL     1     -11.008  -9.118  15.656  1.00  0.00    -0.289 OA
BRANCH  11  13
ATOM     13  C   UNL     1     -10.308  -6.848  15.665  1.00  0.00     0.064 A 
ATOM     14  C   UNL     1      -9.320  -6.894  14.657  1.00  0.00     0.130 A 
ATOM     15  C   UNL     1     -10.880  -5.608  16.003  1.00  0.00     0.020 A 
ATOM     16  C   UNL     1      -8.920  -5.712  14.014  1.00  0.00     0.093 A 
ATOM     17  C   UNL     1     -10.472  -4.437  15.359  1.00  0.00     0.047 A 
ATOM     18  C   UNL     1      -9.493  -4.485  14.366  1.00  0.00     0.119 A 
BRANCH  14  19
ATOM     19  O   UNL     1      -8.724  -8.104  14.304  1.00  0.00    -0.507 OA
ATOM     20  H   UNL     1      -7.722  -8.245  14.370  1.00  0.00     0.293 HD
ENDBRANCH  14  19
BRANCH  18  21
ATOM     21  O   UNL     1      -9.098  -3.308  13.732  1.00  0.00    -0.508 OA
ATOM     22  H   UNL     1      -8.727  -3.313  12.789  1.00  0.00     0.293 HD
ENDBRANCH  18  21
ENDBRANCH  11  13
ENDBRANCH   2  11
TORSDOF 6
ENDMDL
MODEL 2
REMARK VINA RESULT:    -1.389      5.618     10.540
REMARK INTER + INTRA:          -2.429
REMARK INTER:                  -2.040
REMARK INTRA:                  -0.388
REMARK UNBOUND:                -0.675
REMARK SMILES O=C(C=Cc1ccc(O)cc1)c1ccc(O)cc1O
REMARK SMILES IDX 4 1 3 2 5 3 6 4 7 5 8 6 11 7 10 8 9 9 2 11 1 12 12 13 18 14
REMARK SMILES IDX 13 15 17 16 14 17 15 18 19 19 16 21
REMARK H PARENT 9 10 19 20 16 22
REMARK Flexibility Score: inf
ROOT
ATOM      1  C   UNL     1     -11.122  -3.164  10.452  1.00  0.00     0.012 C 
ATOM      2  C   UNL     1     -10.602  -4.393  10.581  1.00  0.00     0.053 C 
ENDROOT
BRANCH   1   3
ATOM      3  C   UNL     1     -11.113  -2.397   9.183  1.00  0.00    -0.025 A 
ATOM      4  C   UNL     1     -11.125  -3.104   7.968  1.00  0.00     0.012 A 
ATOM      5  C   UNL     1     -11.107  -2.422   6.748  1.00  0.00     0.047 A 
ATOM      6  C   UNL     1     -11.064  -1.023   6.724  1.00  0.00     0.115 A 
ATOM      7  C   UNL     1     -11.054  -0.989   9.148  1.00  0.00     0.012 A 
ATOM      8  C   UNL     1     -11.035  -0.310   7.926  1.00  0.00     0.047 A 
BRANCH   6   9
ATOM      9  O   UNL     1     -11.045  -0.333   5.514  1.00  0.00    -0.508 OA
ATOM     10  H   UNL     1     -10.301  -0.469   4.839  1.00  0.00     0.293 HD
ENDBRANCH   6   9
ENDBRANCH   1   3
BRANCH   2  11
ATOM     11  C   UNL     1     -10.611  -5.123  11.871  1.00  0.00     0.189 C 
ATOM     12  O   UNL     1     -11.124  -6.275  11.933  1.00  0.00    -0.289 OA
BRANCH  11  13
ATOM     13  C   UNL     1     -10.034  -4.515  13.096  1.00  0.00     0.064 A 
ATOM     14  C   UNL     1      -9.035  -5.187  13.836  1.00  0.00     0.130 A 
ATOM     15  C   UNL     1     -10.460  -3.244  13.524  1.00  0.00     0.020 A 
ATOM     16  C   UNL     1      -8.489  -4.588  14.982  1.00  0.00     0.093 A 
ATOM     17  C   UNL     1      -9.911  -2.658  14.668  1.00  0.00     0.047 A 
ATOM     18  C   UNL     1      -8.928  -3.326  15.399  1.00  0.00     0.119 A 
BRANCH  14  19
ATOM     19  O   UNL     1      -8.597  -6.452  13.446  1.00  0.00    -0.507 OA
ATOM     20  H   UNL     1      -8.892  -6.873  12.573  1.00  0.00     0.293 HD
ENDBRANCH  14  19
BRANCH  18  21
ATOM     21  O   UNL     1      -8.390  -2.727  16.536  1.00  0.00    -0.508 OA
ATOM     22  H   UNL     1      -8.225  -1.728  16.581  1.00  0.00     0.293 HD
ENDBRANCH  18  21
ENDBRANCH  11  13
ENDBRANCH   2  11
TORSDOF 6
ENDMDL
MODEL 3
REMARK VINA RESULT:    -1.282     14.882     19.083
REMARK INTER + INTRA:          -2.294
REMARK INTER:                  -1.909
REMARK INTRA:                  -0.384
REMARK UNBOUND:                -0.675
REMARK SMILES O=C(C=Cc1ccc(O)cc1)c1ccc(O)cc1O
REMARK SMILES IDX 4 1 3 2 5 3 6 4 7 5 8 6 11 7 10 8 9 9 2 11 1 12 12 13 18 14
REMARK SMILES IDX 13 15 17 16 14 17 15 18 19 19 16 21
REMARK H PARENT 9 10 19 20 16 22
REMARK Flexibility Score: inf
ROOT
ATOM      1  C   UNL     1      -4.692   4.146   5.995  1.00  0.00     0.012 C 
ATOM      2  C   UNL     1      -4.046   4.503   4.876  1.00  0.00     0.053 C 
ENDROOT
BRANCH   1   3
ATOM      3  C   UNL     1      -5.934   3.334   6.005  1.00  0.00    -0.025 A 
ATOM      4  C   UNL     1      -5.964   2.159   6.776  1.00  0.00     0.012 A 
ATOM      5  C   UNL     1      -7.109   1.358   6.807  1.00  0.00     0.047 A 
ATOM      6  C   UNL     1      -8.237   1.711   6.056  1.00  0.00     0.115 A 
ATOM      7  C   UNL     1      -7.068   3.674   5.240  1.00  0.00     0.012 A 
ATOM      8  C   UNL     1      -8.211   2.869   5.272  1.00  0.00     0.047 A 
BRANCH   6   9
ATOM      9  O   UNL     1      -9.383   0.921   6.078  1.00  0.00    -0.508 OA
ATOM     10  H   UNL     1      -9.773   0.531   5.228  1.00  0.00     0.293 HD
ENDBRANCH   6   9
ENDBRANCH   1   3
BRANCH   2  11
ATOM     11  C   UNL     1      -2.819   5.332   4.904  1.00  0.00     0.189 C 
ATOM     12  O   UNL     1      -1.687   4.771   4.932  1.00  0.00    -0.289 OA
BRANCH  11  13
ATOM     13  C   UNL     1      -2.898   6.814   4.910  1.00  0.00     0.064 A 
ATOM     14  C   UNL     1      -1.726   7.602   4.888  1.00  0.00     0.130 A 
ATOM     15  C   UNL     1      -4.150   7.456   4.915  1.00  0.00     0.020 A 
ATOM     16  C   UNL     1      -1.823   9.002   4.875  1.00  0.00     0.093 A 
ATOM     17  C   UNL     1      -4.236   8.851   4.906  1.00  0.00     0.047 A 
ATOM     18  C   UNL     1      -3.075   9.627   4.887  1.00  0.00     0.119 A 
BRANCH  14  19
ATOM     19  O   UNL     1      -0.468   7.000   4.893  1.00  0.00    -0.507 OA
ATOM     20  H   UNL     1      -0.044   6.643   4.044  1.00  0.00     0.293 HD
ENDBRANCH  14  19
BRANCH  18  21
ATOM     21  O   UNL     1      -3.177  11.016   4.877  1.00  0.00    -0.508 OA
ATOM     22  H   UNL     1      -2.641  11.582   4.229  1.00  0.00     0.293 HD
ENDBRANCH  18  21
ENDBRANCH  11  13
ENDBRANCH   2  11
TORSDOF 6
ENDMDL
MODEL 4
REMARK VINA RESULT:    -0.602     14.904     19.006
REMARK INTER + INTRA:          -1.435
REMARK INTER:                  -1.044
REMARK INTRA:                  -0.392
REMARK UNBOUND:                -0.675
REMARK SMILES O=C(C=Cc1ccc(O)cc1)c1ccc(O)cc1O
REMARK SMILES IDX 4 1 3 2 5 3 6 4 7 5 8 6 11 7 10 8 9 9 2 11 1 12 12 13 18 14
REMARK SMILES IDX 13 15 17 16 14 17 15 18 19 19 16 21
REMARK H PARENT 9 10 19 20 16 22
REMARK Flexibility Score: inf
ROOT
ATOM      1  C   UNL     1      -5.182   4.533   5.804  1.00  0.00     0.012 C 
ATOM      2  C   UNL     1      -4.238   4.748   4.875  1.00  0.00     0.053 C 
ENDROOT
BRANCH   1   3
ATOM      3  C   UNL     1      -6.072   3.346   5.812  1.00  0.00    -0.025 A 
ATOM      4  C   UNL     1      -7.179   3.329   4.946  1.00  0.00     0.012 A 
ATOM      5  C   UNL     1      -8.051   2.236   4.927  1.00  0.00     0.047 A 
ATOM      6  C   UNL     1      -7.835   1.149   5.782  1.00  0.00     0.115 A 
ATOM      7  C   UNL     1      -5.872   2.253   6.680  1.00  0.00     0.012 A 
ATOM      8  C   UNL     1      -6.746   1.163   6.659  1.00  0.00     0.047 A 
BRANCH   6   9
ATOM      9  O   UNL     1      -8.697   0.055   5.773  1.00  0.00    -0.508 OA
ATOM     10  H   UNL     1      -9.560   0.065   5.241  1.00  0.00     0.293 HD
ENDBRANCH   6   9
ENDBRANCH   1   3
BRANCH   2  11
ATOM     11  C   UNL     1      -3.380   5.955   4.888  1.00  0.00     0.189 C 
ATOM     12  O   UNL     1      -3.914   7.100   4.903  1.00  0.00    -0.289 OA
BRANCH  11  13
ATOM     13  C   UNL     1      -1.901   5.841   4.875  1.00  0.00     0.064 A 
ATOM     14  C   UNL     1      -1.085   6.994   4.886  1.00  0.00     0.130 A 
ATOM     15  C   UNL     1      -1.288   4.574   4.875  1.00  0.00     0.020 A 
ATOM     16  C   UNL     1       0.313   6.864   4.892  1.00  0.00     0.093 A 
ATOM     17  C   UNL     1       0.104   4.455   4.878  1.00  0.00     0.047 A 
ATOM     18  C   UNL     1       0.907   5.597   4.885  1.00  0.00     0.119 A 
BRANCH  14  19
ATOM     19  O   UNL     1      -1.657   8.266   4.876  1.00  0.00    -0.507 OA
ATOM     20  H   UNL     1      -2.657   8.400   4.776  1.00  0.00     0.293 HD
ENDBRANCH  14  19
BRANCH  18  21
ATOM     21  O   UNL     1       2.294   5.462   4.889  1.00  0.00    -0.508 OA
ATOM     22  H   UNL     1       2.898   6.212   5.204  1.00  0.00     0.293 HD
ENDBRANCH  18  21
ENDBRANCH  11  13
ENDBRANCH   2  11
TORSDOF 6
ENDMDL
MODEL 5
REMARK VINA RESULT:    -0.410     14.649     18.878
REMARK INTER + INTRA:          -1.193
REMARK INTER:                  -0.570
REMARK INTRA:                  -0.624
REMARK UNBOUND:                -0.675
REMARK SMILES O=C(C=Cc1ccc(O)cc1)c1ccc(O)cc1O
REMARK SMILES IDX 4 1 3 2 5 3 6 4 7 5 8 6 11 7 10 8 9 9 2 11 1 12 12 13 18 14
REMARK SMILES IDX 13 15 17 16 14 17 15 18 19 19 16 21
REMARK H PARENT 9 10 19 20 16 22
REMARK Flexibility Score: inf
ROOT
ATOM      1  C   UNL     1      -3.984   4.994   4.993  1.00  0.00     0.012 C 
ATOM      2  C   UNL     1      -5.063   4.506   5.621  1.00  0.00     0.053 C 
ENDROOT
BRANCH   1   3
ATOM      3  C   UNL     1      -3.637   6.436   4.954  1.00  0.00    -0.025 A 
ATOM      4  C   UNL     1      -2.280   6.800   4.911  1.00  0.00     0.012 A 
ATOM      5  C   UNL     1      -1.906   8.147   4.883  1.00  0.00     0.047 A 
ATOM      6  C   UNL     1      -2.883   9.150   4.910  1.00  0.00     0.115 A 
ATOM      7  C   UNL     1      -4.613   7.452   4.996  1.00  0.00     0.012 A 
ATOM      8  C   UNL     1      -4.235   8.798   4.969  1.00  0.00     0.047 A 
BRANCH   6   9
ATOM      9  O   UNL     1      -2.523  10.495   4.883  1.00  0.00    -0.508 OA
ATOM     10  H   UNL     1      -2.858  11.147   5.584  1.00  0.00     0.293 HD
ENDBRANCH   6   9
ENDBRANCH   1   3
BRANCH   2  11
ATOM     11  C   UNL     1      -5.389   3.061   5.623  1.00  0.00     0.189 C 
ATOM     12  O   UNL     1      -4.457   2.211   5.575  1.00  0.00    -0.289 OA
BRANCH  11  13
ATOM     13  C   UNL     1      -6.798   2.596   5.673  1.00  0.00     0.064 A 
ATOM     14  C   UNL     1      -7.182   1.538   6.528  1.00  0.00     0.130 A 
ATOM     15  C   UNL     1      -7.778   3.221   4.881  1.00  0.00     0.020 A 
ATOM     16  C   UNL     1      -8.522   1.125   6.573  1.00  0.00     0.093 A 
ATOM     17  C   UNL     1      -9.110   2.800   4.932  1.00  0.00     0.047 A 
ATOM     18  C   UNL     1      -9.485   1.753   5.774  1.00  0.00     0.119 A 
BRANCH  14  19
ATOM     19  O   UNL     1      -6.235   0.888   7.318  1.00  0.00    -0.507 OA
ATOM     20  H   UNL     1      -5.654   1.393   7.979  1.00  0.00     0.293 HD
ENDBRANCH  14  19
BRANCH  18  21
ATOM     21  O   UNL     1     -10.817   1.346   5.814  1.00  0.00    -0.508 OA
ATOM     22  H   UNL     1     -11.079   0.376   5.677  1.00  0.00     0.293 HD
ENDBRANCH  18  21
ENDBRANCH  11  13
ENDBRANCH   2  11
TORSDOF 6
ENDMDL
MODEL 6
REMARK VINA RESULT:    -0.371      5.283     10.795
REMARK INTER + INTRA:          -1.143
REMARK INTER:                  -0.909
REMARK INTRA:                  -0.234
REMARK UNBOUND:                -0.675
REMARK SMILES O=C(C=Cc1ccc(O)cc1)c1ccc(O)cc1O
REMARK SMILES IDX 4 1 3 2 5 3 6 4 7 5 8 6 11 7 10 8 9 9 2 11 1 12 12 13 18 14
REMARK SMILES IDX 13 15 17 16 14 17 15 18 19 19 16 21
REMARK H PARENT 9 10 19 20 16 22
REMARK Flexibility Score: inf
ROOT
ATOM      1  C   UNL     1     -10.976  -2.924  10.468  1.00  0.00     0.012 C 
ATOM      2  C   UNL     1     -10.377  -2.413  11.553  1.00  0.00     0.053 C 
ENDROOT
BRANCH   1   3
ATOM      3  C   UNL     1     -10.944  -2.281   9.131  1.00  0.00    -0.025 A 
ATOM      4  C   UNL     1     -10.766  -0.888   9.059  1.00  0.00     0.012 A 
ATOM      5  C   UNL     1     -10.740  -0.238   7.822  1.00  0.00     0.047 A 
ATOM      6  C   UNL     1     -10.905  -0.968   6.639  1.00  0.00     0.115 A 
ATOM      7  C   UNL     1     -11.125  -3.005   7.936  1.00  0.00     0.012 A 
ATOM      8  C   UNL     1     -11.099  -2.351   6.700  1.00  0.00     0.047 A 
BRANCH   6   9
ATOM      9  O   UNL     1     -10.881  -0.331   5.401  1.00  0.00    -0.508 OA
ATOM     10  H   UNL     1     -10.342   0.514   5.250  1.00  0.00     0.293 HD
ENDBRANCH   6   9
ENDBRANCH   1   3
BRANCH   2  11
ATOM     11  C   UNL     1     -10.446  -3.075  12.877  1.00  0.00     0.189 C 
ATOM     12  O   UNL     1     -10.926  -2.449  13.863  1.00  0.00    -0.289 OA
BRANCH  11  13
ATOM     13  C   UNL     1      -9.950  -4.461  13.065  1.00  0.00     0.064 A 
ATOM     14  C   UNL     1      -9.412  -4.877  14.304  1.00  0.00     0.130 A 
ATOM     15  C   UNL     1     -10.031  -5.391  12.011  1.00  0.00     0.020 A 
ATOM     16  C   UNL     1      -8.966  -6.197  14.466  1.00  0.00     0.093 A 
ATOM     17  C   UNL     1      -9.581  -6.703  12.183  1.00  0.00     0.047 A 
ATOM     18  C   UNL     1      -9.047  -7.109  13.407  1.00  0.00     0.119 A 
BRANCH  14  19
ATOM     19  O   UNL     1      -9.307  -3.980  15.366  1.00  0.00    -0.507 OA
ATOM     20  H   UNL     1      -9.107  -4.291  16.309  1.00  0.00     0.293 HD
ENDBRANCH  14  19
BRANCH  18  21
ATOM     21  O   UNL     1      -8.604  -8.420  13.562  1.00  0.00    -0.508 OA
ATOM     22  H   UNL     1      -8.675  -8.902  14.452  1.00  0.00     0.293 HD
ENDBRANCH  18  21
ENDBRANCH  11  13
ENDBRANCH   2  11
TORSDOF 6
ENDMDL
