MODEL 1
REMARK VINA RESULT:    -5.395      0.000      0.000
REMARK INTER + INTRA:         -13.978
REMARK INTER:                 -12.335
REMARK INTRA:                  -1.643
REMARK UNBOUND:                -1.643
REMARK SMILES CCCCCCCCCCCCCCCCCCCCCCCC(=O)[O-]
REMARK SMILES IDX 13 1 14 2 15 3 16 4 17 5 18 6 19 7 20 8 21 9 22 10 23 11
REMARK SMILES IDX 24 12 25 13 26 14 12 15 11 16 10 17 9 18 8 19 7 20 6 21 5 22
REMARK SMILES IDX 4 23 3 24 2 25 1 26
REMARK H PARENT
REMARK Flexibility Score: inf
ROOT
ATOM      1  C   UNL     1      26.700   0.334  31.263  1.00  0.00     0.000 C 
ENDROOT
BRANCH   1   2
ATOM      2  C   UNL     1      25.890  -0.120  30.043  1.00  0.00     0.000 C 
BRANCH   2   3
ATOM      3  C   UNL     1      26.478   0.458  28.747  1.00  0.00     0.000 C 
BRANCH   3   4
ATOM      4  C   UNL     1      26.623   1.989  28.784  1.00  0.00     0.000 C 
BRANCH   4   5
ATOM      5  C   UNL     1      28.019   2.502  29.189  1.00  0.00     0.000 C 
BRANCH   5   6
ATOM      6  C   UNL     1      27.968   3.535  30.327  1.00  0.00     0.000 C 
BRANCH   6   7
ATOM      7  C   UNL     1      27.653   4.960  29.835  1.00  0.00     0.000 C 
BRANCH   7   8
ATOM      8  C   UNL     1      27.716   6.059  30.913  1.00  0.00     0.000 C 
BRANCH   8   9
ATOM      9  C   UNL     1      28.255   7.395  30.380  1.00  0.00     0.000 C 
BRANCH   9  10
ATOM     10  C   UNL     1      27.124   8.417  30.211  1.00  0.00     0.006 C 
BRANCH  10  11
ATOM     11  C   UNL     1      27.547   9.793  30.734  1.00  0.00     0.053 C 
BRANCH  11  12
ATOM     12  C   UNL     1      26.407  10.463  31.437  1.00  0.00     0.041 C 
ATOM     13  O   UNL     1      25.341  10.713  30.816  1.00  0.00    -0.550 OA
ATOM     14  O   UNL     1      26.512  10.783  32.785  1.00  0.00    -0.550 OA
ENDBRANCH  11  12
ENDBRANCH  10  11
ENDBRANCH   9  10
ENDBRANCH   8   9
ENDBRANCH   7   8
ENDBRANCH   6   7
ENDBRANCH   5   6
ENDBRANCH   4   5
ENDBRANCH   3   4
ENDBRANCH   2   3
ENDBRANCH   1   2
BRANCH   1  15
ATOM     15  C   UNL     1      27.782  -0.693  31.620  1.00  0.00     0.000 C 
BRANCH  15  16
ATOM     16  C   UNL     1      29.180  -0.069  31.538  1.00  0.00     0.000 C 
BRANCH  16  17
ATOM     17  C   UNL     1      30.010  -0.721  30.425  1.00  0.00     0.000 C 
BRANCH  17  18
ATOM     18  C   UNL     1      29.229  -1.852  29.746  1.00  0.00    -0.000 C 
BRANCH  18  19
ATOM     19  C   UNL     1      30.034  -3.161  29.755  1.00  0.00    -0.000 C 
BRANCH  19  20
ATOM     20  C   UNL     1      29.147  -4.406  29.589  1.00  0.00    -0.000 C 
BRANCH  20  21
ATOM     21  C   UNL     1      29.311  -5.410  30.742  1.00  0.00    -0.000 C 
BRANCH  21  22
ATOM     22  C   UNL     1      28.295  -6.565  30.679  1.00  0.00    -0.000 C 
BRANCH  22  23
ATOM     23  C   UNL     1      28.766  -7.885  31.317  1.00  0.00    -0.000 C 
BRANCH  23  24
ATOM     24  C   UNL     1      29.157  -8.948  30.279  1.00  0.00    -0.000 C 
BRANCH  24  25
ATOM     25  C   UNL     1      28.585  -8.603  28.898  1.00  0.00    -0.003 C 
ATOM     26  C   UNL     1      29.656  -8.708  27.815  1.00  0.00     0.004 C 
ENDBRANCH  24  25
ENDBRANCH  23  24
ENDBRANCH  22  23
ENDBRANCH  21  22
ENDBRANCH  20  21
ENDBRANCH  19  20
ENDBRANCH  18  19
ENDBRANCH  17  18
ENDBRANCH  16  17
ENDBRANCH  15  16
ENDBRANCH   1  15
TORSDOF 22
ENDMDL
MODEL 2
REMARK VINA RESULT:    -5.287      1.705      3.861
REMARK INTER + INTRA:         -13.729
REMARK INTER:                 -12.235
REMARK INTRA:                  -1.495
REMARK UNBOUND:                -1.643
REMARK SMILES CCCCCCCCCCCCCCCCCCCCCCCC(=O)[O-]
REMARK SMILES IDX 13 1 14 2 15 3 16 4 17 5 18 6 19 7 20 8 21 9 22 10 23 11
REMARK SMILES IDX 24 12 25 13 26 14 12 15 11 16 10 17 9 18 8 19 7 20 6 21 5 22
REMARK SMILES IDX 4 23 3 24 2 25 1 26
REMARK H PARENT
REMARK Flexibility Score: inf
ROOT
ATOM      1  C   UNL     1      27.839   2.882  29.417  1.00  0.00     0.000 C 
ENDROOT
BRANCH   1   2
ATOM      2  C   UNL     1      27.615   4.388  29.232  1.00  0.00     0.000 C 
BRANCH   2   3
ATOM      3  C   UNL     1      27.549   5.104  30.589  1.00  0.00     0.000 C 
BRANCH   3   4
ATOM      4  C   UNL     1      28.371   6.405  30.622  1.00  0.00     0.000 C 
BRANCH   4   5
ATOM      5  C   UNL     1      27.573   7.690  30.330  1.00  0.00     0.000 C 
BRANCH   5   6
ATOM      6  C   UNL     1      28.357   8.697  29.474  1.00  0.00     0.000 C 
BRANCH   6   7
ATOM      7  C   UNL     1      27.865  10.147  29.645  1.00  0.00     0.000 C 
BRANCH   7   8
ATOM      8  C   UNL     1      26.403  10.297  30.107  1.00  0.00     0.000 C 
BRANCH   8   9
ATOM      9  C   UNL     1      26.268  11.028  31.451  1.00  0.00     0.000 C 
BRANCH   9  10
ATOM     10  C   UNL     1      26.247  10.034  32.618  1.00  0.00     0.006 C 
BRANCH  10  11
ATOM     11  C   UNL     1      26.502  10.747  33.950  1.00  0.00     0.053 C 
BRANCH  11  12
ATOM     12  C   UNL     1      25.715  10.107  35.050  1.00  0.00     0.041 C 
ATOM     13  O   UNL     1      25.761   8.860  35.218  1.00  0.00    -0.550 OA
ATOM     14  O   UNL     1      24.954  10.891  35.909  1.00  0.00    -0.550 OA
ENDBRANCH  11  12
ENDBRANCH  10  11
ENDBRANCH   9  10
ENDBRANCH   8   9
ENDBRANCH   7   8
ENDBRANCH   6   7
ENDBRANCH   5   6
ENDBRANCH   4   5
ENDBRANCH   3   4
ENDBRANCH   2   3
ENDBRANCH   1   2
BRANCH   1  15
ATOM     15  C   UNL     1      28.000   2.527  30.901  1.00  0.00     0.000 C 
BRANCH  15  16
ATOM     16  C   UNL     1      27.064   1.378  31.295  1.00  0.00     0.000 C 
BRANCH  16  17
ATOM     17  C   UNL     1      27.859   0.164  31.792  1.00  0.00     0.000 C 
BRANCH  17  18
ATOM     18  C   UNL     1      29.368   0.410  31.678  1.00  0.00    -0.000 C 
BRANCH  18  19
ATOM     19  C   UNL     1      30.013  -0.571  30.687  1.00  0.00    -0.000 C 
BRANCH  19  20
ATOM     20  C   UNL     1      29.009  -1.584  30.113  1.00  0.00    -0.000 C 
BRANCH  20  21
ATOM     21  C   UNL     1      29.682  -2.657  29.240  1.00  0.00    -0.000 C 
BRANCH  21  22
ATOM     22  C   UNL     1      29.575  -4.071  29.842  1.00  0.00    -0.000 C 
BRANCH  22  23
ATOM     23  C   UNL     1      28.242  -4.380  30.549  1.00  0.00    -0.000 C 
BRANCH  23  24
ATOM     24  C   UNL     1      27.593  -5.684  30.062  1.00  0.00    -0.000 C 
BRANCH  24  25
ATOM     25  C   UNL     1      28.658  -6.730  29.710  1.00  0.00    -0.003 C 
ATOM     26  C   UNL     1      28.624  -7.903  30.687  1.00  0.00     0.004 C 
ENDBRANCH  24  25
ENDBRANCH  23  24
ENDBRANCH  22  23
ENDBRANCH  21  22
ENDBRANCH  20  21
ENDBRANCH  19  20
ENDBRANCH  18  19
ENDBRANCH  17  18
ENDBRANCH  16  17
ENDBRANCH  15  16
ENDBRANCH   1  15
TORSDOF 22
ENDMDL
MODEL 3
REMARK VINA RESULT:    -5.256      3.865      5.822
REMARK INTER + INTRA:         -13.660
REMARK INTER:                 -11.683
REMARK INTRA:                  -1.976
REMARK UNBOUND:                -1.643
REMARK SMILES CCCCCCCCCCCCCCCCCCCCCCCC(=O)[O-]
REMARK SMILES IDX 13 1 14 2 15 3 16 4 17 5 18 6 19 7 20 8 21 9 22 10 23 11
REMARK SMILES IDX 24 12 25 13 26 14 12 15 11 16 10 17 9 18 8 19 7 20 6 21 5 22
REMARK SMILES IDX 4 23 3 24 2 25 1 26
REMARK H PARENT
REMARK Flexibility Score: inf
ROOT
ATOM      1  C   UNL     1      27.420  -0.725  30.491  1.00  0.00     0.000 C 
ENDROOT
BRANCH   1   2
ATOM      2  C   UNL     1      26.302   0.246  30.090  1.00  0.00     0.000 C 
BRANCH   2   3
ATOM      3  C   UNL     1      26.674   1.015  28.813  1.00  0.00     0.000 C 
BRANCH   3   4
ATOM      4  C   UNL     1      27.948   1.864  28.973  1.00  0.00     0.000 C 
BRANCH   4   5
ATOM      5  C   UNL     1      27.717   3.295  29.493  1.00  0.00     0.000 C 
BRANCH   5   6
ATOM      6  C   UNL     1      27.865   3.406  31.020  1.00  0.00     0.000 C 
BRANCH   6   7
ATOM      7  C   UNL     1      28.608   4.680  31.463  1.00  0.00     0.000 C 
BRANCH   7   8
ATOM      8  C   UNL     1      28.363   5.924  30.589  1.00  0.00     0.000 C 
BRANCH   8   9
ATOM      9  C   UNL     1      26.973   6.545  30.801  1.00  0.00     0.000 C 
BRANCH   9  10
ATOM     10  C   UNL     1      27.062   8.073  30.892  1.00  0.00     0.006 C 
BRANCH  10  11
ATOM     11  C   UNL     1      28.102   8.621  29.910  1.00  0.00     0.053 C 
BRANCH  11  12
ATOM     12  C   UNL     1      27.728   9.999  29.460  1.00  0.00     0.041 C 
ATOM     13  O   UNL     1      26.516  10.321  29.350  1.00  0.00    -0.550 OA
ATOM     14  O   UNL     1      28.718  10.937  29.193  1.00  0.00    -0.550 OA
ENDBRANCH  11  12
ENDBRANCH  10  11
ENDBRANCH   9  10
ENDBRANCH   8   9
ENDBRANCH   7   8
ENDBRANCH   6   7
ENDBRANCH   5   6
ENDBRANCH   4   5
ENDBRANCH   3   4
ENDBRANCH   2   3
ENDBRANCH   1   2
BRANCH   1  15
ATOM     15  C   UNL     1      27.955  -0.401  31.891  1.00  0.00     0.000 C 
BRANCH  15  16
ATOM     16  C   UNL     1      29.364   0.199  31.817  1.00  0.00     0.000 C 
BRANCH  16  17
ATOM     17  C   UNL     1      30.192  -0.473  30.715  1.00  0.00     0.000 C 
BRANCH  17  18
ATOM     18  C   UNL     1      31.454   0.340  30.402  1.00  0.00    -0.000 C 
BRANCH  18  19
ATOM     19  C   UNL     1      32.687  -0.571  30.298  1.00  0.00    -0.000 C 
BRANCH  19  20
ATOM     20  C   UNL     1      33.997   0.217  30.136  1.00  0.00    -0.000 C 
BRANCH  20  21
ATOM     21  C   UNL     1      35.102  -0.268  31.090  1.00  0.00    -0.000 C 
BRANCH  21  22
ATOM     22  C   UNL     1      35.554   0.820  32.083  1.00  0.00    -0.000 C 
BRANCH  22  23
ATOM     23  C   UNL     1      35.168   0.564  33.551  1.00  0.00    -0.000 C 
BRANCH  23  24
ATOM     24  C   UNL     1      34.541   1.791  34.231  1.00  0.00    -0.000 C 
BRANCH  24  25
ATOM     25  C   UNL     1      33.473   1.370  35.248  1.00  0.00    -0.003 C 
ATOM     26  C   UNL     1      32.068   1.544  34.677  1.00  0.00     0.004 C 
ENDBRANCH  24  25
ENDBRANCH  23  24
ENDBRANCH  22  23
ENDBRANCH  21  22
ENDBRANCH  20  21
ENDBRANCH  19  20
ENDBRANCH  18  19
ENDBRANCH  17  18
ENDBRANCH  16  17
ENDBRANCH  15  16
ENDBRANCH   1  15
TORSDOF 22
ENDMDL
MODEL 4
REMARK VINA RESULT:    -5.095      1.494      2.519
REMARK INTER + INTRA:         -13.291
REMARK INTER:                 -11.848
REMARK INTRA:                  -1.443
REMARK UNBOUND:                -1.643
REMARK SMILES CCCCCCCCCCCCCCCCCCCCCCCC(=O)[O-]
REMARK SMILES IDX 13 1 14 2 15 3 16 4 17 5 18 6 19 7 20 8 21 9 22 10 23 11
REMARK SMILES IDX 24 12 25 13 26 14 12 15 11 16 10 17 9 18 8 19 7 20 6 21 5 22
REMARK SMILES IDX 4 23 3 24 2 25 1 26
REMARK H PARENT
REMARK Flexibility Score: inf
ROOT
ATOM      1  C   UNL     1      30.030   0.772  29.954  1.00  0.00     0.000 C 
ENDROOT
BRANCH   1   2
ATOM      2  C   UNL     1      28.846   1.424  29.228  1.00  0.00     0.000 C 
BRANCH   2   3
ATOM      3  C   UNL     1      27.907   2.120  30.224  1.00  0.00     0.000 C 
BRANCH   3   4
ATOM      4  C   UNL     1      27.854   3.647  30.032  1.00  0.00     0.000 C 
BRANCH   4   5
ATOM      5  C   UNL     1      27.967   4.472  31.328  1.00  0.00     0.000 C 
BRANCH   5   6
ATOM      6  C   UNL     1      27.363   5.879  31.194  1.00  0.00     0.000 C 
BRANCH   6   7
ATOM      7  C   UNL     1      27.994   6.701  30.055  1.00  0.00     0.000 C 
BRANCH   7   8
ATOM      8  C   UNL     1      28.345   8.158  30.409  1.00  0.00     0.000 C 
BRANCH   8   9
ATOM      9  C   UNL     1      27.723   9.180  29.445  1.00  0.00     0.000 C 
BRANCH   9  10
ATOM     10  C   UNL     1      26.615   9.984  30.135  1.00  0.00     0.006 C 
BRANCH  10  11
ATOM     11  C   UNL     1      27.167  10.756  31.338  1.00  0.00     0.053 C 
BRANCH  11  12
ATOM     12  C   UNL     1      26.524  10.286  32.605  1.00  0.00     0.041 C 
ATOM     13  O   UNL     1      26.552  11.010  33.634  1.00  0.00    -0.550 OA
ATOM     14  O   UNL     1      25.869   9.061  32.641  1.00  0.00    -0.550 OA
ENDBRANCH  11  12
ENDBRANCH  10  11
ENDBRANCH   9  10
ENDBRANCH   8   9
ENDBRANCH   7   8
ENDBRANCH   6   7
ENDBRANCH   5   6
ENDBRANCH   4   5
ENDBRANCH   3   4
ENDBRANCH   2   3
ENDBRANCH   1   2
BRANCH   1  15
ATOM     15  C   UNL     1      29.577  -0.451  30.761  1.00  0.00     0.000 C 
BRANCH  15  16
ATOM     16  C   UNL     1      28.865  -1.468  29.862  1.00  0.00     0.000 C 
BRANCH  16  17
ATOM     17  C   UNL     1      27.368  -1.544  30.192  1.00  0.00     0.000 C 
BRANCH  17  18
ATOM     18  C   UNL     1      27.092  -2.616  31.252  1.00  0.00    -0.000 C 
BRANCH  18  19
ATOM     19  C   UNL     1      26.305  -3.793  30.655  1.00  0.00    -0.000 C 
BRANCH  19  20
ATOM     20  C   UNL     1      27.217  -4.914  30.130  1.00  0.00    -0.000 C 
BRANCH  20  21
ATOM     21  C   UNL     1      28.386  -5.223  31.080  1.00  0.00    -0.000 C 
BRANCH  21  22
ATOM     22  C   UNL     1      29.354  -6.279  30.514  1.00  0.00    -0.000 C 
BRANCH  22  23
ATOM     23  C   UNL     1      28.746  -7.221  29.458  1.00  0.00    -0.000 C 
BRANCH  23  24
ATOM     24  C   UNL     1      28.250  -8.548  30.052  1.00  0.00    -0.000 C 
BRANCH  24  25
ATOM     25  C   UNL     1      29.049  -8.920  31.308  1.00  0.00    -0.003 C 
ATOM     26  C   UNL     1      28.138  -9.040  32.527  1.00  0.00     0.004 C 
ENDBRANCH  24  25
ENDBRANCH  23  24
ENDBRANCH  22  23
ENDBRANCH  21  22
ENDBRANCH  20  21
ENDBRANCH  19  20
ENDBRANCH  18  19
ENDBRANCH  17  18
ENDBRANCH  16  17
ENDBRANCH  15  16
ENDBRANCH   1  15
TORSDOF 22
ENDMDL
MODEL 5
REMARK VINA RESULT:    -5.027      2.389      3.381
REMARK INTER + INTRA:         -13.136
REMARK INTER:                 -11.897
REMARK INTRA:                  -1.238
REMARK UNBOUND:                -1.643
REMARK SMILES CCCCCCCCCCCCCCCCCCCCCCCC(=O)[O-]
REMARK SMILES IDX 13 1 14 2 15 3 16 4 17 5 18 6 19 7 20 8 21 9 22 10 23 11
REMARK SMILES IDX 24 12 25 13 26 14 12 15 11 16 10 17 9 18 8 19 7 20 6 21 5 22
REMARK SMILES IDX 4 23 3 24 2 25 1 26
REMARK H PARENT
REMARK Flexibility Score: inf
ROOT
ATOM      1  C   UNL     1      28.060   2.207  30.886  1.00  0.00     0.000 C 
ENDROOT
BRANCH   1   2
ATOM      2  C   UNL     1      28.061   2.482  29.377  1.00  0.00     0.000 C 
BRANCH   2   3
ATOM      3  C   UNL     1      27.490   3.875  29.072  1.00  0.00     0.000 C 
BRANCH   3   4
ATOM      4  C   UNL     1      27.770   4.896  30.189  1.00  0.00     0.000 C 
BRANCH   4   5
ATOM      5  C   UNL     1      27.692   6.373  29.757  1.00  0.00     0.000 C 
BRANCH   5   6
ATOM      6  C   UNL     1      27.267   7.307  30.903  1.00  0.00     0.000 C 
BRANCH   6   7
ATOM      7  C   UNL     1      26.985   8.746  30.434  1.00  0.00     0.000 C 
BRANCH   7   8
ATOM      8  C   UNL     1      28.232   9.613  30.174  1.00  0.00     0.000 C 
BRANCH   8   9
ATOM      9  C   UNL     1      27.890  11.040  29.719  1.00  0.00     0.000 C 
BRANCH   9  10
ATOM     10  C   UNL     1      27.754  11.113  28.194  1.00  0.00     0.006 C 
BRANCH  10  11
ATOM     11  C   UNL     1      28.720  10.140  27.511  1.00  0.00     0.053 C 
BRANCH  11  12
ATOM     12  C   UNL     1      28.699  10.331  26.027  1.00  0.00     0.041 C 
ATOM     13  O   UNL     1      29.550   9.752  25.302  1.00  0.00    -0.550 OA
ATOM     14  O   UNL     1      27.720  11.125  25.440  1.00  0.00    -0.550 OA
ENDBRANCH  11  12
ENDBRANCH  10  11
ENDBRANCH   9  10
ENDBRANCH   8   9
ENDBRANCH   7   8
ENDBRANCH   6   7
ENDBRANCH   5   6
ENDBRANCH   4   5
ENDBRANCH   3   4
ENDBRANCH   2   3
ENDBRANCH   1   2
BRANCH   1  15
ATOM     15  C   UNL     1      28.711   0.854  31.200  1.00  0.00     0.000 C 
BRANCH  15  16
ATOM     16  C   UNL     1      27.649  -0.206  31.518  1.00  0.00     0.000 C 
BRANCH  16  17
ATOM     17  C   UNL     1      27.429  -1.142  30.322  1.00  0.00     0.000 C 
BRANCH  17  18
ATOM     18  C   UNL     1      28.765  -1.552  29.692  1.00  0.00    -0.000 C 
BRANCH  18  19
ATOM     19  C   UNL     1      29.153  -2.981  30.102  1.00  0.00    -0.000 C 
BRANCH  19  20
ATOM     20  C   UNL     1      27.934  -3.856  30.439  1.00  0.00    -0.000 C 
BRANCH  20  21
ATOM     21  C   UNL     1      28.314  -5.130  31.213  1.00  0.00    -0.000 C 
BRANCH  21  22
ATOM     22  C   UNL     1      28.809  -6.262  30.293  1.00  0.00    -0.000 C 
BRANCH  22  23
ATOM     23  C   UNL     1      29.065  -7.608  30.996  1.00  0.00    -0.000 C 
BRANCH  23  24
ATOM     24  C   UNL     1      28.327  -8.781  30.332  1.00  0.00    -0.000 C 
BRANCH  24  25
ATOM     25  C   UNL     1      28.385  -8.672  28.803  1.00  0.00    -0.003 C 
ATOM     26  C   UNL     1      29.757  -9.077  28.273  1.00  0.00     0.004 C 
ENDBRANCH  24  25
ENDBRANCH  23  24
ENDBRANCH  22  23
ENDBRANCH  21  22
ENDBRANCH  20  21
ENDBRANCH  19  20
ENDBRANCH  18  19
ENDBRANCH  17  18
ENDBRANCH  16  17
ENDBRANCH  15  16
ENDBRANCH   1  15
TORSDOF 22
ENDMDL
MODEL 6
REMARK VINA RESULT:    -4.985      5.733     13.204
REMARK INTER + INTRA:         -13.038
REMARK INTER:                 -11.718
REMARK INTRA:                  -1.320
REMARK UNBOUND:                -1.643
REMARK SMILES CCCCCCCCCCCCCCCCCCCCCCCC(=O)[O-]
REMARK SMILES IDX 13 1 14 2 15 3 16 4 17 5 18 6 19 7 20 8 21 9 22 10 23 11
REMARK SMILES IDX 24 12 25 13 26 14 12 15 11 16 10 17 9 18 8 19 7 20 6 21 5 22
REMARK SMILES IDX 4 23 3 24 2 25 1 26
REMARK H PARENT
REMARK Flexibility Score: inf
ROOT
ATOM      1  C   UNL     1      29.416   1.480  31.778  1.00  0.00     0.000 C 
ENDROOT
BRANCH   1   2
ATOM      2  C   UNL     1      30.050   0.869  30.522  1.00  0.00     0.000 C 
BRANCH   2   3
ATOM      3  C   UNL     1      29.106   0.987  29.316  1.00  0.00     0.000 C 
BRANCH   3   4
ATOM      4  C   UNL     1      28.189  -0.237  29.150  1.00  0.00     0.000 C 
BRANCH   4   5
ATOM      5  C   UNL     1      28.527  -1.434  30.059  1.00  0.00     0.000 C 
BRANCH   5   6
ATOM      6  C   UNL     1      27.287  -2.031  30.745  1.00  0.00     0.000 C 
BRANCH   6   7
ATOM      7  C   UNL     1      27.236  -3.568  30.669  1.00  0.00     0.000 C 
BRANCH   7   8
ATOM      8  C   UNL     1      27.675  -4.307  31.947  1.00  0.00     0.000 C 
BRANCH   8   9
ATOM      9  C   UNL     1      28.208  -5.722  31.671  1.00  0.00     0.000 C 
BRANCH   9  10
ATOM     10  C   UNL     1      28.591  -5.888  30.196  1.00  0.00     0.006 C 
BRANCH  10  11
ATOM     11  C   UNL     1      28.001  -7.179  29.620  1.00  0.00     0.053 C 
BRANCH  11  12
ATOM     12  C   UNL     1      29.058  -8.231  29.492  1.00  0.00     0.041 C 
ATOM     13  O   UNL     1      29.281  -8.771  28.377  1.00  0.00    -0.550 OA
ATOM     14  O   UNL     1      29.818  -8.593  30.598  1.00  0.00    -0.550 OA
ENDBRANCH  11  12
ENDBRANCH  10  11
ENDBRANCH   9  10
ENDBRANCH   8   9
ENDBRANCH   7   8
ENDBRANCH   6   7
ENDBRANCH   5   6
ENDBRANCH   4   5
ENDBRANCH   3   4
ENDBRANCH   2   3
ENDBRANCH   1   2
BRANCH   1  15
ATOM     15  C   UNL     1      28.345   2.514  31.407  1.00  0.00     0.000 C 
BRANCH  15  16
ATOM     16  C   UNL     1      28.754   3.918  31.867  1.00  0.00     0.000 C 
BRANCH  16  17
ATOM     17  C   UNL     1      27.618   4.924  31.645  1.00  0.00     0.000 C 
BRANCH  17  18
ATOM     18  C   UNL     1      27.595   5.415  30.193  1.00  0.00    -0.000 C 
BRANCH  18  19
ATOM     19  C   UNL     1      27.095   6.866  30.108  1.00  0.00    -0.000 C 
BRANCH  19  20
ATOM     20  C   UNL     1      28.209   7.859  29.738  1.00  0.00    -0.000 C 
BRANCH  20  21
ATOM     21  C   UNL     1      27.944   9.276  30.274  1.00  0.00    -0.000 C 
BRANCH  21  22
ATOM     22  C   UNL     1      26.475   9.711  30.112  1.00  0.00    -0.000 C 
BRANCH  22  23
ATOM     23  C   UNL     1      25.971  10.712  31.167  1.00  0.00    -0.000 C 
BRANCH  23  24
ATOM     24  C   UNL     1      26.878  10.788  32.405  1.00  0.00    -0.000 C 
BRANCH  24  25
ATOM     25  C   UNL     1      26.223  10.098  33.608  1.00  0.00    -0.003 C 
ATOM     26  C   UNL     1      26.638  10.762  34.918  1.00  0.00     0.004 C 
ENDBRANCH  24  25
ENDBRANCH  23  24
ENDBRANCH  22  23
ENDBRANCH  21  22
ENDBRANCH  20  21
ENDBRANCH  19  20
ENDBRANCH  18  19
ENDBRANCH  17  18
ENDBRANCH  16  17
ENDBRANCH  15  16
ENDBRANCH   1  15
TORSDOF 22
ENDMDL
MODEL 7
REMARK VINA RESULT:    -4.960      5.607     13.413
REMARK INTER + INTRA:         -12.982
REMARK INTER:                 -11.639
REMARK INTRA:                  -1.343
REMARK UNBOUND:                -1.643
REMARK SMILES CCCCCCCCCCCCCCCCCCCCCCCC(=O)[O-]
REMARK SMILES IDX 13 1 14 2 15 3 16 4 17 5 18 6 19 7 20 8 21 9 22 10 23 11
REMARK SMILES IDX 24 12 25 13 26 14 12 15 11 16 10 17 9 18 8 19 7 20 6 21 5 22
REMARK SMILES IDX 4 23 3 24 2 25 1 26
REMARK H PARENT
REMARK Flexibility Score: inf
ROOT
ATOM      1  C   UNL     1      28.009   2.695  29.635  1.00  0.00     0.000 C 
ENDROOT
BRANCH   1   2
ATOM      2  C   UNL     1      27.097   1.518  30.006  1.00  0.00     0.000 C 
BRANCH   2   3
ATOM      3  C   UNL     1      27.249   1.153  31.490  1.00  0.00     0.000 C 
BRANCH   3   4
ATOM      4  C   UNL     1      28.109  -0.104  31.714  1.00  0.00     0.000 C 
BRANCH   4   5
ATOM      5  C   UNL     1      29.038  -0.475  30.542  1.00  0.00     0.000 C 
BRANCH   5   6
ATOM      6  C   UNL     1      28.774  -1.889  29.998  1.00  0.00     0.000 C 
BRANCH   6   7
ATOM      7  C   UNL     1      27.806  -2.703  30.876  1.00  0.00     0.000 C 
BRANCH   7   8
ATOM      8  C   UNL     1      27.683  -4.195  30.514  1.00  0.00     0.000 C 
BRANCH   8   9
ATOM      9  C   UNL     1      29.030  -4.841  30.154  1.00  0.00     0.000 C 
BRANCH   9  10
ATOM     10  C   UNL     1      28.825  -6.213  29.500  1.00  0.00     0.006 C 
BRANCH  10  11
ATOM     11  C   UNL     1      27.946  -7.111  30.377  1.00  0.00     0.053 C 
BRANCH  11  12
ATOM     12  C   UNL     1      28.791  -8.022  31.212  1.00  0.00     0.041 C 
ATOM     13  O   UNL     1      28.391  -8.393  32.346  1.00  0.00    -0.550 OA
ATOM     14  O   UNL     1      30.007  -8.486  30.724  1.00  0.00    -0.550 OA
ENDBRANCH  11  12
ENDBRANCH  10  11
ENDBRANCH   9  10
ENDBRANCH   8   9
ENDBRANCH   7   8
ENDBRANCH   6   7
ENDBRANCH   5   6
ENDBRANCH   4   5
ENDBRANCH   3   4
ENDBRANCH   2   3
ENDBRANCH   1   2
BRANCH   1  15
ATOM     15  C   UNL     1      27.288   3.680  28.707  1.00  0.00     0.000 C 
BRANCH  15  16
ATOM     16  C   UNL     1      26.950   4.982  29.443  1.00  0.00     0.000 C 
BRANCH  16  17
ATOM     17  C   UNL     1      27.909   5.217  30.617  1.00  0.00     0.000 C 
BRANCH  17  18
ATOM     18  C   UNL     1      28.404   6.668  30.640  1.00  0.00    -0.000 C 
BRANCH  18  19
ATOM     19  C   UNL     1      27.448   7.590  29.868  1.00  0.00    -0.000 C 
BRANCH  19  20
ATOM     20  C   UNL     1      28.065   8.965  29.561  1.00  0.00    -0.000 C 
BRANCH  20  21
ATOM     21  C   UNL     1      27.346  10.113  30.289  1.00  0.00    -0.000 C 
BRANCH  21  22
ATOM     22  C   UNL     1      28.321  11.109  30.945  1.00  0.00    -0.000 C 
BRANCH  22  23
ATOM     23  C   UNL     1      28.301  11.123  32.484  1.00  0.00    -0.000 C 
BRANCH  23  24
ATOM     24  C   UNL     1      26.888  10.971  33.068  1.00  0.00    -0.000 C 
BRANCH  24  25
ATOM     25  C   UNL     1      26.905  11.125  34.594  1.00  0.00    -0.003 C 
ATOM     26  C   UNL     1      25.760  10.349  35.240  1.00  0.00     0.004 C 
ENDBRANCH  24  25
ENDBRANCH  23  24
ENDBRANCH  22  23
ENDBRANCH  21  22
ENDBRANCH  20  21
ENDBRANCH  19  20
ENDBRANCH  18  19
ENDBRANCH  17  18
ENDBRANCH  16  17
ENDBRANCH  15  16
ENDBRANCH   1  15
TORSDOF 22
ENDMDL
