MODEL 1
REMARK VINA RESULT:    -3.610      0.000      0.000
REMARK INTER + INTRA:          -4.587
REMARK INTER:                  -4.454
REMARK INTRA:                  -0.133
REMARK UNBOUND:                -0.133
REMARK SMILES CCCCCC(=O)[O-]
REMARK SMILES IDX 4 1 5 2 6 3 7 4 8 5 3 6 2 7 1 8
REMARK H PARENT
REMARK Flexibility Score: inf
ROOT
ATOM      1  C   UNL     1       9.063   5.606   3.895  1.00  0.00     0.006 C 
ENDROOT
BRANCH   1   2
ATOM      2  C   UNL     1       8.621   6.727   4.847  1.00  0.00     0.053 C 
BRANCH   2   3
ATOM      3  C   UNL     1       7.215   7.167   4.574  1.00  0.00     0.041 C 
ATOM      4  O   UNL     1       6.822   8.301   4.955  1.00  0.00    -0.550 OA
ATOM      5  O   UNL     1       6.349   6.339   3.873  1.00  0.00    -0.550 OA
ENDBRANCH   2   3
ENDBRANCH   1   2
BRANCH   1   6
ATOM      6  C   UNL     1       9.561   6.153   2.546  1.00  0.00     0.000 C 
BRANCH   6   7
ATOM      7  C   UNL     1       8.819   5.535   1.351  1.00  0.00    -0.003 C 
ATOM      8  C   UNL     1       9.492   4.267   0.827  1.00  0.00     0.004 C 
ENDBRANCH   6   7
ENDBRANCH   1   6
TORSDOF 4
ENDMDL
MODEL 2
REMARK VINA RESULT:    -3.318      2.243      3.857
REMARK INTER + INTRA:          -4.227
REMARK INTER:                  -4.107
REMARK INTRA:                  -0.120
REMARK UNBOUND:                -0.133
REMARK SMILES CCCCCC(=O)[O-]
REMARK SMILES IDX 4 1 5 2 6 3 7 4 8 5 3 6 2 7 1 8
REMARK H PARENT
REMARK Flexibility Score: inf
ROOT
ATOM      1  C   UNL     1       9.307   5.332   4.136  1.00  0.00     0.006 C 
ENDROOT
BRANCH   1   2
ATOM      2  C   UNL     1      10.073   5.649   2.844  1.00  0.00     0.053 C 
BRANCH   2   3
ATOM      3  C   UNL     1       9.347   5.156   1.630  1.00  0.00     0.041 C 
ATOM      4  O   UNL     1       8.492   5.887   1.063  1.00  0.00    -0.550 OA
ATOM      5  O   UNL     1       9.635   3.903   1.106  1.00  0.00    -0.550 OA
ENDBRANCH   2   3
ENDBRANCH   1   2
BRANCH   1   6
ATOM      6  C   UNL     1       9.144   6.571   5.034  1.00  0.00     0.000 C 
BRANCH   6   7
ATOM      7  C   UNL     1       7.699   7.093   5.058  1.00  0.00    -0.003 C 
ATOM      8  C   UNL     1       6.794   6.380   4.055  1.00  0.00     0.004 C 
ENDBRANCH   6   7
ENDBRANCH   1   6
TORSDOF 4
ENDMDL
MODEL 3
REMARK VINA RESULT:    -3.207      2.439      3.966
REMARK INTER + INTRA:          -4.090
REMARK INTER:                  -3.887
REMARK INTRA:                  -0.202
REMARK UNBOUND:                -0.133
REMARK SMILES CCCCCC(=O)[O-]
REMARK SMILES IDX 4 1 5 2 6 3 7 4 8 5 3 6 2 7 1 8
REMARK H PARENT
REMARK Flexibility Score: inf
ROOT
ATOM      1  C   UNL     1       7.759   6.085   3.752  1.00  0.00     0.006 C 
ENDROOT
BRANCH   1   2
ATOM      2  C   UNL     1       9.128   5.638   3.221  1.00  0.00     0.053 C 
BRANCH   2   3
ATOM      3  C   UNL     1       9.231   5.803   1.735  1.00  0.00     0.041 C 
ATOM      4  O   UNL     1       9.535   6.920   1.242  1.00  0.00    -0.550 OA
ATOM      5  O   UNL     1       9.020   4.715   0.897  1.00  0.00    -0.550 OA
ENDBRANCH   2   3
ENDBRANCH   1   2
BRANCH   1   6
ATOM      6  C   UNL     1       7.881   7.179   4.826  1.00  0.00     0.000 C 
BRANCH   6   7
ATOM      7  C   UNL     1       9.312   7.727   4.947  1.00  0.00    -0.003 C 
ATOM      8  C   UNL     1       9.440   9.165   4.446  1.00  0.00     0.004 C 
ENDBRANCH   6   7
ENDBRANCH   1   6
TORSDOF 4
ENDMDL
MODEL 4
REMARK VINA RESULT:    -2.932     21.958     22.764
REMARK INTER + INTRA:          -3.751
REMARK INTER:                  -3.696
REMARK INTRA:                  -0.055
REMARK UNBOUND:                -0.133
REMARK SMILES CCCCCC(=O)[O-]
REMARK SMILES IDX 4 1 5 2 6 3 7 4 8 5 3 6 2 7 1 8
REMARK H PARENT
REMARK Flexibility Score: inf
ROOT
ATOM      1  C   UNL     1      -6.371  -6.550  -8.239  1.00  0.00     0.006 C 
ENDROOT
BRANCH   1   2
ATOM      2  C   UNL     1      -5.879  -5.931  -9.556  1.00  0.00     0.053 C 
BRANCH   2   3
ATOM      3  C   UNL     1      -4.431  -6.229  -9.805  1.00  0.00     0.041 C 
ATOM      4  O   UNL     1      -3.573  -5.311  -9.725  1.00  0.00    -0.550 OA
ATOM      5  O   UNL     1      -4.027  -7.525 -10.096  1.00  0.00    -0.550 OA
ENDBRANCH   2   3
ENDBRANCH   1   2
BRANCH   1   6
ATOM      6  C   UNL     1      -7.826  -6.164  -7.925  1.00  0.00     0.000 C 
BRANCH   6   7
ATOM      7  C   UNL     1      -7.942  -5.273  -6.678  1.00  0.00    -0.003 C 
ATOM      8  C   UNL     1      -9.238  -4.465  -6.645  1.00  0.00     0.004 C 
ENDBRANCH   6   7
ENDBRANCH   1   6
TORSDOF 4
ENDMDL
MODEL 5
REMARK VINA RESULT:    -2.930      1.638      2.359
REMARK INTER + INTRA:          -3.748
REMARK INTER:                  -3.693
REMARK INTRA:                  -0.055
REMARK UNBOUND:                -0.133
REMARK SMILES CCCCCC(=O)[O-]
REMARK SMILES IDX 4 1 5 2 6 3 7 4 8 5 3 6 2 7 1 8
REMARK H PARENT
REMARK Flexibility Score: inf
ROOT
ATOM      1  C   UNL     1       9.510   8.825   4.472  1.00  0.00     0.006 C 
ENDROOT
BRANCH   1   2
ATOM      2  C   UNL     1       8.950   7.480   4.956  1.00  0.00     0.053 C 
BRANCH   2   3
ATOM      3  C   UNL     1       7.471   7.379   4.732  1.00  0.00     0.041 C 
ATOM      4  O   UNL     1       6.973   6.321   4.264  1.00  0.00    -0.550 OA
ATOM      5  O   UNL     1       6.642   8.441   5.067  1.00  0.00    -0.550 OA
ENDBRANCH   2   3
ENDBRANCH   1   2
BRANCH   1   6
ATOM      6  C   UNL     1      10.093   8.734   3.051  1.00  0.00     0.000 C 
BRANCH   6   7
ATOM      7  C   UNL     1      10.102   7.296   2.510  1.00  0.00    -0.003 C 
ATOM      8  C   UNL     1      10.077   7.236   0.983  1.00  0.00     0.004 C 
ENDBRANCH   6   7
ENDBRANCH   1   6
TORSDOF 4
ENDMDL
MODEL 6
REMARK VINA RESULT:    -2.688     22.209     22.824
REMARK INTER + INTRA:          -3.450
REMARK INTER:                  -3.409
REMARK INTRA:                  -0.041
REMARK UNBOUND:                -0.133
REMARK SMILES CCCCCC(=O)[O-]
REMARK SMILES IDX 4 1 5 2 6 3 7 4 8 5 3 6 2 7 1 8
REMARK H PARENT
REMARK Flexibility Score: inf
ROOT
ATOM      1  C   UNL     1      -6.531  -6.131  -8.406  1.00  0.00     0.006 C 
ENDROOT
BRANCH   1   2
ATOM      2  C   UNL     1      -5.954  -7.544  -8.582  1.00  0.00     0.053 C 
BRANCH   2   3
ATOM      3  C   UNL     1      -4.459  -7.526  -8.684  1.00  0.00     0.041 C 
ATOM      4  O   UNL     1      -3.769  -8.335  -8.008  1.00  0.00    -0.550 OA
ATOM      5  O   UNL     1      -3.829  -6.639  -9.546  1.00  0.00    -0.550 OA
ENDBRANCH   2   3
ENDBRANCH   1   2
BRANCH   1   6
ATOM      6  C   UNL     1      -7.893  -6.146  -7.691  1.00  0.00     0.000 C 
BRANCH   6   7
ATOM      7  C   UNL     1      -7.991  -5.078  -6.591  1.00  0.00    -0.003 C 
ATOM      8  C   UNL     1      -9.317  -4.320  -6.617  1.00  0.00     0.004 C 
ENDBRANCH   6   7
ENDBRANCH   1   6
TORSDOF 4
ENDMDL
MODEL 7
REMARK VINA RESULT:    -2.647     21.410     22.485
REMARK INTER + INTRA:          -3.399
REMARK INTER:                  -3.300
REMARK INTRA:                  -0.099
REMARK UNBOUND:                -0.133
REMARK SMILES CCCCCC(=O)[O-]
REMARK SMILES IDX 4 1 5 2 6 3 7 4 8 5 3 6 2 7 1 8
REMARK H PARENT
REMARK Flexibility Score: inf
ROOT
ATOM      1  C   UNL     1      -5.315  -8.122  -8.401  1.00  0.00     0.006 C 
ENDROOT
BRANCH   1   2
ATOM      2  C   UNL     1      -4.388  -7.548  -9.483  1.00  0.00     0.053 C 
BRANCH   2   3
ATOM      3  C   UNL     1      -4.570  -6.070  -9.646  1.00  0.00     0.041 C 
ATOM      4  O   UNL     1      -3.567  -5.314  -9.724  1.00  0.00    -0.550 OA
ATOM      5  O   UNL     1      -5.847  -5.532  -9.743  1.00  0.00    -0.550 OA
ENDBRANCH   2   3
ENDBRANCH   1   2
BRANCH   1   6
ATOM      6  C   UNL     1      -4.927  -9.557  -8.005  1.00  0.00     0.000 C 
BRANCH   6   7
ATOM      7  C   UNL     1      -3.419  -9.711  -7.760  1.00  0.00    -0.003 C 
ATOM      8  C   UNL     1      -2.967  -9.096  -6.436  1.00  0.00     0.004 C 
ENDBRANCH   6   7
ENDBRANCH   1   6
TORSDOF 4
ENDMDL
MODEL 8
REMARK VINA RESULT:    -2.644      3.903      4.922
REMARK INTER + INTRA:          -3.395
REMARK INTER:                  -3.302
REMARK INTRA:                  -0.094
REMARK UNBOUND:                -0.133
REMARK SMILES CCCCCC(=O)[O-]
REMARK SMILES IDX 4 1 5 2 6 3 7 4 8 5 3 6 2 7 1 8
REMARK H PARENT
REMARK Flexibility Score: inf
ROOT
ATOM      1  C   UNL     1      10.065   3.994   3.637  1.00  0.00     0.006 C 
ENDROOT
BRANCH   1   2
ATOM      2  C   UNL     1      10.125   3.171   4.933  1.00  0.00     0.053 C 
BRANCH   2   3
ATOM      3  C   UNL     1       9.881   1.714   4.679  1.00  0.00     0.041 C 
ATOM      4  O   UNL     1       9.430   0.979   5.596  1.00  0.00    -0.550 OA
ATOM      5  O   UNL     1      10.122   1.176   3.422  1.00  0.00    -0.550 OA
ENDBRANCH   2   3
ENDBRANCH   1   2
BRANCH   1   6
ATOM      6  C   UNL     1       9.955   5.503   3.913  1.00  0.00     0.000 C 
BRANCH   6   7
ATOM      7  C   UNL     1       8.500   5.996   3.916  1.00  0.00    -0.003 C 
ATOM      8  C   UNL     1       8.116   6.703   5.215  1.00  0.00     0.004 C 
ENDBRANCH   6   7
ENDBRANCH   1   6
TORSDOF 4
ENDMDL
MODEL 9
REMARK VINA RESULT:    -2.644     21.521     22.427
REMARK INTER + INTRA:          -3.395
REMARK INTER:                  -3.288
REMARK INTRA:                  -0.108
REMARK UNBOUND:                -0.133
REMARK SMILES CCCCCC(=O)[O-]
REMARK SMILES IDX 4 1 5 2 6 3 7 4 8 5 3 6 2 7 1 8
REMARK H PARENT
REMARK Flexibility Score: inf
ROOT
ATOM      1  C   UNL     1      -6.838  -6.354  -8.577  1.00  0.00     0.006 C 
ENDROOT
BRANCH   1   2
ATOM      2  C   UNL     1      -7.916  -6.508  -7.493  1.00  0.00     0.053 C 
BRANCH   2   3
ATOM      3  C   UNL     1      -8.134  -5.232  -6.739  1.00  0.00     0.041 C 
ATOM      4  O   UNL     1      -7.150  -4.569  -6.318  1.00  0.00    -0.550 OA
ATOM      5  O   UNL     1      -9.423  -4.759  -6.528  1.00  0.00    -0.550 OA
ENDBRANCH   2   3
ENDBRANCH   1   2
BRANCH   1   6
ATOM      6  C   UNL     1      -5.733  -7.416  -8.452  1.00  0.00     0.000 C 
BRANCH   6   7
ATOM      7  C   UNL     1      -4.484  -7.064  -9.274  1.00  0.00    -0.003 C 
ATOM      8  C   UNL     1      -4.392  -5.575  -9.604  1.00  0.00     0.004 C 
ENDBRANCH   6   7
ENDBRANCH   1   6
TORSDOF 4
ENDMDL
