MODEL 1
REMARK VINA RESULT:    -4.742      0.000      0.000
REMARK INTER + INTRA:          -7.050
REMARK INTER:                  -6.405
REMARK INTRA:                  -0.645
REMARK UNBOUND:                -0.645
REMARK SMILES CCCCCCCC(=O)[O-]
REMARK SMILES IDX 5 1 6 2 7 3 8 4 9 5 10 6 4 7 3 8 2 9 1 10
REMARK H PARENT
REMARK Flexibility Score: inf
ROOT
ATOM      1  C   UNL     1     -22.171  37.212   9.239  1.00  0.00     0.000 C 
ENDROOT
BRANCH   1   2
ATOM      2  C   UNL     1     -21.359  35.910   9.142  1.00  0.00     0.006 C 
BRANCH   2   3
ATOM      3  C   UNL     1     -19.909  36.149   8.703  1.00  0.00     0.053 C 
BRANCH   3   4
ATOM      4  C   UNL     1     -19.818  36.210   7.210  1.00  0.00     0.041 C 
ATOM      5  O   UNL     1     -18.941  36.923   6.657  1.00  0.00    -0.550 OA
ATOM      6  O   UNL     1     -20.672  35.440   6.430  1.00  0.00    -0.550 OA
ENDBRANCH   3   4
ENDBRANCH   2   3
ENDBRANCH   1   2
BRANCH   1   7
ATOM      7  C   UNL     1     -23.379  37.228   8.291  1.00  0.00     0.000 C 
BRANCH   7   8
ATOM      8  C   UNL     1     -23.054  37.997   7.002  1.00  0.00    -0.000 C 
BRANCH   8   9
ATOM      9  C   UNL     1     -22.170  39.228   7.256  1.00  0.00    -0.003 C 
ATOM     10  C   UNL     1     -21.288  39.582   6.058  1.00  0.00     0.004 C 
ENDBRANCH   8   9
ENDBRANCH   7   8
ENDBRANCH   1   7
TORSDOF 6
ENDMDL
MODEL 2
REMARK VINA RESULT:    -4.631      1.984      3.679
REMARK INTER + INTRA:          -6.900
REMARK INTER:                  -6.411
REMARK INTRA:                  -0.489
REMARK UNBOUND:                -0.645
REMARK SMILES CCCCCCCC(=O)[O-]
REMARK SMILES IDX 5 1 6 2 7 3 8 4 9 5 10 6 4 7 3 8 2 9 1 10
REMARK H PARENT
REMARK Flexibility Score: inf
ROOT
ATOM      1  C   UNL     1     -23.307  36.349   7.424  1.00  0.00     0.000 C 
ENDROOT
BRANCH   1   2
ATOM      2  C   UNL     1     -22.986  37.816   7.097  1.00  0.00     0.006 C 
BRANCH   2   3
ATOM      3  C   UNL     1     -22.387  37.992   5.696  1.00  0.00     0.053 C 
BRANCH   3   4
ATOM      4  C   UNL     1     -21.560  39.238   5.635  1.00  0.00     0.041 C 
ATOM      5  O   UNL     1     -20.321  39.167   5.423  1.00  0.00    -0.550 OA
ATOM      6  O   UNL     1     -22.166  40.482   5.762  1.00  0.00    -0.550 OA
ENDBRANCH   3   4
ENDBRANCH   2   3
ENDBRANCH   1   2
BRANCH   1   7
ATOM      7  C   UNL     1     -22.049  35.521   7.725  1.00  0.00     0.000 C 
BRANCH   7   8
ATOM      8  C   UNL     1     -21.417  35.950   9.058  1.00  0.00    -0.000 C 
BRANCH   8   9
ATOM      9  C   UNL     1     -19.907  36.208   8.940  1.00  0.00    -0.003 C 
ATOM     10  C   UNL     1     -19.427  36.260   7.490  1.00  0.00     0.004 C 
ENDBRANCH   8   9
ENDBRANCH   7   8
ENDBRANCH   1   7
TORSDOF 6
ENDMDL
MODEL 3
REMARK VINA RESULT:    -4.617      2.529      4.119
REMARK INTER + INTRA:          -6.882
REMARK INTER:                  -6.461
REMARK INTRA:                  -0.421
REMARK UNBOUND:                -0.645
REMARK SMILES CCCCCCCC(=O)[O-]
REMARK SMILES IDX 5 1 6 2 7 3 8 4 9 5 10 6 4 7 3 8 2 9 1 10
REMARK H PARENT
REMARK Flexibility Score: inf
ROOT
ATOM      1  C   UNL     1     -23.013  37.740   7.071  1.00  0.00     0.000 C 
ENDROOT
BRANCH   1   2
ATOM      2  C   UNL     1     -22.328  37.908   5.705  1.00  0.00     0.006 C 
BRANCH   2   3
ATOM      3  C   UNL     1     -21.088  38.810   5.772  1.00  0.00     0.053 C 
BRANCH   3   4
ATOM      4  C   UNL     1     -21.387  40.152   5.182  1.00  0.00     0.041 C 
ATOM      5  O   UNL     1     -22.573  40.478   4.914  1.00  0.00    -0.550 OA
ATOM      6  O   UNL     1     -20.359  41.064   4.972  1.00  0.00    -0.550 OA
ENDBRANCH   3   4
ENDBRANCH   2   3
ENDBRANCH   1   2
BRANCH   1   7
ATOM      7  C   UNL     1     -23.322  36.273   7.401  1.00  0.00     0.000 C 
BRANCH   7   8
ATOM      8  C   UNL     1     -22.040  35.513   7.774  1.00  0.00    -0.000 C 
BRANCH   8   9
ATOM      9  C   UNL     1     -21.408  36.027   9.077  1.00  0.00    -0.003 C 
ATOM     10  C   UNL     1     -19.895  36.219   8.967  1.00  0.00     0.004 C 
ENDBRANCH   8   9
ENDBRANCH   7   8
ENDBRANCH   1   7
TORSDOF 6
ENDMDL
MODEL 4
REMARK VINA RESULT:    -4.593      1.665      2.824
REMARK INTER + INTRA:          -6.849
REMARK INTER:                  -6.207
REMARK INTRA:                  -0.642
REMARK UNBOUND:                -0.645
REMARK SMILES CCCCCCCC(=O)[O-]
REMARK SMILES IDX 5 1 6 2 7 3 8 4 9 5 10 6 4 7 3 8 2 9 1 10
REMARK H PARENT
REMARK Flexibility Score: inf
ROOT
ATOM      1  C   UNL     1     -20.141  36.181   8.385  1.00  0.00     0.000 C 
ENDROOT
BRANCH   1   2
ATOM      2  C   UNL     1     -20.069  36.129   6.851  1.00  0.00     0.006 C 
BRANCH   2   3
ATOM      3  C   UNL     1     -19.523  37.427   6.240  1.00  0.00     0.053 C 
BRANCH   3   4
ATOM      4  C   UNL     1     -20.644  38.277   5.732  1.00  0.00     0.041 C 
ATOM      5  O   UNL     1     -20.710  39.494   6.046  1.00  0.00    -0.550 OA
ATOM      6  O   UNL     1     -21.590  37.736   4.869  1.00  0.00    -0.550 OA
ENDBRANCH   3   4
ENDBRANCH   2   3
ENDBRANCH   1   2
BRANCH   1   7
ATOM      7  C   UNL     1     -21.576  36.036   8.915  1.00  0.00     0.000 C 
BRANCH   7   8
ATOM      8  C   UNL     1     -22.245  37.410   9.066  1.00  0.00    -0.000 C 
BRANCH   8   9
ATOM      9  C   UNL     1     -23.387  37.624   8.060  1.00  0.00    -0.003 C 
ATOM     10  C   UNL     1     -23.769  36.345   7.315  1.00  0.00     0.004 C 
ENDBRANCH   8   9
ENDBRANCH   7   8
ENDBRANCH   1   7
TORSDOF 6
ENDMDL
MODEL 5
REMARK VINA RESULT:    -4.569     13.238     14.761
REMARK INTER + INTRA:          -6.817
REMARK INTER:                  -6.318
REMARK INTRA:                  -0.498
REMARK UNBOUND:                -0.645
REMARK SMILES CCCCCCCC(=O)[O-]
REMARK SMILES IDX 5 1 6 2 7 3 8 4 9 5 10 6 4 7 3 8 2 9 1 10
REMARK H PARENT
REMARK Flexibility Score: inf
ROOT
ATOM      1  C   UNL     1     -17.861  43.769  -5.396  1.00  0.00     0.000 C 
ENDROOT
BRANCH   1   2
ATOM      2  C   UNL     1     -18.636  43.206  -6.598  1.00  0.00     0.006 C 
BRANCH   2   3
ATOM      3  C   UNL     1     -18.285  41.742  -6.895  1.00  0.00     0.053 C 
BRANCH   3   4
ATOM      4  C   UNL     1     -19.517  40.895  -6.872  1.00  0.00     0.041 C 
ATOM      5  O   UNL     1     -19.858  40.243  -7.894  1.00  0.00    -0.550 OA
ATOM      6  O   UNL     1     -20.265  40.786  -5.706  1.00  0.00    -0.550 OA
ENDBRANCH   3   4
ENDBRANCH   2   3
ENDBRANCH   1   2
BRANCH   1   7
ATOM      7  C   UNL     1     -17.789  42.781  -4.223  1.00  0.00     0.000 C 
BRANCH   7   8
ATOM      8  C   UNL     1     -16.338  42.590  -3.756  1.00  0.00    -0.000 C 
BRANCH   8   9
ATOM      9  C   UNL     1     -15.766  41.220  -4.152  1.00  0.00    -0.003 C 
ATOM     10  C   UNL     1     -16.783  40.088  -4.006  1.00  0.00     0.004 C 
ENDBRANCH   8   9
ENDBRANCH   7   8
ENDBRANCH   1   7
TORSDOF 6
ENDMDL
MODEL 6
REMARK VINA RESULT:    -4.509      1.925      2.657
REMARK INTER + INTRA:          -6.736
REMARK INTER:                  -6.362
REMARK INTRA:                  -0.374
REMARK UNBOUND:                -0.645
REMARK SMILES CCCCCCCC(=O)[O-]
REMARK SMILES IDX 5 1 6 2 7 3 8 4 9 5 10 6 4 7 3 8 2 9 1 10
REMARK H PARENT
REMARK Flexibility Score: inf
ROOT
ATOM      1  C   UNL     1     -20.986  36.976   5.942  1.00  0.00     0.000 C 
ENDROOT
BRANCH   1   2
ATOM      2  C   UNL     1     -21.041  35.559   6.537  1.00  0.00     0.006 C 
BRANCH   2   3
ATOM      3  C   UNL     1     -21.692  35.526   7.926  1.00  0.00     0.053 C 
BRANCH   3   4
ATOM      4  C   UNL     1     -20.908  36.359   8.890  1.00  0.00     0.041 C 
ATOM      5  O   UNL     1     -21.456  37.322   9.488  1.00  0.00    -0.550 OA
ATOM      6  O   UNL     1     -19.584  36.042   9.166  1.00  0.00    -0.550 OA
ENDBRANCH   3   4
ENDBRANCH   2   3
ENDBRANCH   1   2
BRANCH   1   7
ATOM      7  C   UNL     1     -22.381  37.546   5.645  1.00  0.00     0.000 C 
BRANCH   7   8
ATOM      8  C   UNL     1     -22.324  39.072   5.480  1.00  0.00    -0.000 C 
BRANCH   8   9
ATOM      9  C   UNL     1     -20.935  39.649   5.794  1.00  0.00    -0.003 C 
ATOM     10  C   UNL     1     -20.440  40.620   4.723  1.00  0.00     0.004 C 
ENDBRANCH   8   9
ENDBRANCH   7   8
ENDBRANCH   1   7
TORSDOF 6
ENDMDL
MODEL 7
REMARK VINA RESULT:    -4.485      2.212      3.674
REMARK INTER + INTRA:          -6.703
REMARK INTER:                  -6.142
REMARK INTRA:                  -0.561
REMARK UNBOUND:                -0.645
REMARK SMILES CCCCCCCC(=O)[O-]
REMARK SMILES IDX 5 1 6 2 7 3 8 4 9 5 10 6 4 7 3 8 2 9 1 10
REMARK H PARENT
REMARK Flexibility Score: inf
ROOT
ATOM      1  C   UNL     1     -20.910  35.768   6.432  1.00  0.00     0.000 C 
ENDROOT
BRANCH   1   2
ATOM      2  C   UNL     1     -20.384  37.208   6.321  1.00  0.00     0.006 C 
BRANCH   2   3
ATOM      3  C   UNL     1     -21.223  38.073   5.372  1.00  0.00     0.053 C 
BRANCH   3   4
ATOM      4  C   UNL     1     -21.215  39.500   5.822  1.00  0.00     0.041 C 
ATOM      5  O   UNL     1     -21.952  39.871   6.772  1.00  0.00    -0.550 OA
ATOM      6  O   UNL     1     -20.353  40.412   5.223  1.00  0.00    -0.550 OA
ENDBRANCH   3   4
ENDBRANCH   2   3
ENDBRANCH   1   2
BRANCH   1   7
ATOM      7  C   UNL     1     -21.684  35.520   7.735  1.00  0.00     0.000 C 
BRANCH   7   8
ATOM      8  C   UNL     1     -21.405  36.631   8.758  1.00  0.00    -0.000 C 
BRANCH   8   9
ATOM      9  C   UNL     1     -22.679  37.386   9.172  1.00  0.00    -0.003 C 
ATOM     10  C   UNL     1     -23.820  37.217   8.169  1.00  0.00     0.004 C 
ENDBRANCH   8   9
ENDBRANCH   7   8
ENDBRANCH   1   7
TORSDOF 6
ENDMDL
MODEL 8
REMARK VINA RESULT:    -4.467     13.540     14.437
REMARK INTER + INTRA:          -6.679
REMARK INTER:                  -6.364
REMARK INTRA:                  -0.315
REMARK UNBOUND:                -0.645
REMARK SMILES CCCCCCCC(=O)[O-]
REMARK SMILES IDX 5 1 6 2 7 3 8 4 9 5 10 6 4 7 3 8 2 9 1 10
REMARK H PARENT
REMARK Flexibility Score: inf
ROOT
ATOM      1  C   UNL     1     -18.622  41.163  -6.229  1.00  0.00     0.000 C 
ENDROOT
BRANCH   1   2
ATOM      2  C   UNL     1     -19.775  40.749  -5.301  1.00  0.00     0.006 C 
BRANCH   2   3
ATOM      3  C   UNL     1     -21.134  41.283  -5.771  1.00  0.00     0.053 C 
BRANCH   3   4
ATOM      4  C   UNL     1     -21.821  40.274  -6.637  1.00  0.00     0.041 C 
ATOM      5  O   UNL     1     -22.646  39.466  -6.136  1.00  0.00    -0.550 OA
ATOM      6  O   UNL     1     -21.587  40.259  -8.007  1.00  0.00    -0.550 OA
ENDBRANCH   3   4
ENDBRANCH   2   3
ENDBRANCH   1   2
BRANCH   1   7
ATOM      7  C   UNL     1     -17.327  40.388  -5.945  1.00  0.00     0.000 C 
BRANCH   7   8
ATOM      8  C   UNL     1     -17.092  40.249  -4.434  1.00  0.00    -0.000 C 
BRANCH   8   9
ATOM      9  C   UNL     1     -15.939  41.133  -3.932  1.00  0.00    -0.003 C 
ATOM     10  C   UNL     1     -16.365  42.579  -3.684  1.00  0.00     0.004 C 
ENDBRANCH   8   9
ENDBRANCH   7   8
ENDBRANCH   1   7
TORSDOF 6
ENDMDL
MODEL 9
REMARK VINA RESULT:    -4.431      1.287      2.186
REMARK INTER + INTRA:          -6.631
REMARK INTER:                  -6.170
REMARK INTRA:                  -0.461
REMARK UNBOUND:                -0.645
REMARK SMILES CCCCCCCC(=O)[O-]
REMARK SMILES IDX 5 1 6 2 7 3 8 4 9 5 10 6 4 7 3 8 2 9 1 10
REMARK H PARENT
REMARK Flexibility Score: inf
ROOT
ATOM      1  C   UNL     1     -23.180  38.097   7.755  1.00  0.00     0.000 C 
ENDROOT
BRANCH   1   2
ATOM      2  C   UNL     1     -23.076  36.684   7.158  1.00  0.00     0.006 C 
BRANCH   2   3
ATOM      3  C   UNL     1     -22.078  35.796   7.912  1.00  0.00     0.053 C 
BRANCH   3   4
ATOM      4  C   UNL     1     -20.763  35.765   7.198  1.00  0.00     0.041 C 
ATOM      5  O   UNL     1     -20.710  35.453   5.979  1.00  0.00    -0.550 OA
ATOM      6  O   UNL     1     -19.600  36.129   7.866  1.00  0.00    -0.550 OA
ENDBRANCH   3   4
ENDBRANCH   2   3
ENDBRANCH   1   2
BRANCH   1   7
ATOM      7  C   UNL     1     -22.347  39.129   6.981  1.00  0.00     0.000 C 
BRANCH   7   8
ATOM      8  C   UNL     1     -22.315  38.794   5.482  1.00  0.00    -0.000 C 
BRANCH   8   9
ATOM      9  C   UNL     1     -20.903  38.900   4.884  1.00  0.00    -0.003 C 
ATOM     10  C   UNL     1     -20.439  40.346   4.713  1.00  0.00     0.004 C 
ENDBRANCH   8   9
ENDBRANCH   7   8
ENDBRANCH   1   7
TORSDOF 6
ENDMDL
