MODEL 1
REMARK VINA RESULT:    -3.661      0.000      0.000
REMARK INTER + INTRA:          -6.842
REMARK INTER:                  -5.801
REMARK INTRA:                  -1.041
REMARK UNBOUND:                -1.041
REMARK SMILES CCCCCCCCCCCC(=O)[O-]
REMARK SMILES IDX 7 1 8 2 9 3 10 4 11 5 12 6 13 7 14 8 6 9 5 10 4 11 3 12 2 13
REMARK SMILES IDX 1 14
REMARK H PARENT
REMARK Flexibility Score: inf
ROOT
ATOM      1  C   UNL     1     -17.768  25.013  35.236  1.00  0.00     0.000 C 
ENDROOT
BRANCH   1   2
ATOM      2  C   UNL     1     -18.073  24.117  36.451  1.00  0.00     0.000 C 
BRANCH   2   3
ATOM      3  C   UNL     1     -17.224  22.837  36.466  1.00  0.00     0.000 C 
BRANCH   3   4
ATOM      4  C   UNL     1     -16.131  22.840  35.383  1.00  0.00     0.006 C 
BRANCH   4   5
ATOM      5  C   UNL     1     -14.771  22.385  35.932  1.00  0.00     0.053 C 
BRANCH   5   6
ATOM      6  C   UNL     1     -13.757  22.225  34.839  1.00  0.00     0.041 C 
ATOM      7  O   UNL     1     -12.566  22.588  35.023  1.00  0.00    -0.550 OA
ATOM      8  O   UNL     1     -14.121  21.641  33.633  1.00  0.00    -0.550 OA
ENDBRANCH   5   6
ENDBRANCH   4   5
ENDBRANCH   3   4
ENDBRANCH   2   3
ENDBRANCH   1   2
BRANCH   1   9
ATOM      9  C   UNL     1     -17.557  26.485  35.622  1.00  0.00     0.000 C 
BRANCH   9  10
ATOM     10  C   UNL     1     -17.382  27.398  34.394  1.00  0.00    -0.000 C 
BRANCH  10  11
ATOM     11  C   UNL     1     -17.966  26.782  33.113  1.00  0.00    -0.000 C 
BRANCH  11  12
ATOM     12  C   UNL     1     -16.926  26.661  31.986  1.00  0.00    -0.000 C 
BRANCH  12  13
ATOM     13  C   UNL     1     -16.384  25.230  31.836  1.00  0.00    -0.003 C 
ATOM     14  C   UNL     1     -15.081  25.005  32.602  1.00  0.00     0.004 C 
ENDBRANCH  12  13
ENDBRANCH  11  12
ENDBRANCH  10  11
ENDBRANCH   9  10
ENDBRANCH   1   9
TORSDOF 10
ENDMDL
MODEL 2
REMARK VINA RESULT:    -3.445      1.599      4.519
REMARK INTER + INTRA:          -6.500
REMARK INTER:                  -5.725
REMARK INTRA:                  -0.775
REMARK UNBOUND:                -1.041
REMARK SMILES CCCCCCCCCCCC(=O)[O-]
REMARK SMILES IDX 7 1 8 2 9 3 10 4 11 5 12 6 13 7 14 8 6 9 5 10 4 11 3 12 2 13
REMARK SMILES IDX 1 14
REMARK H PARENT
REMARK Flexibility Score: inf
ROOT
ATOM      1  C   UNL     1     -17.781  25.165  35.235  1.00  0.00     0.000 C 
ENDROOT
BRANCH   1   2
ATOM      2  C   UNL     1     -17.578  26.665  35.517  1.00  0.00     0.000 C 
BRANCH   2   3
ATOM      3  C   UNL     1     -17.194  27.454  34.256  1.00  0.00     0.000 C 
BRANCH   3   4
ATOM      4  C   UNL     1     -17.875  26.910  32.988  1.00  0.00     0.006 C 
BRANCH   4   5
ATOM      5  C   UNL     1     -16.860  26.562  31.890  1.00  0.00     0.053 C 
BRANCH   5   6
ATOM      6  C   UNL     1     -16.255  25.207  32.101  1.00  0.00     0.041 C 
ATOM      7  O   UNL     1     -16.918  24.170  31.840  1.00  0.00    -0.550 OA
ATOM      8  O   UNL     1     -14.947  25.092  32.552  1.00  0.00    -0.550 OA
ENDBRANCH   5   6
ENDBRANCH   4   5
ENDBRANCH   3   4
ENDBRANCH   2   3
ENDBRANCH   1   2
BRANCH   1   9
ATOM      9  C   UNL     1     -17.842  24.323  36.519  1.00  0.00     0.000 C 
BRANCH   9  10
ATOM     10  C   UNL     1     -17.293  22.899  36.318  1.00  0.00    -0.000 C 
BRANCH  10  11
ATOM     11  C   UNL     1     -15.880  22.892  35.710  1.00  0.00    -0.000 C 
BRANCH  11  12
ATOM     12  C   UNL     1     -15.802  22.083  34.404  1.00  0.00    -0.000 C 
BRANCH  12  13
ATOM     13  C   UNL     1     -14.355  21.858  33.938  1.00  0.00    -0.003 C 
ATOM     14  C   UNL     1     -13.325  22.180  35.019  1.00  0.00     0.004 C 
ENDBRANCH  12  13
ENDBRANCH  11  12
ENDBRANCH  10  11
ENDBRANCH   9  10
ENDBRANCH   1   9
TORSDOF 10
ENDMDL
MODEL 3
REMARK VINA RESULT:    -3.429      2.578      4.870
REMARK INTER + INTRA:          -6.474
REMARK INTER:                  -5.372
REMARK INTRA:                  -1.102
REMARK UNBOUND:                -1.041
REMARK SMILES CCCCCCCCCCCC(=O)[O-]
REMARK SMILES IDX 7 1 8 2 9 3 10 4 11 5 12 6 13 7 14 8 6 9 5 10 4 11 3 12 2 13
REMARK SMILES IDX 1 14
REMARK H PARENT
REMARK Flexibility Score: inf
ROOT
ATOM      1  C   UNL     1     -18.124  23.473  34.807  1.00  0.00     0.000 C 
ENDROOT
BRANCH   1   2
ATOM      2  C   UNL     1     -17.607  24.077  36.126  1.00  0.00     0.000 C 
BRANCH   2   3
ATOM      3  C   UNL     1     -17.480  25.607  36.063  1.00  0.00     0.000 C 
BRANCH   3   4
ATOM      4  C   UNL     1     -17.954  26.184  34.717  1.00  0.00     0.006 C 
BRANCH   4   5
ATOM      5  C   UNL     1     -16.803  26.815  33.920  1.00  0.00     0.053 C 
BRANCH   5   6
ATOM      6  C   UNL     1     -16.917  26.522  32.454  1.00  0.00     0.041 C 
ATOM      7  O   UNL     1     -16.538  25.412  31.999  1.00  0.00    -0.550 OA
ATOM      8  O   UNL     1     -17.475  27.462  31.598  1.00  0.00    -0.550 OA
ENDBRANCH   5   6
ENDBRANCH   4   5
ENDBRANCH   3   4
ENDBRANCH   2   3
ENDBRANCH   1   2
BRANCH   1   9
ATOM      9  C   UNL     1     -17.533  22.084  34.519  1.00  0.00     0.000 C 
BRANCH   9  10
ATOM     10  C   UNL     1     -16.635  22.073  33.268  1.00  0.00    -0.000 C 
BRANCH  10  11
ATOM     11  C   UNL     1     -15.191  21.651  33.583  1.00  0.00    -0.000 C 
BRANCH  11  12
ATOM     12  C   UNL     1     -14.304  22.838  33.995  1.00  0.00    -0.000 C 
BRANCH  12  13
ATOM     13  C   UNL     1     -13.467  22.540  35.249  1.00  0.00    -0.003 C 
ATOM     14  C   UNL     1     -14.306  22.006  36.410  1.00  0.00     0.004 C 
ENDBRANCH  12  13
ENDBRANCH  11  12
ENDBRANCH  10  11
ENDBRANCH   9  10
ENDBRANCH   1   9
TORSDOF 10
ENDMDL
MODEL 4
REMARK VINA RESULT:    -3.101     12.720     14.877
REMARK INTER + INTRA:          -5.955
REMARK INTER:                  -5.432
REMARK INTRA:                  -0.523
REMARK UNBOUND:                -1.041
REMARK SMILES CCCCCCCCCCCC(=O)[O-]
REMARK SMILES IDX 7 1 8 2 9 3 10 4 11 5 12 6 13 7 14 8 6 9 5 10 4 11 3 12 2 13
REMARK SMILES IDX 1 14
REMARK H PARENT
REMARK Flexibility Score: inf
ROOT
ATOM      1  C   UNL     1      -4.545  23.799  26.067  1.00  0.00     0.000 C 
ENDROOT
BRANCH   1   2
ATOM      2  C   UNL     1      -6.046  23.829  25.726  1.00  0.00     0.000 C 
BRANCH   2   3
ATOM      3  C   UNL     1      -6.859  22.824  26.556  1.00  0.00     0.000 C 
BRANCH   3   4
ATOM      4  C   UNL     1      -8.376  23.050  26.437  1.00  0.00     0.006 C 
BRANCH   4   5
ATOM      5  C   UNL     1      -8.765  23.680  25.092  1.00  0.00     0.053 C 
BRANCH   5   6
ATOM      6  C   UNL     1      -9.889  22.938  24.435  1.00  0.00     0.041 C 
ATOM      7  O   UNL     1     -10.208  21.788  24.835  1.00  0.00    -0.550 OA
ATOM      8  O   UNL     1     -10.606  23.531  23.404  1.00  0.00    -0.550 OA
ENDBRANCH   5   6
ENDBRANCH   4   5
ENDBRANCH   3   4
ENDBRANCH   2   3
ENDBRANCH   1   2
BRANCH   1   9
ATOM      9  C   UNL     1      -3.753  24.910  25.360  1.00  0.00     0.000 C 
BRANCH   9  10
ATOM     10  C   UNL     1      -3.615  26.177  26.225  1.00  0.00    -0.000 C 
BRANCH  10  11
ATOM     11  C   UNL     1      -2.518  27.124  25.712  1.00  0.00    -0.000 C 
BRANCH  11  12
ATOM     12  C   UNL     1      -2.260  26.969  24.204  1.00  0.00    -0.000 C 
BRANCH  12  13
ATOM     13  C   UNL     1      -0.775  26.743  23.881  1.00  0.00    -0.003 C 
ATOM     14  C   UNL     1      -0.283  25.355  24.289  1.00  0.00     0.004 C 
ENDBRANCH  12  13
ENDBRANCH  11  12
ENDBRANCH  10  11
ENDBRANCH   9  10
ENDBRANCH   1   9
TORSDOF 10
ENDMDL
MODEL 5
REMARK VINA RESULT:    -3.053     16.901     18.907
REMARK INTER + INTRA:          -5.878
REMARK INTER:                  -5.064
REMARK INTRA:                  -0.814
REMARK UNBOUND:                -1.041
REMARK SMILES CCCCCCCCCCCC(=O)[O-]
REMARK SMILES IDX 7 1 8 2 9 3 10 4 11 5 12 6 13 7 14 8 6 9 5 10 4 11 3 12 2 13
REMARK SMILES IDX 1 14
REMARK H PARENT
REMARK Flexibility Score: inf
ROOT
ATOM      1  C   UNL     1      -0.139  26.488  24.511  1.00  0.00     0.000 C 
ENDROOT
BRANCH   1   2
ATOM      2  C   UNL     1       0.369  25.223  23.794  1.00  0.00     0.000 C 
BRANCH   2   3
ATOM      3  C   UNL     1      -0.459  23.977  24.140  1.00  0.00     0.000 C 
BRANCH   3   4
ATOM      4  C   UNL     1      -0.208  22.811  23.167  1.00  0.00     0.006 C 
BRANCH   4   5
ATOM      5  C   UNL     1       0.806  23.177  22.074  1.00  0.00     0.053 C 
BRANCH   5   6
ATOM      6  C   UNL     1       0.486  22.506  20.773  1.00  0.00     0.041 C 
ATOM      7  O   UNL     1       0.513  23.162  19.699  1.00  0.00    -0.550 OA
ATOM      8  O   UNL     1       0.194  21.149  20.743  1.00  0.00    -0.550 OA
ENDBRANCH   5   6
ENDBRANCH   4   5
ENDBRANCH   3   4
ENDBRANCH   2   3
ENDBRANCH   1   2
BRANCH   1   9
ATOM      9  C   UNL     1      -1.102  27.314  23.646  1.00  0.00     0.000 C 
BRANCH   9  10
ATOM     10  C   UNL     1      -2.248  27.934  24.467  1.00  0.00    -0.000 C 
BRANCH  10  11
ATOM     11  C   UNL     1      -2.228  27.490  25.938  1.00  0.00    -0.000 C 
BRANCH  11  12
ATOM     12  C   UNL     1      -3.424  26.594  26.302  1.00  0.00    -0.000 C 
BRANCH  12  13
ATOM     13  C   UNL     1      -3.487  25.320  25.444  1.00  0.00    -0.003 C 
ATOM     14  C   UNL     1      -4.240  24.180  26.129  1.00  0.00     0.004 C 
ENDBRANCH  12  13
ENDBRANCH  11  12
ENDBRANCH  10  11
ENDBRANCH   9  10
ENDBRANCH   1   9
TORSDOF 10
ENDMDL
MODEL 6
REMARK VINA RESULT:    -2.989     13.151     15.328
REMARK INTER + INTRA:          -5.777
REMARK INTER:                  -5.310
REMARK INTRA:                  -0.467
REMARK UNBOUND:                -1.041
REMARK SMILES CCCCCCCCCCCC(=O)[O-]
REMARK SMILES IDX 7 1 8 2 9 3 10 4 11 5 12 6 13 7 14 8 6 9 5 10 4 11 3 12 2 13
REMARK SMILES IDX 1 14
REMARK H PARENT
REMARK Flexibility Score: inf
ROOT
ATOM      1  C   UNL     1      -4.492  23.891  25.512  1.00  0.00     0.000 C 
ENDROOT
BRANCH   1   2
ATOM      2  C   UNL     1      -3.550  24.767  26.358  1.00  0.00     0.000 C 
BRANCH   2   3
ATOM      3  C   UNL     1      -3.743  26.267  26.091  1.00  0.00     0.000 C 
BRANCH   3   4
ATOM      4  C   UNL     1      -2.435  26.968  25.685  1.00  0.00     0.006 C 
BRANCH   4   5
ATOM      5  C   UNL     1      -1.927  26.499  24.315  1.00  0.00     0.053 C 
BRANCH   5   6
ATOM      6  C   UNL     1      -0.615  25.782  24.424  1.00  0.00     0.041 C 
ATOM      7  O   UNL     1      -0.571  24.527  24.349  1.00  0.00    -0.550 OA
ATOM      8  O   UNL     1       0.562  26.505  24.572  1.00  0.00    -0.550 OA
ENDBRANCH   5   6
ENDBRANCH   4   5
ENDBRANCH   3   4
ENDBRANCH   2   3
ENDBRANCH   1   2
BRANCH   1   9
ATOM      9  C   UNL     1      -5.597  23.227  26.348  1.00  0.00     0.000 C 
BRANCH   9  10
ATOM     10  C   UNL     1      -7.009  23.614  25.874  1.00  0.00    -0.000 C 
BRANCH  10  11
ATOM     11  C   UNL     1      -8.112  22.828  26.602  1.00  0.00    -0.000 C 
BRANCH  11  12
ATOM     12  C   UNL     1      -9.341  22.572  25.714  1.00  0.00    -0.000 C 
BRANCH  12  13
ATOM     13  C   UNL     1      -9.493  23.622  24.602  1.00  0.00    -0.003 C 
ATOM     14  C   UNL     1     -10.556  23.247  23.571  1.00  0.00     0.004 C 
ENDBRANCH  12  13
ENDBRANCH  11  12
ENDBRANCH  10  11
ENDBRANCH   9  10
ENDBRANCH   1   9
TORSDOF 10
ENDMDL
MODEL 7
REMARK VINA RESULT:    -2.965     12.374     14.144
REMARK INTER + INTRA:          -5.739
REMARK INTER:                  -5.391
REMARK INTRA:                  -0.348
REMARK UNBOUND:                -1.041
REMARK SMILES CCCCCCCCCCCC(=O)[O-]
REMARK SMILES IDX 7 1 8 2 9 3 10 4 11 5 12 6 13 7 14 8 6 9 5 10 4 11 3 12 2 13
REMARK SMILES IDX 1 14
REMARK H PARENT
REMARK Flexibility Score: inf
ROOT
ATOM      1  C   UNL     1      -6.866  22.691  26.642  1.00  0.00     0.000 C 
ENDROOT
BRANCH   1   2
ATOM      2  C   UNL     1      -5.925  23.622  25.856  1.00  0.00     0.000 C 
BRANCH   2   3
ATOM      3  C   UNL     1      -4.522  23.701  26.476  1.00  0.00     0.000 C 
BRANCH   3   4
ATOM      4  C   UNL     1      -3.535  24.499  25.606  1.00  0.00     0.006 C 
BRANCH   4   5
ATOM      5  C   UNL     1      -3.510  25.989  25.977  1.00  0.00     0.053 C 
BRANCH   5   6
ATOM      6  C   UNL     1      -2.429  26.725  25.245  1.00  0.00     0.041 C 
ATOM      7  O   UNL     1      -1.521  26.089  24.650  1.00  0.00    -0.550 OA
ATOM      8  O   UNL     1      -2.446  28.113  25.191  1.00  0.00    -0.550 OA
ENDBRANCH   5   6
ENDBRANCH   4   5
ENDBRANCH   3   4
ENDBRANCH   2   3
ENDBRANCH   1   2
BRANCH   1   9
ATOM      9  C   UNL     1      -8.302  23.231  26.725  1.00  0.00     0.000 C 
BRANCH   9  10
ATOM     10  C   UNL     1      -8.987  23.300  25.348  1.00  0.00    -0.000 C 
BRANCH  10  11
ATOM     11  C   UNL     1     -10.000  22.163  25.134  1.00  0.00    -0.000 C 
BRANCH  11  12
ATOM     12  C   UNL     1     -11.027  22.484  24.035  1.00  0.00    -0.000 C 
BRANCH  12  13
ATOM     13  C   UNL     1     -10.574  23.638  23.126  1.00  0.00    -0.003 C 
ATOM     14  C   UNL     1     -11.337  23.685  21.803  1.00  0.00     0.004 C 
ENDBRANCH  12  13
ENDBRANCH  11  12
ENDBRANCH  10  11
ENDBRANCH   9  10
ENDBRANCH   1   9
TORSDOF 10
ENDMDL
MODEL 8
REMARK VINA RESULT:    -2.930     17.373     19.414
REMARK INTER + INTRA:          -5.684
REMARK INTER:                  -4.991
REMARK INTRA:                  -0.693
REMARK UNBOUND:                -1.041
REMARK SMILES CCCCCCCCCCCC(=O)[O-]
REMARK SMILES IDX 7 1 8 2 9 3 10 4 11 5 12 6 13 7 14 8 6 9 5 10 4 11 3 12 2 13
REMARK SMILES IDX 1 14
REMARK H PARENT
REMARK Flexibility Score: inf
ROOT
ATOM      1  C   UNL     1      -0.819  24.162  24.614  1.00  0.00     0.000 C 
ENDROOT
BRANCH   1   2
ATOM      2  C   UNL     1      -0.148  23.246  23.574  1.00  0.00     0.000 C 
BRANCH   2   3
ATOM      3  C   UNL     1       0.849  23.999  22.681  1.00  0.00     0.000 C 
BRANCH   3   4
ATOM      4  C   UNL     1       1.340  23.149  21.496  1.00  0.00     0.006 C 
BRANCH   4   5
ATOM      5  C   UNL     1       0.240  22.230  20.947  1.00  0.00     0.053 C 
BRANCH   5   6
ATOM      6  C   UNL     1       0.182  22.264  19.450  1.00  0.00     0.041 C 
ATOM      7  O   UNL     1       0.137  21.192  18.793  1.00  0.00    -0.550 OA
ATOM      8  O   UNL     1       0.142  23.482  18.783  1.00  0.00    -0.550 OA
ENDBRANCH   5   6
ENDBRANCH   4   5
ENDBRANCH   3   4
ENDBRANCH   2   3
ENDBRANCH   1   2
BRANCH   1   9
ATOM      9  C   UNL     1      -0.567  25.653  24.341  1.00  0.00     0.000 C 
BRANCH   9  10
ATOM     10  C   UNL     1      -1.873  26.459  24.217  1.00  0.00    -0.000 C 
BRANCH  10  11
ATOM     11  C   UNL     1      -2.255  27.170  25.525  1.00  0.00    -0.000 C 
BRANCH  11  12
ATOM     12  C   UNL     1      -3.415  26.475  26.259  1.00  0.00    -0.000 C 
BRANCH  12  13
ATOM     13  C   UNL     1      -4.043  25.344  25.429  1.00  0.00    -0.003 C 
ATOM     14  C   UNL     1      -4.137  24.026  26.196  1.00  0.00     0.004 C 
ENDBRANCH  12  13
ENDBRANCH  11  12
ENDBRANCH  10  11
ENDBRANCH   9  10
ENDBRANCH   1   9
TORSDOF 10
ENDMDL
