MODEL 1
REMARK VINA RESULT:     2.318      0.000      0.000
REMARK INTER + INTRA:           2.949
REMARK INTER:                   2.724
REMARK INTRA:                   0.225
REMARK UNBOUND:                 0.225
REMARK SMILES O=C([O-])C=Cc1ccc(O)c(O)c1
REMARK SMILES IDX 6 1 13 2 7 3 11 4 8 5 9 6 5 7 4 8 2 9 1 10 3 11 12 12 10 14
REMARK H PARENT 12 13 10 15
REMARK Flexibility Score: inf
ROOT
ATOM      1  C   UNL     1     -29.805  40.885 -25.078  1.00  0.00    -0.022 A 
ATOM      2  C   UNL     1     -30.939  40.512 -25.813  1.00  0.00     0.058 A 
ATOM      3  C   UNL     1     -29.926  41.123 -23.699  1.00  0.00     0.012 A 
ATOM      4  C   UNL     1     -32.171  40.327 -25.175  1.00  0.00     0.157 A 
ATOM      5  C   UNL     1     -31.154  40.938 -23.058  1.00  0.00     0.051 A 
ATOM      6  C   UNL     1     -32.280  40.536 -23.790  1.00  0.00     0.157 A 
ENDROOT
BRANCH   1   7
ATOM      7  C   UNL     1     -28.531  41.125 -25.786  1.00  0.00     0.010 C 
ATOM      8  C   UNL     1     -27.314  40.770 -25.342  1.00  0.00     0.025 C 
BRANCH   8   9
ATOM      9  C   UNL     1     -27.040  39.926 -24.163  1.00  0.00     0.064 C 
ATOM     10  O   UNL     1     -26.875  38.681 -24.267  1.00  0.00    -0.545 OA
ATOM     11  O   UNL     1     -26.892  40.527 -22.920  1.00  0.00    -0.545 OA
ENDBRANCH   8   9
ENDBRANCH   1   7
BRANCH   4  12
ATOM     12  O   UNL     1     -33.274  39.936 -25.934  1.00  0.00    -0.504 OA
ATOM     13  H   UNL     1     -34.219  39.975 -25.569  1.00  0.00     0.293 HD
ENDBRANCH   4  12
BRANCH   6  14
ATOM     14  O   UNL     1     -33.503  40.350 -23.148  1.00  0.00    -0.504 OA
ATOM     15  H   UNL     1     -33.573  39.838 -22.276  1.00  0.00     0.293 HD
ENDBRANCH   6  14
TORSDOF 4
ENDMDL
