MODEL 1
REMARK VINA RESULT:    -5.565      0.000      0.000
REMARK INTER + INTRA:          -5.565
REMARK INTER:                  -5.565
REMARK INTRA:                   0.000
REMARK UNBOUND:                 0.000
REMARK SMILES CC1=CC(=O)[C@@H]2C[C@H]1C2(C)C
REMARK SMILES IDX 1 1 2 2 3 3 4 4 5 5 6 6 7 7 8 8 9 9 10 10 11 11
REMARK H PARENT
REMARK Flexibility Score: inf
ROOT
ATOM      1  C   UNL     1     -13.727 -15.500  31.252  1.00  0.00     0.040 C 
ATOM      2  C   UNL     1     -12.600 -16.177  30.540  1.00  0.00    -0.066 C 
ATOM      3  C   UNL     1     -11.765 -17.054  31.167  1.00  0.00     0.047 C 
ATOM      4  C   UNL     1     -10.682 -17.656  30.324  1.00  0.00     0.159 C 
ATOM      5  O   UNL     1      -9.875 -18.509  30.776  1.00  0.00    -0.295 OA
ATOM      6  C   UNL     1     -10.626 -17.159  28.879  1.00  0.00     0.067 C 
ATOM      7  C   UNL     1     -10.771 -15.627  29.001  1.00  0.00     0.021 C 
ATOM      8  C   UNL     1     -12.297 -15.864  29.060  1.00  0.00     0.022 C 
ATOM      9  C   UNL     1     -12.063 -17.194  28.286  1.00  0.00    -0.019 C 
ATOM     10  C   UNL     1     -12.072 -16.992  26.750  1.00  0.00     0.012 C 
ATOM     11  C   UNL     1     -12.972 -18.409  28.624  1.00  0.00     0.012 C 
ENDROOT
TORSDOF 0
ENDMDL
MODEL 2
REMARK VINA RESULT:    -5.456      1.685      2.203
REMARK INTER + INTRA:          -5.456
REMARK INTER:                  -5.456
REMARK INTRA:                   0.000
REMARK UNBOUND:                 0.000
REMARK SMILES CC1=CC(=O)[C@@H]2C[C@H]1C2(C)C
REMARK SMILES IDX 1 1 2 2 3 3 4 4 5 5 6 6 7 7 8 8 9 9 10 10 11 11
REMARK H PARENT
REMARK Flexibility Score: inf
ROOT
ATOM      1  C   UNL     1     -14.380 -15.115  32.005  1.00  0.00     0.040 C 
ATOM      2  C   UNL     1     -13.140 -15.916  31.767  1.00  0.00    -0.066 C 
ATOM      3  C   UNL     1     -12.178 -16.069  32.722  1.00  0.00     0.047 C 
ATOM      4  C   UNL     1     -10.992 -16.902  32.340  1.00  0.00     0.159 C 
ATOM      5  O   UNL     1     -10.059 -17.151  33.146  1.00  0.00    -0.295 OA
ATOM      6  C   UNL     1     -10.996 -17.424  30.902  1.00  0.00     0.067 C 
ATOM      7  C   UNL     1     -11.405 -16.199  30.056  1.00  0.00     0.021 C 
ATOM      8  C   UNL     1     -12.868 -16.565  30.395  1.00  0.00     0.022 C 
ATOM      9  C   UNL     1     -12.394 -18.033  30.600  1.00  0.00    -0.019 C 
ATOM     10  C   UNL     1     -12.410 -18.848  29.281  1.00  0.00     0.012 C 
ATOM     11  C   UNL     1     -13.086 -18.880  31.704  1.00  0.00     0.012 C 
ENDROOT
TORSDOF 0
ENDMDL
MODEL 3
REMARK VINA RESULT:    -5.414      1.841      3.378
REMARK INTER + INTRA:          -5.414
REMARK INTER:                  -5.414
REMARK INTRA:                   0.000
REMARK UNBOUND:                 0.000
REMARK SMILES CC1=CC(=O)[C@@H]2C[C@H]1C2(C)C
REMARK SMILES IDX 1 1 2 2 3 3 4 4 5 5 6 6 7 7 8 8 9 9 10 10 11 11
REMARK H PARENT
REMARK Flexibility Score: inf
ROOT
ATOM      1  C   UNL     1     -11.463 -17.072  26.072  1.00  0.00     0.040 C 
ATOM      2  C   UNL     1     -11.599 -16.741  27.524  1.00  0.00    -0.066 C 
ATOM      3  C   UNL     1     -12.654 -16.028  28.012  1.00  0.00     0.047 C 
ATOM      4  C   UNL     1     -12.657 -15.776  29.489  1.00  0.00     0.159 C 
ATOM      5  O   UNL     1     -13.596 -15.167  30.065  1.00  0.00    -0.295 OA
ATOM      6  C   UNL     1     -11.439 -16.308  30.246  1.00  0.00     0.067 C 
ATOM      7  C   UNL     1     -10.238 -15.882  29.374  1.00  0.00     0.021 C 
ATOM      8  C   UNL     1     -10.508 -17.151  28.535  1.00  0.00     0.022 C 
ATOM      9  C   UNL     1     -11.176 -17.773  29.795  1.00  0.00    -0.019 C 
ATOM     10  C   UNL     1     -10.155 -18.496  30.708  1.00  0.00     0.012 C 
ATOM     11  C   UNL     1     -12.398 -18.713  29.590  1.00  0.00     0.012 C 
ENDROOT
TORSDOF 0
ENDMDL
MODEL 4
REMARK VINA RESULT:    -5.341      1.760      3.516
REMARK INTER + INTRA:          -5.341
REMARK INTER:                  -5.341
REMARK INTRA:                   0.000
REMARK UNBOUND:                 0.000
REMARK SMILES CC1=CC(=O)[C@@H]2C[C@H]1C2(C)C
REMARK SMILES IDX 1 1 2 2 3 3 4 4 5 5 6 6 7 7 8 8 9 9 10 10 11 11
REMARK H PARENT
REMARK Flexibility Score: inf
ROOT
ATOM      1  C   UNL     1     -12.840 -15.358  28.557  1.00  0.00     0.040 C 
ATOM      2  C   UNL     1     -12.744 -16.337  29.683  1.00  0.00    -0.066 C 
ATOM      3  C   UNL     1     -12.879 -17.681  29.493  1.00  0.00     0.047 C 
ATOM      4  C   UNL     1     -12.756 -18.538  30.716  1.00  0.00     0.159 C 
ATOM      5  O   UNL     1     -12.820 -19.794  30.665  1.00  0.00    -0.295 OA
ATOM      6  C   UNL     1     -12.549 -17.781  32.028  1.00  0.00     0.067 C 
ATOM      7  C   UNL     1     -13.582 -16.634  31.969  1.00  0.00     0.021 C 
ATOM      8  C   UNL     1     -12.539 -15.856  31.134  1.00  0.00     0.022 C 
ATOM      9  C   UNL     1     -11.436 -16.716  31.816  1.00  0.00    -0.019 C 
ATOM     10  C   UNL     1     -10.947 -16.099  33.151  1.00  0.00     0.012 C 
ATOM     11  C   UNL     1     -10.188 -17.109  30.975  1.00  0.00     0.012 C 
ENDROOT
TORSDOF 0
ENDMDL
MODEL 5
REMARK VINA RESULT:    -5.318      1.994      2.880
REMARK INTER + INTRA:          -5.318
REMARK INTER:                  -5.318
REMARK INTRA:                   0.000
REMARK UNBOUND:                 0.000
REMARK SMILES CC1=CC(=O)[C@@H]2C[C@H]1C2(C)C
REMARK SMILES IDX 1 1 2 2 3 3 4 4 5 5 6 6 7 7 8 8 9 9 10 10 11 11
REMARK H PARENT
REMARK Flexibility Score: inf
ROOT
ATOM      1  C   UNL     1     -13.655 -15.123  33.492  1.00  0.00     0.040 C 
ATOM      2  C   UNL     1     -12.991 -16.165  32.650  1.00  0.00    -0.066 C 
ATOM      3  C   UNL     1     -13.582 -17.363  32.376  1.00  0.00     0.047 C 
ATOM      4  C   UNL     1     -12.797 -18.308  31.516  1.00  0.00     0.159 C 
ATOM      5  O   UNL     1     -13.251 -19.425  31.158  1.00  0.00    -0.295 OA
ATOM      6  C   UNL     1     -11.408 -17.818  31.107  1.00  0.00     0.067 C 
ATOM      7  C   UNL     1     -10.806 -17.254  32.412  1.00  0.00     0.021 C 
ATOM      8  C   UNL     1     -11.569 -15.947  32.096  1.00  0.00     0.022 C 
ATOM      9  C   UNL     1     -11.529 -16.354  30.594  1.00  0.00    -0.019 C 
ATOM     10  C   UNL     1     -10.239 -15.869  29.885  1.00  0.00     0.012 C 
ATOM     11  C   UNL     1     -12.746 -15.983  29.701  1.00  0.00     0.012 C 
ENDROOT
TORSDOF 0
ENDMDL
MODEL 6
REMARK VINA RESULT:    -5.302      2.054      3.803
REMARK INTER + INTRA:          -5.302
REMARK INTER:                  -5.302
REMARK INTRA:                   0.000
REMARK UNBOUND:                 0.000
REMARK SMILES CC1=CC(=O)[C@@H]2C[C@H]1C2(C)C
REMARK SMILES IDX 1 1 2 2 3 3 4 4 5 5 6 6 7 7 8 8 9 9 10 10 11 11
REMARK H PARENT
REMARK Flexibility Score: inf
ROOT
ATOM      1  C   UNL     1     -12.892 -19.994  30.965  1.00  0.00     0.040 C 
ATOM      2  C   UNL     1     -12.463 -18.575  30.772  1.00  0.00    -0.066 C 
ATOM      3  C   UNL     1     -12.885 -17.824  29.714  1.00  0.00     0.047 C 
ATOM      4  C   UNL     1     -12.374 -16.417  29.654  1.00  0.00     0.159 C 
ATOM      5  O   UNL     1     -12.724 -15.613  28.752  1.00  0.00    -0.295 OA
ATOM      6  C   UNL     1     -11.398 -16.028  30.765  1.00  0.00     0.067 C 
ATOM      7  C   UNL     1     -10.420 -17.220  30.843  1.00  0.00     0.021 C 
ATOM      8  C   UNL     1     -11.469 -17.909  31.745  1.00  0.00     0.022 C 
ATOM      9  C   UNL     1     -11.987 -16.493  32.128  1.00  0.00    -0.019 C 
ATOM     10  C   UNL     1     -11.225 -15.892  33.336  1.00  0.00     0.012 C 
ATOM     11  C   UNL     1     -13.511 -16.310  32.374  1.00  0.00     0.012 C 
ENDROOT
TORSDOF 0
ENDMDL
MODEL 7
REMARK VINA RESULT:    -5.293      1.658      2.638
REMARK INTER + INTRA:          -5.293
REMARK INTER:                  -5.293
REMARK INTRA:                   0.000
REMARK UNBOUND:                 0.000
REMARK SMILES CC1=CC(=O)[C@@H]2C[C@H]1C2(C)C
REMARK SMILES IDX 1 1 2 2 3 3 4 4 5 5 6 6 7 7 8 8 9 9 10 10 11 11
REMARK H PARENT
REMARK Flexibility Score: inf
ROOT
ATOM      1  C   UNL     1      -9.935 -15.866  32.537  1.00  0.00     0.040 C 
ATOM      2  C   UNL     1     -10.928 -16.543  31.647  1.00  0.00    -0.066 C 
ATOM      3  C   UNL     1     -11.611 -17.658  32.034  1.00  0.00     0.047 C 
ATOM      4  C   UNL     1     -12.575 -18.224  31.036  1.00  0.00     0.159 C 
ATOM      5  O   UNL     1     -13.295 -19.225  31.291  1.00  0.00    -0.295 OA
ATOM      6  C   UNL     1     -12.621 -17.503  29.689  1.00  0.00     0.067 C 
ATOM      7  C   UNL     1     -11.136 -17.295  29.321  1.00  0.00     0.021 C 
ATOM      8  C   UNL     1     -11.182 -16.033  30.214  1.00  0.00     0.022 C 
ATOM      9  C   UNL     1     -12.714 -15.972  29.949  1.00  0.00    -0.019 C 
ATOM     10  C   UNL     1     -13.060 -15.176  28.665  1.00  0.00     0.012 C 
ATOM     11  C   UNL     1     -13.638 -15.473  31.096  1.00  0.00     0.012 C 
ENDROOT
TORSDOF 0
ENDMDL
MODEL 8
REMARK VINA RESULT:    -5.266      1.587      2.728
REMARK INTER + INTRA:          -5.266
REMARK INTER:                  -5.266
REMARK INTRA:                   0.000
REMARK UNBOUND:                 0.000
REMARK SMILES CC1=CC(=O)[C@@H]2C[C@H]1C2(C)C
REMARK SMILES IDX 1 1 2 2 3 3 4 4 5 5 6 6 7 7 8 8 9 9 10 10 11 11
REMARK H PARENT
REMARK Flexibility Score: inf
ROOT
ATOM      1  C   UNL     1     -12.866 -20.088  30.813  1.00  0.00     0.040 C 
ATOM      2  C   UNL     1     -12.334 -18.707  31.026  1.00  0.00    -0.066 C 
ATOM      3  C   UNL     1     -11.314 -18.445  31.893  1.00  0.00     0.047 C 
ATOM      4  C   UNL     1     -10.885 -17.013  32.000  1.00  0.00     0.159 C 
ATOM      5  O   UNL     1      -9.929 -16.651  32.733  1.00  0.00    -0.295 OA
ATOM      6  C   UNL     1     -11.692 -16.025  31.157  1.00  0.00     0.067 C 
ATOM      7  C   UNL     1     -13.162 -16.429  31.404  1.00  0.00     0.021 C 
ATOM      8  C   UNL     1     -12.961 -17.497  30.305  1.00  0.00     0.022 C 
ATOM      9  C   UNL     1     -11.833 -16.599  29.719  1.00  0.00    -0.019 C 
ATOM     10  C   UNL     1     -12.374 -15.550  28.715  1.00  0.00     0.012 C 
ATOM     11  C   UNL     1     -10.600 -17.296  29.078  1.00  0.00     0.012 C 
ENDROOT
TORSDOF 0
ENDMDL
MODEL 9
REMARK VINA RESULT:    -5.186      2.272      3.592
REMARK INTER + INTRA:          -5.186
REMARK INTER:                  -5.186
REMARK INTRA:                   0.000
REMARK UNBOUND:                 0.000
REMARK SMILES CC1=CC(=O)[C@@H]2C[C@H]1C2(C)C
REMARK SMILES IDX 1 1 2 2 3 3 4 4 5 5 6 6 7 7 8 8 9 9 10 10 11 11
REMARK H PARENT
REMARK Flexibility Score: inf
ROOT
ATOM      1  C   UNL     1     -12.497 -19.948  31.635  1.00  0.00     0.040 C 
ATOM      2  C   UNL     1     -12.645 -18.480  31.393  1.00  0.00    -0.066 C 
ATOM      3  C   UNL     1     -13.536 -17.714  32.085  1.00  0.00     0.047 C 
ATOM      4  C   UNL     1     -13.570 -16.258  31.735  1.00  0.00     0.159 C 
ATOM      5  O   UNL     1     -14.319 -15.441  32.332  1.00  0.00    -0.295 OA
ATOM      6  C   UNL     1     -12.634 -15.835  30.602  1.00  0.00     0.067 C 
ATOM      7  C   UNL     1     -12.844 -16.913  29.517  1.00  0.00     0.021 C 
ATOM      8  C   UNL     1     -11.823 -17.773  30.296  1.00  0.00     0.022 C 
ATOM      9  C   UNL     1     -11.230 -16.451  30.864  1.00  0.00    -0.019 C 
ATOM     10  C   UNL     1     -10.140 -15.849  29.941  1.00  0.00     0.012 C 
ATOM     11  C   UNL     1     -10.686 -16.457  32.320  1.00  0.00     0.012 C 
ENDROOT
TORSDOF 0
ENDMDL
