MODEL 1
REMARK VINA RESULT:    -4.618      0.000      0.000
REMARK INTER + INTRA:          -6.948
REMARK INTER:                  -6.372
REMARK INTRA:                  -0.575
REMARK UNBOUND:                -0.575
REMARK SMILES C[C@@H]1OC(=O)[C@@H](C)[C@@H]1C[C@H](O)[C@@](C)(O)[C@@H]1CC[C@@]2(O)C3=CC(=O)[C@@H]4C[C@H](O)[C@@H](O)C[C@]4(C)[C@H]3CC[C@@]12C
REMARK SMILES IDX 12 1 13 2 10 3 9 4 8 5 7 6 6 7 4 8 2 9 3 10 5 11 1 12 11 13
REMARK SMILES IDX 15 15 16 16 36 17 17 18 18 19 35 20 37 21 20 22 34 23 33 24
REMARK SMILES IDX 21 25 31 26 22 27 24 28 30 29 32 30 23 31 25 32 28 33 26 34
REMARK SMILES IDX 19 35 29 37 27 39 14 41
REMARK H PARENT 11 14 19 36 29 38 27 40 14 42
REMARK Flexibility Score: inf
ROOT
ATOM      1  C   UNL     1     138.263 134.435 117.368  1.00  0.00     0.091 C 
ATOM      2  C   UNL     1     139.185 133.966 118.528  1.00  0.00     0.045 C 
ENDROOT
BRANCH   1   3
ATOM      3  C   UNL     1     136.769 133.882 117.514  1.00  0.00     0.146 C 
BRANCH   3   4
ATOM      4  C   UNL     1     136.574 132.476 118.161  1.00  0.00     0.043 C 
BRANCH   4   5
ATOM      5  C   UNL     1     136.190 131.356 117.148  1.00  0.00     0.046 C 
ATOM      6  C   UNL     1     138.246 130.419 115.875  1.00  0.00     0.020 C 
ATOM      7  C   UNL     1     137.247 130.220 117.023  1.00  0.00     0.103 C 
ATOM      8  C   UNL     1     136.386 129.037 116.775  1.00  0.00     0.309 C 
ATOM      9  C   UNL     1     134.850 130.614 117.459  1.00  0.00     0.177 C 
ATOM     10  O   UNL     1     135.049 129.301 116.967  1.00  0.00    -0.462 OA
ATOM     11  O   UNL     1     136.815 127.895 116.466  1.00  0.00    -0.252 OA
ATOM     12  C   UNL     1     134.490 130.512 118.948  1.00  0.00     0.053 C 
ENDBRANCH   4   5
ENDBRANCH   3   4
BRANCH   3  13
ATOM     13  O   UNL     1     136.146 133.852 116.251  1.00  0.00    -0.390 OA
ATOM     14  H   UNL     1     135.207 134.156 116.371  1.00  0.00     0.211 HD
ENDBRANCH   3  13
ENDBRANCH   1   3
BRANCH   1  15
ATOM     15  C   UNL     1     138.364 136.029 117.301  1.00  0.00     0.032 C 
ATOM     16  C   UNL     1     139.782 136.579 117.371  1.00  0.00     0.010 C 
ATOM     17  C   UNL     1     137.498 136.995 118.204  1.00  0.00     0.006 C 
ATOM     18  C   UNL     1     139.583 138.073 117.342  1.00  0.00     0.041 C 
ATOM     19  C   UNL     1     138.359 138.362 118.246  1.00  0.00     0.092 C 
ATOM     20  C   UNL     1     136.040 137.111 117.579  1.00  0.00     0.011 C 
ATOM     21  C   UNL     1     137.331 136.472 119.662  1.00  0.00     0.015 C 
ATOM     22  C   UNL     1     137.588 139.603 117.788  1.00  0.00    -0.031 C 
ATOM     23  C   UNL     1     135.631 138.467 116.994  1.00  0.00     0.009 C 
ATOM     24  C   UNL     1     136.088 139.583 117.935  1.00  0.00     0.025 C 
ATOM     25  C   UNL     1     138.213 140.636 117.186  1.00  0.00     0.050 C 
ATOM     26  C   UNL     1     135.409 140.996 117.753  1.00  0.00    -0.013 C 
ATOM     27  C   UNL     1     137.475 141.704 116.502  1.00  0.00     0.159 C 
ATOM     28  C   UNL     1     135.963 141.687 116.470  1.00  0.00     0.070 C 
ATOM     29  C   UNL     1     135.713 141.870 119.030  1.00  0.00     0.042 C 
ATOM     30  C   UNL     1     133.867 140.830 117.638  1.00  0.00     0.013 C 
ATOM     31  O   UNL     1     138.123 142.586 115.875  1.00  0.00    -0.295 OA
ATOM     32  C   UNL     1     135.360 143.105 116.269  1.00  0.00     0.047 C 
ATOM     33  C   UNL     1     136.040 143.359 118.750  1.00  0.00     0.143 C 
ATOM     34  C   UNL     1     135.224 143.937 117.572  1.00  0.00     0.143 C 
BRANCH  19  35
ATOM     35  O   UNL     1     138.834 138.618 119.553  1.00  0.00    -0.385 OA
ATOM     36  H   UNL     1     138.207 138.206 120.206  1.00  0.00     0.211 HD
ENDBRANCH  19  35
BRANCH  33  37
ATOM     37  O   UNL     1     135.857 144.130 119.912  1.00  0.00    -0.390 OA
ATOM     38  H   UNL     1     134.891 144.361 119.968  1.00  0.00     0.211 HD
ENDBRANCH  33  37
BRANCH  34  39
ATOM     39  O   UNL     1     135.578 145.278 117.340  1.00  0.00    -0.390 OA
ATOM     40  H   UNL     1     136.565 145.314 117.236  1.00  0.00     0.211 HD
ENDBRANCH  34  39
ENDBRANCH   1  15
BRANCH   1  41
ATOM     41  O   UNL     1     138.873 133.881 116.221  1.00  0.00    -0.387 OA
ATOM     42  H   UNL     1     139.491 133.160 116.489  1.00  0.00     0.211 HD
ENDBRANCH   1  41
TORSDOF 9
ENDMDL
MODEL 2
REMARK VINA RESULT:    -4.517      1.786      2.280
REMARK INTER + INTRA:          -6.808
REMARK INTER:                  -5.925
REMARK INTRA:                  -0.883
REMARK UNBOUND:                -0.575
REMARK SMILES C[C@@H]1OC(=O)[C@@H](C)[C@@H]1C[C@H](O)[C@@](C)(O)[C@@H]1CC[C@@]2(O)C3=CC(=O)[C@@H]4C[C@H](O)[C@@H](O)C[C@]4(C)[C@H]3CC[C@@]12C
REMARK SMILES IDX 12 1 13 2 10 3 9 4 8 5 7 6 6 7 4 8 2 9 3 10 5 11 1 12 11 13
REMARK SMILES IDX 15 15 16 16 36 17 17 18 18 19 35 20 37 21 20 22 34 23 33 24
REMARK SMILES IDX 21 25 31 26 22 27 24 28 30 29 32 30 23 31 25 32 28 33 26 34
REMARK SMILES IDX 19 35 29 37 27 39 14 41
REMARK H PARENT 11 14 19 36 29 38 27 40 14 42
REMARK Flexibility Score: inf
ROOT
ATOM      1  C   UNL     1     139.165 134.100 117.035  1.00  0.00     0.091 C 
ATOM      2  C   UNL     1     140.108 133.806 118.235  1.00  0.00     0.045 C 
ENDROOT
BRANCH   1   3
ATOM      3  C   UNL     1     137.895 133.126 117.003  1.00  0.00     0.146 C 
BRANCH   3   4
ATOM      4  C   UNL     1     137.643 132.221 118.247  1.00  0.00     0.043 C 
BRANCH   4   5
ATOM      5  C   UNL     1     136.170 132.233 118.757  1.00  0.00     0.046 C 
ATOM      6  C   UNL     1     134.624 130.686 117.364  1.00  0.00     0.020 C 
ATOM      7  C   UNL     1     135.446 130.859 118.648  1.00  0.00     0.103 C 
ATOM      8  C   UNL     1     134.565 130.891 119.841  1.00  0.00     0.309 C 
ATOM      9  C   UNL     1     135.991 132.656 120.252  1.00  0.00     0.177 C 
ATOM     10  O   UNL     1     134.850 131.938 120.688  1.00  0.00    -0.462 OA
ATOM     11  O   UNL     1     133.675 130.037 120.093  1.00  0.00    -0.252 OA
ATOM     12  C   UNL     1     137.161 132.294 121.177  1.00  0.00     0.053 C 
ENDBRANCH   4   5
ENDBRANCH   3   4
BRANCH   3  13
ATOM     13  O   UNL     1     137.972 132.281 115.878  1.00  0.00    -0.390 OA
ATOM     14  H   UNL     1     138.687 132.635 115.285  1.00  0.00     0.211 HD
ENDBRANCH   3  13
ENDBRANCH   1   3
BRANCH   1  15
ATOM     15  C   UNL     1     138.792 135.654 117.098  1.00  0.00     0.032 C 
ATOM     16  C   UNL     1     139.983 136.597 116.997  1.00  0.00     0.010 C 
ATOM     17  C   UNL     1     137.858 136.281 118.210  1.00  0.00     0.006 C 
ATOM     18  C   UNL     1     139.363 137.964 117.136  1.00  0.00     0.041 C 
ATOM     19  C   UNL     1     138.285 137.838 118.241  1.00  0.00     0.092 C 
ATOM     20  C   UNL     1     136.342 135.983 117.831  1.00  0.00     0.011 C 
ATOM     21  C   UNL     1     138.106 135.672 119.622  1.00  0.00     0.015 C 
ATOM     22  C   UNL     1     137.123 138.812 118.024  1.00  0.00    -0.031 C 
ATOM     23  C   UNL     1     135.466 137.179 117.443  1.00  0.00     0.009 C 
ATOM     24  C   UNL     1     135.742 138.340 118.399  1.00  0.00     0.025 C 
ATOM     25  C   UNL     1     137.312 140.008 117.428  1.00  0.00     0.050 C 
ATOM     26  C   UNL     1     134.666 139.494 118.454  1.00  0.00    -0.013 C 
ATOM     27  C   UNL     1     136.191 140.836 116.967  1.00  0.00     0.159 C 
ATOM     28  C   UNL     1     134.765 140.371 117.169  1.00  0.00     0.070 C 
ATOM     29  C   UNL     1     134.927 140.365 119.743  1.00  0.00     0.042 C 
ATOM     30  C   UNL     1     133.241 138.882 118.566  1.00  0.00     0.013 C 
ATOM     31  O   UNL     1     136.439 141.895 116.330  1.00  0.00    -0.295 OA
ATOM     32  C   UNL     1     133.756 141.553 117.195  1.00  0.00     0.047 C 
ATOM     33  C   UNL     1     134.760 141.895 119.552  1.00  0.00     0.143 C 
ATOM     34  C   UNL     1     133.620 142.252 118.573  1.00  0.00     0.143 C 
BRANCH  19  35
ATOM     35  O   UNL     1     138.889 138.170 119.476  1.00  0.00    -0.385 OA
ATOM     36  H   UNL     1     139.498 137.430 119.742  1.00  0.00     0.211 HD
ENDBRANCH  19  35
BRANCH  33  37
ATOM     37  O   UNL     1     134.570 142.527 120.793  1.00  0.00    -0.390 OA
ATOM     38  H   UNL     1     134.454 141.816 121.478  1.00  0.00     0.211 HD
ENDBRANCH  33  37
BRANCH  34  39
ATOM     39  O   UNL     1     133.528 143.645 118.411  1.00  0.00    -0.390 OA
ATOM     40  H   UNL     1     133.545 144.054 119.317  1.00  0.00     0.211 HD
ENDBRANCH  34  39
ENDBRANCH   1  15
BRANCH   1  41
ATOM     41  O   UNL     1     139.983 133.863 115.909  1.00  0.00    -0.387 OA
ATOM     42  H   UNL     1     140.916 134.109 116.118  1.00  0.00     0.211 HD
ENDBRANCH   1  41
TORSDOF 9
ENDMDL
MODEL 3
REMARK VINA RESULT:    -4.470      8.749     11.002
REMARK INTER + INTRA:          -6.743
REMARK INTER:                  -5.980
REMARK INTRA:                  -0.764
REMARK UNBOUND:                -0.575
REMARK SMILES C[C@@H]1OC(=O)[C@@H](C)[C@@H]1C[C@H](O)[C@@](C)(O)[C@@H]1CC[C@@]2(O)C3=CC(=O)[C@@H]4C[C@H](O)[C@@H](O)C[C@]4(C)[C@H]3CC[C@@]12C
REMARK SMILES IDX 12 1 13 2 10 3 9 4 8 5 7 6 6 7 4 8 2 9 3 10 5 11 1 12 11 13
REMARK SMILES IDX 15 15 16 16 36 17 17 18 18 19 35 20 37 21 20 22 34 23 33 24
REMARK SMILES IDX 21 25 31 26 22 27 24 28 30 29 32 30 23 31 25 32 28 33 26 34
REMARK SMILES IDX 19 35 29 37 27 39 14 41
REMARK H PARENT 11 14 19 36 29 38 27 40 14 42
REMARK Flexibility Score: inf
ROOT
ATOM      1  C   UNL     1     143.198 137.417 122.079  1.00  0.00     0.091 C 
ATOM      2  C   UNL     1     142.210 136.322 122.569  1.00  0.00     0.045 C 
ENDROOT
BRANCH   1   3
ATOM      3  C   UNL     1     143.000 137.770 120.531  1.00  0.00     0.146 C 
BRANCH   3   4
ATOM      4  C   UNL     1     141.698 137.271 119.833  1.00  0.00     0.043 C 
BRANCH   4   5
ATOM      5  C   UNL     1     140.735 138.413 119.389  1.00  0.00     0.046 C 
ATOM      6  C   UNL     1     140.742 138.777 116.821  1.00  0.00     0.020 C 
ATOM      7  C   UNL     1     140.025 138.155 118.027  1.00  0.00     0.103 C 
ATOM      8  C   UNL     1     138.708 138.800 118.251  1.00  0.00     0.309 C 
ATOM      9  C   UNL     1     139.572 138.722 120.387  1.00  0.00     0.177 C 
ATOM     10  O   UNL     1     138.506 139.161 119.564  1.00  0.00    -0.462 OA
ATOM     11  O   UNL     1     137.836 138.968 117.358  1.00  0.00    -0.252 OA
ATOM     12  C   UNL     1     139.075 137.522 121.204  1.00  0.00     0.053 C 
ENDBRANCH   4   5
ENDBRANCH   3   4
BRANCH   3  13
ATOM     13  O   UNL     1     144.091 137.275 119.787  1.00  0.00    -0.390 OA
ATOM     14  H   UNL     1     144.597 138.058 119.441  1.00  0.00     0.211 HD
ENDBRANCH   3  13
ENDBRANCH   1   3
BRANCH   1  15
ATOM     15  C   UNL     1     143.035 138.670 123.058  1.00  0.00     0.032 C 
ATOM     16  C   UNL     1     141.978 139.678 122.630  1.00  0.00     0.010 C 
ATOM     17  C   UNL     1     144.253 139.538 123.573  1.00  0.00     0.006 C 
ATOM     18  C   UNL     1     142.072 140.757 123.679  1.00  0.00     0.041 C 
ATOM     19  C   UNL     1     143.583 140.957 123.955  1.00  0.00     0.092 C 
ATOM     20  C   UNL     1     144.968 138.762 124.764  1.00  0.00     0.011 C 
ATOM     21  C   UNL     1     145.330 139.781 122.473  1.00  0.00     0.015 C 
ATOM     22  C   UNL     1     143.848 141.409 125.395  1.00  0.00    -0.031 C 
ATOM     23  C   UNL     1     144.870 139.380 126.164  1.00  0.00     0.009 C 
ATOM     24  C   UNL     1     145.093 140.890 126.067  1.00  0.00     0.025 C 
ATOM     25  C   UNL     1     142.955 142.160 126.070  1.00  0.00     0.050 C 
ATOM     26  C   UNL     1     145.459 141.646 127.404  1.00  0.00    -0.013 C 
ATOM     27  C   UNL     1     143.054 142.377 127.519  1.00  0.00     0.159 C 
ATOM     28  C   UNL     1     144.194 141.769 128.305  1.00  0.00     0.070 C 
ATOM     29  C   UNL     1     146.022 143.073 127.037  1.00  0.00     0.042 C 
ATOM     30  C   UNL     1     146.574 140.869 128.161  1.00  0.00     0.013 C 
ATOM     31  O   UNL     1     142.132 143.007 128.104  1.00  0.00    -0.295 OA
ATOM     32  C   UNL     1     144.490 142.548 129.617  1.00  0.00     0.047 C 
ATOM     33  C   UNL     1     145.551 144.226 127.961  1.00  0.00     0.143 C 
ATOM     34  C   UNL     1     145.407 143.787 129.435  1.00  0.00     0.143 C 
BRANCH  19  35
ATOM     35  O   UNL     1     144.050 141.982 123.099  1.00  0.00    -0.385 OA
ATOM     36  H   UNL     1     143.701 142.853 123.426  1.00  0.00     0.211 HD
ENDBRANCH  19  35
BRANCH  33  37
ATOM     37  O   UNL     1     146.416 145.329 127.850  1.00  0.00    -0.390 OA
ATOM     38  H   UNL     1     146.501 145.736 128.753  1.00  0.00     0.211 HD
ENDBRANCH  33  37
BRANCH  34  39
ATOM     39  O   UNL     1     144.951 144.857 130.225  1.00  0.00    -0.390 OA
ATOM     40  H   UNL     1     144.292 145.368 129.685  1.00  0.00     0.211 HD
ENDBRANCH  34  39
ENDBRANCH   1  15
BRANCH   1  41
ATOM     41  O   UNL     1     144.466 136.829 122.282  1.00  0.00    -0.387 OA
ATOM     42  H   UNL     1     144.395 136.110 122.955  1.00  0.00     0.211 HD
ENDBRANCH   1  41
TORSDOF 9
ENDMDL
MODEL 4
REMARK VINA RESULT:    -4.460      3.394     10.392
REMARK INTER + INTRA:          -6.730
REMARK INTER:                  -5.819
REMARK INTRA:                  -0.911
REMARK UNBOUND:                -0.575
REMARK SMILES C[C@@H]1OC(=O)[C@@H](C)[C@@H]1C[C@H](O)[C@@](C)(O)[C@@H]1CC[C@@]2(O)C3=CC(=O)[C@@H]4C[C@H](O)[C@@H](O)C[C@]4(C)[C@H]3CC[C@@]12C
REMARK SMILES IDX 12 1 13 2 10 3 9 4 8 5 7 6 6 7 4 8 2 9 3 10 5 11 1 12 11 13
REMARK SMILES IDX 15 15 16 16 36 17 17 18 18 19 35 20 37 21 20 22 34 23 33 24
REMARK SMILES IDX 21 25 31 26 22 27 24 28 30 29 32 30 23 31 25 32 28 33 26 34
REMARK SMILES IDX 19 35 29 37 27 39 14 41
REMARK H PARENT 11 14 19 36 29 38 27 40 14 42
REMARK Flexibility Score: inf
ROOT
ATOM      1  C   UNL     1     135.021 144.040 117.721  1.00  0.00     0.091 C 
ATOM      2  C   UNL     1     134.663 144.641 119.109  1.00  0.00     0.045 C 
ENDROOT
BRANCH   1   3
ATOM      3  C   UNL     1     136.290 144.753 117.056  1.00  0.00     0.146 C 
BRANCH   3   4
ATOM      4  C   UNL     1     137.108 145.747 117.936  1.00  0.00     0.043 C 
BRANCH   4   5
ATOM      5  C   UNL     1     138.614 145.375 118.086  1.00  0.00     0.046 C 
ATOM      6  C   UNL     1     139.943 145.701 115.883  1.00  0.00     0.020 C 
ATOM      7  C   UNL     1     139.578 146.275 117.259  1.00  0.00     0.103 C 
ATOM      8  C   UNL     1     140.769 146.328 118.143  1.00  0.00     0.309 C 
ATOM      9  C   UNL     1     139.169 145.441 119.546  1.00  0.00     0.177 C 
ATOM     10  O   UNL     1     140.530 145.801 119.392  1.00  0.00    -0.462 OA
ATOM     11  O   UNL     1     141.875 146.835 117.820  1.00  0.00    -0.252 OA
ATOM     12  C   UNL     1     138.503 146.487 120.452  1.00  0.00     0.053 C 
ENDBRANCH   4   5
ENDBRANCH   3   4
BRANCH   3  13
ATOM     13  O   UNL     1     135.892 145.448 115.897  1.00  0.00    -0.390 OA
ATOM     14  H   UNL     1     134.908 145.582 115.950  1.00  0.00     0.211 HD
ENDBRANCH   3  13
ENDBRANCH   1   3
BRANCH   1  15
ATOM     15  C   UNL     1     135.190 142.463 117.920  1.00  0.00     0.032 C 
ATOM     16  C   UNL     1     133.977 141.764 118.520  1.00  0.00     0.010 C 
ATOM     17  C   UNL     1     136.441 141.803 118.626  1.00  0.00     0.006 C 
ATOM     18  C   UNL     1     134.421 140.329 118.644  1.00  0.00     0.041 C 
ATOM     19  C   UNL     1     135.889 140.374 119.138  1.00  0.00     0.092 C 
ATOM     20  C   UNL     1     137.646 141.752 117.589  1.00  0.00     0.011 C 
ATOM     21  C   UNL     1     136.934 142.613 119.862  1.00  0.00     0.015 C 
ATOM     22  C   UNL     1     136.698 139.173 118.641  1.00  0.00    -0.031 C 
ATOM     23  C   UNL     1     138.099 140.369 117.105  1.00  0.00     0.009 C 
ATOM     24  C   UNL     1     138.146 139.408 118.294  1.00  0.00     0.025 C 
ATOM     25  C   UNL     1     136.117 137.975 118.426  1.00  0.00     0.050 C 
ATOM     26  C   UNL     1     138.981 138.081 118.108  1.00  0.00    -0.013 C 
ATOM     27  C   UNL     1     136.799 136.895 117.703  1.00  0.00     0.159 C 
ATOM     28  C   UNL     1     138.206 137.093 117.184  1.00  0.00     0.070 C 
ATOM     29  C   UNL     1     139.228 137.438 119.527  1.00  0.00     0.042 C 
ATOM     30  C   UNL     1     140.366 138.412 117.482  1.00  0.00     0.013 C 
ATOM     31  O   UNL     1     136.163 135.836 117.450  1.00  0.00    -0.295 OA
ATOM     32  C   UNL     1     138.966 135.749 117.007  1.00  0.00     0.047 C 
ATOM     33  C   UNL     1     139.103 135.894 119.584  1.00  0.00     0.143 C 
ATOM     34  C   UNL     1     139.625 135.207 118.303  1.00  0.00     0.143 C 
BRANCH  19  35
ATOM     35  O   UNL     1     135.873 140.317 120.551  1.00  0.00    -0.385 OA
ATOM     36  H   UNL     1     135.948 139.366 120.832  1.00  0.00     0.211 HD
ENDBRANCH  19  35
BRANCH  33  37
ATOM     37  O   UNL     1     139.755 135.389 120.723  1.00  0.00    -0.390 OA
ATOM     38  H   UNL     1     140.569 135.940 120.871  1.00  0.00     0.211 HD
ENDBRANCH  33  37
BRANCH  34  39
ATOM     39  O   UNL     1     139.463 133.813 118.391  1.00  0.00    -0.390 OA
ATOM     40  H   UNL     1     138.991 133.513 117.570  1.00  0.00     0.211 HD
ENDBRANCH  34  39
ENDBRANCH   1  15
BRANCH   1  41
ATOM     41  O   UNL     1     133.866 144.291 116.948  1.00  0.00    -0.387 OA
ATOM     42  H   UNL     1     133.133 144.595 117.534  1.00  0.00     0.211 HD
ENDBRANCH   1  41
TORSDOF 9
ENDMDL
MODEL 5
REMARK VINA RESULT:    -4.442      3.596     10.784
REMARK INTER + INTRA:          -6.705
REMARK INTER:                  -5.897
REMARK INTRA:                  -0.808
REMARK UNBOUND:                -0.575
REMARK SMILES C[C@@H]1OC(=O)[C@@H](C)[C@@H]1C[C@H](O)[C@@](C)(O)[C@@H]1CC[C@@]2(O)C3=CC(=O)[C@@H]4C[C@H](O)[C@@H](O)C[C@]4(C)[C@H]3CC[C@@]12C
REMARK SMILES IDX 12 1 13 2 10 3 9 4 8 5 7 6 6 7 4 8 2 9 3 10 5 11 1 12 11 13
REMARK SMILES IDX 15 15 16 16 36 17 17 18 18 19 35 20 37 21 20 22 34 23 33 24
REMARK SMILES IDX 21 25 31 26 22 27 24 28 30 29 32 30 23 31 25 32 28 33 26 34
REMARK SMILES IDX 19 35 29 37 27 39 14 41
REMARK H PARENT 11 14 19 36 29 38 27 40 14 42
REMARK Flexibility Score: inf
ROOT
ATOM      1  C   UNL     1     136.536 145.778 118.013  1.00  0.00     0.091 C 
ATOM      2  C   UNL     1     135.751 145.573 119.338  1.00  0.00     0.045 C 
ENDROOT
BRANCH   1   3
ATOM      3  C   UNL     1     137.620 146.952 118.121  1.00  0.00     0.146 C 
BRANCH   3   4
ATOM      4  C   UNL     1     139.124 146.548 118.183  1.00  0.00     0.043 C 
BRANCH   4   5
ATOM      5  C   UNL     1     139.764 146.686 119.597  1.00  0.00     0.046 C 
ATOM      6  C   UNL     1     138.725 145.052 121.322  1.00  0.00     0.020 C 
ATOM      7  C   UNL     1     139.895 145.342 120.372  1.00  0.00     0.103 C 
ATOM      8  C   UNL     1     141.152 145.556 121.130  1.00  0.00     0.309 C 
ATOM      9  C   UNL     1     141.205 147.292 119.615  1.00  0.00     0.177 C 
ATOM     10  O   UNL     1     141.832 146.683 120.729  1.00  0.00    -0.462 OA
ATOM     11  O   UNL     1     141.590 144.778 122.018  1.00  0.00    -0.252 OA
ATOM     12  C   UNL     1     142.055 146.993 118.372  1.00  0.00     0.053 C 
ENDBRANCH   4   5
ENDBRANCH   3   4
BRANCH   3  13
ATOM     13  O   UNL     1     137.351 147.744 119.255  1.00  0.00    -0.390 OA
ATOM     14  H   UNL     1     136.367 147.876 119.302  1.00  0.00     0.211 HD
ENDBRANCH   3  13
ENDBRANCH   1   3
BRANCH   1  15
ATOM     15  C   UNL     1     137.151 144.360 117.605  1.00  0.00     0.032 C 
ATOM     16  C   UNL     1     137.578 144.248 116.148  1.00  0.00     0.010 C 
ATOM     17  C   UNL     1     136.455 142.980 117.942  1.00  0.00     0.006 C 
ATOM     18  C   UNL     1     138.058 142.824 116.029  1.00  0.00     0.041 C 
ATOM     19  C   UNL     1     137.059 141.963 116.842  1.00  0.00     0.092 C 
ATOM     20  C   UNL     1     136.751 142.617 119.463  1.00  0.00     0.011 C 
ATOM     21  C   UNL     1     134.907 143.027 117.775  1.00  0.00     0.015 C 
ATOM     22  C   UNL     1     137.725 140.719 117.437  1.00  0.00    -0.031 C 
ATOM     23  C   UNL     1     137.651 141.405 119.733  1.00  0.00     0.009 C 
ATOM     24  C   UNL     1     137.258 140.263 118.795  1.00  0.00     0.025 C 
ATOM     25  C   UNL     1     138.758 140.111 116.816  1.00  0.00     0.050 C 
ATOM     26  C   UNL     1     137.749 138.815 119.186  1.00  0.00    -0.013 C 
ATOM     27  C   UNL     1     139.581 139.096 117.484  1.00  0.00     0.159 C 
ATOM     28  C   UNL     1     139.276 138.680 118.906  1.00  0.00     0.070 C 
ATOM     29  C   UNL     1     136.934 137.761 118.342  1.00  0.00     0.042 C 
ATOM     30  C   UNL     1     137.464 138.549 120.692  1.00  0.00     0.013 C 
ATOM     31  O   UNL     1     140.591 138.639 116.882  1.00  0.00    -0.295 OA
ATOM     32  C   UNL     1     139.802 137.254 119.231  1.00  0.00     0.047 C 
ATOM     33  C   UNL     1     137.758 136.561 117.808  1.00  0.00     0.143 C 
ATOM     34  C   UNL     1     138.854 136.105 118.797  1.00  0.00     0.143 C 
BRANCH  19  35
ATOM     35  O   UNL     1     136.048 141.519 115.958  1.00  0.00    -0.385 OA
ATOM     36  H   UNL     1     135.315 141.113 116.492  1.00  0.00     0.211 HD
ENDBRANCH  19  35
BRANCH  33  37
ATOM     37  O   UNL     1     136.909 135.491 117.474  1.00  0.00    -0.390 OA
ATOM     38  H   UNL     1     137.370 134.650 117.735  1.00  0.00     0.211 HD
ENDBRANCH  33  37
BRANCH  34  39
ATOM     39  O   UNL     1     139.591 135.037 118.257  1.00  0.00    -0.390 OA
ATOM     40  H   UNL     1     140.294 134.795 118.915  1.00  0.00     0.211 HD
ENDBRANCH  34  39
ENDBRANCH   1  15
BRANCH   1  41
ATOM     41  O   UNL     1     135.531 146.134 117.088  1.00  0.00    -0.387 OA
ATOM     42  H   UNL     1     135.541 145.505 116.327  1.00  0.00     0.211 HD
ENDBRANCH   1  41
TORSDOF 9
ENDMDL
MODEL 6
REMARK VINA RESULT:    -4.406      5.110     10.851
REMARK INTER + INTRA:          -6.656
REMARK INTER:                  -6.104
REMARK INTRA:                  -0.552
REMARK UNBOUND:                -0.575
REMARK SMILES C[C@@H]1OC(=O)[C@@H](C)[C@@H]1C[C@H](O)[C@@](C)(O)[C@@H]1CC[C@@]2(O)C3=CC(=O)[C@@H]4C[C@H](O)[C@@H](O)C[C@]4(C)[C@H]3CC[C@@]12C
REMARK SMILES IDX 12 1 13 2 10 3 9 4 8 5 7 6 6 7 4 8 2 9 3 10 5 11 1 12 11 13
REMARK SMILES IDX 15 15 16 16 36 17 17 18 18 19 35 20 37 21 20 22 34 23 33 24
REMARK SMILES IDX 21 25 31 26 22 27 24 28 30 29 32 30 23 31 25 32 28 33 26 34
REMARK SMILES IDX 19 35 29 37 27 39 14 41
REMARK H PARENT 11 14 19 36 29 38 27 40 14 42
REMARK Flexibility Score: inf
ROOT
ATOM      1  C   UNL     1     137.941 145.741 117.191  1.00  0.00     0.091 C 
ATOM      2  C   UNL     1     136.945 146.551 118.068  1.00  0.00     0.045 C 
ENDROOT
BRANCH   1   3
ATOM      3  C   UNL     1     139.467 146.111 117.500  1.00  0.00     0.146 C 
BRANCH   3   4
ATOM      4  C   UNL     1     139.753 147.450 118.245  1.00  0.00     0.043 C 
BRANCH   4   5
ATOM      5  C   UNL     1     140.237 147.272 119.716  1.00  0.00     0.046 C 
ATOM      6  C   UNL     1     138.968 145.380 120.956  1.00  0.00     0.020 C 
ATOM      7  C   UNL     1     140.243 145.795 120.209  1.00  0.00     0.103 C 
ATOM      8  C   UNL     1     141.415 145.791 121.120  1.00  0.00     0.309 C 
ATOM      9  C   UNL     1     141.683 147.790 120.004  1.00  0.00     0.177 C 
ATOM     10  O   UNL     1     142.166 146.940 121.029  1.00  0.00    -0.462 OA
ATOM     11  O   UNL     1     141.730 144.831 121.871  1.00  0.00    -0.252 OA
ATOM     12  C   UNL     1     142.656 147.703 118.820  1.00  0.00     0.053 C 
ENDBRANCH   4   5
ENDBRANCH   3   4
BRANCH   3  13
ATOM     13  O   UNL     1     140.203 146.133 116.299  1.00  0.00    -0.390 OA
ATOM     14  H   UNL     1     139.686 146.667 115.639  1.00  0.00     0.211 HD
ENDBRANCH   3  13
ENDBRANCH   1   3
BRANCH   1  15
ATOM     15  C   UNL     1     137.592 144.193 117.392  1.00  0.00     0.032 C 
ATOM     16  C   UNL     1     138.251 143.259 116.386  1.00  0.00     0.010 C 
ATOM     17  C   UNL     1     136.118 143.648 117.564  1.00  0.00     0.006 C 
ATOM     18  C   UNL     1     137.719 141.900 116.767  1.00  0.00     0.041 C 
ATOM     19  C   UNL     1     136.220 142.103 117.103  1.00  0.00     0.092 C 
ATOM     20  C   UNL     1     135.652 143.897 119.065  1.00  0.00     0.011 C 
ATOM     21  C   UNL     1     135.093 144.372 116.640  1.00  0.00     0.015 C 
ATOM     22  C   UNL     1     135.727 141.101 118.151  1.00  0.00    -0.031 C 
ATOM     23  C   UNL     1     135.441 142.662 119.949  1.00  0.00     0.009 C 
ATOM     24  C   UNL     1     134.707 141.586 119.149  1.00  0.00     0.025 C 
ATOM     25  C   UNL     1     136.256 139.864 118.243  1.00  0.00     0.050 C 
ATOM     26  C   UNL     1     134.017 140.428 119.971  1.00  0.00    -0.013 C 
ATOM     27  C   UNL     1     135.999 138.988 119.393  1.00  0.00     0.159 C 
ATOM     28  C   UNL     1     135.101 139.451 120.519  1.00  0.00     0.070 C 
ATOM     29  C   UNL     1     133.012 139.667 119.024  1.00  0.00     0.042 C 
ATOM     30  C   UNL     1     133.205 141.031 121.152  1.00  0.00     0.013 C 
ATOM     31  O   UNL     1     136.603 137.884 119.463  1.00  0.00    -0.295 OA
ATOM     32  C   UNL     1     134.471 138.264 121.299  1.00  0.00     0.047 C 
ATOM     33  C   UNL     1     132.989 138.125 119.185  1.00  0.00     0.143 C 
ATOM     34  C   UNL     1     133.189 137.677 120.650  1.00  0.00     0.143 C 
BRANCH  19  35
ATOM     35  O   UNL     1     135.475 141.879 115.922  1.00  0.00    -0.385 OA
ATOM     36  H   UNL     1     134.509 141.973 116.133  1.00  0.00     0.211 HD
ENDBRANCH  19  35
BRANCH  33  37
ATOM     37  O   UNL     1     131.799 137.593 118.658  1.00  0.00    -0.390 OA
ATOM     38  H   UNL     1     131.431 136.959 119.329  1.00  0.00     0.211 HD
ENDBRANCH  33  37
BRANCH  34  39
ATOM     39  O   UNL     1     133.190 136.274 120.740  1.00  0.00    -0.390 OA
ATOM     40  H   UNL     1     132.261 135.963 120.574  1.00  0.00     0.211 HD
ENDBRANCH  34  39
ENDBRANCH   1  15
BRANCH   1  41
ATOM     41  O   UNL     1     137.607 146.127 115.875  1.00  0.00    -0.387 OA
ATOM     42  H   UNL     1     137.702 145.355 115.268  1.00  0.00     0.211 HD
ENDBRANCH   1  41
TORSDOF 9
ENDMDL
MODEL 7
REMARK VINA RESULT:    -4.246      2.201      3.748
REMARK INTER + INTRA:          -6.435
REMARK INTER:                  -5.442
REMARK INTRA:                  -0.993
REMARK UNBOUND:                -0.575
REMARK SMILES C[C@@H]1OC(=O)[C@@H](C)[C@@H]1C[C@H](O)[C@@](C)(O)[C@@H]1CC[C@@]2(O)C3=CC(=O)[C@@H]4C[C@H](O)[C@@H](O)C[C@]4(C)[C@H]3CC[C@@]12C
REMARK SMILES IDX 12 1 13 2 10 3 9 4 8 5 7 6 6 7 4 8 2 9 3 10 5 11 1 12 11 13
REMARK SMILES IDX 15 15 16 16 36 17 17 18 18 19 35 20 37 21 20 22 34 23 33 24
REMARK SMILES IDX 21 25 31 26 22 27 24 28 30 29 32 30 23 31 25 32 28 33 26 34
REMARK SMILES IDX 19 35 29 37 27 39 14 41
REMARK H PARENT 11 14 19 36 29 38 27 40 14 42
REMARK Flexibility Score: inf
ROOT
ATOM      1  C   UNL     1     137.762 133.690 117.200  1.00  0.00     0.091 C 
ATOM      2  C   UNL     1     138.350 133.126 115.876  1.00  0.00     0.045 C 
ENDROOT
BRANCH   1   3
ATOM      3  C   UNL     1     138.315 132.920 118.490  1.00  0.00     0.146 C 
BRANCH   3   4
ATOM      4  C   UNL     1     139.572 132.015 118.312  1.00  0.00     0.043 C 
BRANCH   4   5
ATOM      5  C   UNL     1     140.928 132.767 118.474  1.00  0.00     0.046 C 
ATOM      6  C   UNL     1     140.865 134.528 120.377  1.00  0.00     0.020 C 
ATOM      7  C   UNL     1     141.290 133.117 119.947  1.00  0.00     0.103 C 
ATOM      8  C   UNL     1     142.768 132.992 119.929  1.00  0.00     0.309 C 
ATOM      9  C   UNL     1     142.178 132.001 117.932  1.00  0.00     0.177 C 
ATOM     10  O   UNL     1     143.241 132.423 118.769  1.00  0.00    -0.462 OA
ATOM     11  O   UNL     1     143.523 133.325 120.879  1.00  0.00    -0.252 OA
ATOM     12  C   UNL     1     142.092 130.471 118.012  1.00  0.00     0.053 C 
ENDBRANCH   4   5
ENDBRANCH   3   4
BRANCH   3  13
ATOM     13  O   UNL     1     137.295 132.117 119.039  1.00  0.00    -0.390 OA
ATOM     14  H   UNL     1     136.616 131.967 118.328  1.00  0.00     0.211 HD
ENDBRANCH   3  13
ENDBRANCH   1   3
BRANCH   1  15
ATOM     15  C   UNL     1     138.046 135.263 117.210  1.00  0.00     0.032 C 
ATOM     16  C   UNL     1     139.518 135.643 117.137  1.00  0.00     0.010 C 
ATOM     17  C   UNL     1     137.410 136.256 118.263  1.00  0.00     0.006 C 
ATOM     18  C   UNL     1     139.498 137.149 117.216  1.00  0.00     0.041 C 
ATOM     19  C   UNL     1     138.428 137.511 118.275  1.00  0.00     0.092 C 
ATOM     20  C   UNL     1     135.915 136.578 117.826  1.00  0.00     0.011 C 
ATOM     21  C   UNL     1     137.349 135.656 119.699  1.00  0.00     0.015 C 
ATOM     22  C   UNL     1     137.765 138.860 117.983  1.00  0.00    -0.031 C 
ATOM     23  C   UNL     1     135.608 138.010 117.370  1.00  0.00     0.009 C 
ATOM     24  C   UNL     1     136.300 138.999 118.309  1.00  0.00     0.025 C 
ATOM     25  C   UNL     1     138.438 139.854 117.367  1.00  0.00     0.050 C 
ATOM     26  C   UNL     1     135.780 140.489 118.288  1.00  0.00    -0.013 C 
ATOM     27  C   UNL     1     137.760 141.044 116.837  1.00  0.00     0.159 C 
ATOM     28  C   UNL     1     136.263 141.199 116.988  1.00  0.00     0.070 C 
ATOM     29  C   UNL     1     136.330 141.233 119.565  1.00  0.00     0.042 C 
ATOM     30  C   UNL     1     134.226 140.507 118.352  1.00  0.00     0.013 C 
ATOM     31  O   UNL     1     138.434 141.888 116.186  1.00  0.00    -0.295 OA
ATOM     32  C   UNL     1     135.816 142.687 116.940  1.00  0.00     0.047 C 
ATOM     33  C   UNL     1     136.800 142.691 119.330  1.00  0.00     0.143 C 
ATOM     34  C   UNL     1     135.931 143.437 118.293  1.00  0.00     0.143 C 
BRANCH  19  35
ATOM     35  O   UNL     1     139.076 137.621 119.527  1.00  0.00    -0.385 OA
ATOM     36  H   UNL     1     138.771 138.456 119.971  1.00  0.00     0.211 HD
ENDBRANCH  19  35
BRANCH  33  37
ATOM     37  O   UNL     1     136.843 143.396 120.546  1.00  0.00    -0.390 OA
ATOM     38  H   UNL     1     137.019 142.737 121.269  1.00  0.00     0.211 HD
ENDBRANCH  33  37
BRANCH  34  39
ATOM     39  O   UNL     1     136.414 144.742 118.094  1.00  0.00    -0.390 OA
ATOM     40  H   UNL     1     136.987 144.972 118.872  1.00  0.00     0.211 HD
ENDBRANCH  34  39
ENDBRANCH   1  15
BRANCH   1  41
ATOM     41  O   UNL     1     136.375 133.467 117.064  1.00  0.00    -0.387 OA
ATOM     42  H   UNL     1     136.169 132.521 117.254  1.00  0.00     0.211 HD
ENDBRANCH   1  41
TORSDOF 9
ENDMDL
MODEL 8
REMARK VINA RESULT:    -4.206      1.987      9.566
REMARK INTER + INTRA:          -6.380
REMARK INTER:                  -5.253
REMARK INTRA:                  -1.127
REMARK UNBOUND:                -0.575
REMARK SMILES C[C@@H]1OC(=O)[C@@H](C)[C@@H]1C[C@H](O)[C@@](C)(O)[C@@H]1CC[C@@]2(O)C3=CC(=O)[C@@H]4C[C@H](O)[C@@H](O)C[C@]4(C)[C@H]3CC[C@@]12C
REMARK SMILES IDX 12 1 13 2 10 3 9 4 8 5 7 6 6 7 4 8 2 9 3 10 5 11 1 12 11 13
REMARK SMILES IDX 15 15 16 16 36 17 17 18 18 19 35 20 37 21 20 22 34 23 33 24
REMARK SMILES IDX 21 25 31 26 22 27 24 28 30 29 32 30 23 31 25 32 28 33 26 34
REMARK SMILES IDX 19 35 29 37 27 39 14 41
REMARK H PARENT 11 14 19 36 29 38 27 40 14 42
REMARK Flexibility Score: inf
ROOT
ATOM      1  C   UNL     1     139.416 138.153 119.009  1.00  0.00     0.091 C 
ATOM      2  C   UNL     1     140.702 138.365 118.162  1.00  0.00     0.045 C 
ENDROOT
BRANCH   1   3
ATOM      3  C   UNL     1     138.385 139.369 118.866  1.00  0.00     0.146 C 
BRANCH   3   4
ATOM      4  C   UNL     1     138.518 140.292 117.616  1.00  0.00     0.043 C 
BRANCH   4   5
ATOM      5  C   UNL     1     137.156 140.719 116.990  1.00  0.00     0.046 C 
ATOM      6  C   UNL     1     135.502 138.734 116.763  1.00  0.00     0.020 C 
ATOM      7  C   UNL     1     135.923 139.967 117.573  1.00  0.00     0.103 C 
ATOM      8  C   UNL     1     134.879 141.019 117.518  1.00  0.00     0.309 C 
ATOM      9  C   UNL     1     136.803 142.233 117.144  1.00  0.00     0.177 C 
ATOM     10  O   UNL     1     135.388 142.262 117.217  1.00  0.00    -0.462 OA
ATOM     11  O   UNL     1     133.659 140.826 117.759  1.00  0.00    -0.252 OA
ATOM     12  C   UNL     1     137.355 142.908 118.408  1.00  0.00     0.053 C 
ENDBRANCH   4   5
ENDBRANCH   3   4
BRANCH   3  13
ATOM     13  O   UNL     1     138.461 140.194 120.007  1.00  0.00    -0.390 OA
ATOM     14  H   UNL     1     139.375 140.585 120.034  1.00  0.00     0.211 HD
ENDBRANCH   3  13
ENDBRANCH   1   3
BRANCH   1  15
ATOM     15  C   UNL     1     138.809 136.733 118.596  1.00  0.00     0.032 C 
ATOM     16  C   UNL     1     138.478 136.589 117.117  1.00  0.00     0.010 C 
ATOM     17  C   UNL     1     137.609 136.043 119.361  1.00  0.00     0.006 C 
ATOM     18  C   UNL     1     137.886 135.205 117.021  1.00  0.00     0.041 C 
ATOM     19  C   UNL     1     136.978 135.039 118.265  1.00  0.00     0.092 C 
ATOM     20  C   UNL     1     138.169 135.365 120.686  1.00  0.00     0.011 C 
ATOM     21  C   UNL     1     136.507 137.056 119.795  1.00  0.00     0.015 C 
ATOM     22  C   UNL     1     136.897 133.580 118.724  1.00  0.00    -0.031 C 
ATOM     23  C   UNL     1     138.146 133.833 120.756  1.00  0.00     0.009 C 
ATOM     24  C   UNL     1     136.813 133.322 120.207  1.00  0.00     0.025 C 
ATOM     25  C   UNL     1     136.996 132.561 117.846  1.00  0.00     0.050 C 
ATOM     26  C   UNL     1     136.408 131.842 120.576  1.00  0.00    -0.013 C 
ATOM     27  C   UNL     1     137.192 131.172 118.280  1.00  0.00     0.159 C 
ATOM     28  C   UNL     1     137.270 130.837 119.754  1.00  0.00     0.070 C 
ATOM     29  C   UNL     1     134.875 131.646 120.262  1.00  0.00     0.042 C 
ATOM     30  C   UNL     1     136.623 131.599 122.097  1.00  0.00     0.013 C 
ATOM     31  O   UNL     1     137.377 130.282 117.407  1.00  0.00    -0.295 OA
ATOM     32  C   UNL     1     136.877 129.362 120.046  1.00  0.00     0.047 C 
ATOM     33  C   UNL     1     134.499 130.284 119.624  1.00  0.00     0.143 C 
ATOM     34  C   UNL     1     135.350 129.116 120.171  1.00  0.00     0.143 C 
BRANCH  19  35
ATOM     35  O   UNL     1     135.671 135.441 117.906  1.00  0.00    -0.385 OA
ATOM     36  H   UNL     1     135.724 136.001 117.086  1.00  0.00     0.211 HD
ENDBRANCH  19  35
BRANCH  33  37
ATOM     37  O   UNL     1     133.127 130.024 119.792  1.00  0.00    -0.390 OA
ATOM     38  H   UNL     1     132.686 130.882 120.031  1.00  0.00     0.211 HD
ENDBRANCH  33  37
BRANCH  34  39
ATOM     39  O   UNL     1     134.993 127.910 119.542  1.00  0.00    -0.390 OA
ATOM     40  H   UNL     1     135.682 127.234 119.777  1.00  0.00     0.211 HD
ENDBRANCH  34  39
ENDBRANCH   1  15
BRANCH   1  41
ATOM     41  O   UNL     1     139.903 138.086 120.332  1.00  0.00    -0.387 OA
ATOM     42  H   UNL     1     140.766 138.561 120.394  1.00  0.00     0.211 HD
ENDBRANCH   1  41
TORSDOF 9
ENDMDL
MODEL 9
REMARK VINA RESULT:    -4.187      5.458      8.347
REMARK INTER + INTRA:          -6.354
REMARK INTER:                  -5.532
REMARK INTRA:                  -0.822
REMARK UNBOUND:                -0.575
REMARK SMILES C[C@@H]1OC(=O)[C@@H](C)[C@@H]1C[C@H](O)[C@@](C)(O)[C@@H]1CC[C@@]2(O)C3=CC(=O)[C@@H]4C[C@H](O)[C@@H](O)C[C@]4(C)[C@H]3CC[C@@]12C
REMARK SMILES IDX 12 1 13 2 10 3 9 4 8 5 7 6 6 7 4 8 2 9 3 10 5 11 1 12 11 13
REMARK SMILES IDX 15 15 16 16 36 17 17 18 18 19 35 20 37 21 20 22 34 23 33 24
REMARK SMILES IDX 21 25 31 26 22 27 24 28 30 29 32 30 23 31 25 32 28 33 26 34
REMARK SMILES IDX 19 35 29 37 27 39 14 41
REMARK H PARENT 11 14 19 36 29 38 27 40 14 42
REMARK Flexibility Score: inf
ROOT
ATOM      1  C   UNL     1     131.624 133.925 122.799  1.00  0.00     0.091 C 
ATOM      2  C   UNL     1     131.954 133.611 124.285  1.00  0.00     0.045 C 
ENDROOT
BRANCH   1   3
ATOM      3  C   UNL     1     130.632 135.172 122.644  1.00  0.00     0.146 C 
BRANCH   3   4
ATOM      4  C   UNL     1     129.739 135.545 123.867  1.00  0.00     0.043 C 
BRANCH   4   5
ATOM      5  C   UNL     1     129.381 137.060 123.956  1.00  0.00     0.046 C 
ATOM      6  C   UNL     1     131.407 138.592 123.431  1.00  0.00     0.020 C 
ATOM      7  C   UNL     1     130.114 137.950 122.910  1.00  0.00     0.103 C 
ATOM      8  C   UNL     1     129.087 138.983 122.627  1.00  0.00     0.309 C 
ATOM      9  C   UNL     1     127.866 137.394 123.766  1.00  0.00     0.177 C 
ATOM     10  O   UNL     1     127.858 138.678 123.167  1.00  0.00    -0.462 OA
ATOM     11  O   UNL     1     129.285 140.015 121.933  1.00  0.00    -0.252 OA
ATOM     12  C   UNL     1     127.097 136.437 122.844  1.00  0.00     0.053 C 
ENDBRANCH   4   5
ENDBRANCH   3   4
BRANCH   3  13
ATOM     13  O   UNL     1     129.774 134.964 121.546  1.00  0.00    -0.390 OA
ATOM     14  H   UNL     1     129.152 134.226 121.786  1.00  0.00     0.211 HD
ENDBRANCH   3  13
ENDBRANCH   1   3
BRANCH   1  15
ATOM     15  C   UNL     1     133.017 134.102 122.035  1.00  0.00     0.032 C 
ATOM     16  C   UNL     1     133.996 132.951 122.223  1.00  0.00     0.010 C 
ATOM     17  C   UNL     1     133.896 135.414 122.119  1.00  0.00     0.006 C 
ATOM     18  C   UNL     1     135.215 133.396 121.456  1.00  0.00     0.041 C 
ATOM     19  C   UNL     1     135.386 134.906 121.756  1.00  0.00     0.092 C 
ATOM     20  C   UNL     1     133.278 136.508 121.143  1.00  0.00     0.011 C 
ATOM     21  C   UNL     1     133.920 136.035 123.547  1.00  0.00     0.015 C 
ATOM     22  C   UNL     1     136.037 135.653 120.589  1.00  0.00    -0.031 C 
ATOM     23  C   UNL     1     134.104 136.900 119.912  1.00  0.00     0.009 C 
ATOM     24  C   UNL     1     135.570 137.060 120.317  1.00  0.00     0.025 C 
ATOM     25  C   UNL     1     136.922 135.044 119.772  1.00  0.00     0.050 C 
ATOM     26  C   UNL     1     136.502 137.862 119.328  1.00  0.00    -0.013 C 
ATOM     27  C   UNL     1     137.351 135.642 118.502  1.00  0.00     0.159 C 
ATOM     28  C   UNL     1     136.817 136.991 118.075  1.00  0.00     0.070 C 
ATOM     29  C   UNL     1     137.830 138.246 120.087  1.00  0.00     0.042 C 
ATOM     30  C   UNL     1     135.799 139.179 118.891  1.00  0.00     0.013 C 
ATOM     31  O   UNL     1     138.104 134.976 117.740  1.00  0.00    -0.295 OA
ATOM     32  C   UNL     1     137.772 137.719 117.088  1.00  0.00     0.047 C 
ATOM     33  C   UNL     1     139.130 138.117 119.252  1.00  0.00     0.143 C 
ATOM     34  C   UNL     1     138.926 138.502 117.770  1.00  0.00     0.143 C 
BRANCH  19  35
ATOM     35  O   UNL     1     136.247 135.033 122.871  1.00  0.00    -0.385 OA
ATOM     36  H   UNL     1     135.830 134.574 123.648  1.00  0.00     0.211 HD
ENDBRANCH  19  35
BRANCH  33  37
ATOM     37  O   UNL     1     140.163 138.877 119.828  1.00  0.00    -0.390 OA
ATOM     38  H   UNL     1     139.771 139.390 120.585  1.00  0.00     0.211 HD
ENDBRANCH  33  37
BRANCH  34  39
ATOM     39  O   UNL     1     140.123 138.340 117.050  1.00  0.00    -0.390 OA
ATOM     40  H   UNL     1     140.854 138.743 117.589  1.00  0.00     0.211 HD
ENDBRANCH  34  39
ENDBRANCH   1  15
BRANCH   1  41
ATOM     41  O   UNL     1     130.991 132.746 122.348  1.00  0.00    -0.387 OA
ATOM     42  H   UNL     1     130.249 132.979 121.741  1.00  0.00     0.211 HD
ENDBRANCH   1  41
TORSDOF 9
ENDMDL
