MODEL 1
REMARK VINA RESULT:    -2.992      0.000      0.000
REMARK INTER + INTRA:          -5.621
REMARK INTER:                  -4.567
REMARK INTRA:                  -1.054
REMARK UNBOUND:                -1.054
REMARK SMILES CCCCCCCCCCC(=O)[O-]
REMARK SMILES IDX 7 1 8 2 9 3 10 4 11 5 12 6 13 7 6 8 5 9 4 10 3 11 2 12 1 13
REMARK H PARENT
REMARK Flexibility Score: inf
ROOT
ATOM      1  C   UNL     1       6.827  -6.379   4.744  1.00  0.00     0.000 C 
ENDROOT
BRANCH   1   2
ATOM      2  C   UNL     1       5.903  -6.630   3.541  1.00  0.00     0.000 C 
BRANCH   2   3
ATOM      3  C   UNL     1       5.039  -5.407   3.163  1.00  0.00     0.006 C 
BRANCH   3   4
ATOM      4  C   UNL     1       3.679  -5.419   3.871  1.00  0.00     0.053 C 
BRANCH   4   5
ATOM      5  C   UNL     1       3.462  -4.138   4.612  1.00  0.00     0.041 C 
ATOM      6  O   UNL     1       2.704  -3.252   4.136  1.00  0.00    -0.550 OA
ATOM      7  O   UNL     1       4.057  -3.941   5.851  1.00  0.00    -0.550 OA
ENDBRANCH   4   5
ENDBRANCH   3   4
ENDBRANCH   2   3
ENDBRANCH   1   2
BRANCH   1   8
ATOM      8  C   UNL     1       6.178  -6.764   6.084  1.00  0.00     0.000 C 
BRANCH   8   9
ATOM      9  C   UNL     1       6.019  -8.292   6.236  1.00  0.00    -0.000 C 
BRANCH   9  10
ATOM     10  C   UNL     1       4.873  -8.700   7.177  1.00  0.00    -0.000 C 
BRANCH  10  11
ATOM     11  C   UNL     1       3.623  -9.179   6.426  1.00  0.00    -0.000 C 
BRANCH  11  12
ATOM     12  C   UNL     1       3.939  -9.451   4.951  1.00  0.00    -0.003 C 
ATOM     13  C   UNL     1       2.794  -8.997   4.051  1.00  0.00     0.004 C 
ENDBRANCH  11  12
ENDBRANCH  10  11
ENDBRANCH   9  10
ENDBRANCH   8   9
ENDBRANCH   1   8
TORSDOF 9
ENDMDL
MODEL 2
REMARK VINA RESULT:    -2.922      1.007      2.964
REMARK INTER + INTRA:          -5.513
REMARK INTER:                  -4.541
REMARK INTRA:                  -0.972
REMARK UNBOUND:                -1.054
REMARK SMILES CCCCCCCCCCC(=O)[O-]
REMARK SMILES IDX 7 1 8 2 9 3 10 4 11 5 12 6 13 7 6 8 5 9 4 10 3 11 2 12 1 13
REMARK H PARENT
REMARK Flexibility Score: inf
ROOT
ATOM      1  C   UNL     1       3.435  -8.411   3.469  1.00  0.00     0.000 C 
ENDROOT
BRANCH   1   2
ATOM      2  C   UNL     1       2.255  -7.611   4.044  1.00  0.00     0.000 C 
BRANCH   2   3
ATOM      3  C   UNL     1       2.209  -6.146   3.555  1.00  0.00     0.006 C 
BRANCH   3   4
ATOM      4  C   UNL     1       3.538  -5.417   3.789  1.00  0.00     0.053 C 
BRANCH   4   5
ATOM      5  C   UNL     1       3.296  -4.058   4.364  1.00  0.00     0.041 C 
ATOM      6  O   UNL     1       3.813  -3.736   5.466  1.00  0.00    -0.550 OA
ATOM      7  O   UNL     1       2.540  -3.129   3.661  1.00  0.00    -0.550 OA
ENDBRANCH   4   5
ENDBRANCH   3   4
ENDBRANCH   2   3
ENDBRANCH   1   2
BRANCH   1   8
ATOM      8  C   UNL     1       3.899  -9.541   4.403  1.00  0.00     0.000 C 
BRANCH   8   9
ATOM      9  C   UNL     1       3.542  -9.262   5.879  1.00  0.00    -0.000 C 
BRANCH   9  10
ATOM     10  C   UNL     1       4.737  -8.787   6.722  1.00  0.00    -0.000 C 
BRANCH  10  11
ATOM     11  C   UNL     1       6.054  -8.763   5.934  1.00  0.00    -0.000 C 
BRANCH  11  12
ATOM     12  C   UNL     1       6.494  -7.324   5.642  1.00  0.00    -0.003 C 
ATOM     13  C   UNL     1       5.708  -6.326   6.488  1.00  0.00     0.004 C 
ENDBRANCH  11  12
ENDBRANCH  10  11
ENDBRANCH   9  10
ENDBRANCH   8   9
ENDBRANCH   1   8
TORSDOF 9
ENDMDL
MODEL 3
REMARK VINA RESULT:    -2.767      4.216      6.596
REMARK INTER + INTRA:          -5.277
REMARK INTER:                  -4.951
REMARK INTRA:                  -0.327
REMARK UNBOUND:                -1.054
REMARK SMILES CCCCCCCCCCC(=O)[O-]
REMARK SMILES IDX 7 1 8 2 9 3 10 4 11 5 12 6 13 7 6 8 5 9 4 10 3 11 2 12 1 13
REMARK H PARENT
REMARK Flexibility Score: inf
ROOT
ATOM      1  C   UNL     1       7.374  -5.357   3.237  1.00  0.00     0.000 C 
ENDROOT
BRANCH   1   2
ATOM      2  C   UNL     1       7.093  -6.398   4.333  1.00  0.00     0.000 C 
BRANCH   2   3
ATOM      3  C   UNL     1       5.654  -6.329   4.891  1.00  0.00     0.006 C 
BRANCH   3   4
ATOM      4  C   UNL     1       5.582  -6.767   6.359  1.00  0.00     0.053 C 
BRANCH   4   5
ATOM      5  C   UNL     1       5.137  -8.191   6.460  1.00  0.00     0.041 C 
ATOM      6  O   UNL     1       4.811  -8.675   7.576  1.00  0.00    -0.550 OA
ATOM      7  O   UNL     1       5.034  -8.971   5.315  1.00  0.00    -0.550 OA
ENDBRANCH   4   5
ENDBRANCH   3   4
ENDBRANCH   2   3
ENDBRANCH   1   2
BRANCH   1   8
ATOM      8  C   UNL     1       8.804  -4.794   3.303  1.00  0.00     0.000 C 
BRANCH   8   9
ATOM      9  C   UNL     1       9.722  -5.639   4.213  1.00  0.00    -0.000 C 
BRANCH   9  10
ATOM     10  C   UNL     1      11.105  -5.920   3.602  1.00  0.00    -0.000 C 
BRANCH  10  11
ATOM     11  C   UNL     1      12.203  -6.096   4.660  1.00  0.00    -0.000 C 
BRANCH  11  12
ATOM     12  C   UNL     1      13.457  -5.296   4.289  1.00  0.00    -0.003 C 
ATOM     13  C   UNL     1      14.488  -5.339   5.413  1.00  0.00     0.004 C 
ENDBRANCH  11  12
ENDBRANCH  10  11
ENDBRANCH   9  10
ENDBRANCH   8   9
ENDBRANCH   1   8
TORSDOF 9
ENDMDL
MODEL 4
REMARK VINA RESULT:    -2.713      3.171      5.584
REMARK INTER + INTRA:          -5.195
REMARK INTER:                  -4.429
REMARK INTRA:                  -0.765
REMARK UNBOUND:                -1.054
REMARK SMILES CCCCCCCCCCC(=O)[O-]
REMARK SMILES IDX 7 1 8 2 9 3 10 4 11 5 12 6 13 7 6 8 5 9 4 10 3 11 2 12 1 13
REMARK H PARENT
REMARK Flexibility Score: inf
ROOT
ATOM      1  C   UNL     1       5.645  -5.456   3.985  1.00  0.00     0.000 C 
ENDROOT
BRANCH   1   2
ATOM      2  C   UNL     1       4.894  -5.975   5.222  1.00  0.00     0.000 C 
BRANCH   2   3
ATOM      3  C   UNL     1       5.818  -6.626   6.274  1.00  0.00     0.006 C 
BRANCH   3   4
ATOM      4  C   UNL     1       5.206  -7.898   6.873  1.00  0.00     0.053 C 
BRANCH   4   5
ATOM      5  C   UNL     1       5.014  -8.936   5.813  1.00  0.00     0.041 C 
ATOM      6  O   UNL     1       3.856  -9.333   5.518  1.00  0.00    -0.550 OA
ATOM      7  O   UNL     1       6.109  -9.430   5.116  1.00  0.00    -0.550 OA
ENDBRANCH   4   5
ENDBRANCH   3   4
ENDBRANCH   2   3
ENDBRANCH   1   2
BRANCH   1   8
ATOM      8  C   UNL     1       6.022  -6.577   3.002  1.00  0.00     0.000 C 
BRANCH   8   9
ATOM      9  C   UNL     1       7.525  -6.927   3.066  1.00  0.00    -0.000 C 
BRANCH   9  10
ATOM     10  C   UNL     1       8.443  -5.693   3.095  1.00  0.00    -0.000 C 
BRANCH  10  11
ATOM     11  C   UNL     1       9.447  -5.721   4.256  1.00  0.00    -0.000 C 
BRANCH  11  12
ATOM     12  C   UNL     1      10.888  -5.658   3.738  1.00  0.00    -0.003 C 
ATOM     13  C   UNL     1      11.861  -6.268   4.743  1.00  0.00     0.004 C 
ENDBRANCH  11  12
ENDBRANCH  10  11
ENDBRANCH   9  10
ENDBRANCH   8   9
ENDBRANCH   1   8
TORSDOF 9
ENDMDL
MODEL 5
REMARK VINA RESULT:    -2.711      7.045      8.700
REMARK INTER + INTRA:          -5.191
REMARK INTER:                  -4.850
REMARK INTRA:                  -0.341
REMARK UNBOUND:                -1.054
REMARK SMILES CCCCCCCCCCC(=O)[O-]
REMARK SMILES IDX 7 1 8 2 9 3 10 4 11 5 12 6 13 7 6 8 5 9 4 10 3 11 2 12 1 13
REMARK H PARENT
REMARK Flexibility Score: inf
ROOT
ATOM      1  C   UNL     1      11.505  -6.123   4.458  1.00  0.00     0.000 C 
ENDROOT
BRANCH   1   2
ATOM      2  C   UNL     1      13.004  -6.442   4.345  1.00  0.00     0.000 C 
BRANCH   2   3
ATOM      3  C   UNL     1      13.915  -5.230   4.642  1.00  0.00     0.006 C 
BRANCH   3   4
ATOM      4  C   UNL     1      15.293  -5.368   3.985  1.00  0.00     0.053 C 
BRANCH   4   5
ATOM      5  C   UNL     1      16.286  -5.917   4.960  1.00  0.00     0.041 C 
ATOM      6  O   UNL     1      17.001  -6.906   4.646  1.00  0.00    -0.550 OA
ATOM      7  O   UNL     1      16.457  -5.309   6.196  1.00  0.00    -0.550 OA
ENDBRANCH   4   5
ENDBRANCH   3   4
ENDBRANCH   2   3
ENDBRANCH   1   2
BRANCH   1   8
ATOM      8  C   UNL     1      10.977  -5.307   3.267  1.00  0.00     0.000 C 
BRANCH   8   9
ATOM      9  C   UNL     1       9.435  -5.223   3.255  1.00  0.00    -0.000 C 
BRANCH   9  10
ATOM     10  C   UNL     1       8.776  -5.845   4.498  1.00  0.00    -0.000 C 
BRANCH  10  11
ATOM     11  C   UNL     1       7.289  -6.166   4.290  1.00  0.00    -0.000 C 
BRANCH  11  12
ATOM     12  C   UNL     1       6.793  -7.172   5.334  1.00  0.00    -0.003 C 
ATOM     13  C   UNL     1       5.720  -6.555   6.226  1.00  0.00     0.004 C 
ENDBRANCH  11  12
ENDBRANCH  10  11
ENDBRANCH   9  10
ENDBRANCH   8   9
ENDBRANCH   1   8
TORSDOF 9
ENDMDL
MODEL 6
REMARK VINA RESULT:    -2.705      4.171      5.472
REMARK INTER + INTRA:          -5.182
REMARK INTER:                  -4.518
REMARK INTRA:                  -0.665
REMARK UNBOUND:                -1.054
REMARK SMILES CCCCCCCCCCC(=O)[O-]
REMARK SMILES IDX 7 1 8 2 9 3 10 4 11 5 12 6 13 7 6 8 5 9 4 10 3 11 2 12 1 13
REMARK H PARENT
REMARK Flexibility Score: inf
ROOT
ATOM      1  C   UNL     1       7.787  -6.769   3.024  1.00  0.00     0.000 C 
ENDROOT
BRANCH   1   2
ATOM      2  C   UNL     1       8.576  -5.986   4.086  1.00  0.00     0.000 C 
BRANCH   2   3
ATOM      3  C   UNL     1       9.792  -5.226   3.510  1.00  0.00     0.006 C 
BRANCH   3   4
ATOM      4  C   UNL     1      10.974  -6.160   3.222  1.00  0.00     0.053 C 
BRANCH   4   5
ATOM      5  C   UNL     1      12.070  -5.938   4.214  1.00  0.00     0.041 C 
ATOM      6  O   UNL     1      13.083  -5.258   3.897  1.00  0.00    -0.550 OA
ATOM      7  O   UNL     1      11.954  -6.438   5.504  1.00  0.00    -0.550 OA
ENDBRANCH   4   5
ENDBRANCH   3   4
ENDBRANCH   2   3
ENDBRANCH   1   2
BRANCH   1   8
ATOM      8  C   UNL     1       6.351  -7.093   3.468  1.00  0.00     0.000 C 
BRANCH   8   9
ATOM      9  C   UNL     1       5.726  -5.951   4.300  1.00  0.00    -0.000 C 
BRANCH   9  10
ATOM     10  C   UNL     1       5.211  -6.404   5.677  1.00  0.00    -0.000 C 
BRANCH  10  11
ATOM     11  C   UNL     1       6.002  -7.586   6.253  1.00  0.00    -0.000 C 
BRANCH  11  12
ATOM     12  C   UNL     1       5.062  -8.634   6.858  1.00  0.00    -0.003 C 
ATOM     13  C   UNL     1       3.968  -9.027   5.869  1.00  0.00     0.004 C 
ENDBRANCH  11  12
ENDBRANCH  10  11
ENDBRANCH   9  10
ENDBRANCH   8   9
ENDBRANCH   1   8
TORSDOF 9
ENDMDL
MODEL 7
REMARK VINA RESULT:    -2.694      5.090      6.553
REMARK INTER + INTRA:          -5.166
REMARK INTER:                  -4.843
REMARK INTRA:                  -0.322
REMARK UNBOUND:                -1.054
REMARK SMILES CCCCCCCCCCC(=O)[O-]
REMARK SMILES IDX 7 1 8 2 9 3 10 4 11 5 12 6 13 7 6 8 5 9 4 10 3 11 2 12 1 13
REMARK H PARENT
REMARK Flexibility Score: inf
ROOT
ATOM      1  C   UNL     1       9.013  -4.899   3.384  1.00  0.00     0.000 C 
ENDROOT
BRANCH   1   2
ATOM      2  C   UNL     1      10.472  -5.296   3.108  1.00  0.00     0.000 C 
BRANCH   2   3
ATOM      3  C   UNL     1      11.155  -5.996   4.304  1.00  0.00     0.006 C 
BRANCH   3   4
ATOM      4  C   UNL     1      12.588  -6.432   3.976  1.00  0.00     0.053 C 
BRANCH   4   5
ATOM      5  C   UNL     1      13.546  -5.310   4.222  1.00  0.00     0.041 C 
ATOM      6  O   UNL     1      14.104  -5.188   5.344  1.00  0.00    -0.550 OA
ATOM      7  O   UNL     1      13.861  -4.426   3.197  1.00  0.00    -0.550 OA
ENDBRANCH   4   5
ENDBRANCH   3   4
ENDBRANCH   2   3
ENDBRANCH   1   2
BRANCH   1   8
ATOM      8  C   UNL     1       8.141  -6.091   3.810  1.00  0.00     0.000 C 
BRANCH   8   9
ATOM      9  C   UNL     1       6.632  -5.785   3.683  1.00  0.00    -0.000 C 
BRANCH   9  10
ATOM     10  C   UNL     1       5.731  -6.871   4.297  1.00  0.00    -0.000 C 
BRANCH  10  11
ATOM     11  C   UNL     1       6.135  -7.245   5.730  1.00  0.00    -0.000 C 
BRANCH  11  12
ATOM     12  C   UNL     1       5.734  -8.688   6.054  1.00  0.00    -0.003 C 
ATOM     13  C   UNL     1       4.842  -8.746   7.292  1.00  0.00     0.004 C 
ENDBRANCH  11  12
ENDBRANCH  10  11
ENDBRANCH   9  10
ENDBRANCH   8   9
ENDBRANCH   1   8
TORSDOF 9
ENDMDL
MODEL 8
REMARK VINA RESULT:    -2.608      5.095      7.440
REMARK INTER + INTRA:          -5.035
REMARK INTER:                  -4.775
REMARK INTRA:                  -0.261
REMARK UNBOUND:                -1.054
REMARK SMILES CCCCCCCCCCC(=O)[O-]
REMARK SMILES IDX 7 1 8 2 9 3 10 4 11 5 12 6 13 7 6 8 5 9 4 10 3 11 2 12 1 13
REMARK H PARENT
REMARK Flexibility Score: inf
ROOT
ATOM      1  C   UNL     1       8.826  -5.805   4.482  1.00  0.00     0.000 C 
ENDROOT
BRANCH   1   2
ATOM      2  C   UNL     1       7.716  -6.463   3.647  1.00  0.00     0.000 C 
BRANCH   2   3
ATOM      3  C   UNL     1       6.339  -6.465   4.348  1.00  0.00     0.006 C 
BRANCH   3   4
ATOM      4  C   UNL     1       6.461  -6.698   5.859  1.00  0.00     0.053 C 
BRANCH   4   5
ATOM      5  C   UNL     1       5.913  -8.040   6.227  1.00  0.00     0.041 C 
ATOM      6  O   UNL     1       5.092  -8.150   7.176  1.00  0.00    -0.550 OA
ATOM      7  O   UNL     1       6.270  -9.163   5.493  1.00  0.00    -0.550 OA
ENDBRANCH   4   5
ENDBRANCH   3   4
ENDBRANCH   2   3
ENDBRANCH   1   2
BRANCH   1   8
ATOM      8  C   UNL     1      10.040  -5.386   3.636  1.00  0.00     0.000 C 
BRANCH   8   9
ATOM      9  C   UNL     1      11.353  -6.019   4.147  1.00  0.00    -0.000 C 
BRANCH   9  10
ATOM     10  C   UNL     1      12.617  -5.391   3.535  1.00  0.00    -0.000 C 
BRANCH  10  11
ATOM     11  C   UNL     1      13.769  -5.263   4.541  1.00  0.00    -0.000 C 
BRANCH  11  12
ATOM     12  C   UNL     1      15.109  -5.625   3.891  1.00  0.00    -0.003 C 
ATOM     13  C   UNL     1      16.222  -5.705   4.932  1.00  0.00     0.004 C 
ENDBRANCH  11  12
ENDBRANCH  10  11
ENDBRANCH   9  10
ENDBRANCH   8   9
ENDBRANCH   1   8
TORSDOF 9
ENDMDL
MODEL 9
REMARK VINA RESULT:    -2.569      2.717      4.831
REMARK INTER + INTRA:          -4.975
REMARK INTER:                  -3.951
REMARK INTRA:                  -1.024
REMARK UNBOUND:                -1.054
REMARK SMILES CCCCCCCCCCC(=O)[O-]
REMARK SMILES IDX 7 1 8 2 9 3 10 4 11 5 12 6 13 7 6 8 5 9 4 10 3 11 2 12 1 13
REMARK H PARENT
REMARK Flexibility Score: inf
ROOT
ATOM      1  C   UNL     1       5.738  -6.474   6.017  1.00  0.00     0.000 C 
ENDROOT
BRANCH   1   2
ATOM      2  C   UNL     1       5.368  -7.700   6.866  1.00  0.00     0.000 C 
BRANCH   2   3
ATOM      3  C   UNL     1       5.199  -8.994   6.038  1.00  0.00     0.006 C 
BRANCH   3   4
ATOM      4  C   UNL     1       3.854  -9.037   5.303  1.00  0.00     0.053 C 
BRANCH   4   5
ATOM      5  C   UNL     1       4.032  -9.567   3.916  1.00  0.00     0.041 C 
ATOM      6  O   UNL     1       5.189  -9.775   3.462  1.00  0.00    -0.550 OA
ATOM      7  O   UNL     1       2.923  -9.877   3.141  1.00  0.00    -0.550 OA
ENDBRANCH   4   5
ENDBRANCH   3   4
ENDBRANCH   2   3
ENDBRANCH   1   2
BRANCH   1   8
ATOM      8  C   UNL     1       6.958  -6.721   5.114  1.00  0.00     0.000 C 
BRANCH   8   9
ATOM      9  C   UNL     1       6.631  -6.507   3.620  1.00  0.00    -0.000 C 
BRANCH   9  10
ATOM     10  C   UNL     1       5.181  -6.061   3.366  1.00  0.00    -0.000 C 
BRANCH  10  11
ATOM     11  C   UNL     1       5.071  -4.585   2.958  1.00  0.00    -0.000 C 
BRANCH  11  12
ATOM     12  C   UNL     1       3.678  -4.029   3.277  1.00  0.00    -0.003 C 
ATOM     13  C   UNL     1       3.483  -3.866   4.782  1.00  0.00     0.004 C 
ENDBRANCH  11  12
ENDBRANCH  10  11
ENDBRANCH   9  10
ENDBRANCH   8   9
ENDBRANCH   1   8
TORSDOF 9
ENDMDL
