MODEL 1
REMARK VINA RESULT:    -5.007      0.000      0.000
REMARK INTER + INTRA:         -15.031
REMARK INTER:                 -12.618
REMARK INTRA:                  -2.413
REMARK UNBOUND:                -2.413
REMARK SMILES CCCCCCCCCCCCCCCCCCCCCCCCCCCC(=O)[O-]
REMARK SMILES IDX 15 1 16 2 17 3 18 4 19 5 20 6 21 7 22 8 23 9 24 10 25 11
REMARK SMILES IDX 26 12 27 13 28 14 29 15 30 16 14 17 13 18 12 19 11 20 10 21
REMARK SMILES IDX 9 22 8 23 7 24 6 25 5 26 4 27 3 28 2 29 1 30
REMARK H PARENT
REMARK Flexibility Score: inf
ROOT
ATOM      1  C   UNL     1      -1.096  31.752  17.334  1.00  0.00     0.000 C 
ENDROOT
BRANCH   1   2
ATOM      2  C   UNL     1      -0.318  32.993  17.805  1.00  0.00     0.000 C 
BRANCH   2   3
ATOM      3  C   UNL     1      -0.604  34.244  16.953  1.00  0.00     0.000 C 
BRANCH   3   4
ATOM      4  C   UNL     1      -2.047  34.776  17.030  1.00  0.00     0.000 C 
BRANCH   4   5
ATOM      5  C   UNL     1      -2.131  36.308  16.898  1.00  0.00     0.000 C 
BRANCH   5   6
ATOM      6  C   UNL     1      -1.833  37.039  18.217  1.00  0.00     0.000 C 
BRANCH   6   7
ATOM      7  C   UNL     1      -3.054  37.085  19.152  1.00  0.00     0.000 C 
BRANCH   7   8
ATOM      8  C   UNL     1      -3.937  38.326  18.923  1.00  0.00     0.000 C 
BRANCH   8   9
ATOM      9  C   UNL     1      -5.287  38.052  18.233  1.00  0.00     0.000 C 
BRANCH   9  10
ATOM     10  C   UNL     1      -6.341  37.468  19.189  1.00  0.00     0.000 C 
BRANCH  10  11
ATOM     11  C   UNL     1      -7.137  38.547  19.946  1.00  0.00     0.000 C 
BRANCH  11  12
ATOM     12  C   UNL     1      -6.746  38.736  21.424  1.00  0.00     0.006 C 
BRANCH  12  13
ATOM     13  C   UNL     1      -6.366  37.421  22.119  1.00  0.00     0.053 C 
BRANCH  13  14
ATOM     14  C   UNL     1      -4.900  37.390  22.418  1.00  0.00     0.041 C 
ATOM     15  O   UNL     1      -4.285  38.457  22.683  1.00  0.00    -0.550 OA
ATOM     16  O   UNL     1      -4.204  36.189  22.363  1.00  0.00    -0.550 OA
ENDBRANCH  13  14
ENDBRANCH  12  13
ENDBRANCH  11  12
ENDBRANCH  10  11
ENDBRANCH   9  10
ENDBRANCH   8   9
ENDBRANCH   7   8
ENDBRANCH   6   7
ENDBRANCH   5   6
ENDBRANCH   4   5
ENDBRANCH   3   4
ENDBRANCH   2   3
ENDBRANCH   1   2
BRANCH   1  17
ATOM     17  C   UNL     1      -0.387  30.431  17.688  1.00  0.00     0.000 C 
BRANCH  17  18
ATOM     18  C   UNL     1       0.864  30.112  16.850  1.00  0.00     0.000 C 
BRANCH  18  19
ATOM     19  C   UNL     1       0.859  28.683  16.284  1.00  0.00     0.000 C 
BRANCH  19  20
ATOM     20  C   UNL     1      -0.330  27.881  16.836  1.00  0.00     0.000 C 
BRANCH  20  21
ATOM     21  C   UNL     1       0.106  26.626  17.609  1.00  0.00     0.000 C 
BRANCH  21  22
ATOM     22  C   UNL     1       0.148  25.369  16.723  1.00  0.00    -0.000 C 
BRANCH  22  23
ATOM     23  C   UNL     1      -1.214  24.656  16.651  1.00  0.00    -0.000 C 
BRANCH  23  24
ATOM     24  C   UNL     1      -1.327  23.495  17.649  1.00  0.00    -0.000 C 
BRANCH  24  25
ATOM     25  C   UNL     1      -2.192  23.891  18.854  1.00  0.00    -0.000 C 
BRANCH  25  26
ATOM     26  C   UNL     1      -1.843  23.100  20.128  1.00  0.00    -0.000 C 
BRANCH  26  27
ATOM     27  C   UNL     1      -1.092  23.902  21.209  1.00  0.00    -0.000 C 
BRANCH  27  28
ATOM     28  C   UNL     1      -0.968  25.415  20.935  1.00  0.00    -0.000 C 
BRANCH  28  29
ATOM     29  C   UNL     1       0.415  26.016  21.244  1.00  0.00    -0.003 C 
ATOM     30  C   UNL     1       1.567  25.110  20.812  1.00  0.00     0.004 C 
ENDBRANCH  28  29
ENDBRANCH  27  28
ENDBRANCH  26  27
ENDBRANCH  25  26
ENDBRANCH  24  25
ENDBRANCH  23  24
ENDBRANCH  22  23
ENDBRANCH  21  22
ENDBRANCH  20  21
ENDBRANCH  19  20
ENDBRANCH  18  19
ENDBRANCH  17  18
ENDBRANCH   1  17
TORSDOF 26
ENDMDL
MODEL 2
REMARK VINA RESULT:    -4.985      3.229     12.000
REMARK INTER + INTRA:         -14.975
REMARK INTER:                 -12.139
REMARK INTRA:                  -2.836
REMARK UNBOUND:                -2.413
REMARK SMILES CCCCCCCCCCCCCCCCCCCCCCCCCCCC(=O)[O-]
REMARK SMILES IDX 15 1 16 2 17 3 18 4 19 5 20 6 21 7 22 8 23 9 24 10 25 11
REMARK SMILES IDX 26 12 27 13 28 14 29 15 30 16 14 17 13 18 12 19 11 20 10 21
REMARK SMILES IDX 9 22 8 23 7 24 6 25 5 26 4 27 3 28 2 29 1 30
REMARK H PARENT
REMARK Flexibility Score: inf
ROOT
ATOM      1  C   UNL     1      -1.083  36.065  17.225  1.00  0.00     0.000 C 
ENDROOT
BRANCH   1   2
ATOM      2  C   UNL     1      -0.010  35.333  16.400  1.00  0.00     0.000 C 
BRANCH   2   3
ATOM      3  C   UNL     1      -0.311  33.834  16.213  1.00  0.00     0.000 C 
BRANCH   3   4
ATOM      4  C   UNL     1      -0.364  33.007  17.511  1.00  0.00     0.000 C 
BRANCH   4   5
ATOM      5  C   UNL     1      -1.145  31.689  17.353  1.00  0.00     0.000 C 
BRANCH   5   6
ATOM      6  C   UNL     1      -0.329  30.457  17.775  1.00  0.00     0.000 C 
BRANCH   6   7
ATOM      7  C   UNL     1       0.819  30.148  16.797  1.00  0.00     0.000 C 
BRANCH   7   8
ATOM      8  C   UNL     1       0.922  28.651  16.449  1.00  0.00     0.000 C 
BRANCH   8   9
ATOM      9  C   UNL     1      -0.180  27.760  17.053  1.00  0.00     0.000 C 
BRANCH   9  10
ATOM     10  C   UNL     1       0.046  26.262  16.787  1.00  0.00     0.000 C 
BRANCH  10  11
ATOM     11  C   UNL     1       0.251  25.443  18.075  1.00  0.00     0.000 C 
BRANCH  11  12
ATOM     12  C   UNL     1      -1.036  24.872  18.701  1.00  0.00     0.006 C 
BRANCH  12  13
ATOM     13  C   UNL     1      -0.845  24.407  20.152  1.00  0.00     0.053 C 
BRANCH  13  14
ATOM     14  C   UNL     1      -0.866  25.576  21.085  1.00  0.00     0.041 C 
ATOM     15  O   UNL     1      -1.962  26.071  21.458  1.00  0.00    -0.550 OA
ATOM     16  O   UNL     1       0.328  26.147  21.511  1.00  0.00    -0.550 OA
ENDBRANCH  13  14
ENDBRANCH  12  13
ENDBRANCH  11  12
ENDBRANCH  10  11
ENDBRANCH   9  10
ENDBRANCH   8   9
ENDBRANCH   7   8
ENDBRANCH   6   7
ENDBRANCH   5   6
ENDBRANCH   4   5
ENDBRANCH   3   4
ENDBRANCH   2   3
ENDBRANCH   1   2
BRANCH   1  17
ATOM     17  C   UNL     1      -2.483  35.985  16.591  1.00  0.00     0.000 C 
BRANCH  17  18
ATOM     18  C   UNL     1      -3.110  37.338  16.209  1.00  0.00     0.000 C 
BRANCH  18  19
ATOM     19  C   UNL     1      -2.070  38.458  16.051  1.00  0.00     0.000 C 
BRANCH  19  20
ATOM     20  C   UNL     1      -2.665  39.817  16.452  1.00  0.00     0.000 C 
BRANCH  20  21
ATOM     21  C   UNL     1      -1.689  40.677  17.269  1.00  0.00     0.000 C 
BRANCH  21  22
ATOM     22  C   UNL     1      -0.872  39.850  18.278  1.00  0.00    -0.000 C 
BRANCH  22  23
ATOM     23  C   UNL     1      -1.594  39.693  19.627  1.00  0.00    -0.000 C 
BRANCH  23  24
ATOM     24  C   UNL     1      -2.101  38.264  19.865  1.00  0.00    -0.000 C 
BRANCH  24  25
ATOM     25  C   UNL     1      -3.509  38.276  20.474  1.00  0.00    -0.000 C 
BRANCH  25  26
ATOM     26  C   UNL     1      -4.527  39.053  19.618  1.00  0.00    -0.000 C 
BRANCH  26  27
ATOM     27  C   UNL     1      -5.534  38.177  18.847  1.00  0.00    -0.000 C 
BRANCH  27  28
ATOM     28  C   UNL     1      -6.875  37.931  19.568  1.00  0.00    -0.000 C 
BRANCH  28  29
ATOM     29  C   UNL     1      -7.294  39.042  20.548  1.00  0.00    -0.003 C 
ATOM     30  C   UNL     1      -7.185  38.616  22.011  1.00  0.00     0.004 C 
ENDBRANCH  28  29
ENDBRANCH  27  28
ENDBRANCH  26  27
ENDBRANCH  25  26
ENDBRANCH  24  25
ENDBRANCH  23  24
ENDBRANCH  22  23
ENDBRANCH  21  22
ENDBRANCH  20  21
ENDBRANCH  19  20
ENDBRANCH  18  19
ENDBRANCH  17  18
ENDBRANCH   1  17
TORSDOF 26
ENDMDL
MODEL 3
REMARK VINA RESULT:    -4.930      1.671      4.830
REMARK INTER + INTRA:         -14.837
REMARK INTER:                 -11.875
REMARK INTRA:                  -2.963
REMARK UNBOUND:                -2.413
REMARK SMILES CCCCCCCCCCCCCCCCCCCCCCCCCCCC(=O)[O-]
REMARK SMILES IDX 15 1 16 2 17 3 18 4 19 5 20 6 21 7 22 8 23 9 24 10 25 11
REMARK SMILES IDX 26 12 27 13 28 14 29 15 30 16 14 17 13 18 12 19 11 20 10 21
REMARK SMILES IDX 9 22 8 23 7 24 6 25 5 26 4 27 3 28 2 29 1 30
REMARK H PARENT
REMARK Flexibility Score: inf
ROOT
ATOM      1  C   UNL     1      -0.297  38.705  16.375  1.00  0.00     0.000 C 
ENDROOT
BRANCH   1   2
ATOM      2  C   UNL     1      -1.781  39.090  16.250  1.00  0.00     0.000 C 
BRANCH   2   3
ATOM      3  C   UNL     1      -2.143  40.362  17.039  1.00  0.00     0.000 C 
BRANCH   3   4
ATOM      4  C   UNL     1      -1.218  40.684  18.228  1.00  0.00     0.000 C 
BRANCH   4   5
ATOM      5  C   UNL     1      -1.818  40.272  19.585  1.00  0.00     0.000 C 
BRANCH   5   6
ATOM      6  C   UNL     1      -1.548  38.800  19.936  1.00  0.00     0.000 C 
BRANCH   6   7
ATOM      7  C   UNL     1      -2.794  38.090  20.494  1.00  0.00     0.000 C 
BRANCH   7   8
ATOM      8  C   UNL     1      -3.632  37.405  19.398  1.00  0.00     0.000 C 
BRANCH   8   9
ATOM      9  C   UNL     1      -4.631  38.323  18.667  1.00  0.00     0.000 C 
BRANCH   9  10
ATOM     10  C   UNL     1      -6.043  37.720  18.575  1.00  0.00     0.000 C 
BRANCH  10  11
ATOM     11  C   UNL     1      -7.118  38.590  19.254  1.00  0.00     0.000 C 
BRANCH  11  12
ATOM     12  C   UNL     1      -6.661  39.320  20.532  1.00  0.00     0.006 C 
BRANCH  12  13
ATOM     13  C   UNL     1      -7.256  38.719  21.813  1.00  0.00     0.053 C 
BRANCH  13  14
ATOM     14  C   UNL     1      -6.223  37.927  22.550  1.00  0.00     0.041 C 
ATOM     15  O   UNL     1      -6.336  36.677  22.652  1.00  0.00    -0.550 OA
ATOM     16  O   UNL     1      -5.156  38.575  23.162  1.00  0.00    -0.550 OA
ENDBRANCH  13  14
ENDBRANCH  12  13
ENDBRANCH  11  12
ENDBRANCH  10  11
ENDBRANCH   9  10
ENDBRANCH   8   9
ENDBRANCH   7   8
ENDBRANCH   6   7
ENDBRANCH   5   6
ENDBRANCH   4   5
ENDBRANCH   3   4
ENDBRANCH   2   3
ENDBRANCH   1   2
BRANCH   1  17
ATOM     17  C   UNL     1      -0.087  37.199  16.613  1.00  0.00     0.000 C 
BRANCH  17  18
ATOM     18  C   UNL     1      -1.339  36.324  16.425  1.00  0.00     0.000 C 
BRANCH  18  19
ATOM     19  C   UNL     1      -1.523  35.288  17.544  1.00  0.00     0.000 C 
BRANCH  19  20
ATOM     20  C   UNL     1      -1.513  33.860  16.975  1.00  0.00     0.000 C 
BRANCH  20  21
ATOM     21  C   UNL     1      -0.420  32.978  17.597  1.00  0.00     0.000 C 
BRANCH  21  22
ATOM     22  C   UNL     1      -0.995  31.837  18.456  1.00  0.00    -0.000 C 
BRANCH  22  23
ATOM     23  C   UNL     1      -0.744  30.453  17.834  1.00  0.00    -0.000 C 
BRANCH  23  24
ATOM     24  C   UNL     1       0.442  30.448  16.859  1.00  0.00    -0.000 C 
BRANCH  24  25
ATOM     25  C   UNL     1       0.914  29.014  16.579  1.00  0.00    -0.000 C 
BRANCH  25  26
ATOM     26  C   UNL     1      -0.200  27.968  16.769  1.00  0.00    -0.000 C 
BRANCH  26  27
ATOM     27  C   UNL     1       0.283  26.506  16.834  1.00  0.00    -0.000 C 
BRANCH  27  28
ATOM     28  C   UNL     1      -0.172  25.721  18.081  1.00  0.00    -0.000 C 
BRANCH  28  29
ATOM     29  C   UNL     1      -0.336  26.570  19.354  1.00  0.00    -0.003 C 
ATOM     30  C   UNL     1      -0.146  25.762  20.637  1.00  0.00     0.004 C 
ENDBRANCH  28  29
ENDBRANCH  27  28
ENDBRANCH  26  27
ENDBRANCH  25  26
ENDBRANCH  24  25
ENDBRANCH  23  24
ENDBRANCH  22  23
ENDBRANCH  21  22
ENDBRANCH  20  21
ENDBRANCH  19  20
ENDBRANCH  18  19
ENDBRANCH  17  18
ENDBRANCH   1  17
TORSDOF 26
ENDMDL
MODEL 4
REMARK VINA RESULT:    -4.889      3.387     12.169
REMARK INTER + INTRA:         -14.732
REMARK INTER:                 -12.151
REMARK INTRA:                  -2.581
REMARK UNBOUND:                -2.413
REMARK SMILES CCCCCCCCCCCCCCCCCCCCCCCCCCCC(=O)[O-]
REMARK SMILES IDX 15 1 16 2 17 3 18 4 19 5 20 6 21 7 22 8 23 9 24 10 25 11
REMARK SMILES IDX 26 12 27 13 28 14 29 15 30 16 14 17 13 18 12 19 11 20 10 21
REMARK SMILES IDX 9 22 8 23 7 24 6 25 5 26 4 27 3 28 2 29 1 30
REMARK H PARENT
REMARK Flexibility Score: inf
ROOT
ATOM      1  C   UNL     1      -0.643  38.528  16.923  1.00  0.00     0.000 C 
ENDROOT
BRANCH   1   2
ATOM      2  C   UNL     1      -0.189  37.225  16.242  1.00  0.00     0.000 C 
BRANCH   2   3
ATOM      3  C   UNL     1      -1.103  36.027  16.562  1.00  0.00     0.000 C 
BRANCH   3   4
ATOM      4  C   UNL     1      -0.408  34.653  16.563  1.00  0.00     0.000 C 
BRANCH   4   5
ATOM      5  C   UNL     1      -1.131  33.615  17.442  1.00  0.00     0.000 C 
BRANCH   5   6
ATOM      6  C   UNL     1      -0.273  32.371  17.726  1.00  0.00     0.000 C 
BRANCH   6   7
ATOM      7  C   UNL     1      -0.822  31.108  17.040  1.00  0.00     0.000 C 
BRANCH   7   8
ATOM      8  C   UNL     1      -0.206  29.810  17.595  1.00  0.00     0.000 C 
BRANCH   8   9
ATOM      9  C   UNL     1       0.815  29.121  16.670  1.00  0.00     0.000 C 
BRANCH   9  10
ATOM     10  C   UNL     1       0.587  27.605  16.549  1.00  0.00     0.000 C 
BRANCH  10  11
ATOM     11  C   UNL     1      -0.199  27.014  17.734  1.00  0.00     0.000 C 
BRANCH  11  12
ATOM     12  C   UNL     1       0.215  25.591  18.154  1.00  0.00     0.006 C 
BRANCH  12  13
ATOM     13  C   UNL     1       0.198  25.382  19.674  1.00  0.00     0.053 C 
BRANCH  13  14
ATOM     14  C   UNL     1      -1.199  25.162  20.159  1.00  0.00     0.041 C 
ATOM     15  O   UNL     1      -1.626  25.785  21.167  1.00  0.00    -0.550 OA
ATOM     16  O   UNL     1      -2.019  24.237  19.523  1.00  0.00    -0.550 OA
ENDBRANCH  13  14
ENDBRANCH  12  13
ENDBRANCH  11  12
ENDBRANCH  10  11
ENDBRANCH   9  10
ENDBRANCH   8   9
ENDBRANCH   7   8
ENDBRANCH   6   7
ENDBRANCH   5   6
ENDBRANCH   4   5
ENDBRANCH   3   4
ENDBRANCH   2   3
ENDBRANCH   1   2
BRANCH   1  17
ATOM     17  C   UNL     1      -1.707  39.289  16.110  1.00  0.00     0.000 C 
BRANCH  17  18
ATOM     18  C   UNL     1      -2.955  39.719  16.902  1.00  0.00     0.000 C 
BRANCH  18  19
ATOM     19  C   UNL     1      -3.518  38.599  17.790  1.00  0.00     0.000 C 
BRANCH  19  20
ATOM     20  C   UNL     1      -3.342  38.940  19.278  1.00  0.00     0.000 C 
BRANCH  20  21
ATOM     21  C   UNL     1      -3.037  37.706  20.140  1.00  0.00     0.000 C 
BRANCH  21  22
ATOM     22  C   UNL     1      -3.646  37.802  21.550  1.00  0.00    -0.000 C 
BRANCH  22  23
ATOM     23  C   UNL     1      -2.999  38.913  22.394  1.00  0.00    -0.000 C 
BRANCH  23  24
ATOM     24  C   UNL     1      -4.029  39.887  22.983  1.00  0.00    -0.000 C 
BRANCH  24  25
ATOM     25  C   UNL     1      -5.254  39.132  23.516  1.00  0.00    -0.000 C 
BRANCH  25  26
ATOM     26  C   UNL     1      -6.586  39.712  23.006  1.00  0.00    -0.000 C 
BRANCH  26  27
ATOM     27  C   UNL     1      -7.205  38.967  21.807  1.00  0.00    -0.000 C 
BRANCH  27  28
ATOM     28  C   UNL     1      -6.862  39.554  20.422  1.00  0.00    -0.000 C 
BRANCH  28  29
ATOM     29  C   UNL     1      -7.114  38.604  19.238  1.00  0.00    -0.003 C 
ATOM     30  C   UNL     1      -6.624  37.181  19.502  1.00  0.00     0.004 C 
ENDBRANCH  28  29
ENDBRANCH  27  28
ENDBRANCH  26  27
ENDBRANCH  25  26
ENDBRANCH  24  25
ENDBRANCH  23  24
ENDBRANCH  22  23
ENDBRANCH  21  22
ENDBRANCH  20  21
ENDBRANCH  19  20
ENDBRANCH  18  19
ENDBRANCH  17  18
ENDBRANCH   1  17
TORSDOF 26
ENDMDL
MODEL 5
REMARK VINA RESULT:    -4.761     12.806     15.527
REMARK INTER + INTRA:         -14.409
REMARK INTER:                 -12.437
REMARK INTRA:                  -1.973
REMARK UNBOUND:                -2.413
REMARK SMILES CCCCCCCCCCCCCCCCCCCCCCCCCCCC(=O)[O-]
REMARK SMILES IDX 15 1 16 2 17 3 18 4 19 5 20 6 21 7 22 8 23 9 24 10 25 11
REMARK SMILES IDX 26 12 27 13 28 14 29 15 30 16 14 17 13 18 12 19 11 20 10 21
REMARK SMILES IDX 9 22 8 23 7 24 6 25 5 26 4 27 3 28 2 29 1 30
REMARK H PARENT
REMARK Flexibility Score: inf
ROOT
ATOM      1  C   UNL     1      -5.591  32.176  34.961  1.00  0.00     0.000 C 
ENDROOT
BRANCH   1   2
ATOM      2  C   UNL     1      -6.915  32.857  35.350  1.00  0.00     0.000 C 
BRANCH   2   3
ATOM      3  C   UNL     1      -7.134  34.203  34.635  1.00  0.00     0.000 C 
BRANCH   3   4
ATOM      4  C   UNL     1      -7.088  35.445  35.544  1.00  0.00     0.000 C 
BRANCH   4   5
ATOM      5  C   UNL     1      -5.918  36.390  35.212  1.00  0.00     0.000 C 
BRANCH   5   6
ATOM      6  C   UNL     1      -4.732  35.664  34.555  1.00  0.00     0.000 C 
BRANCH   6   7
ATOM      7  C   UNL     1      -4.099  36.483  33.417  1.00  0.00     0.000 C 
BRANCH   7   8
ATOM      8  C   UNL     1      -3.766  35.629  32.179  1.00  0.00     0.000 C 
BRANCH   8   9
ATOM      9  C   UNL     1      -3.342  36.424  30.928  1.00  0.00     0.000 C 
BRANCH   9  10
ATOM     10  C   UNL     1      -3.887  37.863  30.920  1.00  0.00     0.000 C 
BRANCH  10  11
ATOM     11  C   UNL     1      -3.051  38.821  30.051  1.00  0.00     0.000 C 
BRANCH  11  12
ATOM     12  C   UNL     1      -1.529  38.585  30.090  1.00  0.00     0.006 C 
BRANCH  12  13
ATOM     13  C   UNL     1      -0.810  39.464  31.123  1.00  0.00     0.053 C 
BRANCH  13  14
ATOM     14  C   UNL     1       0.669  39.428  30.903  1.00  0.00     0.041 C 
ATOM     15  O   UNL     1       1.458  39.626  31.865  1.00  0.00    -0.550 OA
ATOM     16  O   UNL     1       1.178  39.217  29.628  1.00  0.00    -0.550 OA
ENDBRANCH  13  14
ENDBRANCH  12  13
ENDBRANCH  11  12
ENDBRANCH  10  11
ENDBRANCH   9  10
ENDBRANCH   8   9
ENDBRANCH   7   8
ENDBRANCH   6   7
ENDBRANCH   5   6
ENDBRANCH   4   5
ENDBRANCH   3   4
ENDBRANCH   2   3
ENDBRANCH   1   2
BRANCH   1  17
ATOM     17  C   UNL     1      -5.753  30.673  34.674  1.00  0.00     0.000 C 
BRANCH  17  18
ATOM     18  C   UNL     1      -5.646  29.753  35.904  1.00  0.00     0.000 C 
BRANCH  18  19
ATOM     19  C   UNL     1      -5.997  28.290  35.593  1.00  0.00     0.000 C 
BRANCH  19  20
ATOM     20  C   UNL     1      -6.153  28.075  34.079  1.00  0.00     0.000 C 
BRANCH  20  21
ATOM     21  C   UNL     1      -5.408  26.830  33.575  1.00  0.00     0.000 C 
BRANCH  21  22
ATOM     22  C   UNL     1      -4.834  25.977  34.720  1.00  0.00    -0.000 C 
BRANCH  22  23
ATOM     23  C   UNL     1      -5.398  24.546  34.724  1.00  0.00    -0.000 C 
BRANCH  23  24
ATOM     24  C   UNL     1      -6.739  24.435  33.985  1.00  0.00    -0.000 C 
BRANCH  24  25
ATOM     25  C   UNL     1      -7.169  22.969  33.846  1.00  0.00    -0.000 C 
BRANCH  25  26
ATOM     26  C   UNL     1      -6.041  22.061  33.321  1.00  0.00    -0.000 C 
BRANCH  26  27
ATOM     27  C   UNL     1      -6.369  21.300  32.021  1.00  0.00    -0.000 C 
BRANCH  27  28
ATOM     28  C   UNL     1      -6.231  22.125  30.726  1.00  0.00    -0.000 C 
BRANCH  28  29
ATOM     29  C   UNL     1      -7.551  22.699  30.182  1.00  0.00    -0.003 C 
ATOM     30  C   UNL     1      -8.770  21.870  30.585  1.00  0.00     0.004 C 
ENDBRANCH  28  29
ENDBRANCH  27  28
ENDBRANCH  26  27
ENDBRANCH  25  26
ENDBRANCH  24  25
ENDBRANCH  23  24
ENDBRANCH  22  23
ENDBRANCH  21  22
ENDBRANCH  20  21
ENDBRANCH  19  20
ENDBRANCH  18  19
ENDBRANCH  17  18
ENDBRANCH   1  17
TORSDOF 26
ENDMDL
MODEL 6
REMARK VINA RESULT:    -4.744      2.994     12.084
REMARK INTER + INTRA:         -14.367
REMARK INTER:                 -12.050
REMARK INTRA:                  -2.317
REMARK UNBOUND:                -2.413
REMARK SMILES CCCCCCCCCCCCCCCCCCCCCCCCCCCC(=O)[O-]
REMARK SMILES IDX 15 1 16 2 17 3 18 4 19 5 20 6 21 7 22 8 23 9 24 10 25 11
REMARK SMILES IDX 26 12 27 13 28 14 29 15 30 16 14 17 13 18 12 19 11 20 10 21
REMARK SMILES IDX 9 22 8 23 7 24 6 25 5 26 4 27 3 28 2 29 1 30
REMARK H PARENT
REMARK Flexibility Score: inf
ROOT
ATOM      1  C   UNL     1      -0.805  31.889  18.221  1.00  0.00     0.000 C 
ENDROOT
BRANCH   1   2
ATOM      2  C   UNL     1      -0.639  30.435  17.747  1.00  0.00     0.000 C 
BRANCH   2   3
ATOM      3  C   UNL     1       0.452  30.272  16.671  1.00  0.00     0.000 C 
BRANCH   3   4
ATOM      4  C   UNL     1       0.931  28.828  16.435  1.00  0.00     0.000 C 
BRANCH   4   5
ATOM      5  C   UNL     1       0.034  27.777  17.117  1.00  0.00     0.000 C 
BRANCH   5   6
ATOM      6  C   UNL     1      -0.000  26.440  16.359  1.00  0.00     0.000 C 
BRANCH   6   7
ATOM      7  C   UNL     1      -0.229  25.240  17.295  1.00  0.00     0.000 C 
BRANCH   7   8
ATOM      8  C   UNL     1      -1.010  24.096  16.621  1.00  0.00     0.000 C 
BRANCH   8   9
ATOM      9  C   UNL     1      -1.852  23.227  17.574  1.00  0.00     0.000 C 
BRANCH   9  10
ATOM     10  C   UNL     1      -2.043  23.867  18.959  1.00  0.00     0.000 C 
BRANCH  10  11
ATOM     11  C   UNL     1      -1.724  22.906  20.120  1.00  0.00     0.000 C 
BRANCH  11  12
ATOM     12  C   UNL     1      -1.090  23.563  21.361  1.00  0.00     0.006 C 
BRANCH  12  13
ATOM     13  C   UNL     1      -0.239  24.795  21.021  1.00  0.00     0.053 C 
BRANCH  13  14
ATOM     14  C   UNL     1      -1.010  26.051  21.274  1.00  0.00     0.041 C 
ATOM     15  O   UNL     1      -1.946  26.063  22.116  1.00  0.00    -0.550 OA
ATOM     16  O   UNL     1      -0.722  27.201  20.549  1.00  0.00    -0.550 OA
ENDBRANCH  13  14
ENDBRANCH  12  13
ENDBRANCH  11  12
ENDBRANCH  10  11
ENDBRANCH   9  10
ENDBRANCH   8   9
ENDBRANCH   7   8
ENDBRANCH   6   7
ENDBRANCH   5   6
ENDBRANCH   4   5
ENDBRANCH   3   4
ENDBRANCH   2   3
ENDBRANCH   1   2
BRANCH   1  17
ATOM     17  C   UNL     1      -0.794  32.902  17.062  1.00  0.00     0.000 C 
BRANCH  17  18
ATOM     18  C   UNL     1      -1.493  34.242  17.354  1.00  0.00     0.000 C 
BRANCH  18  19
ATOM     19  C   UNL     1      -0.680  35.459  16.886  1.00  0.00     0.000 C 
BRANCH  19  20
ATOM     20  C   UNL     1      -1.592  36.678  16.677  1.00  0.00     0.000 C 
BRANCH  20  21
ATOM     21  C   UNL     1      -2.385  37.051  17.939  1.00  0.00     0.000 C 
BRANCH  21  22
ATOM     22  C   UNL     1      -3.042  38.439  17.837  1.00  0.00    -0.000 C 
BRANCH  22  23
ATOM     23  C   UNL     1      -2.448  39.444  18.838  1.00  0.00    -0.000 C 
BRANCH  23  24
ATOM     24  C   UNL     1      -1.592  38.768  19.919  1.00  0.00    -0.000 C 
BRANCH  24  25
ATOM     25  C   UNL     1      -2.009  39.237  21.320  1.00  0.00    -0.000 C 
BRANCH  25  26
ATOM     26  C   UNL     1      -3.460  38.858  21.672  1.00  0.00    -0.000 C 
BRANCH  26  27
ATOM     27  C   UNL     1      -3.782  37.353  21.577  1.00  0.00    -0.000 C 
BRANCH  27  28
ATOM     28  C   UNL     1      -5.183  37.017  21.026  1.00  0.00    -0.000 C 
BRANCH  28  29
ATOM     29  C   UNL     1      -5.935  38.208  20.406  1.00  0.00    -0.003 C 
ATOM     30  C   UNL     1      -6.710  37.831  19.144  1.00  0.00     0.004 C 
ENDBRANCH  28  29
ENDBRANCH  27  28
ENDBRANCH  26  27
ENDBRANCH  25  26
ENDBRANCH  24  25
ENDBRANCH  23  24
ENDBRANCH  22  23
ENDBRANCH  21  22
ENDBRANCH  20  21
ENDBRANCH  19  20
ENDBRANCH  18  19
ENDBRANCH  17  18
ENDBRANCH   1  17
TORSDOF 26
ENDMDL
MODEL 7
REMARK VINA RESULT:    -4.635      3.290     11.881
REMARK INTER + INTRA:         -14.092
REMARK INTER:                 -12.004
REMARK INTRA:                  -2.087
REMARK UNBOUND:                -2.413
REMARK SMILES CCCCCCCCCCCCCCCCCCCCCCCCCCCC(=O)[O-]
REMARK SMILES IDX 15 1 16 2 17 3 18 4 19 5 20 6 21 7 22 8 23 9 24 10 25 11
REMARK SMILES IDX 26 12 27 13 28 14 29 15 30 16 14 17 13 18 12 19 11 20 10 21
REMARK SMILES IDX 9 22 8 23 7 24 6 25 5 26 4 27 3 28 2 29 1 30
REMARK H PARENT
REMARK Flexibility Score: inf
ROOT
ATOM      1  C   UNL     1      -1.526  38.824  17.913  1.00  0.00     0.000 C 
ENDROOT
BRANCH   1   2
ATOM      2  C   UNL     1      -0.583  37.611  17.846  1.00  0.00     0.000 C 
BRANCH   2   3
ATOM      3  C   UNL     1      -1.331  36.269  17.737  1.00  0.00     0.000 C 
BRANCH   3   4
ATOM      4  C   UNL     1      -0.471  35.070  17.296  1.00  0.00     0.000 C 
BRANCH   4   5
ATOM      5  C   UNL     1      -1.246  33.740  17.300  1.00  0.00     0.000 C 
BRANCH   5   6
ATOM      6  C   UNL     1      -0.379  32.544  17.725  1.00  0.00     0.000 C 
BRANCH   6   7
ATOM      7  C   UNL     1      -0.484  31.363  16.744  1.00  0.00     0.000 C 
BRANCH   7   8
ATOM      8  C   UNL     1      -0.011  30.032  17.358  1.00  0.00     0.000 C 
BRANCH   8   9
ATOM      9  C   UNL     1       1.009  29.245  16.511  1.00  0.00     0.000 C 
BRANCH   9  10
ATOM     10  C   UNL     1       0.513  27.841  16.126  1.00  0.00     0.000 C 
BRANCH  10  11
ATOM     11  C   UNL     1      -0.375  27.195  17.206  1.00  0.00     0.000 C 
BRANCH  11  12
ATOM     12  C   UNL     1      -0.212  25.671  17.365  1.00  0.00     0.006 C 
BRANCH  12  13
ATOM     13  C   UNL     1       0.355  25.266  18.733  1.00  0.00     0.053 C 
BRANCH  13  14
ATOM     14  C   UNL     1      -0.684  25.423  19.798  1.00  0.00     0.041 C 
ATOM     15  O   UNL     1      -1.541  24.519  19.986  1.00  0.00    -0.550 OA
ATOM     16  O   UNL     1      -0.731  26.585  20.558  1.00  0.00    -0.550 OA
ENDBRANCH  13  14
ENDBRANCH  12  13
ENDBRANCH  11  12
ENDBRANCH  10  11
ENDBRANCH   9  10
ENDBRANCH   8   9
ENDBRANCH   7   8
ENDBRANCH   6   7
ENDBRANCH   5   6
ENDBRANCH   4   5
ENDBRANCH   3   4
ENDBRANCH   2   3
ENDBRANCH   1   2
BRANCH   1  17
ATOM     17  C   UNL     1      -2.206  39.129  16.566  1.00  0.00     0.000 C 
BRANCH  17  18
ATOM     18  C   UNL     1      -3.738  38.975  16.554  1.00  0.00     0.000 C 
BRANCH  18  19
ATOM     19  C   UNL     1      -4.197  37.516  16.697  1.00  0.00     0.000 C 
BRANCH  19  20
ATOM     20  C   UNL     1      -5.565  37.440  17.393  1.00  0.00     0.000 C 
BRANCH  20  21
ATOM     21  C   UNL     1      -5.605  38.220  18.716  1.00  0.00     0.000 C 
BRANCH  21  22
ATOM     22  C   UNL     1      -6.769  37.788  19.625  1.00  0.00    -0.000 C 
BRANCH  22  23
ATOM     23  C   UNL     1      -7.470  38.986  20.288  1.00  0.00    -0.000 C 
BRANCH  23  24
ATOM     24  C   UNL     1      -7.194  39.074  21.796  1.00  0.00    -0.000 C 
BRANCH  24  25
ATOM     25  C   UNL     1      -6.202  40.202  22.107  1.00  0.00    -0.000 C 
BRANCH  25  26
ATOM     26  C   UNL     1      -5.151  39.803  23.160  1.00  0.00    -0.000 C 
BRANCH  26  27
ATOM     27  C   UNL     1      -3.873  39.154  22.593  1.00  0.00    -0.000 C 
BRANCH  27  28
ATOM     28  C   UNL     1      -3.608  37.710  23.066  1.00  0.00    -0.000 C 
BRANCH  28  29
ATOM     29  C   UNL     1      -4.376  36.626  22.289  1.00  0.00    -0.003 C 
ATOM     30  C   UNL     1      -3.811  36.383  20.890  1.00  0.00     0.004 C 
ENDBRANCH  28  29
ENDBRANCH  27  28
ENDBRANCH  26  27
ENDBRANCH  25  26
ENDBRANCH  24  25
ENDBRANCH  23  24
ENDBRANCH  22  23
ENDBRANCH  21  22
ENDBRANCH  20  21
ENDBRANCH  19  20
ENDBRANCH  18  19
ENDBRANCH  17  18
ENDBRANCH   1  17
TORSDOF 26
ENDMDL
MODEL 8
REMARK VINA RESULT:    -4.614     12.981     19.491
REMARK INTER + INTRA:         -14.040
REMARK INTER:                 -12.273
REMARK INTRA:                  -1.767
REMARK UNBOUND:                -2.413
REMARK SMILES CCCCCCCCCCCCCCCCCCCCCCCCCCCC(=O)[O-]
REMARK SMILES IDX 15 1 16 2 17 3 18 4 19 5 20 6 21 7 22 8 23 9 24 10 25 11
REMARK SMILES IDX 26 12 27 13 28 14 29 15 30 16 14 17 13 18 12 19 11 20 10 21
REMARK SMILES IDX 9 22 8 23 7 24 6 25 5 26 4 27 3 28 2 29 1 30
REMARK H PARENT
REMARK Flexibility Score: inf
ROOT
ATOM      1  C   UNL     1      -5.635  29.677  35.092  1.00  0.00     0.000 C 
ENDROOT
BRANCH   1   2
ATOM      2  C   UNL     1      -6.175  28.812  33.940  1.00  0.00     0.000 C 
BRANCH   2   3
ATOM      3  C   UNL     1      -5.267  27.613  33.609  1.00  0.00     0.000 C 
BRANCH   3   4
ATOM      4  C   UNL     1      -5.981  26.251  33.530  1.00  0.00     0.000 C 
BRANCH   4   5
ATOM      5  C   UNL     1      -7.030  26.056  34.640  1.00  0.00     0.000 C 
BRANCH   5   6
ATOM      6  C   UNL     1      -6.962  24.664  35.289  1.00  0.00     0.000 C 
BRANCH   6   7
ATOM      7  C   UNL     1      -5.829  23.800  34.709  1.00  0.00     0.000 C 
BRANCH   7   8
ATOM      8  C   UNL     1      -6.196  22.305  34.634  1.00  0.00     0.000 C 
BRANCH   8   9
ATOM      9  C   UNL     1      -7.648  22.007  34.211  1.00  0.00     0.000 C 
BRANCH   9  10
ATOM     10  C   UNL     1      -7.745  20.926  33.122  1.00  0.00     0.000 C 
BRANCH  10  11
ATOM     11  C   UNL     1      -8.785  21.255  32.034  1.00  0.00     0.000 C 
BRANCH  11  12
ATOM     12  C   UNL     1      -8.231  21.332  30.598  1.00  0.00     0.006 C 
BRANCH  12  13
ATOM     13  C   UNL     1      -7.903  22.765  30.156  1.00  0.00     0.053 C 
BRANCH  13  14
ATOM     14  C   UNL     1      -6.434  23.025  30.264  1.00  0.00     0.041 C 
ATOM     15  O   UNL     1      -6.008  23.973  30.976  1.00  0.00    -0.550 OA
ATOM     16  O   UNL     1      -5.535  22.247  29.545  1.00  0.00    -0.550 OA
ENDBRANCH  13  14
ENDBRANCH  12  13
ENDBRANCH  11  12
ENDBRANCH  10  11
ENDBRANCH   9  10
ENDBRANCH   8   9
ENDBRANCH   7   8
ENDBRANCH   6   7
ENDBRANCH   5   6
ENDBRANCH   4   5
ENDBRANCH   3   4
ENDBRANCH   2   3
ENDBRANCH   1   2
BRANCH   1  17
ATOM     17  C   UNL     1      -5.552  31.172  34.731  1.00  0.00     0.000 C 
BRANCH  17  18
ATOM     18  C   UNL     1      -6.677  32.050  35.308  1.00  0.00     0.000 C 
BRANCH  18  19
ATOM     19  C   UNL     1      -6.790  33.416  34.613  1.00  0.00     0.000 C 
BRANCH  19  20
ATOM     20  C   UNL     1      -7.963  34.225  35.187  1.00  0.00     0.000 C 
BRANCH  20  21
ATOM     21  C   UNL     1      -7.550  35.635  35.636  1.00  0.00     0.000 C 
BRANCH  21  22
ATOM     22  C   UNL     1      -6.029  35.777  35.820  1.00  0.00    -0.000 C 
BRANCH  22  23
ATOM     23  C   UNL     1      -5.437  36.906  34.959  1.00  0.00    -0.000 C 
BRANCH  23  24
ATOM     24  C   UNL     1      -3.929  36.742  34.721  1.00  0.00    -0.000 C 
BRANCH  24  25
ATOM     25  C   UNL     1      -3.425  37.754  33.683  1.00  0.00    -0.000 C 
BRANCH  25  26
ATOM     26  C   UNL     1      -4.035  37.536  32.286  1.00  0.00    -0.000 C 
BRANCH  26  27
ATOM     27  C   UNL     1      -3.532  36.283  31.543  1.00  0.00    -0.000 C 
BRANCH  27  28
ATOM     28  C   UNL     1      -2.557  36.558  30.380  1.00  0.00    -0.000 C 
BRANCH  28  29
ATOM     29  C   UNL     1      -2.447  38.037  29.967  1.00  0.00    -0.003 C 
ATOM     30  C   UNL     1      -1.043  38.606  30.164  1.00  0.00     0.004 C 
ENDBRANCH  28  29
ENDBRANCH  27  28
ENDBRANCH  26  27
ENDBRANCH  25  26
ENDBRANCH  24  25
ENDBRANCH  23  24
ENDBRANCH  22  23
ENDBRANCH  21  22
ENDBRANCH  20  21
ENDBRANCH  19  20
ENDBRANCH  18  19
ENDBRANCH  17  18
ENDBRANCH   1  17
TORSDOF 26
ENDMDL
MODEL 9
REMARK VINA RESULT:    -4.562      1.351      2.085
REMARK INTER + INTRA:         -13.909
REMARK INTER:                 -11.949
REMARK INTRA:                  -1.960
REMARK UNBOUND:                -2.413
REMARK SMILES CCCCCCCCCCCCCCCCCCCCCCCCCCCC(=O)[O-]
REMARK SMILES IDX 15 1 16 2 17 3 18 4 19 5 20 6 21 7 22 8 23 9 24 10 25 11
REMARK SMILES IDX 26 12 27 13 28 14 29 15 30 16 14 17 13 18 12 19 11 20 10 21
REMARK SMILES IDX 9 22 8 23 7 24 6 25 5 26 4 27 3 28 2 29 1 30
REMARK H PARENT
REMARK Flexibility Score: inf
ROOT
ATOM      1  C   UNL     1      -1.521  33.789  17.399  1.00  0.00     0.000 C 
ENDROOT
BRANCH   1   2
ATOM      2  C   UNL     1      -1.279  35.188  16.805  1.00  0.00     0.000 C 
BRANCH   2   3
ATOM      3  C   UNL     1       0.108  35.335  16.152  1.00  0.00     0.000 C 
BRANCH   3   4
ATOM      4  C   UNL     1       1.117  36.193  16.939  1.00  0.00     0.000 C 
BRANCH   4   5
ATOM      5  C   UNL     1       0.527  37.536  17.408  1.00  0.00     0.000 C 
BRANCH   5   6
ATOM      6  C   UNL     1      -0.170  38.309  16.277  1.00  0.00     0.000 C 
BRANCH   6   7
ATOM      7  C   UNL     1      -1.533  38.880  16.707  1.00  0.00     0.000 C 
BRANCH   7   8
ATOM      8  C   UNL     1      -1.814  38.687  18.209  1.00  0.00     0.000 C 
BRANCH   8   9
ATOM      9  C   UNL     1      -3.000  37.761  18.541  1.00  0.00     0.000 C 
BRANCH   9  10
ATOM     10  C   UNL     1      -4.132  37.842  17.502  1.00  0.00     0.000 C 
BRANCH  10  11
ATOM     11  C   UNL     1      -5.537  37.803  18.133  1.00  0.00     0.000 C 
BRANCH  11  12
ATOM     12  C   UNL     1      -5.660  38.490  19.506  1.00  0.00     0.006 C 
BRANCH  12  13
ATOM     13  C   UNL     1      -6.677  37.809  20.431  1.00  0.00     0.053 C 
BRANCH  13  14
ATOM     14  C   UNL     1      -6.025  37.392  21.711  1.00  0.00     0.041 C 
ATOM     15  O   UNL     1      -6.518  37.740  22.817  1.00  0.00    -0.550 OA
ATOM     16  O   UNL     1      -4.849  36.652  21.684  1.00  0.00    -0.550 OA
ENDBRANCH  13  14
ENDBRANCH  12  13
ENDBRANCH  11  12
ENDBRANCH  10  11
ENDBRANCH   9  10
ENDBRANCH   8   9
ENDBRANCH   7   8
ENDBRANCH   6   7
ENDBRANCH   5   6
ENDBRANCH   4   5
ENDBRANCH   3   4
ENDBRANCH   2   3
ENDBRANCH   1   2
BRANCH   1  17
ATOM     17  C   UNL     1      -0.371  32.808  17.107  1.00  0.00     0.000 C 
BRANCH  17  18
ATOM     18  C   UNL     1      -0.636  31.347  17.512  1.00  0.00     0.000 C 
BRANCH  18  19
ATOM     19  C   UNL     1       0.408  30.369  16.950  1.00  0.00     0.000 C 
BRANCH  19  20
ATOM     20  C   UNL     1       0.034  28.917  17.289  1.00  0.00     0.000 C 
BRANCH  20  21
ATOM     21  C   UNL     1       0.444  27.924  16.191  1.00  0.00     0.000 C 
BRANCH  21  22
ATOM     22  C   UNL     1      -0.564  26.773  16.026  1.00  0.00    -0.000 C 
BRANCH  22  23
ATOM     23  C   UNL     1      -0.044  25.450  16.615  1.00  0.00    -0.000 C 
BRANCH  23  24
ATOM     24  C   UNL     1      -0.947  24.256  16.277  1.00  0.00    -0.000 C 
BRANCH  24  25
ATOM     25  C   UNL     1      -1.434  23.559  17.555  1.00  0.00    -0.000 C 
BRANCH  25  26
ATOM     26  C   UNL     1      -1.451  24.493  18.778  1.00  0.00    -0.000 C 
BRANCH  26  27
ATOM     27  C   UNL     1      -1.489  23.779  20.144  1.00  0.00    -0.000 C 
BRANCH  27  28
ATOM     28  C   UNL     1      -0.971  24.612  21.334  1.00  0.00    -0.000 C 
BRANCH  28  29
ATOM     29  C   UNL     1       0.050  25.703  20.962  1.00  0.00    -0.003 C 
ATOM     30  C   UNL     1       1.482  25.176  20.884  1.00  0.00     0.004 C 
ENDBRANCH  28  29
ENDBRANCH  27  28
ENDBRANCH  26  27
ENDBRANCH  25  26
ENDBRANCH  24  25
ENDBRANCH  23  24
ENDBRANCH  22  23
ENDBRANCH  21  22
ENDBRANCH  20  21
ENDBRANCH  19  20
ENDBRANCH  18  19
ENDBRANCH  17  18
ENDBRANCH   1  17
TORSDOF 26
ENDMDL
