MODEL 1
REMARK VINA RESULT:    -4.543      0.000      0.000
REMARK INTER + INTRA:          -5.494
REMARK INTER:                  -5.339
REMARK INTRA:                  -0.154
REMARK UNBOUND:                -0.154
REMARK SMILES O=c1c(O)c(-c2ccc(O)cc2)oc2cc(O)cc(O)c12
REMARK SMILES IDX 5 1 3 2 2 3 1 4 21 5 19 6 18 7 16 8 15 9 14 10 13 11 6 12
REMARK SMILES IDX 7 13 8 14 9 15 12 16 11 17 10 18 4 20 20 22 17 24
REMARK H PARENT 10 19 4 21 20 23 17 25
REMARK Flexibility Score: inf
ROOT
ATOM      1  C   UNL     1     157.258 159.738 156.629  1.00  0.00     0.180 A 
ATOM      2  C   UNL     1     156.815 159.035 155.495  1.00  0.00     0.208 A 
ATOM      3  C   UNL     1     156.459 157.684 155.627  1.00  0.00     0.238 A 
ATOM      4  O   UNL     1     156.117 157.046 154.598  1.00  0.00    -0.285 OA
ATOM      5  C   UNL     1     156.535 157.056 156.893  1.00  0.00     0.111 A 
ATOM      6  C   UNL     1     156.162 155.702 157.150  1.00  0.00     0.134 A 
ATOM      7  C   UNL     1     156.402 155.148 158.414  1.00  0.00     0.093 A 
ATOM      8  C   UNL     1     156.942 155.918 159.448  1.00  0.00     0.123 A 
ATOM      9  C   UNL     1     157.254 157.256 159.224  1.00  0.00     0.094 A 
ATOM     10  C   UNL     1     157.059 157.828 157.963  1.00  0.00     0.146 A 
ATOM     11  O   UNL     1     157.380 159.104 157.789  1.00  0.00    -0.452 OA
ENDROOT
BRANCH   1  12
ATOM     12  C   UNL     1     157.625 161.171 156.574  1.00  0.00     0.021 A 
ATOM     13  C   UNL     1     158.936 161.562 156.898  1.00  0.00     0.016 A 
ATOM     14  C   UNL     1     159.299 162.912 156.874  1.00  0.00     0.047 A 
ATOM     15  C   UNL     1     158.355 163.889 156.543  1.00  0.00     0.115 A 
ATOM     16  C   UNL     1     156.675 162.161 156.262  1.00  0.00     0.016 A 
ATOM     17  C   UNL     1     157.041 163.511 156.239  1.00  0.00     0.047 A 
BRANCH  15  18
ATOM     18  O   UNL     1     158.732 165.230 156.522  1.00  0.00    -0.508 OA
ATOM     19  H   UNL     1     159.707 165.506 156.516  1.00  0.00     0.293 HD
ENDBRANCH  15  18
ENDBRANCH   1  12
BRANCH   2  20
ATOM     20  O   UNL     1     156.768 159.669 154.249  1.00  0.00    -0.502 OA
ATOM     21  H   UNL     1     156.422 160.613 154.132  1.00  0.00     0.293 HD
ENDBRANCH   2  20
BRANCH   6  22
ATOM     22  O   UNL     1     155.533 154.875 156.216  1.00  0.00    -0.507 OA
ATOM     23  H   UNL     1     154.827 155.180 155.563  1.00  0.00     0.293 HD
ENDBRANCH   6  22
BRANCH   8  24
ATOM     24  O   UNL     1     157.162 155.363 160.706  1.00  0.00    -0.508 OA
ATOM     25  H   UNL     1     156.975 154.385 160.895  1.00  0.00     0.293 HD
ENDBRANCH   8  24
TORSDOF 5
ENDMDL
MODEL 2
REMARK VINA RESULT:    -4.485      0.205      1.072
REMARK INTER + INTRA:          -5.425
REMARK INTER:                  -5.237
REMARK INTRA:                  -0.188
REMARK UNBOUND:                -0.154
REMARK SMILES O=c1c(O)c(-c2ccc(O)cc2)oc2cc(O)cc(O)c12
REMARK SMILES IDX 5 1 3 2 2 3 1 4 21 5 19 6 18 7 16 8 15 9 14 10 13 11 6 12
REMARK SMILES IDX 7 13 8 14 9 15 12 16 11 17 10 18 4 20 20 22 17 24
REMARK H PARENT 10 19 4 21 20 23 17 25
REMARK Flexibility Score: inf
ROOT
ATOM      1  C   UNL     1     157.430 159.699 156.642  1.00  0.00     0.180 A 
ATOM      2  C   UNL     1     156.976 158.986 155.518  1.00  0.00     0.208 A 
ATOM      3  C   UNL     1     156.584 157.647 155.673  1.00  0.00     0.238 A 
ATOM      4  O   UNL     1     156.231 156.999 154.654  1.00  0.00    -0.285 OA
ATOM      5  C   UNL     1     156.633 157.042 156.952  1.00  0.00     0.111 A 
ATOM      6  C   UNL     1     156.222 155.704 157.233  1.00  0.00     0.134 A 
ATOM      7  C   UNL     1     156.438 155.169 158.508  1.00  0.00     0.093 A 
ATOM      8  C   UNL     1     156.991 155.944 159.531  1.00  0.00     0.123 A 
ATOM      9  C   UNL     1     157.340 157.269 159.283  1.00  0.00     0.094 A 
ATOM     10  C   UNL     1     157.170 157.821 158.011  1.00  0.00     0.146 A 
ATOM     11  O   UNL     1     157.527 159.084 157.815  1.00  0.00    -0.452 OA
ENDROOT
BRANCH   1  12
ATOM     12  C   UNL     1     157.836 161.120 156.562  1.00  0.00     0.021 A 
ATOM     13  C   UNL     1     156.860 162.105 156.331  1.00  0.00     0.016 A 
ATOM     14  C   UNL     1     157.224 163.452 156.229  1.00  0.00     0.047 A 
ATOM     15  C   UNL     1     158.566 163.829 156.342  1.00  0.00     0.115 A 
ATOM     16  C   UNL     1     159.186 161.504 156.653  1.00  0.00     0.016 A 
ATOM     17  C   UNL     1     159.547 162.852 156.551  1.00  0.00     0.047 A 
BRANCH  15  18
ATOM     18  O   UNL     1     158.913 165.174 156.239  1.00  0.00    -0.508 OA
ATOM     19  H   UNL     1     159.477 165.630 156.947  1.00  0.00     0.293 HD
ENDBRANCH  15  18
ENDBRANCH   1  12
BRANCH   2  20
ATOM     20  O   UNL     1     156.955 159.596 154.260  1.00  0.00    -0.502 OA
ATOM     21  H   UNL     1     156.771 159.080 153.408  1.00  0.00     0.293 HD
ENDBRANCH   2  20
BRANCH   6  22
ATOM     22  O   UNL     1     155.577 154.876 156.309  1.00  0.00    -0.507 OA
ATOM     23  H   UNL     1     154.726 154.366 156.491  1.00  0.00     0.293 HD
ENDBRANCH   6  22
BRANCH   8  24
ATOM     24  O   UNL     1     157.188 155.408 160.802  1.00  0.00    -0.508 OA
ATOM     25  H   UNL     1     157.433 154.433 160.934  1.00  0.00     0.293 HD
ENDBRANCH   8  24
TORSDOF 5
ENDMDL
MODEL 3
REMARK VINA RESULT:    -4.439      1.094      1.293
REMARK INTER + INTRA:          -5.371
REMARK INTER:                  -5.129
REMARK INTRA:                  -0.242
REMARK UNBOUND:                -0.154
REMARK SMILES O=c1c(O)c(-c2ccc(O)cc2)oc2cc(O)cc(O)c12
REMARK SMILES IDX 5 1 3 2 2 3 1 4 21 5 19 6 18 7 16 8 15 9 14 10 13 11 6 12
REMARK SMILES IDX 7 13 8 14 9 15 12 16 11 17 10 18 4 20 20 22 17 24
REMARK H PARENT 10 19 4 21 20 23 17 25
REMARK Flexibility Score: inf
ROOT
ATOM      1  C   UNL     1     156.183 160.004 156.219  1.00  0.00     0.180 A 
ATOM      2  C   UNL     1     155.797 159.192 155.137  1.00  0.00     0.208 A 
ATOM      3  C   UNL     1     155.755 157.800 155.311  1.00  0.00     0.238 A 
ATOM      4  O   UNL     1     155.462 157.077 154.325  1.00  0.00    -0.285 OA
ATOM      5  C   UNL     1     156.084 157.237 156.568  1.00  0.00     0.111 A 
ATOM      6  C   UNL     1     156.037 155.842 156.868  1.00  0.00     0.134 A 
ATOM      7  C   UNL     1     156.509 155.387 158.105  1.00  0.00     0.093 A 
ATOM      8  C   UNL     1     156.965 156.281 159.077  1.00  0.00     0.123 A 
ATOM      9  C   UNL     1     156.958 157.649 158.815  1.00  0.00     0.094 A 
ATOM     10  C   UNL     1     156.527 158.132 157.577  1.00  0.00     0.146 A 
ATOM     11  O   UNL     1     156.548 159.442 157.365  1.00  0.00    -0.452 OA
ENDROOT
BRANCH   1  12
ATOM     12  C   UNL     1     156.225 161.481 156.120  1.00  0.00     0.021 A 
ATOM     13  C   UNL     1     157.468 162.135 156.093  1.00  0.00     0.016 A 
ATOM     14  C   UNL     1     157.532 163.531 156.023  1.00  0.00     0.047 A 
ATOM     15  C   UNL     1     156.358 164.289 155.992  1.00  0.00     0.115 A 
ATOM     16  C   UNL     1     155.047 162.250 156.110  1.00  0.00     0.016 A 
ATOM     17  C   UNL     1     155.115 163.645 156.039  1.00  0.00     0.047 A 
BRANCH  15  18
ATOM     18  O   UNL     1     156.437 165.678 155.921  1.00  0.00    -0.508 OA
ATOM     19  H   UNL     1     155.826 166.212 155.314  1.00  0.00     0.293 HD
ENDBRANCH  15  18
ENDBRANCH   1  12
BRANCH   2  20
ATOM     20  O   UNL     1     155.497 159.768 153.899  1.00  0.00    -0.502 OA
ATOM     21  H   UNL     1     156.091 159.651 153.087  1.00  0.00     0.293 HD
ENDBRANCH   2  20
BRANCH   6  22
ATOM     22  O   UNL     1     155.516 154.875 156.004  1.00  0.00    -0.507 OA
ATOM     23  H   UNL     1     154.551 154.826 155.712  1.00  0.00     0.293 HD
ENDBRANCH   6  22
BRANCH   8  24
ATOM     24  O   UNL     1     157.418 155.820 160.311  1.00  0.00    -0.508 OA
ATOM     25  H   UNL     1     157.482 154.830 160.516  1.00  0.00     0.293 HD
ENDBRANCH   8  24
TORSDOF 5
ENDMDL
MODEL 4
REMARK VINA RESULT:    -4.293      6.098      8.883
REMARK INTER + INTRA:          -5.200
REMARK INTER:                  -4.915
REMARK INTRA:                  -0.286
REMARK UNBOUND:                -0.154
REMARK SMILES O=c1c(O)c(-c2ccc(O)cc2)oc2cc(O)cc(O)c12
REMARK SMILES IDX 5 1 3 2 2 3 1 4 21 5 19 6 18 7 16 8 15 9 14 10 13 11 6 12
REMARK SMILES IDX 7 13 8 14 9 15 12 16 11 17 10 18 4 20 20 22 17 24
REMARK H PARENT 10 19 4 21 20 23 17 25
REMARK Flexibility Score: inf
ROOT
ATOM      1  C   UNL     1     159.486 166.244 159.525  1.00  0.00     0.180 A 
ATOM      2  C   UNL     1     160.619 167.060 159.356  1.00  0.00     0.208 A 
ATOM      3  C   UNL     1     161.708 166.569 158.618  1.00  0.00     0.238 A 
ATOM      4  O   UNL     1     162.739 167.282 158.516  1.00  0.00    -0.285 OA
ATOM      5  C   UNL     1     161.645 165.276 158.045  1.00  0.00     0.111 A 
ATOM      6  C   UNL     1     162.673 164.693 157.245  1.00  0.00     0.134 A 
ATOM      7  C   UNL     1     162.559 163.357 156.840  1.00  0.00     0.093 A 
ATOM      8  C   UNL     1     161.424 162.604 157.151  1.00  0.00     0.123 A 
ATOM      9  C   UNL     1     160.389 163.183 157.881  1.00  0.00     0.094 A 
ATOM     10  C   UNL     1     160.489 164.502 158.330  1.00  0.00     0.146 A 
ATOM     11  O   UNL     1     159.484 165.012 159.032  1.00  0.00    -0.452 OA
ENDROOT
BRANCH   1  12
ATOM     12  C   UNL     1     158.290 166.702 160.268  1.00  0.00     0.021 A 
ATOM     13  C   UNL     1     158.229 166.517 161.660  1.00  0.00     0.016 A 
ATOM     14  C   UNL     1     157.099 166.921 162.379  1.00  0.00     0.047 A 
ATOM     15  C   UNL     1     156.013 167.501 161.716  1.00  0.00     0.115 A 
ATOM     16  C   UNL     1     157.185 167.266 159.604  1.00  0.00     0.016 A 
ATOM     17  C   UNL     1     156.057 167.669 160.326  1.00  0.00     0.047 A 
BRANCH  15  18
ATOM     18  O   UNL     1     154.895 167.899 162.445  1.00  0.00    -0.508 OA
ATOM     19  H   UNL     1     154.757 167.606 163.405  1.00  0.00     0.293 HD
ENDBRANCH  15  18
ENDBRANCH   1  12
BRANCH   2  20
ATOM     20  O   UNL     1     160.669 168.325 159.948  1.00  0.00    -0.502 OA
ATOM     21  H   UNL     1     160.770 169.176 159.406  1.00  0.00     0.293 HD
ENDBRANCH   2  20
BRANCH   6  22
ATOM     22  O   UNL     1     163.804 165.385 156.802  1.00  0.00    -0.507 OA
ATOM     23  H   UNL     1     163.781 166.225 156.244  1.00  0.00     0.293 HD
ENDBRANCH   6  22
BRANCH   8  24
ATOM     24  O   UNL     1     161.311 161.281 156.730  1.00  0.00    -0.508 OA
ATOM     25  H   UNL     1     160.550 160.977 156.134  1.00  0.00     0.293 HD
ENDBRANCH   8  24
TORSDOF 5
ENDMDL
MODEL 5
REMARK VINA RESULT:    -4.245      1.896      3.609
REMARK INTER + INTRA:          -5.144
REMARK INTER:                  -4.849
REMARK INTRA:                  -0.295
REMARK UNBOUND:                -0.154
REMARK SMILES O=c1c(O)c(-c2ccc(O)cc2)oc2cc(O)cc(O)c12
REMARK SMILES IDX 5 1 3 2 2 3 1 4 21 5 19 6 18 7 16 8 15 9 14 10 13 11 6 12
REMARK SMILES IDX 7 13 8 14 9 15 12 16 11 17 10 18 4 20 20 22 17 24
REMARK H PARENT 10 19 4 21 20 23 17 25
REMARK Flexibility Score: inf
ROOT
ATOM      1  C   UNL     1     157.144 160.207 156.095  1.00  0.00     0.180 A 
ATOM      2  C   UNL     1     156.392 159.441 157.002  1.00  0.00     0.208 A 
ATOM      3  C   UNL     1     156.031 158.131 156.653  1.00  0.00     0.238 A 
ATOM      4  O   UNL     1     155.312 157.470 157.446  1.00  0.00    -0.285 OA
ATOM      5  C   UNL     1     156.440 157.596 155.407  1.00  0.00     0.111 A 
ATOM      6  C   UNL     1     156.165 156.267 154.966  1.00  0.00     0.134 A 
ATOM      7  C   UNL     1     156.505 155.888 153.662  1.00  0.00     0.093 A 
ATOM      8  C   UNL     1     157.169 156.770 152.805  1.00  0.00     0.123 A 
ATOM      9  C   UNL     1     157.494 158.049 153.247  1.00  0.00     0.094 A 
ATOM     10  C   UNL     1     157.136 158.469 154.531  1.00  0.00     0.146 A 
ATOM     11  O   UNL     1     157.456 159.701 154.908  1.00  0.00    -0.452 OA
ENDROOT
BRANCH   1  12
ATOM     12  C   UNL     1     157.584 161.587 156.403  1.00  0.00     0.021 A 
ATOM     13  C   UNL     1     156.839 162.675 155.917  1.00  0.00     0.016 A 
ATOM     14  C   UNL     1     157.249 163.987 156.177  1.00  0.00     0.047 A 
ATOM     15  C   UNL     1     158.413 164.228 156.912  1.00  0.00     0.115 A 
ATOM     16  C   UNL     1     158.767 161.837 157.124  1.00  0.00     0.016 A 
ATOM     17  C   UNL     1     159.173 163.149 157.383  1.00  0.00     0.047 A 
BRANCH  15  18
ATOM     18  O   UNL     1     158.808 165.540 157.165  1.00  0.00    -0.508 OA
ATOM     19  H   UNL     1     158.129 166.279 157.304  1.00  0.00     0.293 HD
ENDBRANCH  15  18
ENDBRANCH   1  12
BRANCH   2  20
ATOM     20  O   UNL     1     155.980 159.996 158.218  1.00  0.00    -0.502 OA
ATOM     21  H   UNL     1     155.009 160.018 158.505  1.00  0.00     0.293 HD
ENDBRANCH   2  20
BRANCH   6  22
ATOM     22  O   UNL     1     155.589 155.281 155.773  1.00  0.00    -0.507 OA
ATOM     23  H   UNL     1     155.830 155.116 156.739  1.00  0.00     0.293 HD
ENDBRANCH   6  22
BRANCH   8  24
ATOM     24  O   UNL     1     157.517 156.379 151.514  1.00  0.00    -0.508 OA
ATOM     25  H   UNL     1     158.222 156.877 150.982  1.00  0.00     0.293 HD
ENDBRANCH   8  24
TORSDOF 5
ENDMDL
MODEL 6
REMARK VINA RESULT:    -4.201      7.014      9.295
REMARK INTER + INTRA:          -5.092
REMARK INTER:                  -4.809
REMARK INTRA:                  -0.283
REMARK UNBOUND:                -0.154
REMARK SMILES O=c1c(O)c(-c2ccc(O)cc2)oc2cc(O)cc(O)c12
REMARK SMILES IDX 5 1 3 2 2 3 1 4 21 5 19 6 18 7 16 8 15 9 14 10 13 11 6 12
REMARK SMILES IDX 7 13 8 14 9 15 12 16 11 17 10 18 4 20 20 22 17 24
REMARK H PARENT 10 19 4 21 20 23 17 25
REMARK Flexibility Score: inf
ROOT
ATOM      1  C   UNL     1     160.077 165.879 158.993  1.00  0.00     0.180 A 
ATOM      2  C   UNL     1     160.181 164.538 158.580  1.00  0.00     0.208 A 
ATOM      3  C   UNL     1     161.427 164.050 158.159  1.00  0.00     0.238 A 
ATOM      4  O   UNL     1     161.503 162.867 157.739  1.00  0.00    -0.285 OA
ATOM      5  C   UNL     1     162.558 164.903 158.170  1.00  0.00     0.111 A 
ATOM      6  C   UNL     1     163.878 164.503 157.801  1.00  0.00     0.134 A 
ATOM      7  C   UNL     1     164.894 165.464 157.725  1.00  0.00     0.093 A 
ATOM      8  C   UNL     1     164.653 166.797 158.067  1.00  0.00     0.123 A 
ATOM      9  C   UNL     1     163.382 167.185 158.485  1.00  0.00     0.094 A 
ATOM     10  C   UNL     1     162.339 166.256 158.537  1.00  0.00     0.146 A 
ATOM     11  O   UNL     1     161.141 166.670 158.930  1.00  0.00    -0.452 OA
ENDROOT
BRANCH   1  12
ATOM     12  C   UNL     1     158.802 166.457 159.476  1.00  0.00     0.021 A 
ATOM     13  C   UNL     1     158.507 166.430 160.850  1.00  0.00     0.016 A 
ATOM     14  C   UNL     1     157.299 166.950 161.325  1.00  0.00     0.047 A 
ATOM     15  C   UNL     1     156.367 167.490 160.435  1.00  0.00     0.115 A 
ATOM     16  C   UNL     1     157.850 166.983 158.583  1.00  0.00     0.016 A 
ATOM     17  C   UNL     1     156.643 167.503 159.062  1.00  0.00     0.047 A 
BRANCH  15  18
ATOM     18  O   UNL     1     155.168 168.006 160.923  1.00  0.00    -0.508 OA
ATOM     19  H   UNL     1     154.317 167.977 160.374  1.00  0.00     0.293 HD
ENDBRANCH  15  18
ENDBRANCH   1  12
BRANCH   2  20
ATOM     20  O   UNL     1     159.048 163.720 158.557  1.00  0.00    -0.502 OA
ATOM     21  H   UNL     1     158.517 163.501 159.391  1.00  0.00     0.293 HD
ENDBRANCH   2  20
BRANCH   6  22
ATOM     22  O   UNL     1     164.246 163.183 157.529  1.00  0.00    -0.507 OA
ATOM     23  H   UNL     1     164.404 162.474 158.231  1.00  0.00     0.293 HD
ENDBRANCH   6  22
BRANCH   8  24
ATOM     24  O   UNL     1     165.673 167.743 158.003  1.00  0.00    -0.508 OA
ATOM     25  H   UNL     1     166.404 167.783 158.705  1.00  0.00     0.293 HD
ENDBRANCH   8  24
TORSDOF 5
ENDMDL
MODEL 7
REMARK VINA RESULT:    -4.173      3.413      5.925
REMARK INTER + INTRA:          -5.059
REMARK INTER:                  -4.762
REMARK INTRA:                  -0.297
REMARK UNBOUND:                -0.154
REMARK SMILES O=c1c(O)c(-c2ccc(O)cc2)oc2cc(O)cc(O)c12
REMARK SMILES IDX 5 1 3 2 2 3 1 4 21 5 19 6 18 7 16 8 15 9 14 10 13 11 6 12
REMARK SMILES IDX 7 13 8 14 9 15 12 16 11 17 10 18 4 20 20 22 17 24
REMARK H PARENT 10 19 4 21 20 23 17 25
REMARK Flexibility Score: inf
ROOT
ATOM      1  C   UNL     1     156.204 157.374 153.495  1.00  0.00     0.180 A 
ATOM      2  C   UNL     1     155.990 156.205 154.246  1.00  0.00     0.208 A 
ATOM      3  C   UNL     1     156.054 156.273 155.647  1.00  0.00     0.238 A 
ATOM      4  O   UNL     1     155.916 155.213 156.311  1.00  0.00    -0.285 OA
ATOM      5  C   UNL     1     156.314 157.512 156.280  1.00  0.00     0.111 A 
ATOM      6  C   UNL     1     156.362 157.706 157.694  1.00  0.00     0.134 A 
ATOM      7  C   UNL     1     156.758 158.947 158.207  1.00  0.00     0.093 A 
ATOM      8  C   UNL     1     157.044 160.020 157.360  1.00  0.00     0.123 A 
ATOM      9  C   UNL     1     156.943 159.858 155.981  1.00  0.00     0.094 A 
ATOM     10  C   UNL     1     156.585 158.621 155.436  1.00  0.00     0.146 A 
ATOM     11  O   UNL     1     156.511 158.507 154.116  1.00  0.00    -0.452 OA
ENDROOT
BRANCH   1  12
ATOM     12  C   UNL     1     156.127 157.386 152.017  1.00  0.00     0.021 A 
ATOM     13  C   UNL     1     157.296 157.190 151.263  1.00  0.00     0.016 A 
ATOM     14  C   UNL     1     157.251 157.219 149.865  1.00  0.00     0.047 A 
ATOM     15  C   UNL     1     156.042 157.459 149.205  1.00  0.00     0.115 A 
ATOM     16  C   UNL     1     154.917 157.648 151.347  1.00  0.00     0.016 A 
ATOM     17  C   UNL     1     154.875 157.676 149.949  1.00  0.00     0.047 A 
BRANCH  15  18
ATOM     18  O   UNL     1     156.012 157.485 147.813  1.00  0.00    -0.508 OA
ATOM     19  H   UNL     1     155.145 157.370 147.300  1.00  0.00     0.293 HD
ENDBRANCH  15  18
ENDBRANCH   1  12
BRANCH   2  20
ATOM     20  O   UNL     1     155.755 154.987 153.600  1.00  0.00    -0.502 OA
ATOM     21  H   UNL     1     156.403 154.594 152.929  1.00  0.00     0.293 HD
ENDBRANCH   2  20
BRANCH   6  22
ATOM     22  O   UNL     1     156.008 156.728 158.628  1.00  0.00    -0.507 OA
ATOM     23  H   UNL     1     156.034 156.853 159.628  1.00  0.00     0.293 HD
ENDBRANCH   6  22
BRANCH   8  24
ATOM     24  O   UNL     1     157.422 161.256 157.880  1.00  0.00    -0.508 OA
ATOM     25  H   UNL     1     157.531 162.070 157.286  1.00  0.00     0.293 HD
ENDBRANCH   8  24
TORSDOF 5
ENDMDL
MODEL 8
REMARK VINA RESULT:    -4.060      5.132      9.818
REMARK INTER + INTRA:          -4.926
REMARK INTER:                  -4.769
REMARK INTRA:                  -0.157
REMARK UNBOUND:                -0.154
REMARK SMILES O=c1c(O)c(-c2ccc(O)cc2)oc2cc(O)cc(O)c12
REMARK SMILES IDX 5 1 3 2 2 3 1 4 21 5 19 6 18 7 16 8 15 9 14 10 13 11 6 12
REMARK SMILES IDX 7 13 8 14 9 15 12 16 11 17 10 18 4 20 20 22 17 24
REMARK H PARENT 10 19 4 21 20 23 17 25
REMARK Flexibility Score: inf
ROOT
ATOM      1  C   UNL     1     159.938 165.579 158.979  1.00  0.00     0.180 A 
ATOM      2  C   UNL     1     160.771 166.689 158.751  1.00  0.00     0.208 A 
ATOM      3  C   UNL     1     160.599 167.842 159.532  1.00  0.00     0.238 A 
ATOM      4  O   UNL     1     161.310 168.850 159.287  1.00  0.00    -0.285 OA
ATOM      5  C   UNL     1     159.606 167.867 160.542  1.00  0.00     0.111 A 
ATOM      6  C   UNL     1     159.370 168.968 161.419  1.00  0.00     0.134 A 
ATOM      7  C   UNL     1     158.276 168.931 162.293  1.00  0.00     0.093 A 
ATOM      8  C   UNL     1     157.449 167.807 162.367  1.00  0.00     0.123 A 
ATOM      9  C   UNL     1     157.708 166.705 161.557  1.00  0.00     0.094 A 
ATOM     10  C   UNL     1     158.770 166.725 160.649  1.00  0.00     0.146 A 
ATOM     11  O   UNL     1     158.974 165.657 159.888  1.00  0.00    -0.452 OA
ENDROOT
BRANCH   1  12
ATOM     12  C   UNL     1     160.078 164.319 158.213  1.00  0.00     0.021 A 
ATOM     13  C   UNL     1     159.004 163.866 157.428  1.00  0.00     0.016 A 
ATOM     14  C   UNL     1     159.106 162.667 156.714  1.00  0.00     0.047 A 
ATOM     15  C   UNL     1     160.273 161.901 156.788  1.00  0.00     0.115 A 
ATOM     16  C   UNL     1     161.241 163.533 158.300  1.00  0.00     0.016 A 
ATOM     17  C   UNL     1     161.340 162.335 157.585  1.00  0.00     0.047 A 
BRANCH  15  18
ATOM     18  O   UNL     1     160.360 160.709 156.071  1.00  0.00    -0.508 OA
ATOM     19  H   UNL     1     161.255 160.315 155.807  1.00  0.00     0.293 HD
ENDBRANCH  15  18
ENDBRANCH   1  12
BRANCH   2  20
ATOM     20  O   UNL     1     161.731 166.651 157.735  1.00  0.00    -0.502 OA
ATOM     21  H   UNL     1     162.716 166.513 157.922  1.00  0.00     0.293 HD
ENDBRANCH   2  20
BRANCH   6  22
ATOM     22  O   UNL     1     160.188 170.098 161.491  1.00  0.00    -0.507 OA
ATOM     23  H   UNL     1     160.742 170.456 160.727  1.00  0.00     0.293 HD
ENDBRANCH   6  22
BRANCH   8  24
ATOM     24  O   UNL     1     156.373 167.774 163.250  1.00  0.00    -0.508 OA
ATOM     25  H   UNL     1     156.412 168.235 164.152  1.00  0.00     0.293 HD
ENDBRANCH   8  24
TORSDOF 5
ENDMDL
MODEL 9
REMARK VINA RESULT:    -4.048      2.633      6.889
REMARK INTER + INTRA:          -4.912
REMARK INTER:                  -4.697
REMARK INTRA:                  -0.216
REMARK UNBOUND:                -0.154
REMARK SMILES O=c1c(O)c(-c2ccc(O)cc2)oc2cc(O)cc(O)c12
REMARK SMILES IDX 5 1 3 2 2 3 1 4 21 5 19 6 18 7 16 8 15 9 14 10 13 11 6 12
REMARK SMILES IDX 7 13 8 14 9 15 12 16 11 17 10 18 4 20 20 22 17 24
REMARK H PARENT 10 19 4 21 20 23 17 25
REMARK Flexibility Score: inf
ROOT
ATOM      1  C   UNL     1     156.054 159.508 156.062  1.00  0.00     0.180 A 
ATOM      2  C   UNL     1     155.503 160.722 156.507  1.00  0.00     0.208 A 
ATOM      3  C   UNL     1     155.348 161.776 155.593  1.00  0.00     0.238 A 
ATOM      4  O   UNL     1     154.905 162.877 156.010  1.00  0.00    -0.285 OA
ATOM      5  C   UNL     1     155.730 161.598 154.241  1.00  0.00     0.111 A 
ATOM      6  C   UNL     1     155.580 162.584 153.220  1.00  0.00     0.134 A 
ATOM      7  C   UNL     1     156.113 162.345 151.947  1.00  0.00     0.093 A 
ATOM      8  C   UNL     1     156.732 161.131 151.641  1.00  0.00     0.123 A 
ATOM      9  C   UNL     1     156.830 160.140 152.614  1.00  0.00     0.094 A 
ATOM     10  C   UNL     1     156.340 160.362 153.904  1.00  0.00     0.146 A 
ATOM     11  O   UNL     1     156.464 159.394 154.804  1.00  0.00    -0.452 OA
ENDROOT
BRANCH   1  12
ATOM     12  C   UNL     1     156.225 158.344 156.961  1.00  0.00     0.021 A 
ATOM     13  C   UNL     1     157.269 158.345 157.902  1.00  0.00     0.016 A 
ATOM     14  C   UNL     1     157.463 157.246 158.746  1.00  0.00     0.047 A 
ATOM     15  C   UNL     1     156.628 156.130 158.650  1.00  0.00     0.115 A 
ATOM     16  C   UNL     1     155.401 157.208 156.856  1.00  0.00     0.016 A 
ATOM     17  C   UNL     1     155.598 156.111 157.701  1.00  0.00     0.047 A 
BRANCH  15  18
ATOM     18  O   UNL     1     156.832 155.043 159.498  1.00  0.00    -0.508 OA
ATOM     19  H   UNL     1     156.156 154.292 159.567  1.00  0.00     0.293 HD
ENDBRANCH  15  18
ENDBRANCH   1  12
BRANCH   2  20
ATOM     20  O   UNL     1     155.152 160.884 157.851  1.00  0.00    -0.502 OA
ATOM     21  H   UNL     1     155.706 161.435 158.496  1.00  0.00     0.293 HD
ENDBRANCH   2  20
BRANCH   6  22
ATOM     22  O   UNL     1     154.899 163.791 153.395  1.00  0.00    -0.507 OA
ATOM     23  H   UNL     1     155.000 164.600 152.801  1.00  0.00     0.293 HD
ENDBRANCH   6  22
BRANCH   8  24
ATOM     24  O   UNL     1     157.245 160.896 150.367  1.00  0.00    -0.508 OA
ATOM     25  H   UNL     1     156.957 160.094 149.819  1.00  0.00     0.293 HD
ENDBRANCH   8  24
TORSDOF 5
ENDMDL
