MODEL 1
REMARK VINA RESULT:    -5.482      0.000      0.000
REMARK INTER + INTRA:         -15.833
REMARK INTER:                 -12.533
REMARK INTRA:                  -3.300
REMARK UNBOUND:                -3.300
REMARK SMILES CCCCCCCCCCCCCCCCCCCCCCCC(=O)[O-]
REMARK SMILES IDX 13 1 14 2 15 3 16 4 17 5 18 6 19 7 20 8 21 9 22 10 23 11
REMARK SMILES IDX 24 12 25 13 26 14 12 15 11 16 10 17 9 18 8 19 7 20 6 21 5 22
REMARK SMILES IDX 4 23 3 24 2 25 1 26
REMARK H PARENT
REMARK Flexibility Score: inf
ROOT
ATOM      1  C   UNL     1      -9.895 -18.937  31.015  1.00  0.00     0.000 C 
ENDROOT
BRANCH   1   2
ATOM      2  C   UNL     1     -10.129 -18.754  29.505  1.00  0.00     0.000 C 
BRANCH   2   3
ATOM      3  C   UNL     1     -11.621 -18.694  29.135  1.00  0.00     0.000 C 
BRANCH   3   4
ATOM      4  C   UNL     1     -11.941 -17.567  28.139  1.00  0.00     0.000 C 
BRANCH   4   5
ATOM      5  C   UNL     1     -10.838 -16.504  27.972  1.00  0.00     0.000 C 
BRANCH   5   6
ATOM      6  C   UNL     1     -11.068 -15.540  26.788  1.00  0.00     0.000 C 
BRANCH   6   7
ATOM      7  C   UNL     1      -9.754 -15.155  26.082  1.00  0.00     0.000 C 
BRANCH   7   8
ATOM      8  C   UNL     1      -8.530 -15.284  27.010  1.00  0.00     0.000 C 
BRANCH   8   9
ATOM      9  C   UNL     1      -7.350 -14.378  26.611  1.00  0.00     0.000 C 
BRANCH   9  10
ATOM     10  C   UNL     1      -6.375 -14.139  27.778  1.00  0.00     0.006 C 
BRANCH  10  11
ATOM     11  C   UNL     1      -5.046 -14.883  27.586  1.00  0.00     0.053 C 
BRANCH  11  12
ATOM     12  C   UNL     1      -4.003 -14.427  28.562  1.00  0.00     0.041 C 
ATOM     13  O   UNL     1      -3.961 -13.222  28.927  1.00  0.00    -0.550 OA
ATOM     14  O   UNL     1      -3.055 -15.325  29.037  1.00  0.00    -0.550 OA
ENDBRANCH  11  12
ENDBRANCH  10  11
ENDBRANCH   9  10
ENDBRANCH   8   9
ENDBRANCH   7   8
ENDBRANCH   6   7
ENDBRANCH   5   6
ENDBRANCH   4   5
ENDBRANCH   3   4
ENDBRANCH   2   3
ENDBRANCH   1   2
BRANCH   1  15
ATOM     15  C   UNL     1     -11.175 -19.021  31.871  1.00  0.00     0.000 C 
BRANCH  15  16
ATOM     16  C   UNL     1     -11.509 -17.750  32.676  1.00  0.00     0.000 C 
BRANCH  16  17
ATOM     17  C   UNL     1     -12.324 -16.686  31.913  1.00  0.00     0.000 C 
BRANCH  17  18
ATOM     18  C   UNL     1     -11.490 -15.553  31.288  1.00  0.00    -0.000 C 
BRANCH  18  19
ATOM     19  C   UNL     1     -10.141 -15.343  31.992  1.00  0.00    -0.000 C 
BRANCH  19  20
ATOM     20  C   UNL     1      -8.988 -15.405  30.979  1.00  0.00    -0.000 C 
BRANCH  20  21
ATOM     21  C   UNL     1      -7.685 -15.960  31.580  1.00  0.00    -0.000 C 
BRANCH  21  22
ATOM     22  C   UNL     1      -6.455 -15.048  31.422  1.00  0.00    -0.000 C 
BRANCH  22  23
ATOM     23  C   UNL     1      -6.819 -13.617  30.996  1.00  0.00    -0.000 C 
BRANCH  23  24
ATOM     24  C   UNL     1      -6.751 -12.652  32.188  1.00  0.00    -0.000 C 
BRANCH  24  25
ATOM     25  C   UNL     1      -5.925 -11.392  31.885  1.00  0.00    -0.003 C 
ATOM     26  C   UNL     1      -4.524 -11.438  32.496  1.00  0.00     0.004 C 
ENDBRANCH  24  25
ENDBRANCH  23  24
ENDBRANCH  22  23
ENDBRANCH  21  22
ENDBRANCH  20  21
ENDBRANCH  19  20
ENDBRANCH  18  19
ENDBRANCH  17  18
ENDBRANCH  16  17
ENDBRANCH  15  16
ENDBRANCH   1  15
TORSDOF 22
ENDMDL
MODEL 2
REMARK VINA RESULT:    -5.346      1.648      5.660
REMARK INTER + INTRA:         -15.522
REMARK INTER:                 -12.935
REMARK INTRA:                  -2.587
REMARK UNBOUND:                -3.300
REMARK SMILES CCCCCCCCCCCCCCCCCCCCCCCC(=O)[O-]
REMARK SMILES IDX 13 1 14 2 15 3 16 4 17 5 18 6 19 7 20 8 21 9 22 10 23 11
REMARK SMILES IDX 24 12 25 13 26 14 12 15 11 16 10 17 9 18 8 19 7 20 6 21 5 22
REMARK SMILES IDX 4 23 3 24 2 25 1 26
REMARK H PARENT
REMARK Flexibility Score: inf
ROOT
ATOM      1  C   UNL     1      -8.853 -14.165  25.875  1.00  0.00     0.000 C 
ENDROOT
BRANCH   1   2
ATOM      2  C   UNL     1      -7.607 -14.870  26.439  1.00  0.00     0.000 C 
BRANCH   2   3
ATOM      3  C   UNL     1      -7.206 -14.351  27.830  1.00  0.00     0.000 C 
BRANCH   3   4
ATOM      4  C   UNL     1      -5.707 -14.537  28.124  1.00  0.00     0.000 C 
BRANCH   4   5
ATOM      5  C   UNL     1      -5.274 -14.207  29.566  1.00  0.00     0.000 C 
BRANCH   5   6
ATOM      6  C   UNL     1      -6.265 -14.690  30.646  1.00  0.00     0.000 C 
BRANCH   6   7
ATOM      7  C   UNL     1      -6.934 -13.522  31.394  1.00  0.00     0.000 C 
BRANCH   7   8
ATOM      8  C   UNL     1      -6.125 -12.215  31.284  1.00  0.00     0.000 C 
BRANCH   8   9
ATOM      9  C   UNL     1      -5.228 -11.934  32.505  1.00  0.00     0.000 C 
BRANCH   9  10
ATOM     10  C   UNL     1      -3.924 -11.213  32.120  1.00  0.00     0.006 C 
BRANCH  10  11
ATOM     11  C   UNL     1      -3.846 -10.915  30.616  1.00  0.00     0.053 C 
BRANCH  11  12
ATOM     12  C   UNL     1      -2.541 -10.283  30.238  1.00  0.00     0.041 C 
ATOM     13  O   UNL     1      -1.968  -9.489  31.030  1.00  0.00    -0.550 OA
ATOM     14  O   UNL     1      -1.977 -10.541  28.994  1.00  0.00    -0.550 OA
ENDBRANCH  11  12
ENDBRANCH  10  11
ENDBRANCH   9  10
ENDBRANCH   8   9
ENDBRANCH   7   8
ENDBRANCH   6   7
ENDBRANCH   5   6
ENDBRANCH   4   5
ENDBRANCH   3   4
ENDBRANCH   2   3
ENDBRANCH   1   2
BRANCH   1  15
ATOM     15  C   UNL     1     -10.150 -14.999  25.906  1.00  0.00     0.000 C 
BRANCH  15  16
ATOM     16  C   UNL     1     -10.396 -15.777  27.213  1.00  0.00     0.000 C 
BRANCH  16  17
ATOM     17  C   UNL     1     -11.856 -16.206  27.457  1.00  0.00     0.000 C 
BRANCH  17  18
ATOM     18  C   UNL     1     -12.278 -16.266  28.936  1.00  0.00    -0.000 C 
BRANCH  18  19
ATOM     19  C   UNL     1     -12.725 -17.668  29.377  1.00  0.00    -0.000 C 
BRANCH  19  20
ATOM     20  C   UNL     1     -11.738 -18.733  28.874  1.00  0.00    -0.000 C 
BRANCH  20  21
ATOM     21  C   UNL     1     -10.392 -18.706  29.619  1.00  0.00    -0.000 C 
BRANCH  21  22
ATOM     22  C   UNL     1     -10.493 -18.829  31.150  1.00  0.00    -0.000 C 
BRANCH  22  23
ATOM     23  C   UNL     1      -9.460 -17.966  31.892  1.00  0.00    -0.000 C 
BRANCH  23  24
ATOM     24  C   UNL     1      -9.542 -16.500  31.445  1.00  0.00    -0.000 C 
BRANCH  24  25
ATOM     25  C   UNL     1     -10.679 -15.731  32.136  1.00  0.00    -0.003 C 
ATOM     26  C   UNL     1     -10.439 -14.222  32.174  1.00  0.00     0.004 C 
ENDBRANCH  24  25
ENDBRANCH  23  24
ENDBRANCH  22  23
ENDBRANCH  21  22
ENDBRANCH  20  21
ENDBRANCH  19  20
ENDBRANCH  18  19
ENDBRANCH  17  18
ENDBRANCH  16  17
ENDBRANCH  15  16
ENDBRANCH   1  15
TORSDOF 22
ENDMDL
MODEL 3
REMARK VINA RESULT:    -5.186      2.468      5.587
REMARK INTER + INTRA:         -15.156
REMARK INTER:                 -12.710
REMARK INTRA:                  -2.446
REMARK UNBOUND:                -3.300
REMARK SMILES CCCCCCCCCCCCCCCCCCCCCCCC(=O)[O-]
REMARK SMILES IDX 13 1 14 2 15 3 16 4 17 5 18 6 19 7 20 8 21 9 22 10 23 11
REMARK SMILES IDX 24 12 25 13 26 14 12 15 11 16 10 17 9 18 8 19 7 20 6 21 5 22
REMARK SMILES IDX 4 23 3 24 2 25 1 26
REMARK H PARENT
REMARK Flexibility Score: inf
ROOT
ATOM      1  C   UNL     1      -6.427 -14.662  26.650  1.00  0.00     0.000 C 
ENDROOT
BRANCH   1   2
ATOM      2  C   UNL     1      -7.894 -15.123  26.591  1.00  0.00     0.000 C 
BRANCH   2   3
ATOM      3  C   UNL     1      -8.821 -14.083  25.937  1.00  0.00     0.000 C 
BRANCH   3   4
ATOM      4  C   UNL     1     -10.256 -14.603  25.747  1.00  0.00     0.000 C 
BRANCH   4   5
ATOM      5  C   UNL     1     -10.762 -15.556  26.847  1.00  0.00     0.000 C 
BRANCH   5   6
ATOM      6  C   UNL     1     -12.211 -16.045  26.637  1.00  0.00     0.000 C 
BRANCH   6   7
ATOM      7  C   UNL     1     -13.013 -16.083  27.951  1.00  0.00     0.000 C 
BRANCH   7   8
ATOM      8  C   UNL     1     -12.536 -17.200  28.899  1.00  0.00     0.000 C 
BRANCH   8   9
ATOM      9  C   UNL     1     -12.818 -16.916  30.386  1.00  0.00     0.000 C 
BRANCH   9  10
ATOM     10  C   UNL     1     -11.585 -16.361  31.121  1.00  0.00     0.006 C 
BRANCH  10  11
ATOM     11  C   UNL     1     -10.269 -16.804  30.465  1.00  0.00     0.053 C 
BRANCH  11  12
ATOM     12  C   UNL     1      -9.555 -17.836  31.284  1.00  0.00     0.041 C 
ATOM     13  O   UNL     1      -9.945 -19.034  31.273  1.00  0.00    -0.550 OA
ATOM     14  O   UNL     1      -8.484 -17.468  32.088  1.00  0.00    -0.550 OA
ENDBRANCH  11  12
ENDBRANCH  10  11
ENDBRANCH   9  10
ENDBRANCH   8   9
ENDBRANCH   7   8
ENDBRANCH   6   7
ENDBRANCH   5   6
ENDBRANCH   4   5
ENDBRANCH   3   4
ENDBRANCH   2   3
ENDBRANCH   1   2
BRANCH   1  15
ATOM     15  C   UNL     1      -5.830 -14.555  28.068  1.00  0.00     0.000 C 
BRANCH  15  16
ATOM     16  C   UNL     1      -6.710 -13.815  29.094  1.00  0.00     0.000 C 
BRANCH  16  17
ATOM     17  C   UNL     1      -7.222 -14.679  30.264  1.00  0.00     0.000 C 
BRANCH  17  18
ATOM     18  C   UNL     1      -6.666 -14.296  31.647  1.00  0.00    -0.000 C 
BRANCH  18  19
ATOM     19  C   UNL     1      -7.208 -12.954  32.162  1.00  0.00    -0.000 C 
BRANCH  19  20
ATOM     20  C   UNL     1      -6.191 -11.830  31.915  1.00  0.00    -0.000 C 
BRANCH  20  21
ATOM     21  C   UNL     1      -4.858 -12.048  32.652  1.00  0.00    -0.000 C 
BRANCH  21  22
ATOM     22  C   UNL     1      -3.733 -11.071  32.266  1.00  0.00    -0.000 C 
BRANCH  22  23
ATOM     23  C   UNL     1      -2.733 -11.672  31.265  1.00  0.00    -0.000 C 
BRANCH  23  24
ATOM     24  C   UNL     1      -3.137 -11.349  29.820  1.00  0.00    -0.000 C 
BRANCH  24  25
ATOM     25  C   UNL     1      -2.937 -12.540  28.868  1.00  0.00    -0.003 C 
ATOM     26  C   UNL     1      -2.297 -13.747  29.554  1.00  0.00     0.004 C 
ENDBRANCH  24  25
ENDBRANCH  23  24
ENDBRANCH  22  23
ENDBRANCH  21  22
ENDBRANCH  20  21
ENDBRANCH  19  20
ENDBRANCH  18  19
ENDBRANCH  17  18
ENDBRANCH  16  17
ENDBRANCH  15  16
ENDBRANCH   1  15
TORSDOF 22
ENDMDL
MODEL 4
REMARK VINA RESULT:    -5.094      1.536      6.070
REMARK INTER + INTRA:         -14.945
REMARK INTER:                 -12.601
REMARK INTRA:                  -2.344
REMARK UNBOUND:                -3.300
REMARK SMILES CCCCCCCCCCCCCCCCCCCCCCCC(=O)[O-]
REMARK SMILES IDX 13 1 14 2 15 3 16 4 17 5 18 6 19 7 20 8 21 9 22 10 23 11
REMARK SMILES IDX 24 12 25 13 26 14 12 15 11 16 10 17 9 18 8 19 7 20 6 21 5 22
REMARK SMILES IDX 4 23 3 24 2 25 1 26
REMARK H PARENT
REMARK Flexibility Score: inf
ROOT
ATOM      1  C   UNL     1      -6.852 -14.548  26.421  1.00  0.00     0.000 C 
ENDROOT
BRANCH   1   2
ATOM      2  C   UNL     1      -6.004 -14.433  27.699  1.00  0.00     0.000 C 
BRANCH   2   3
ATOM      3  C   UNL     1      -6.854 -14.434  28.982  1.00  0.00     0.000 C 
BRANCH   3   4
ATOM      4  C   UNL     1      -5.999 -14.431  30.261  1.00  0.00     0.000 C 
BRANCH   4   5
ATOM      5  C   UNL     1      -6.785 -14.591  31.577  1.00  0.00     0.000 C 
BRANCH   5   6
ATOM      6  C   UNL     1      -7.051 -13.262  32.316  1.00  0.00     0.000 C 
BRANCH   6   7
ATOM      7  C   UNL     1      -6.378 -12.062  31.624  1.00  0.00     0.000 C 
BRANCH   7   8
ATOM      8  C   UNL     1      -5.230 -11.468  32.464  1.00  0.00     0.000 C 
BRANCH   8   9
ATOM      9  C   UNL     1      -3.847 -11.587  31.798  1.00  0.00     0.000 C 
BRANCH   9  10
ATOM     10  C   UNL     1      -3.775 -10.833  30.457  1.00  0.00     0.006 C 
BRANCH  10  11
ATOM     11  C   UNL     1      -3.582 -11.782  29.266  1.00  0.00     0.053 C 
BRANCH  11  12
ATOM     12  C   UNL     1      -2.155 -11.826  28.810  1.00  0.00     0.041 C 
ATOM     13  O   UNL     1      -1.282 -12.397  29.516  1.00  0.00    -0.550 OA
ATOM     14  O   UNL     1      -1.784 -11.202  27.625  1.00  0.00    -0.550 OA
ENDBRANCH  11  12
ENDBRANCH  10  11
ENDBRANCH   9  10
ENDBRANCH   8   9
ENDBRANCH   7   8
ENDBRANCH   6   7
ENDBRANCH   5   6
ENDBRANCH   4   5
ENDBRANCH   3   4
ENDBRANCH   2   3
ENDBRANCH   1   2
BRANCH   1  15
ATOM     15  C   UNL     1      -8.310 -15.000  26.639  1.00  0.00     0.000 C 
BRANCH  15  16
ATOM     16  C   UNL     1      -9.345 -14.346  25.704  1.00  0.00     0.000 C 
BRANCH  16  17
ATOM     17  C   UNL     1     -10.801 -14.809  25.910  1.00  0.00     0.000 C 
BRANCH  17  18
ATOM     18  C   UNL     1     -10.962 -16.105  26.726  1.00  0.00    -0.000 C 
BRANCH  18  19
ATOM     19  C   UNL     1     -12.312 -16.192  27.453  1.00  0.00    -0.000 C 
BRANCH  19  20
ATOM     20  C   UNL     1     -12.124 -16.730  28.879  1.00  0.00    -0.000 C 
BRANCH  20  21
ATOM     21  C   UNL     1     -11.764 -18.226  28.917  1.00  0.00    -0.000 C 
BRANCH  21  22
ATOM     22  C   UNL     1     -10.450 -18.560  29.647  1.00  0.00    -0.000 C 
BRANCH  22  23
ATOM     23  C   UNL     1     -10.630 -18.718  31.166  1.00  0.00    -0.000 C 
BRANCH  23  24
ATOM     24  C   UNL     1      -9.942 -17.574  31.925  1.00  0.00    -0.000 C 
BRANCH  24  25
ATOM     25  C   UNL     1     -10.941 -16.546  32.480  1.00  0.00    -0.003 C 
ATOM     26  C   UNL     1     -10.696 -15.133  31.949  1.00  0.00     0.004 C 
ENDBRANCH  24  25
ENDBRANCH  23  24
ENDBRANCH  22  23
ENDBRANCH  21  22
ENDBRANCH  20  21
ENDBRANCH  19  20
ENDBRANCH  18  19
ENDBRANCH  17  18
ENDBRANCH  16  17
ENDBRANCH  15  16
ENDBRANCH   1  15
TORSDOF 22
ENDMDL
MODEL 5
REMARK VINA RESULT:    -5.093      2.024      5.354
REMARK INTER + INTRA:         -14.944
REMARK INTER:                 -12.481
REMARK INTRA:                  -2.462
REMARK UNBOUND:                -3.300
REMARK SMILES CCCCCCCCCCCCCCCCCCCCCCCC(=O)[O-]
REMARK SMILES IDX 13 1 14 2 15 3 16 4 17 5 18 6 19 7 20 8 21 9 22 10 23 11
REMARK SMILES IDX 24 12 25 13 26 14 12 15 11 16 10 17 9 18 8 19 7 20 6 21 5 22
REMARK SMILES IDX 4 23 3 24 2 25 1 26
REMARK H PARENT
REMARK Flexibility Score: inf
ROOT
ATOM      1  C   UNL     1     -10.036 -15.166  26.014  1.00  0.00     0.000 C 
ENDROOT
BRANCH   1   2
ATOM      2  C   UNL     1     -11.353 -15.645  26.648  1.00  0.00     0.000 C 
BRANCH   2   3
ATOM      3  C   UNL     1     -11.148 -16.317  28.017  1.00  0.00     0.000 C 
BRANCH   3   4
ATOM      4  C   UNL     1     -12.299 -16.033  28.997  1.00  0.00     0.000 C 
BRANCH   4   5
ATOM      5  C   UNL     1     -12.947 -17.280  29.630  1.00  0.00     0.000 C 
BRANCH   5   6
ATOM      6  C   UNL     1     -12.695 -17.417  31.147  1.00  0.00     0.000 C 
BRANCH   6   7
ATOM      7  C   UNL     1     -11.951 -18.717  31.504  1.00  0.00     0.000 C 
BRANCH   7   8
ATOM      8  C   UNL     1     -10.434 -18.612  31.257  1.00  0.00     0.000 C 
BRANCH   8   9
ATOM      9  C   UNL     1      -9.742 -17.522  32.099  1.00  0.00     0.000 C 
BRANCH   9  10
ATOM     10  C   UNL     1      -9.295 -16.320  31.247  1.00  0.00     0.006 C 
BRANCH  10  11
ATOM     11  C   UNL     1      -7.860 -15.882  31.568  1.00  0.00     0.053 C 
BRANCH  11  12
ATOM     12  C   UNL     1      -7.816 -14.517  32.187  1.00  0.00     0.041 C 
ATOM     13  O   UNL     1      -6.758 -14.102  32.730  1.00  0.00    -0.550 OA
ATOM     14  O   UNL     1      -8.954 -13.720  32.197  1.00  0.00    -0.550 OA
ENDBRANCH  11  12
ENDBRANCH  10  11
ENDBRANCH   9  10
ENDBRANCH   8   9
ENDBRANCH   7   8
ENDBRANCH   6   7
ENDBRANCH   5   6
ENDBRANCH   4   5
ENDBRANCH   3   4
ENDBRANCH   2   3
ENDBRANCH   1   2
BRANCH   1  15
ATOM     15  C   UNL     1      -8.800 -15.241  26.934  1.00  0.00     0.000 C 
BRANCH  15  16
ATOM     16  C   UNL     1      -7.483 -14.750  26.302  1.00  0.00     0.000 C 
BRANCH  16  17
ATOM     17  C   UNL     1      -6.251 -14.805  27.227  1.00  0.00     0.000 C 
BRANCH  17  18
ATOM     18  C   UNL     1      -6.432 -14.117  28.593  1.00  0.00    -0.000 C 
BRANCH  18  19
ATOM     19  C   UNL     1      -5.272 -14.392  29.561  1.00  0.00    -0.000 C 
BRANCH  19  20
ATOM     20  C   UNL     1      -3.921 -14.191  28.858  1.00  0.00    -0.000 C 
BRANCH  20  21
ATOM     21  C   UNL     1      -3.089 -13.049  29.466  1.00  0.00    -0.000 C 
BRANCH  21  22
ATOM     22  C   UNL     1      -3.669 -11.639  29.256  1.00  0.00    -0.000 C 
BRANCH  22  23
ATOM     23  C   UNL     1      -3.629 -10.776  30.527  1.00  0.00    -0.000 C 
BRANCH  23  24
ATOM     24  C   UNL     1      -4.179 -11.548  31.735  1.00  0.00    -0.000 C 
BRANCH  24  25
ATOM     25  C   UNL     1      -3.293 -11.409  32.982  1.00  0.00    -0.003 C 
ATOM     26  C   UNL     1      -1.825 -11.736  32.707  1.00  0.00     0.004 C 
ENDBRANCH  24  25
ENDBRANCH  23  24
ENDBRANCH  22  23
ENDBRANCH  21  22
ENDBRANCH  20  21
ENDBRANCH  19  20
ENDBRANCH  18  19
ENDBRANCH  17  18
ENDBRANCH  16  17
ENDBRANCH  15  16
ENDBRANCH   1  15
TORSDOF 22
ENDMDL
MODEL 6
REMARK VINA RESULT:    -5.056      1.721      6.168
REMARK INTER + INTRA:         -14.859
REMARK INTER:                 -12.107
REMARK INTRA:                  -2.752
REMARK UNBOUND:                -3.300
REMARK SMILES CCCCCCCCCCCCCCCCCCCCCCCC(=O)[O-]
REMARK SMILES IDX 13 1 14 2 15 3 16 4 17 5 18 6 19 7 20 8 21 9 22 10 23 11
REMARK SMILES IDX 24 12 25 13 26 14 12 15 11 16 10 17 9 18 8 19 7 20 6 21 5 22
REMARK SMILES IDX 4 23 3 24 2 25 1 26
REMARK H PARENT
REMARK Flexibility Score: inf
ROOT
ATOM      1  C   UNL     1      -6.179 -14.130  28.022  1.00  0.00     0.000 C 
ENDROOT
BRANCH   1   2
ATOM      2  C   UNL     1      -7.103 -14.469  29.204  1.00  0.00     0.000 C 
BRANCH   2   3
ATOM      3  C   UNL     1      -6.362 -14.504  30.552  1.00  0.00     0.000 C 
BRANCH   3   4
ATOM      4  C   UNL     1      -6.880 -13.448  31.542  1.00  0.00     0.000 C 
BRANCH   4   5
ATOM      5  C   UNL     1      -5.884 -12.322  31.884  1.00  0.00     0.000 C 
BRANCH   5   6
ATOM      6  C   UNL     1      -5.636 -11.330  30.727  1.00  0.00     0.000 C 
BRANCH   6   7
ATOM      7  C   UNL     1      -4.136 -11.101  30.462  1.00  0.00     0.000 C 
BRANCH   7   8
ATOM      8  C   UNL     1      -3.555 -12.118  29.460  1.00  0.00     0.000 C 
BRANCH   8   9
ATOM      9  C   UNL     1      -2.362 -12.922  30.012  1.00  0.00     0.000 C 
BRANCH   9  10
ATOM     10  C   UNL     1      -2.016 -14.135  29.130  1.00  0.00     0.006 C 
BRANCH  10  11
ATOM     11  C   UNL     1      -2.790 -14.130  27.804  1.00  0.00     0.053 C 
BRANCH  11  12
ATOM     12  C   UNL     1      -1.873 -14.183  26.620  1.00  0.00     0.041 C 
ATOM     13  O   UNL     1      -1.574 -15.291  26.100  1.00  0.00    -0.550 OA
ATOM     14  O   UNL     1      -1.318 -13.014  26.116  1.00  0.00    -0.550 OA
ENDBRANCH  11  12
ENDBRANCH  10  11
ENDBRANCH   9  10
ENDBRANCH   8   9
ENDBRANCH   7   8
ENDBRANCH   6   7
ENDBRANCH   5   6
ENDBRANCH   4   5
ENDBRANCH   3   4
ENDBRANCH   2   3
ENDBRANCH   1   2
BRANCH   1  15
ATOM     15  C   UNL     1      -6.735 -14.491  26.630  1.00  0.00     0.000 C 
BRANCH  15  16
ATOM     16  C   UNL     1      -8.068 -15.263  26.638  1.00  0.00     0.000 C 
BRANCH  16  17
ATOM     17  C   UNL     1      -9.249 -14.542  25.957  1.00  0.00     0.000 C 
BRANCH  17  18
ATOM     18  C   UNL     1     -10.634 -15.148  26.245  1.00  0.00    -0.000 C 
BRANCH  18  19
ATOM     19  C   UNL     1     -10.661 -16.005  27.520  1.00  0.00    -0.000 C 
BRANCH  19  20
ATOM     20  C   UNL     1     -11.971 -16.801  27.610  1.00  0.00    -0.000 C 
BRANCH  20  21
ATOM     21  C   UNL     1     -12.127 -17.558  28.940  1.00  0.00    -0.000 C 
BRANCH  21  22
ATOM     22  C   UNL     1     -12.798 -16.757  30.070  1.00  0.00    -0.000 C 
BRANCH  22  23
ATOM     23  C   UNL     1     -12.041 -16.849  31.404  1.00  0.00    -0.000 C 
BRANCH  23  24
ATOM     24  C   UNL     1     -11.081 -15.664  31.577  1.00  0.00    -0.000 C 
BRANCH  24  25
ATOM     25  C   UNL     1      -9.607 -16.066  31.414  1.00  0.00    -0.003 C 
ATOM     26  C   UNL     1      -9.348 -17.530  31.772  1.00  0.00     0.004 C 
ENDBRANCH  24  25
ENDBRANCH  23  24
ENDBRANCH  22  23
ENDBRANCH  21  22
ENDBRANCH  20  21
ENDBRANCH  19  20
ENDBRANCH  18  19
ENDBRANCH  17  18
ENDBRANCH  16  17
ENDBRANCH  15  16
ENDBRANCH   1  15
TORSDOF 22
ENDMDL
MODEL 7
REMARK VINA RESULT:    -5.032      2.336      6.679
REMARK INTER + INTRA:         -14.803
REMARK INTER:                 -12.511
REMARK INTRA:                  -2.291
REMARK UNBOUND:                -3.300
REMARK SMILES CCCCCCCCCCCCCCCCCCCCCCCC(=O)[O-]
REMARK SMILES IDX 13 1 14 2 15 3 16 4 17 5 18 6 19 7 20 8 21 9 22 10 23 11
REMARK SMILES IDX 24 12 25 13 26 14 12 15 11 16 10 17 9 18 8 19 7 20 6 21 5 22
REMARK SMILES IDX 4 23 3 24 2 25 1 26
REMARK H PARENT
REMARK Flexibility Score: inf
ROOT
ATOM      1  C   UNL     1      -6.201 -14.486  27.634  1.00  0.00     0.000 C 
ENDROOT
BRANCH   1   2
ATOM      2  C   UNL     1      -6.961 -14.484  28.971  1.00  0.00     0.000 C 
BRANCH   2   3
ATOM      3  C   UNL     1      -6.121 -13.932  30.136  1.00  0.00     0.000 C 
BRANCH   3   4
ATOM      4  C   UNL     1      -6.925 -13.804  31.441  1.00  0.00     0.000 C 
BRANCH   4   5
ATOM      5  C   UNL     1      -6.776 -12.457  32.175  1.00  0.00     0.000 C 
BRANCH   5   6
ATOM      6  C   UNL     1      -5.616 -11.582  31.655  1.00  0.00     0.000 C 
BRANCH   6   7
ATOM      7  C   UNL     1      -4.489 -11.425  32.693  1.00  0.00     0.000 C 
BRANCH   7   8
ATOM      8  C   UNL     1      -3.139 -11.063  32.044  1.00  0.00     0.000 C 
BRANCH   8   9
ATOM      9  C   UNL     1      -2.764 -11.960  30.850  1.00  0.00     0.000 C 
BRANCH   9  10
ATOM     10  C   UNL     1      -1.373 -12.599  31.011  1.00  0.00     0.006 C 
BRANCH  10  11
ATOM     11  C   UNL     1      -0.761 -12.320  32.391  1.00  0.00     0.053 C 
BRANCH  11  12
ATOM     12  C   UNL     1       0.251 -13.356  32.776  1.00  0.00     0.041 C 
ATOM     13  O   UNL     1       0.730 -14.127  31.903  1.00  0.00    -0.550 OA
ATOM     14  O   UNL     1       0.635 -13.495  34.104  1.00  0.00    -0.550 OA
ENDBRANCH  11  12
ENDBRANCH  10  11
ENDBRANCH   9  10
ENDBRANCH   8   9
ENDBRANCH   7   8
ENDBRANCH   6   7
ENDBRANCH   5   6
ENDBRANCH   4   5
ENDBRANCH   3   4
ENDBRANCH   2   3
ENDBRANCH   1   2
BRANCH   1  15
ATOM     15  C   UNL     1      -7.066 -14.210  26.387  1.00  0.00     0.000 C 
BRANCH  15  16
ATOM     16  C   UNL     1      -8.188 -15.235  26.130  1.00  0.00     0.000 C 
BRANCH  16  17
ATOM     17  C   UNL     1      -9.612 -14.648  26.064  1.00  0.00     0.000 C 
BRANCH  17  18
ATOM     18  C   UNL     1     -10.730 -15.600  26.529  1.00  0.00    -0.000 C 
BRANCH  18  19
ATOM     19  C   UNL     1     -10.569 -16.045  27.990  1.00  0.00    -0.000 C 
BRANCH  19  20
ATOM     20  C   UNL     1     -11.822 -16.794  28.469  1.00  0.00    -0.000 C 
BRANCH  20  21
ATOM     21  C   UNL     1     -11.549 -18.269  28.811  1.00  0.00    -0.000 C 
BRANCH  21  22
ATOM     22  C   UNL     1     -11.537 -18.595  30.316  1.00  0.00    -0.000 C 
BRANCH  22  23
ATOM     23  C   UNL     1     -10.128 -18.890  30.856  1.00  0.00    -0.000 C 
BRANCH  23  24
ATOM     24  C   UNL     1      -9.757 -17.919  31.986  1.00  0.00    -0.000 C 
BRANCH  24  25
ATOM     25  C   UNL     1      -9.297 -16.549  31.464  1.00  0.00    -0.003 C 
ATOM     26  C   UNL     1     -10.291 -15.430  31.775  1.00  0.00     0.004 C 
ENDBRANCH  24  25
ENDBRANCH  23  24
ENDBRANCH  22  23
ENDBRANCH  21  22
ENDBRANCH  20  21
ENDBRANCH  19  20
ENDBRANCH  18  19
ENDBRANCH  17  18
ENDBRANCH  16  17
ENDBRANCH  15  16
ENDBRANCH   1  15
TORSDOF 22
ENDMDL
MODEL 8
REMARK VINA RESULT:    -5.021      1.892      5.995
REMARK INTER + INTRA:         -14.779
REMARK INTER:                 -12.772
REMARK INTRA:                  -2.008
REMARK UNBOUND:                -3.300
REMARK SMILES CCCCCCCCCCCCCCCCCCCCCCCC(=O)[O-]
REMARK SMILES IDX 13 1 14 2 15 3 16 4 17 5 18 6 19 7 20 8 21 9 22 10 23 11
REMARK SMILES IDX 24 12 25 13 26 14 12 15 11 16 10 17 9 18 8 19 7 20 6 21 5 22
REMARK SMILES IDX 4 23 3 24 2 25 1 26
REMARK H PARENT
REMARK Flexibility Score: inf
ROOT
ATOM      1  C   UNL     1      -8.144 -16.757  31.898  1.00  0.00     0.000 C 
ENDROOT
BRANCH   1   2
ATOM      2  C   UNL     1      -7.009 -15.718  31.890  1.00  0.00     0.000 C 
BRANCH   2   3
ATOM      3  C   UNL     1      -7.049 -14.799  30.657  1.00  0.00     0.000 C 
BRANCH   3   4
ATOM      4  C   UNL     1      -6.157 -13.556  30.813  1.00  0.00     0.000 C 
BRANCH   4   5
ATOM      5  C   UNL     1      -6.633 -12.533  31.863  1.00  0.00     0.000 C 
BRANCH   5   6
ATOM      6  C   UNL     1      -5.999 -11.134  31.709  1.00  0.00     0.000 C 
BRANCH   6   7
ATOM      7  C   UNL     1      -4.488 -11.203  31.420  1.00  0.00     0.000 C 
BRANCH   7   8
ATOM      8  C   UNL     1      -3.660 -11.499  32.685  1.00  0.00     0.000 C 
BRANCH   8   9
ATOM      9  C   UNL     1      -2.603 -10.425  33.002  1.00  0.00     0.000 C 
BRANCH   9  10
ATOM     10  C   UNL     1      -1.177 -10.885  32.647  1.00  0.00     0.006 C 
BRANCH  10  11
ATOM     11  C   UNL     1      -1.156 -12.293  32.034  1.00  0.00     0.053 C 
BRANCH  11  12
ATOM     12  C   UNL     1      -0.812 -12.264  30.576  1.00  0.00     0.041 C 
ATOM     13  O   UNL     1       0.209 -11.642  30.178  1.00  0.00    -0.550 OA
ATOM     14  O   UNL     1      -1.640 -12.891  29.653  1.00  0.00    -0.550 OA
ENDBRANCH  11  12
ENDBRANCH  10  11
ENDBRANCH   9  10
ENDBRANCH   8   9
ENDBRANCH   7   8
ENDBRANCH   6   7
ENDBRANCH   5   6
ENDBRANCH   4   5
ENDBRANCH   3   4
ENDBRANCH   2   3
ENDBRANCH   1   2
BRANCH   1  15
ATOM     15  C   UNL     1      -9.369 -16.396  31.033  1.00  0.00     0.000 C 
BRANCH  15  16
ATOM     16  C   UNL     1     -10.604 -15.909  31.817  1.00  0.00     0.000 C 
BRANCH  16  17
ATOM     17  C   UNL     1     -11.654 -16.994  32.127  1.00  0.00     0.000 C 
BRANCH  17  18
ATOM     18  C   UNL     1     -12.106 -17.827  30.914  1.00  0.00    -0.000 C 
BRANCH  18  19
ATOM     19  C   UNL     1     -13.424 -17.328  30.302  1.00  0.00    -0.000 C 
BRANCH  19  20
ATOM     20  C   UNL     1     -13.151 -16.468  29.058  1.00  0.00    -0.000 C 
BRANCH  20  21
ATOM     21  C   UNL     1     -12.016 -17.021  28.179  1.00  0.00    -0.000 C 
BRANCH  21  22
ATOM     22  C   UNL     1     -10.891 -16.018  27.862  1.00  0.00    -0.000 C 
BRANCH  22  23
ATOM     23  C   UNL     1     -10.912 -15.534  26.403  1.00  0.00    -0.000 C 
BRANCH  23  24
ATOM     24  C   UNL     1      -9.625 -14.772  26.057  1.00  0.00    -0.000 C 
BRANCH  24  25
ATOM     25  C   UNL     1      -8.428 -15.206  26.918  1.00  0.00    -0.003 C 
ATOM     26  C   UNL     1      -7.131 -14.493  26.536  1.00  0.00     0.004 C 
ENDBRANCH  24  25
ENDBRANCH  23  24
ENDBRANCH  22  23
ENDBRANCH  21  22
ENDBRANCH  20  21
ENDBRANCH  19  20
ENDBRANCH  18  19
ENDBRANCH  17  18
ENDBRANCH  16  17
ENDBRANCH  15  16
ENDBRANCH   1  15
TORSDOF 22
ENDMDL
MODEL 9
REMARK VINA RESULT:    -4.975      1.683      6.669
REMARK INTER + INTRA:         -14.674
REMARK INTER:                 -12.283
REMARK INTRA:                  -2.391
REMARK UNBOUND:                -3.300
REMARK SMILES CCCCCCCCCCCCCCCCCCCCCCCC(=O)[O-]
REMARK SMILES IDX 13 1 14 2 15 3 16 4 17 5 18 6 19 7 20 8 21 9 22 10 23 11
REMARK SMILES IDX 24 12 25 13 26 14 12 15 11 16 10 17 9 18 8 19 7 20 6 21 5 22
REMARK SMILES IDX 4 23 3 24 2 25 1 26
REMARK H PARENT
REMARK Flexibility Score: inf
ROOT
ATOM      1  C   UNL     1      -6.451 -14.858  30.716  1.00  0.00     0.000 C 
ENDROOT
BRANCH   1   2
ATOM      2  C   UNL     1      -6.884 -13.383  30.649  1.00  0.00     0.000 C 
BRANCH   2   3
ATOM      3  C   UNL     1      -6.772 -12.666  32.006  1.00  0.00     0.000 C 
BRANCH   3   4
ATOM      4  C   UNL     1      -5.863 -11.426  31.949  1.00  0.00     0.000 C 
BRANCH   4   5
ATOM      5  C   UNL     1      -4.570 -11.519  32.781  1.00  0.00     0.000 C 
BRANCH   5   6
ATOM      6  C   UNL     1      -3.295 -11.115  32.009  1.00  0.00     0.000 C 
BRANCH   6   7
ATOM      7  C   UNL     1      -2.012 -11.632  32.685  1.00  0.00     0.000 C 
BRANCH   7   8
ATOM      8  C   UNL     1      -1.151 -12.486  31.734  1.00  0.00     0.000 C 
BRANCH   8   9
ATOM      9  C   UNL     1      -1.311 -12.114  30.248  1.00  0.00     0.000 C 
BRANCH   9  10
ATOM     10  C   UNL     1      -1.630 -13.337  29.369  1.00  0.00     0.006 C 
BRANCH  10  11
ATOM     11  C   UNL     1      -3.139 -13.601  29.266  1.00  0.00     0.053 C 
BRANCH  11  12
ATOM     12  C   UNL     1      -3.445 -14.759  28.364  1.00  0.00     0.041 C 
ATOM     13  O   UNL     1      -2.644 -15.728  28.284  1.00  0.00    -0.550 OA
ATOM     14  O   UNL     1      -4.594 -14.749  27.584  1.00  0.00    -0.550 OA
ENDBRANCH  11  12
ENDBRANCH  10  11
ENDBRANCH   9  10
ENDBRANCH   8   9
ENDBRANCH   7   8
ENDBRANCH   6   7
ENDBRANCH   5   6
ENDBRANCH   4   5
ENDBRANCH   3   4
ENDBRANCH   2   3
ENDBRANCH   1   2
BRANCH   1  15
ATOM     15  C   UNL     1      -6.885 -15.612  31.989  1.00  0.00     0.000 C 
BRANCH  15  16
ATOM     16  C   UNL     1      -8.184 -16.430  31.855  1.00  0.00     0.000 C 
BRANCH  16  17
ATOM     17  C   UNL     1      -9.324 -15.730  31.090  1.00  0.00     0.000 C 
BRANCH  17  18
ATOM     18  C   UNL     1     -10.489 -15.236  31.968  1.00  0.00    -0.000 C 
BRANCH  18  19
ATOM     19  C   UNL     1     -11.221 -16.377  32.691  1.00  0.00    -0.000 C 
BRANCH  19  20
ATOM     20  C   UNL     1     -12.286 -17.001  31.777  1.00  0.00    -0.000 C 
BRANCH  20  21
ATOM     21  C   UNL     1     -12.065 -18.503  31.531  1.00  0.00    -0.000 C 
BRANCH  21  22
ATOM     22  C   UNL     1     -10.624 -18.896  31.157  1.00  0.00    -0.000 C 
BRANCH  22  23
ATOM     23  C   UNL     1     -10.369 -18.873  29.642  1.00  0.00    -0.000 C 
BRANCH  23  24
ATOM     24  C   UNL     1     -11.644 -18.500  28.873  1.00  0.00    -0.000 C 
BRANCH  24  25
ATOM     25  C   UNL     1     -11.524 -17.153  28.143  1.00  0.00    -0.003 C 
ATOM     26  C   UNL     1     -12.836 -16.367  28.125  1.00  0.00     0.004 C 
ENDBRANCH  24  25
ENDBRANCH  23  24
ENDBRANCH  22  23
ENDBRANCH  21  22
ENDBRANCH  20  21
ENDBRANCH  19  20
ENDBRANCH  18  19
ENDBRANCH  17  18
ENDBRANCH  16  17
ENDBRANCH  15  16
ENDBRANCH   1  15
TORSDOF 22
ENDMDL
