MODEL 1
REMARK VINA RESULT:    -3.304      0.000      0.000
REMARK INTER + INTRA:          -5.755
REMARK INTER:                  -4.850
REMARK INTRA:                  -0.906
REMARK UNBOUND:                -0.906
REMARK SMILES CCCCCC(=O)CCCCC
REMARK SMILES IDX 6 1 7 2 5 3 4 4 3 5 2 6 1 7 8 8 9 9 10 10 11 11 12 12
REMARK H PARENT
REMARK Flexibility Score: inf
ROOT
ATOM      1  C   UNL     1     166.520 158.510 168.426  1.00  0.00     0.132 C 
ATOM      2  O   UNL     1     165.633 158.292 169.238  1.00  0.00    -0.300 OA
ENDROOT
BRANCH   1   3
ATOM      3  C   UNL     1     167.937 158.085 168.724  1.00  0.00     0.075 C 
BRANCH   3   4
ATOM      4  C   UNL     1     168.440 158.503 170.119  1.00  0.00     0.008 C 
BRANCH   4   5
ATOM      5  C   UNL     1     169.255 159.810 170.127  1.00  0.00     0.000 C 
BRANCH   5   6
ATOM      6  C   UNL     1     168.741 160.826 171.156  1.00  0.00    -0.003 C 
ATOM      7  C   UNL     1     167.304 160.511 171.568  1.00  0.00     0.004 C 
ENDBRANCH   5   6
ENDBRANCH   4   5
ENDBRANCH   3   4
ENDBRANCH   1   3
BRANCH   1   8
ATOM      8  C   UNL     1     166.153 159.066 167.071  1.00  0.00     0.075 C 
BRANCH   8   9
ATOM      9  C   UNL     1     166.770 160.459 166.812  1.00  0.00     0.008 C 
BRANCH   9  10
ATOM     10  C   UNL     1     166.731 161.380 168.043  1.00  0.00     0.000 C 
BRANCH  10  11
ATOM     11  C   UNL     1     166.353 162.820 167.679  1.00  0.00    -0.003 C 
ATOM     12  C   UNL     1     166.116 163.661 168.929  1.00  0.00     0.004 C 
ENDBRANCH  10  11
ENDBRANCH   9  10
ENDBRANCH   8   9
ENDBRANCH   1   8
TORSDOF 8
ENDMDL
MODEL 2
REMARK VINA RESULT:    -3.290      6.807      8.507
REMARK INTER + INTRA:          -5.735
REMARK INTER:                  -4.819
REMARK INTRA:                  -0.915
REMARK UNBOUND:                -0.906
REMARK SMILES CCCCCC(=O)CCCCC
REMARK SMILES IDX 6 1 7 2 5 3 4 4 3 5 2 6 1 7 8 8 9 9 10 10 11 11 12 12
REMARK H PARENT
REMARK Flexibility Score: inf
ROOT
ATOM      1  C   UNL     1     158.453 164.624 168.492  1.00  0.00     0.132 C 
ATOM      2  O   UNL     1     158.266 165.528 169.292  1.00  0.00    -0.300 OA
ENDROOT
BRANCH   1   3
ATOM      3  C   UNL     1     158.022 163.217 168.830  1.00  0.00     0.075 C 
BRANCH   3   4
ATOM      4  C   UNL     1     158.514 162.719 170.202  1.00  0.00     0.008 C 
BRANCH   4   5
ATOM      5  C   UNL     1     159.822 161.909 170.144  1.00  0.00     0.000 C 
BRANCH   5   6
ATOM      6  C   UNL     1     160.830 162.328 171.222  1.00  0.00    -0.003 C 
ATOM      7  C   UNL     1     160.696 163.812 171.552  1.00  0.00     0.004 C 
ENDBRANCH   5   6
ENDBRANCH   4   5
ENDBRANCH   3   4
ENDBRANCH   1   3
BRANCH   1   8
ATOM      8  C   UNL     1     158.975 164.958 167.115  1.00  0.00     0.075 C 
BRANCH   8   9
ATOM      9  C   UNL     1     160.375 164.360 166.848  1.00  0.00     0.008 C 
BRANCH   9  10
ATOM     10  C   UNL     1     161.347 164.539 168.027  1.00  0.00     0.000 C 
BRANCH  10  11
ATOM     11  C   UNL     1     162.780 164.825 167.561  1.00  0.00    -0.003 C 
ATOM     12  C   UNL     1     163.725 164.982 168.747  1.00  0.00     0.004 C 
ENDBRANCH  10  11
ENDBRANCH   9  10
ENDBRANCH   8   9
ENDBRANCH   1   8
TORSDOF 8
ENDMDL
MODEL 3
REMARK VINA RESULT:    -3.202      8.731     12.100
REMARK INTER + INTRA:          -5.605
REMARK INTER:                  -4.731
REMARK INTRA:                  -0.874
REMARK UNBOUND:                -0.906
REMARK SMILES CCCCCC(=O)CCCCC
REMARK SMILES IDX 6 1 7 2 5 3 4 4 3 5 2 6 1 7 8 8 9 9 10 10 11 11 12 12
REMARK H PARENT
REMARK Flexibility Score: inf
ROOT
ATOM      1  C   UNL     1     164.681 172.635 168.714  1.00  0.00     0.132 C 
ATOM      2  O   UNL     1     165.536 172.598 169.587  1.00  0.00    -0.300 OA
ENDROOT
BRANCH   1   3
ATOM      3  C   UNL     1     163.346 173.280 168.994  1.00  0.00     0.075 C 
BRANCH   3   4
ATOM      4  C   UNL     1     162.683 172.815 170.304  1.00  0.00     0.008 C 
BRANCH   4   5
ATOM      5  C   UNL     1     161.784 171.574 170.147  1.00  0.00     0.000 C 
BRANCH   5   6
ATOM      6  C   UNL     1     162.139 170.453 171.133  1.00  0.00    -0.003 C 
ATOM      7  C   UNL     1     163.521 170.677 171.744  1.00  0.00     0.004 C 
ENDBRANCH   5   6
ENDBRANCH   4   5
ENDBRANCH   3   4
ENDBRANCH   1   3
BRANCH   1   8
ATOM      8  C   UNL     1     165.033 172.168 167.322  1.00  0.00     0.075 C 
BRANCH   8   9
ATOM      9  C   UNL     1     164.436 170.782 166.990  1.00  0.00     0.008 C 
BRANCH   9  10
ATOM     10  C   UNL     1     164.429 169.819 168.190  1.00  0.00     0.000 C 
BRANCH  10  11
ATOM     11  C   UNL     1     164.865 168.402 167.800  1.00  0.00    -0.003 C 
ATOM     12  C   UNL     1     164.897 167.481 169.015  1.00  0.00     0.004 C 
ENDBRANCH  10  11
ENDBRANCH   9  10
ENDBRANCH   8   9
ENDBRANCH   1   8
TORSDOF 8
ENDMDL
MODEL 4
REMARK VINA RESULT:    -3.201      6.858      8.777
REMARK INTER + INTRA:          -5.604
REMARK INTER:                  -4.939
REMARK INTRA:                  -0.665
REMARK UNBOUND:                -0.906
REMARK SMILES CCCCCC(=O)CCCCC
REMARK SMILES IDX 6 1 7 2 5 3 4 4 3 5 2 6 1 7 8 8 9 9 10 10 11 11 12 12
REMARK H PARENT
REMARK Flexibility Score: inf
ROOT
ATOM      1  C   UNL     1     172.361 166.195 167.565  1.00  0.00     0.132 C 
ATOM      2  O   UNL     1     173.225 165.520 167.024  1.00  0.00    -0.300 OA
ENDROOT
BRANCH   1   3
ATOM      3  C   UNL     1     171.078 166.504 166.833  1.00  0.00     0.075 C 
BRANCH   3   4
ATOM      4  C   UNL     1     169.869 166.749 167.755  1.00  0.00     0.008 C 
BRANCH   4   5
ATOM      5  C   UNL     1     168.518 166.336 167.143  1.00  0.00     0.000 C 
BRANCH   5   6
ATOM      6  C   UNL     1     167.452 166.031 168.204  1.00  0.00    -0.003 C 
ATOM      7  C   UNL     1     167.982 166.305 169.609  1.00  0.00     0.004 C 
ENDBRANCH   5   6
ENDBRANCH   4   5
ENDBRANCH   3   4
ENDBRANCH   1   3
BRANCH   1   8
ATOM      8  C   UNL     1     172.532 166.582 169.014  1.00  0.00     0.075 C 
BRANCH   8   9
ATOM      9  C   UNL     1     173.189 167.970 169.187  1.00  0.00     0.008 C 
BRANCH   9  10
ATOM     10  C   UNL     1     172.169 169.106 169.372  1.00  0.00     0.000 C 
BRANCH  10  11
ATOM     11  C   UNL     1     171.091 168.757 170.405  1.00  0.00    -0.003 C 
ATOM     12  C   UNL     1     170.919 169.878 171.424  1.00  0.00     0.004 C 
ENDBRANCH  10  11
ENDBRANCH   9  10
ENDBRANCH   8   9
ENDBRANCH   1   8
TORSDOF 8
ENDMDL
MODEL 5
REMARK VINA RESULT:    -3.197      6.947      9.028
REMARK INTER + INTRA:          -5.597
REMARK INTER:                  -4.864
REMARK INTRA:                  -0.734
REMARK UNBOUND:                -0.906
REMARK SMILES CCCCCC(=O)CCCCC
REMARK SMILES IDX 6 1 7 2 5 3 4 4 3 5 2 6 1 7 8 8 9 9 10 10 11 11 12 12
REMARK H PARENT
REMARK Flexibility Score: inf
ROOT
ATOM      1  C   UNL     1     158.456 164.677 168.451  1.00  0.00     0.132 C 
ATOM      2  O   UNL     1     158.221 165.568 169.254  1.00  0.00    -0.300 OA
ENDROOT
BRANCH   1   3
ATOM      3  C   UNL     1     159.217 164.987 167.184  1.00  0.00     0.075 C 
BRANCH   3   4
ATOM      4  C   UNL     1     160.548 164.224 167.045  1.00  0.00     0.008 C 
BRANCH   4   5
ATOM      5  C   UNL     1     161.532 164.462 168.205  1.00  0.00     0.000 C 
BRANCH   5   6
ATOM      6  C   UNL     1     162.929 164.876 167.725  1.00  0.00    -0.003 C 
ATOM      7  C   UNL     1     163.877 165.081 168.905  1.00  0.00     0.004 C 
ENDBRANCH   5   6
ENDBRANCH   4   5
ENDBRANCH   3   4
ENDBRANCH   1   3
BRANCH   1   8
ATOM      8  C   UNL     1     158.114 163.253 168.813  1.00  0.00     0.075 C 
BRANCH   8   9
ATOM      9  C   UNL     1     157.634 163.109 170.275  1.00  0.00     0.008 C 
BRANCH   9  10
ATOM     10  C   UNL     1     158.482 162.124 171.099  1.00  0.00     0.000 C 
BRANCH  10  11
ATOM     11  C   UNL     1     159.845 161.850 170.453  1.00  0.00    -0.003 C 
ATOM     12  C   UNL     1     160.976 162.465 171.270  1.00  0.00     0.004 C 
ENDBRANCH  10  11
ENDBRANCH   9  10
ENDBRANCH   8   9
ENDBRANCH   1   8
TORSDOF 8
ENDMDL
MODEL 6
REMARK VINA RESULT:    -3.160      0.534      3.578
REMARK INTER + INTRA:          -5.543
REMARK INTER:                  -4.645
REMARK INTRA:                  -0.898
REMARK UNBOUND:                -0.906
REMARK SMILES CCCCCC(=O)CCCCC
REMARK SMILES IDX 6 1 7 2 5 3 4 4 3 5 2 6 1 7 8 8 9 9 10 10 11 11 12 12
REMARK H PARENT
REMARK Flexibility Score: inf
ROOT
ATOM      1  C   UNL     1     166.610 158.421 168.532  1.00  0.00     0.132 C 
ATOM      2  O   UNL     1     165.758 158.199 169.380  1.00  0.00    -0.300 OA
ENDROOT
BRANCH   1   3
ATOM      3  C   UNL     1     166.224 159.077 167.228  1.00  0.00     0.075 C 
BRANCH   3   4
ATOM      4  C   UNL     1     166.911 160.433 166.977  1.00  0.00     0.008 C 
BRANCH   4   5
ATOM      5  C   UNL     1     166.703 161.461 168.104  1.00  0.00     0.000 C 
BRANCH   5   6
ATOM      6  C   UNL     1     166.340 162.855 167.578  1.00  0.00    -0.003 C 
ATOM      7  C   UNL     1     166.148 163.843 168.727  1.00  0.00     0.004 C 
ENDBRANCH   5   6
ENDBRANCH   4   5
ENDBRANCH   3   4
ENDBRANCH   1   3
BRANCH   1   8
ATOM      8  C   UNL     1     168.061 158.171 168.867  1.00  0.00     0.075 C 
BRANCH   8   9
ATOM      9  C   UNL     1     168.382 158.436 170.355  1.00  0.00     0.008 C 
BRANCH   9  10
ATOM     10  C   UNL     1     168.775 159.895 170.642  1.00  0.00     0.000 C 
BRANCH  10  11
ATOM     11  C   UNL     1     167.755 160.605 171.540  1.00  0.00    -0.003 C 
ATOM     12  C   UNL     1     168.018 162.106 171.593  1.00  0.00     0.004 C 
ENDBRANCH  10  11
ENDBRANCH   9  10
ENDBRANCH   8   9
ENDBRANCH   1   8
TORSDOF 8
ENDMDL
MODEL 7
REMARK VINA RESULT:    -3.149      7.182      8.815
REMARK INTER + INTRA:          -5.528
REMARK INTER:                  -4.629
REMARK INTRA:                  -0.899
REMARK UNBOUND:                -0.906
REMARK SMILES CCCCCC(=O)CCCCC
REMARK SMILES IDX 6 1 7 2 5 3 4 4 3 5 2 6 1 7 8 8 9 9 10 10 11 11 12 12
REMARK H PARENT
REMARK Flexibility Score: inf
ROOT
ATOM      1  C   UNL     1     172.654 166.585 168.528  1.00  0.00     0.132 C 
ATOM      2  O   UNL     1     173.140 165.623 169.105  1.00  0.00    -0.300 OA
ENDROOT
BRANCH   1   3
ATOM      3  C   UNL     1     173.197 167.970 168.782  1.00  0.00     0.075 C 
BRANCH   3   4
ATOM      4  C   UNL     1     173.611 168.227 170.244  1.00  0.00     0.008 C 
BRANCH   4   5
ATOM      5  C   UNL     1     172.433 168.554 171.182  1.00  0.00     0.000 C 
BRANCH   5   6
ATOM      6  C   UNL     1     171.442 169.549 170.566  1.00  0.00    -0.003 C 
ATOM      7  C   UNL     1     170.247 169.777 171.489  1.00  0.00     0.004 C 
ENDBRANCH   5   6
ENDBRANCH   4   5
ENDBRANCH   3   4
ENDBRANCH   1   3
BRANCH   1   8
ATOM      8  C   UNL     1     171.617 166.351 167.456  1.00  0.00     0.075 C 
BRANCH   8   9
ATOM      9  C   UNL     1     170.271 167.044 167.768  1.00  0.00     0.008 C 
BRANCH   9  10
ATOM     10  C   UNL     1     169.722 166.706 169.164  1.00  0.00     0.000 C 
BRANCH  10  11
ATOM     11  C   UNL     1     168.220 166.400 169.140  1.00  0.00    -0.003 C 
ATOM     12  C   UNL     1     167.732 166.147 167.717  1.00  0.00     0.004 C 
ENDBRANCH  10  11
ENDBRANCH   9  10
ENDBRANCH   8   9
ENDBRANCH   1   8
TORSDOF 8
ENDMDL
MODEL 8
REMARK VINA RESULT:    -3.148      8.698     11.775
REMARK INTER + INTRA:          -5.526
REMARK INTER:                  -4.818
REMARK INTRA:                  -0.708
REMARK UNBOUND:                -0.906
REMARK SMILES CCCCCC(=O)CCCCC
REMARK SMILES IDX 6 1 7 2 5 3 4 4 3 5 2 6 1 7 8 8 9 9 10 10 11 11 12 12
REMARK H PARENT
REMARK Flexibility Score: inf
ROOT
ATOM      1  C   UNL     1     164.921 172.249 167.353  1.00  0.00     0.132 C 
ATOM      2  O   UNL     1     165.497 172.986 166.566  1.00  0.00    -0.300 OA
ENDROOT
BRANCH   1   3
ATOM      3  C   UNL     1     164.475 170.876 166.911  1.00  0.00     0.075 C 
BRANCH   3   4
ATOM      4  C   UNL     1     164.444 169.829 168.041  1.00  0.00     0.008 C 
BRANCH   4   5
ATOM      5  C   UNL     1     164.874 168.418 167.601  1.00  0.00     0.000 C 
BRANCH   5   6
ATOM      6  C   UNL     1     165.002 167.441 168.777  1.00  0.00    -0.003 C 
ATOM      7  C   UNL     1     164.623 168.114 170.094  1.00  0.00     0.004 C 
ENDBRANCH   5   6
ENDBRANCH   4   5
ENDBRANCH   3   4
ENDBRANCH   1   3
BRANCH   1   8
ATOM      8  C   UNL     1     164.800 172.669 168.797  1.00  0.00     0.075 C 
BRANCH   8   9
ATOM      9  C   UNL     1     163.418 173.277 169.127  1.00  0.00     0.008 C 
BRANCH   9  10
ATOM     10  C   UNL     1     162.737 172.618 170.339  1.00  0.00     0.000 C 
BRANCH  10  11
ATOM     11  C   UNL     1     161.901 171.395 169.942  1.00  0.00    -0.003 C 
ATOM     12  C   UNL     1     161.526 170.563 171.164  1.00  0.00     0.004 C 
ENDBRANCH  10  11
ENDBRANCH   9  10
ENDBRANCH   8   9
ENDBRANCH   1   8
TORSDOF 8
ENDMDL
MODEL 9
REMARK VINA RESULT:    -3.127      4.024      6.339
REMARK INTER + INTRA:          -5.496
REMARK INTER:                  -5.169
REMARK INTRA:                  -0.326
REMARK UNBOUND:                -0.906
REMARK SMILES CCCCCC(=O)CCCCC
REMARK SMILES IDX 6 1 7 2 5 3 4 4 3 5 2 6 1 7 8 8 9 9 10 10 11 11 12 12
REMARK H PARENT
REMARK Flexibility Score: inf
ROOT
ATOM      1  C   UNL     1     166.571 165.204 167.157  1.00  0.00     0.132 C 
ATOM      2  O   UNL     1     166.585 165.164 165.935  1.00  0.00    -0.300 OA
ENDROOT
BRANCH   1   3
ATOM      3  C   UNL     1     167.076 166.431 167.876  1.00  0.00     0.075 C 
BRANCH   3   4
ATOM      4  C   UNL     1     168.549 166.341 168.319  1.00  0.00     0.008 C 
BRANCH   4   5
ATOM      5  C   UNL     1     169.562 166.612 167.191  1.00  0.00     0.000 C 
BRANCH   5   6
ATOM      6  C   UNL     1     170.960 166.961 167.717  1.00  0.00    -0.003 C 
ATOM      7  C   UNL     1     172.034 166.142 167.005  1.00  0.00     0.004 C 
ENDBRANCH   5   6
ENDBRANCH   4   5
ENDBRANCH   3   4
ENDBRANCH   1   3
BRANCH   1   8
ATOM      8  C   UNL     1     165.906 164.084 167.921  1.00  0.00     0.075 C 
BRANCH   8   9
ATOM      9  C   UNL     1     166.357 162.686 167.440  1.00  0.00     0.008 C 
BRANCH   9  10
ATOM     10  C   UNL     1     166.772 161.753 168.590  1.00  0.00     0.000 C 
BRANCH  10  11
ATOM     11  C   UNL     1     167.141 160.349 168.096  1.00  0.00    -0.003 C 
ATOM     12  C   UNL     1     166.543 160.075 166.719  1.00  0.00     0.004 C 
ENDBRANCH  10  11
ENDBRANCH   9  10
ENDBRANCH   8   9
ENDBRANCH   1   8
TORSDOF 8
ENDMDL
