MODEL 1
REMARK VINA RESULT:    -5.717      0.000      0.000
REMARK INTER + INTRA:          -7.290
REMARK INTER:                  -6.887
REMARK INTRA:                  -0.404
REMARK UNBOUND:                -0.404
REMARK SMILES O=c1c(O)c(-c2ccc(O)cc2O)oc2cc(O)cc(O)c12
REMARK SMILES IDX 5 1 3 2 2 3 1 4 22 5 20 6 19 7 17 8 16 9 15 10 14 11 6 12
REMARK SMILES IDX 8 13 7 14 9 15 11 16 12 17 10 18 13 20 4 22 21 24 18 26
REMARK H PARENT 10 19 13 21 4 23 21 25 18 27
REMARK Flexibility Score: inf
ROOT
ATOM      1  C   UNL     1      16.485  -5.943   8.388  1.00  0.00     0.184 A 
ATOM      2  C   UNL     1      17.503  -6.424   9.228  1.00  0.00     0.208 A 
ATOM      3  C   UNL     1      17.703  -7.809   9.331  1.00  0.00     0.238 A 
ATOM      4  O   UNL     1      18.579  -8.235  10.128  1.00  0.00    -0.285 OA
ATOM      5  C   UNL     1      16.896  -8.695   8.578  1.00  0.00     0.111 A 
ATOM      6  C   UNL     1      17.037 -10.115   8.574  1.00  0.00     0.134 A 
ATOM      7  C   UNL     1      16.101 -10.900   7.890  1.00  0.00     0.093 A 
ATOM      8  C   UNL     1      15.067 -10.313   7.156  1.00  0.00     0.123 A 
ATOM      9  C   UNL     1      14.957  -8.926   7.105  1.00  0.00     0.094 A 
ATOM     10  C   UNL     1      15.854  -8.117   7.807  1.00  0.00     0.146 A 
ATOM     11  O   UNL     1      15.705  -6.799   7.742  1.00  0.00    -0.451 OA
ENDROOT
BRANCH   1  12
ATOM     12  C   UNL     1      16.235  -4.493   8.215  1.00  0.00     0.063 A 
ATOM     13  C   UNL     1      15.120  -2.445   8.918  1.00  0.00     0.047 A 
ATOM     14  C   UNL     1      15.335  -3.818   9.062  1.00  0.00     0.020 A 
ATOM     15  C   UNL     1      15.806  -1.724   7.934  1.00  0.00     0.119 A 
ATOM     16  C   UNL     1      16.712  -2.382   7.099  1.00  0.00     0.093 A 
ATOM     17  C   UNL     1      16.934  -3.760   7.234  1.00  0.00     0.130 A 
BRANCH  15  18
ATOM     18  O   UNL     1      15.599  -0.355   7.783  1.00  0.00    -0.508 OA
ATOM     19  H   UNL     1      14.883   0.133   8.310  1.00  0.00     0.293 HD
ENDBRANCH  15  18
BRANCH  17  20
ATOM     20  O   UNL     1      17.837  -4.405   6.387  1.00  0.00    -0.507 OA
ATOM     21  H   UNL     1      18.517  -3.887   5.843  1.00  0.00     0.293 HD
ENDBRANCH  17  20
ENDBRANCH   1  12
BRANCH   2  22
ATOM     22  O   UNL     1      18.279  -5.529   9.973  1.00  0.00    -0.502 OA
ATOM     23  H   UNL     1      18.714  -5.788  10.850  1.00  0.00     0.293 HD
ENDBRANCH   2  22
BRANCH   6  24
ATOM     24  O   UNL     1      18.085 -10.798   9.199  1.00  0.00    -0.507 OA
ATOM     25  H   UNL     1      17.973 -11.618   9.775  1.00  0.00     0.293 HD
ENDBRANCH   6  24
BRANCH   8  26
ATOM     26  O   UNL     1      14.150 -11.101   6.465  1.00  0.00    -0.508 OA
ATOM     27  H   UNL     1      13.176 -10.832   6.382  1.00  0.00     0.293 HD
ENDBRANCH   8  26
TORSDOF 6
ENDMDL
MODEL 2
REMARK VINA RESULT:    -5.710      1.906      7.010
REMARK INTER + INTRA:          -7.282
REMARK INTER:                  -6.975
REMARK INTRA:                  -0.307
REMARK UNBOUND:                -0.404
REMARK SMILES O=c1c(O)c(-c2ccc(O)cc2O)oc2cc(O)cc(O)c12
REMARK SMILES IDX 5 1 3 2 2 3 1 4 22 5 20 6 19 7 17 8 16 9 15 10 14 11 6 12
REMARK SMILES IDX 8 13 7 14 9 15 11 16 12 17 10 18 13 20 4 22 21 24 18 26
REMARK H PARENT 10 19 13 21 4 23 21 25 18 27
REMARK Flexibility Score: inf
ROOT
ATOM      1  C   UNL     1      15.977  -7.128   7.933  1.00  0.00     0.184 A 
ATOM      2  C   UNL     1      14.734  -6.859   7.338  1.00  0.00     0.208 A 
ATOM      3  C   UNL     1      14.201  -5.563   7.427  1.00  0.00     0.238 A 
ATOM      4  O   UNL     1      13.062  -5.343   6.941  1.00  0.00    -0.285 OA
ATOM      5  C   UNL     1      14.928  -4.548   8.094  1.00  0.00     0.111 A 
ATOM      6  C   UNL     1      14.504  -3.190   8.210  1.00  0.00     0.134 A 
ATOM      7  C   UNL     1      15.242  -2.302   9.002  1.00  0.00     0.093 A 
ATOM      8  C   UNL     1      16.425  -2.704   9.627  1.00  0.00     0.123 A 
ATOM      9  C   UNL     1      16.879  -4.012   9.470  1.00  0.00     0.094 A 
ATOM     10  C   UNL     1      16.145  -4.932   8.717  1.00  0.00     0.146 A 
ATOM     11  O   UNL     1      16.607  -6.171   8.603  1.00  0.00    -0.451 OA
ENDROOT
BRANCH   1  12
ATOM     12  C   UNL     1      16.607  -8.466   7.856  1.00  0.00     0.063 A 
ATOM     13  C   UNL     1      17.439 -10.333   6.533  1.00  0.00     0.047 A 
ATOM     14  C   UNL     1      16.820  -9.084   6.609  1.00  0.00     0.020 A 
ATOM     15  C   UNL     1      17.865 -10.980   7.699  1.00  0.00     0.119 A 
ATOM     16  C   UNL     1      17.672 -10.369   8.940  1.00  0.00     0.093 A 
ATOM     17  C   UNL     1      17.049  -9.115   9.027  1.00  0.00     0.130 A 
BRANCH  15  18
ATOM     18  O   UNL     1      18.484 -12.226   7.634  1.00  0.00    -0.508 OA
ATOM     19  H   UNL     1      19.135 -12.532   8.349  1.00  0.00     0.293 HD
ENDBRANCH  15  18
BRANCH  17  20
ATOM     20  O   UNL     1      16.856  -8.520  10.275  1.00  0.00    -0.507 OA
ATOM     21  H   UNL     1      16.213  -8.909  10.955  1.00  0.00     0.293 HD
ENDBRANCH  17  20
ENDBRANCH   1  12
BRANCH   2  22
ATOM     22  O   UNL     1      14.028  -7.882   6.696  1.00  0.00    -0.502 OA
ATOM     23  H   UNL     1      13.303  -8.415   7.161  1.00  0.00     0.293 HD
ENDBRANCH   2  22
BRANCH   6  24
ATOM     24  O   UNL     1      13.388  -2.661   7.553  1.00  0.00    -0.507 OA
ATOM     25  H   UNL     1      13.420  -1.906   6.885  1.00  0.00     0.293 HD
ENDBRANCH   6  24
BRANCH   8  26
ATOM     26  O   UNL     1      17.162  -1.810  10.399  1.00  0.00    -0.508 OA
ATOM     27  H   UNL     1      16.823  -0.876  10.596  1.00  0.00     0.293 HD
ENDBRANCH   8  26
TORSDOF 6
ENDMDL
MODEL 3
REMARK VINA RESULT:    -5.541      1.833      6.349
REMARK INTER + INTRA:          -7.078
REMARK INTER:                  -6.865
REMARK INTRA:                  -0.213
REMARK UNBOUND:                -0.404
REMARK SMILES O=c1c(O)c(-c2ccc(O)cc2O)oc2cc(O)cc(O)c12
REMARK SMILES IDX 5 1 3 2 2 3 1 4 22 5 20 6 19 7 17 8 16 9 15 10 14 11 6 12
REMARK SMILES IDX 8 13 7 14 9 15 11 16 12 17 10 18 13 20 4 22 21 24 18 26
REMARK H PARENT 10 19 13 21 4 23 21 25 18 27
REMARK Flexibility Score: inf
ROOT
ATOM      1  C   UNL     1      16.297  -6.062   8.526  1.00  0.00     0.184 A 
ATOM      2  C   UNL     1      17.000  -5.086   9.251  1.00  0.00     0.208 A 
ATOM      3  C   UNL     1      16.514  -3.769   9.269  1.00  0.00     0.238 A 
ATOM      4  O   UNL     1      17.179  -2.888   9.873  1.00  0.00    -0.285 OA
ATOM      5  C   UNL     1      15.321  -3.449   8.578  1.00  0.00     0.111 A 
ATOM      6  C   UNL     1      14.715  -2.157   8.561  1.00  0.00     0.134 A 
ATOM      7  C   UNL     1      13.605  -1.926   7.739  1.00  0.00     0.093 A 
ATOM      8  C   UNL     1      13.039  -2.957   6.985  1.00  0.00     0.123 A 
ATOM      9  C   UNL     1      13.587  -4.236   7.042  1.00  0.00     0.094 A 
ATOM     10  C   UNL     1      14.717  -4.490   7.823  1.00  0.00     0.146 A 
ATOM     11  O   UNL     1      15.215  -5.720   7.839  1.00  0.00    -0.451 OA
ENDROOT
BRANCH   1  12
ATOM     12  C   UNL     1      16.741  -7.475   8.485  1.00  0.00     0.063 A 
ATOM     13  C   UNL     1      17.466  -9.493   9.638  1.00  0.00     0.047 A 
ATOM     14  C   UNL     1      17.075  -8.153   9.672  1.00  0.00     0.020 A 
ATOM     15  C   UNL     1      17.520 -10.180   8.419  1.00  0.00     0.119 A 
ATOM     16  C   UNL     1      17.176  -9.520   7.236  1.00  0.00     0.093 A 
ATOM     17  C   UNL     1      16.784  -8.173   7.261  1.00  0.00     0.130 A 
BRANCH  15  18
ATOM     18  O   UNL     1      17.909 -11.516   8.374  1.00  0.00    -0.508 OA
ATOM     19  H   UNL     1      18.869 -11.782   8.189  1.00  0.00     0.293 HD
ENDBRANCH  15  18
BRANCH  17  20
ATOM     20  O   UNL     1      16.451  -7.525   6.071  1.00  0.00    -0.507 OA
ATOM     21  H   UNL     1      15.658  -7.818   5.511  1.00  0.00     0.293 HD
ENDBRANCH  17  20
ENDBRANCH   1  12
BRANCH   2  22
ATOM     22  O   UNL     1      18.184  -5.423   9.915  1.00  0.00    -0.502 OA
ATOM     23  H   UNL     1      18.785  -6.177   9.605  1.00  0.00     0.293 HD
ENDBRANCH   2  22
BRANCH   6  24
ATOM     24  O   UNL     1      15.145  -1.082   9.345  1.00  0.00    -0.507 OA
ATOM     25  H   UNL     1      15.500  -0.212   8.981  1.00  0.00     0.293 HD
ENDBRANCH   6  24
BRANCH   8  26
ATOM     26  O   UNL     1      11.925  -2.722   6.183  1.00  0.00    -0.508 OA
ATOM     27  H   UNL     1      11.990  -2.181   5.329  1.00  0.00     0.293 HD
ENDBRANCH   8  26
TORSDOF 6
ENDMDL
MODEL 4
REMARK VINA RESULT:    -5.418      1.266      2.832
REMARK INTER + INTRA:          -6.930
REMARK INTER:                  -6.519
REMARK INTRA:                  -0.411
REMARK UNBOUND:                -0.404
REMARK SMILES O=c1c(O)c(-c2ccc(O)cc2O)oc2cc(O)cc(O)c12
REMARK SMILES IDX 5 1 3 2 2 3 1 4 22 5 20 6 19 7 17 8 16 9 15 10 14 11 6 12
REMARK SMILES IDX 8 13 7 14 9 15 11 16 12 17 10 18 13 20 4 22 21 24 18 26
REMARK H PARENT 10 19 13 21 4 23 21 25 18 27
REMARK Flexibility Score: inf
ROOT
ATOM      1  C   UNL     1      15.978  -5.674   7.940  1.00  0.00     0.184 A 
ATOM      2  C   UNL     1      15.390  -6.420   6.905  1.00  0.00     0.208 A 
ATOM      3  C   UNL     1      15.535  -7.816   6.905  1.00  0.00     0.238 A 
ATOM      4  O   UNL     1      15.055  -8.474   5.945  1.00  0.00    -0.285 OA
ATOM      5  C   UNL     1      16.250  -8.450   7.950  1.00  0.00     0.111 A 
ATOM      6  C   UNL     1      16.426  -9.861   8.072  1.00  0.00     0.134 A 
ATOM      7  C   UNL     1      17.259 -10.368   9.077  1.00  0.00     0.093 A 
ATOM      8  C   UNL     1      17.870  -9.520  10.003  1.00  0.00     0.123 A 
ATOM      9  C   UNL     1      17.656  -8.146   9.928  1.00  0.00     0.094 A 
ATOM     10  C   UNL     1      16.860  -7.606   8.915  1.00  0.00     0.146 A 
ATOM     11  O   UNL     1      16.692  -6.290   8.872  1.00  0.00    -0.451 OA
ENDROOT
BRANCH   1  12
ATOM     12  C   UNL     1      15.843  -4.200   8.014  1.00  0.00     0.063 A 
ATOM     13  C   UNL     1      14.701  -2.226   8.868  1.00  0.00     0.047 A 
ATOM     14  C   UNL     1      14.813  -3.616   8.774  1.00  0.00     0.020 A 
ATOM     15  C   UNL     1      15.623  -1.401   8.213  1.00  0.00     0.119 A 
ATOM     16  C   UNL     1      16.658  -1.971   7.468  1.00  0.00     0.093 A 
ATOM     17  C   UNL     1      16.776  -3.365   7.366  1.00  0.00     0.130 A 
BRANCH  15  18
ATOM     18  O   UNL     1      15.521  -0.014   8.300  1.00  0.00    -0.508 OA
ATOM     19  H   UNL     1      16.067   0.515   8.970  1.00  0.00     0.293 HD
ENDBRANCH  15  18
BRANCH  17  20
ATOM     20  O   UNL     1      17.811  -3.921   6.612  1.00  0.00    -0.507 OA
ATOM     21  H   UNL     1      17.755  -4.866   6.249  1.00  0.00     0.293 HD
ENDBRANCH  17  20
ENDBRANCH   1  12
BRANCH   2  22
ATOM     22  O   UNL     1      14.701  -5.771   5.876  1.00  0.00    -0.502 OA
ATOM     23  H   UNL     1      13.757  -5.421   5.991  1.00  0.00     0.293 HD
ENDBRANCH   2  22
BRANCH   6  24
ATOM     24  O   UNL     1      15.789 -10.801   7.256  1.00  0.00    -0.507 OA
ATOM     25  H   UNL     1      15.808 -10.793   6.248  1.00  0.00     0.293 HD
ENDBRANCH   6  24
BRANCH   8  26
ATOM     26  O   UNL     1      18.685 -10.034  11.010  1.00  0.00    -0.508 OA
ATOM     27  H   UNL     1      19.454  -9.499  11.394  1.00  0.00     0.293 HD
ENDBRANCH   8  26
TORSDOF 6
ENDMDL
MODEL 5
REMARK VINA RESULT:    -5.337      1.800      6.877
REMARK INTER + INTRA:          -6.832
REMARK INTER:                  -6.499
REMARK INTRA:                  -0.333
REMARK UNBOUND:                -0.404
REMARK SMILES O=c1c(O)c(-c2ccc(O)cc2O)oc2cc(O)cc(O)c12
REMARK SMILES IDX 5 1 3 2 2 3 1 4 22 5 20 6 19 7 17 8 16 9 15 10 14 11 6 12
REMARK SMILES IDX 8 13 7 14 9 15 11 16 12 17 10 18 13 20 4 22 21 24 18 26
REMARK H PARENT 10 19 13 21 4 23 21 25 18 27
REMARK Flexibility Score: inf
ROOT
ATOM      1  C   UNL     1      16.120  -9.591   7.974  1.00  0.00     0.184 A 
ATOM      2  C   UNL     1      17.061  -9.534   9.016  1.00  0.00     0.208 A 
ATOM      3  C   UNL     1      17.606  -8.291   9.374  1.00  0.00     0.238 A 
ATOM      4  O   UNL     1      18.490  -8.254  10.269  1.00  0.00    -0.285 OA
ATOM      5  C   UNL     1      17.190  -7.119   8.699  1.00  0.00     0.111 A 
ATOM      6  C   UNL     1      17.646  -5.802   9.005  1.00  0.00     0.134 A 
ATOM      7  C   UNL     1      17.263  -4.731   8.187  1.00  0.00     0.093 A 
ATOM      8  C   UNL     1      16.389  -4.919   7.115  1.00  0.00     0.123 A 
ATOM      9  C   UNL     1      15.891  -6.192   6.844  1.00  0.00     0.094 A 
ATOM     10  C   UNL     1      16.283  -7.286   7.619  1.00  0.00     0.146 A 
ATOM     11  O   UNL     1      15.795  -8.484   7.319  1.00  0.00    -0.451 OA
ENDROOT
BRANCH   1  12
ATOM     12  C   UNL     1      15.488 -10.866   7.561  1.00  0.00     0.063 A 
ATOM     13  C   UNL     1      15.685 -13.151   6.743  1.00  0.00     0.047 A 
ATOM     14  C   UNL     1      16.277 -11.938   7.106  1.00  0.00     0.020 A 
ATOM     15  C   UNL     1      14.298 -13.313   6.839  1.00  0.00     0.119 A 
ATOM     16  C   UNL     1      13.507 -12.259   7.303  1.00  0.00     0.093 A 
ATOM     17  C   UNL     1      14.093 -11.037   7.668  1.00  0.00     0.130 A 
BRANCH  15  18
ATOM     18  O   UNL     1      13.698 -14.517   6.480  1.00  0.00    -0.508 OA
ATOM     19  H   UNL     1      12.694 -14.593   6.362  1.00  0.00     0.293 HD
ENDBRANCH  15  18
BRANCH  17  20
ATOM     20  O   UNL     1      13.290  -9.990   8.123  1.00  0.00    -0.507 OA
ATOM     21  H   UNL     1      13.532  -9.021   7.951  1.00  0.00     0.293 HD
ENDBRANCH  17  20
ENDBRANCH   1  12
BRANCH   2  22
ATOM     22  O   UNL     1      17.467 -10.707   9.659  1.00  0.00    -0.502 OA
ATOM     23  H   UNL     1      16.809 -11.415   9.963  1.00  0.00     0.293 HD
ENDBRANCH   2  22
BRANCH   6  24
ATOM     24  O   UNL     1      18.448  -5.489  10.107  1.00  0.00    -0.507 OA
ATOM     25  H   UNL     1      18.284  -5.814  11.047  1.00  0.00     0.293 HD
ENDBRANCH   6  24
BRANCH   8  26
ATOM     26  O   UNL     1      16.000  -3.846   6.317  1.00  0.00    -0.508 OA
ATOM     27  H   UNL     1      15.163  -3.884   5.748  1.00  0.00     0.293 HD
ENDBRANCH   8  26
TORSDOF 6
ENDMDL
MODEL 6
REMARK VINA RESULT:    -4.970      3.201      6.062
REMARK INTER + INTRA:          -6.390
REMARK INTER:                  -5.978
REMARK INTRA:                  -0.412
REMARK UNBOUND:                -0.404
REMARK SMILES O=c1c(O)c(-c2ccc(O)cc2O)oc2cc(O)cc(O)c12
REMARK SMILES IDX 5 1 3 2 2 3 1 4 22 5 20 6 19 7 17 8 16 9 15 10 14 11 6 12
REMARK SMILES IDX 8 13 7 14 9 15 11 16 12 17 10 18 13 20 4 22 21 24 18 26
REMARK H PARENT 10 19 13 21 4 23 21 25 18 27
REMARK Flexibility Score: inf
ROOT
ATOM      1  C   UNL     1      17.160 -10.956   7.335  1.00  0.00     0.184 A 
ATOM      2  C   UNL     1      15.965 -11.642   7.062  1.00  0.00     0.208 A 
ATOM      3  C   UNL     1      16.028 -12.976   6.629  1.00  0.00     0.238 A 
ATOM      4  O   UNL     1      14.958 -13.567   6.332  1.00  0.00    -0.285 OA
ATOM      5  C   UNL     1      17.285 -13.613   6.493  1.00  0.00     0.111 A 
ATOM      6  C   UNL     1      17.467 -14.973   6.100  1.00  0.00     0.134 A 
ATOM      7  C   UNL     1      18.760 -15.459   5.875  1.00  0.00     0.093 A 
ATOM      8  C   UNL     1      19.882 -14.655   6.092  1.00  0.00     0.123 A 
ATOM      9  C   UNL     1      19.717 -13.344   6.533  1.00  0.00     0.094 A 
ATOM     10  C   UNL     1      18.438 -12.818   6.731  1.00  0.00     0.146 A 
ATOM     11  O   UNL     1      18.325 -11.560   7.140  1.00  0.00    -0.451 OA
ENDROOT
BRANCH   1  12
ATOM     12  C   UNL     1      17.164  -9.556   7.818  1.00  0.00     0.063 A 
ATOM     13  C   UNL     1      16.764  -7.186   7.421  1.00  0.00     0.047 A 
ATOM     14  C   UNL     1      16.788  -8.505   6.960  1.00  0.00     0.020 A 
ATOM     15  C   UNL     1      17.105  -6.899   8.749  1.00  0.00     0.119 A 
ATOM     16  C   UNL     1      17.465  -7.937   9.612  1.00  0.00     0.093 A 
ATOM     17  C   UNL     1      17.494  -9.264   9.157  1.00  0.00     0.130 A 
BRANCH  15  18
ATOM     18  O   UNL     1      17.084  -5.588   9.219  1.00  0.00    -0.508 OA
ATOM     19  H   UNL     1      17.374  -5.361  10.163  1.00  0.00     0.293 HD
ENDBRANCH  15  18
BRANCH  17  20
ATOM     20  O   UNL     1      17.863 -10.289  10.028  1.00  0.00    -0.507 OA
ATOM     21  H   UNL     1      18.772 -10.304  10.477  1.00  0.00     0.293 HD
ENDBRANCH  17  20
ENDBRANCH   1  12
BRANCH   2  22
ATOM     22  O   UNL     1      14.735 -10.988   7.191  1.00  0.00    -0.502 OA
ATOM     23  H   UNL     1      14.317 -10.790   8.092  1.00  0.00     0.293 HD
ENDBRANCH   2  22
BRANCH   6  24
ATOM     24  O   UNL     1      16.420 -15.887   5.944  1.00  0.00    -0.507 OA
ATOM     25  H   UNL     1      16.336 -16.537   5.177  1.00  0.00     0.293 HD
ENDBRANCH   6  24
BRANCH   8  26
ATOM     26  O   UNL     1      21.165 -15.152   5.882  1.00  0.00    -0.508 OA
ATOM     27  H   UNL     1      21.473 -15.455   4.965  1.00  0.00     0.293 HD
ENDBRANCH   8  26
TORSDOF 6
ENDMDL
MODEL 7
REMARK VINA RESULT:    -4.894      1.656      7.127
REMARK INTER + INTRA:          -6.299
REMARK INTER:                  -6.489
REMARK INTRA:                   0.189
REMARK UNBOUND:                -0.404
REMARK SMILES O=c1c(O)c(-c2ccc(O)cc2O)oc2cc(O)cc(O)c12
REMARK SMILES IDX 5 1 3 2 2 3 1 4 22 5 20 6 19 7 17 8 16 9 15 10 14 11 6 12
REMARK SMILES IDX 8 13 7 14 9 15 11 16 12 17 10 18 13 20 4 22 21 24 18 26
REMARK H PARENT 10 19 13 21 4 23 21 25 18 27
REMARK Flexibility Score: inf
ROOT
ATOM      1  C   UNL     1      16.290  -5.628   8.373  1.00  0.00     0.184 A 
ATOM      2  C   UNL     1      15.659  -5.254   7.176  1.00  0.00     0.208 A 
ATOM      3  C   UNL     1      15.428  -3.893   6.923  1.00  0.00     0.238 A 
ATOM      4  O   UNL     1      14.811  -3.569   5.875  1.00  0.00    -0.285 OA
ATOM      5  C   UNL     1      15.849  -2.921   7.862  1.00  0.00     0.111 A 
ATOM      6  C   UNL     1      15.703  -1.512   7.691  1.00  0.00     0.134 A 
ATOM      7  C   UNL     1      16.040  -0.651   8.743  1.00  0.00     0.093 A 
ATOM      8  C   UNL     1      16.580  -1.143   9.933  1.00  0.00     0.123 A 
ATOM      9  C   UNL     1      16.783  -2.512  10.086  1.00  0.00     0.094 A 
ATOM     10  C   UNL     1      16.421  -3.401   9.070  1.00  0.00     0.146 A 
ATOM     11  O   UNL     1      16.619  -4.699   9.262  1.00  0.00    -0.451 OA
ENDROOT
BRANCH   1  12
ATOM     12  C   UNL     1      16.585  -7.044   8.692  1.00  0.00     0.063 A 
ATOM     13  C   UNL     1      16.068  -9.412   8.456  1.00  0.00     0.047 A 
ATOM     14  C   UNL     1      15.775  -8.074   8.179  1.00  0.00     0.020 A 
ATOM     15  C   UNL     1      17.180  -9.741   9.240  1.00  0.00     0.119 A 
ATOM     16  C   UNL     1      17.999  -8.727   9.741  1.00  0.00     0.093 A 
ATOM     17  C   UNL     1      17.712  -7.380   9.470  1.00  0.00     0.130 A 
BRANCH  15  18
ATOM     18  O   UNL     1      17.482 -11.071   9.521  1.00  0.00    -0.508 OA
ATOM     19  H   UNL     1      18.281 -11.533   9.102  1.00  0.00     0.293 HD
ENDBRANCH  15  18
BRANCH  17  20
ATOM     20  O   UNL     1      18.534  -6.377   9.985  1.00  0.00    -0.507 OA
ATOM     21  H   UNL     1      19.118  -6.534  10.799  1.00  0.00     0.293 HD
ENDBRANCH  17  20
ENDBRANCH   1  12
BRANCH   2  22
ATOM     22  O   UNL     1      15.239  -6.233   6.269  1.00  0.00    -0.502 OA
ATOM     23  H   UNL     1      15.421  -6.167   5.275  1.00  0.00     0.293 HD
ENDBRANCH   2  22
BRANCH   6  24
ATOM     24  O   UNL     1      15.259  -0.910   6.510  1.00  0.00    -0.507 OA
ATOM     25  H   UNL     1      15.859  -0.629   5.749  1.00  0.00     0.293 HD
ENDBRANCH   6  24
BRANCH   8  26
ATOM     26  O   UNL     1      16.929  -0.277  10.968  1.00  0.00    -0.508 OA
ATOM     27  H   UNL     1      16.231   0.265  11.463  1.00  0.00     0.293 HD
ENDBRANCH   8  26
TORSDOF 6
ENDMDL
MODEL 8
REMARK VINA RESULT:    -4.808     11.083     13.452
REMARK INTER + INTRA:          -6.195
REMARK INTER:                  -5.715
REMARK INTRA:                  -0.480
REMARK UNBOUND:                -0.404
REMARK SMILES O=c1c(O)c(-c2ccc(O)cc2O)oc2cc(O)cc(O)c12
REMARK SMILES IDX 5 1 3 2 2 3 1 4 22 5 20 6 19 7 17 8 16 9 15 10 14 11 6 12
REMARK SMILES IDX 8 13 7 14 9 15 11 16 12 17 10 18 13 20 4 22 21 24 18 26
REMARK H PARENT 10 19 13 21 4 23 21 25 18 27
REMARK Flexibility Score: inf
ROOT
ATOM      1  C   UNL     1      13.839 -17.065  14.063  1.00  0.00     0.184 A 
ATOM      2  C   UNL     1      13.724 -17.885  15.198  1.00  0.00     0.208 A 
ATOM      3  C   UNL     1      13.311 -17.314  16.412  1.00  0.00     0.238 A 
ATOM      4  O   UNL     1      13.265 -18.042  17.437  1.00  0.00    -0.285 OA
ATOM      5  C   UNL     1      13.000 -15.935  16.471  1.00  0.00     0.111 A 
ATOM      6  C   UNL     1      12.533 -15.258  17.638  1.00  0.00     0.134 A 
ATOM      7  C   UNL     1      12.379 -13.867  17.614  1.00  0.00     0.093 A 
ATOM      8  C   UNL     1      12.611 -13.135  16.447  1.00  0.00     0.123 A 
ATOM      9  C   UNL     1      13.008 -13.794  15.286  1.00  0.00     0.094 A 
ATOM     10  C   UNL     1      13.207 -15.178  15.288  1.00  0.00     0.146 A 
ATOM     11  O   UNL     1      13.598 -15.765  14.163  1.00  0.00    -0.451 OA
ENDROOT
BRANCH   1  12
ATOM     12  C   UNL     1      14.246 -17.607  12.746  1.00  0.00     0.063 A 
ATOM     13  C   UNL     1      13.683 -18.740  10.665  1.00  0.00     0.047 A 
ATOM     14  C   UNL     1      13.308 -18.253  11.920  1.00  0.00     0.020 A 
ATOM     15  C   UNL     1      14.998 -18.579  10.213  1.00  0.00     0.119 A 
ATOM     16  C   UNL     1      15.934 -17.927  11.019  1.00  0.00     0.093 A 
ATOM     17  C   UNL     1      15.566 -17.436  12.282  1.00  0.00     0.130 A 
BRANCH  15  18
ATOM     18  O   UNL     1      15.383 -19.060   8.964  1.00  0.00    -0.508 OA
ATOM     19  H   UNL     1      16.329 -18.942   8.620  1.00  0.00     0.293 HD
ENDBRANCH  15  18
BRANCH  17  20
ATOM     20  O   UNL     1      16.513 -16.793  13.080  1.00  0.00    -0.507 OA
ATOM     21  H   UNL     1      17.416 -17.212  13.275  1.00  0.00     0.293 HD
ENDBRANCH  17  20
ENDBRANCH   1  12
BRANCH   2  22
ATOM     22  O   UNL     1      14.050 -19.243  15.118  1.00  0.00    -0.502 OA
ATOM     23  H   UNL     1      14.520 -19.642  14.314  1.00  0.00     0.293 HD
ENDBRANCH   2  22
BRANCH   6  24
ATOM     24  O   UNL     1      12.185 -15.904  18.829  1.00  0.00    -0.507 OA
ATOM     25  H   UNL     1      11.339 -15.730  19.349  1.00  0.00     0.293 HD
ENDBRANCH   6  24
BRANCH   8  26
ATOM     26  O   UNL     1      12.439 -11.753  16.427  1.00  0.00    -0.508 OA
ATOM     27  H   UNL     1      13.086 -11.132  16.897  1.00  0.00     0.293 HD
ENDBRANCH   8  26
TORSDOF 6
ENDMDL
MODEL 9
REMARK VINA RESULT:    -4.717      2.839      5.342
REMARK INTER + INTRA:          -6.086
REMARK INTER:                  -5.920
REMARK INTRA:                  -0.166
REMARK UNBOUND:                -0.404
REMARK SMILES O=c1c(O)c(-c2ccc(O)cc2O)oc2cc(O)cc(O)c12
REMARK SMILES IDX 5 1 3 2 2 3 1 4 22 5 20 6 19 7 17 8 16 9 15 10 14 11 6 12
REMARK SMILES IDX 8 13 7 14 9 15 11 16 12 17 10 18 13 20 4 22 21 24 18 26
REMARK H PARENT 10 19 13 21 4 23 21 25 18 27
REMARK Flexibility Score: inf
ROOT
ATOM      1  C   UNL     1      15.597  -9.960   8.131  1.00  0.00     0.184 A 
ATOM      2  C   UNL     1      14.196  -9.860   8.118  1.00  0.00     0.208 A 
ATOM      3  C   UNL     1      13.438 -10.959   7.685  1.00  0.00     0.238 A 
ATOM      4  O   UNL     1      12.186 -10.843   7.623  1.00  0.00    -0.285 OA
ATOM      5  C   UNL     1      14.090 -12.151   7.288  1.00  0.00     0.111 A 
ATOM      6  C   UNL     1      13.421 -13.340   6.869  1.00  0.00     0.134 A 
ATOM      7  C   UNL     1      14.169 -14.417   6.377  1.00  0.00     0.093 A 
ATOM      8  C   UNL     1      15.565 -14.372   6.350  1.00  0.00     0.123 A 
ATOM      9  C   UNL     1      16.229 -13.239   6.813  1.00  0.00     0.094 A 
ATOM     10  C   UNL     1      15.510 -12.134   7.276  1.00  0.00     0.146 A 
ATOM     11  O   UNL     1      16.181 -11.069   7.696  1.00  0.00    -0.451 OA
ENDROOT
BRANCH   1  12
ATOM     12  C   UNL     1      16.455  -8.847   8.598  1.00  0.00     0.063 A 
ATOM     13  C   UNL     1      17.020  -6.478   8.607  1.00  0.00     0.047 A 
ATOM     14  C   UNL     1      16.229  -7.534   8.146  1.00  0.00     0.020 A 
ATOM     15  C   UNL     1      18.041  -6.717   9.534  1.00  0.00     0.119 A 
ATOM     16  C   UNL     1      18.264  -8.015  10.000  1.00  0.00     0.093 A 
ATOM     17  C   UNL     1      17.476  -9.082   9.541  1.00  0.00     0.130 A 
BRANCH  15  18
ATOM     18  O   UNL     1      18.835  -5.673  10.001  1.00  0.00    -0.508 OA
ATOM     19  H   UNL     1      18.427  -4.836  10.401  1.00  0.00     0.293 HD
ENDBRANCH  15  18
BRANCH  17  20
ATOM     20  O   UNL     1      17.716 -10.374  10.010  1.00  0.00    -0.507 OA
ATOM     21  H   UNL     1      17.559 -10.625  10.980  1.00  0.00     0.293 HD
ENDBRANCH  17  20
ENDBRANCH   1  12
BRANCH   2  22
ATOM     22  O   UNL     1      13.575  -8.667   8.502  1.00  0.00    -0.502 OA
ATOM     23  H   UNL     1      14.091  -7.885   8.887  1.00  0.00     0.293 HD
ENDBRANCH   2  22
BRANCH   6  24
ATOM     24  O   UNL     1      12.036 -13.524   6.940  1.00  0.00    -0.507 OA
ATOM     25  H   UNL     1      11.363 -13.039   6.368  1.00  0.00     0.293 HD
ENDBRANCH   6  24
BRANCH   8  26
ATOM     26  O   UNL     1      16.303 -15.454   5.875  1.00  0.00    -0.508 OA
ATOM     27  H   UNL     1      16.901 -15.371   5.062  1.00  0.00     0.293 HD
ENDBRANCH   8  26
TORSDOF 6
ENDMDL
