MODEL 1
REMARK VINA RESULT:    12.900      0.000      0.000
REMARK INTER + INTRA:          22.820
REMARK INTER:                  23.458
REMARK INTRA:                  -0.638
REMARK UNBOUND:                -0.638
REMARK SMILES CCCCCCCCCCCCCC[C@@H](C)C(=O)[O-]
REMARK SMILES IDX 9 1 10 2 11 3 12 4 13 5 14 6 15 7 16 8 17 9 18 10 19 11 8 12
REMARK SMILES IDX 7 13 6 14 5 15 4 16 3 17 2 18 1 19
REMARK H PARENT
REMARK Flexibility Score: inf
ROOT
ATOM      1  C   UNL     1      11.703 -54.984  -3.458  1.00  0.00     0.000 C 
ENDROOT
BRANCH   1   2
ATOM      2  C   UNL     1      11.402 -56.494  -3.438  1.00  0.00     0.000 C 
BRANCH   2   3
ATOM      3  C   UNL     1      12.618 -57.341  -3.028  1.00  0.00     0.000 C 
BRANCH   3   4
ATOM      4  C   UNL     1      13.627 -57.520  -4.175  1.00  0.00     0.000 C 
BRANCH   4   5
ATOM      5  C   UNL     1      15.056 -57.797  -3.675  1.00  0.00     0.001 C 
BRANCH   5   6
ATOM      6  C   UNL     1      15.617 -56.627  -2.837  1.00  0.00     0.009 C 
BRANCH   6   7
ATOM      7  C   UNL     1      17.104 -56.318  -3.124  1.00  0.00     0.032 C 
ATOM      8  C   UNL     1      17.395 -54.813  -3.168  1.00  0.00     0.014 C 
BRANCH   7   9
ATOM      9  C   UNL     1      17.974 -56.976  -2.089  1.00  0.00     0.044 C 
ATOM     10  O   UNL     1      18.049 -56.505  -0.922  1.00  0.00    -0.550 OA
ATOM     11  O   UNL     1      18.700 -58.115  -2.415  1.00  0.00    -0.550 OA
ENDBRANCH   7   9
ENDBRANCH   6   7
ENDBRANCH   5   6
ENDBRANCH   4   5
ENDBRANCH   3   4
ENDBRANCH   2   3
ENDBRANCH   1   2
BRANCH   1  12
ATOM     12  C   UNL     1      10.675 -54.117  -4.214  1.00  0.00     0.000 C 
BRANCH  12  13
ATOM     13  C   UNL     1       9.439 -53.704  -3.393  1.00  0.00    -0.000 C 
BRANCH  13  14
ATOM     14  C   UNL     1       8.889 -52.301  -3.714  1.00  0.00    -0.000 C 
BRANCH  14  15
ATOM     15  C   UNL     1       8.925 -51.329  -2.514  1.00  0.00    -0.000 C 
BRANCH  15  16
ATOM     16  C   UNL     1       9.143 -49.869  -2.945  1.00  0.00    -0.000 C 
BRANCH  16  17
ATOM     17  C   UNL     1       9.922 -49.054  -1.901  1.00  0.00    -0.000 C 
BRANCH  17  18
ATOM     18  C   UNL     1      11.142 -48.338  -2.501  1.00  0.00    -0.003 C 
ATOM     19  C   UNL     1      10.886 -47.941  -3.952  1.00  0.00     0.004 C 
ENDBRANCH  17  18
ENDBRANCH  16  17
ENDBRANCH  15  16
ENDBRANCH  14  15
ENDBRANCH  13  14
ENDBRANCH  12  13
ENDBRANCH   1  12
TORSDOF 14
ENDMDL
MODEL 2
REMARK VINA RESULT:    14.468      1.262      1.999
REMARK INTER + INTRA:          25.671
REMARK INTER:                  26.358
REMARK INTRA:                  -0.687
REMARK UNBOUND:                -0.638
REMARK SMILES CCCCCCCCCCCCCC[C@@H](C)C(=O)[O-]
REMARK SMILES IDX 9 1 10 2 11 3 12 4 13 5 14 6 15 7 16 8 17 9 18 10 19 11 8 12
REMARK SMILES IDX 7 13 6 14 5 15 4 16 3 17 2 18 1 19
REMARK H PARENT
REMARK Flexibility Score: inf
ROOT
ATOM      1  C   UNL     1      11.987 -56.163  -3.100  1.00  0.00     0.000 C 
ENDROOT
BRANCH   1   2
ATOM      2  C   UNL     1      12.674 -57.475  -3.520  1.00  0.00     0.000 C 
BRANCH   2   3
ATOM      3  C   UNL     1      14.205 -57.349  -3.603  1.00  0.00     0.000 C 
BRANCH   3   4
ATOM      4  C   UNL     1      14.901 -58.707  -3.780  1.00  0.00     0.000 C 
BRANCH   4   5
ATOM      5  C   UNL     1      16.328 -58.728  -3.202  1.00  0.00     0.001 C 
BRANCH   5   6
ATOM      6  C   UNL     1      16.470 -57.805  -1.971  1.00  0.00     0.009 C 
BRANCH   6   7
ATOM      7  C   UNL     1      17.653 -56.815  -2.074  1.00  0.00     0.032 C 
ATOM      8  C   UNL     1      18.877 -57.429  -2.766  1.00  0.00     0.014 C 
BRANCH   7   9
ATOM      9  C   UNL     1      17.221 -55.574  -2.806  1.00  0.00     0.044 C 
ATOM     10  O   UNL     1      17.740 -55.272  -3.915  1.00  0.00    -0.550 OA
ATOM     11  O   UNL     1      16.241 -54.753  -2.263  1.00  0.00    -0.550 OA
ENDBRANCH   7   9
ENDBRANCH   6   7
ENDBRANCH   5   6
ENDBRANCH   4   5
ENDBRANCH   3   4
ENDBRANCH   2   3
ENDBRANCH   1   2
BRANCH   1  12
ATOM     12  C   UNL     1      11.212 -55.437  -4.218  1.00  0.00     0.000 C 
BRANCH  12  13
ATOM     13  C   UNL     1      10.841 -53.973  -3.912  1.00  0.00    -0.000 C 
BRANCH  13  14
ATOM     14  C   UNL     1       9.402 -53.764  -3.401  1.00  0.00    -0.000 C 
BRANCH  14  15
ATOM     15  C   UNL     1       8.812 -52.381  -3.755  1.00  0.00    -0.000 C 
BRANCH  15  16
ATOM     16  C   UNL     1       8.950 -51.369  -2.604  1.00  0.00    -0.000 C 
BRANCH  16  17
ATOM     17  C   UNL     1       9.206 -49.938  -3.102  1.00  0.00    -0.000 C 
BRANCH  17  18
ATOM     18  C   UNL     1       9.995 -49.094  -2.090  1.00  0.00    -0.003 C 
ATOM     19  C   UNL     1      11.117 -48.321  -2.778  1.00  0.00     0.004 C 
ENDBRANCH  17  18
ENDBRANCH  16  17
ENDBRANCH  15  16
ENDBRANCH  14  15
ENDBRANCH  13  14
ENDBRANCH  12  13
ENDBRANCH   1  12
TORSDOF 14
ENDMDL
MODEL 3
REMARK VINA RESULT:    14.481      3.574      8.679
REMARK INTER + INTRA:          25.695
REMARK INTER:                  26.333
REMARK INTRA:                  -0.638
REMARK UNBOUND:                -0.638
REMARK SMILES CCCCCCCCCCCCCC[C@@H](C)C(=O)[O-]
REMARK SMILES IDX 9 1 10 2 11 3 12 4 13 5 14 6 15 7 16 8 17 9 18 10 19 11 8 12
REMARK SMILES IDX 7 13 6 14 5 15 4 16 3 17 2 18 1 19
REMARK H PARENT
REMARK Flexibility Score: inf
ROOT
ATOM      1  C   UNL     1      11.160 -55.078  -4.179  1.00  0.00     0.000 C 
ENDROOT
BRANCH   1   2
ATOM      2  C   UNL     1      10.658 -53.654  -3.880  1.00  0.00     0.000 C 
BRANCH   2   3
ATOM      3  C   UNL     1       9.144 -53.596  -3.618  1.00  0.00     0.000 C 
BRANCH   3   4
ATOM      4  C   UNL     1       8.626 -52.158  -3.456  1.00  0.00     0.000 C 
BRANCH   4   5
ATOM      5  C   UNL     1       9.639 -51.233  -2.756  1.00  0.00     0.001 C 
BRANCH   5   6
ATOM      6  C   UNL     1       9.374 -49.743  -3.061  1.00  0.00     0.009 C 
BRANCH   6   7
ATOM      7  C   UNL     1      10.659 -48.885  -3.120  1.00  0.00     0.032 C 
ATOM      8  C   UNL     1      10.516 -47.672  -4.048  1.00  0.00     0.014 C 
BRANCH   7   9
ATOM      9  C   UNL     1      11.036 -48.429  -1.738  1.00  0.00     0.044 C 
ATOM     10  O   UNL     1      10.148 -48.071  -0.918  1.00  0.00    -0.550 OA
ATOM     11  O   UNL     1      12.371 -48.405  -1.354  1.00  0.00    -0.550 OA
ENDBRANCH   7   9
ENDBRANCH   6   7
ENDBRANCH   5   6
ENDBRANCH   4   5
ENDBRANCH   3   4
ENDBRANCH   2   3
ENDBRANCH   1   2
BRANCH   1  12
ATOM     12  C   UNL     1      11.731 -55.844  -2.968  1.00  0.00     0.000 C 
BRANCH  12  13
ATOM     13  C   UNL     1      12.232 -57.269  -3.273  1.00  0.00    -0.000 C 
BRANCH  13  14
ATOM     14  C   UNL     1      13.424 -57.341  -4.246  1.00  0.00    -0.000 C 
BRANCH  14  15
ATOM     15  C   UNL     1      14.660 -58.062  -3.665  1.00  0.00    -0.000 C 
BRANCH  15  16
ATOM     16  C   UNL     1      15.721 -57.081  -3.138  1.00  0.00    -0.000 C 
BRANCH  16  17
ATOM     17  C   UNL     1      16.910 -57.794  -2.476  1.00  0.00    -0.000 C 
BRANCH  17  18
ATOM     18  C   UNL     1      17.989 -56.815  -1.989  1.00  0.00    -0.003 C 
ATOM     19  C   UNL     1      17.606 -55.373  -2.308  1.00  0.00     0.004 C 
ENDBRANCH  17  18
ENDBRANCH  16  17
ENDBRANCH  15  16
ENDBRANCH  14  15
ENDBRANCH  13  14
ENDBRANCH  12  13
ENDBRANCH   1  12
TORSDOF 14
ENDMDL
MODEL 4
REMARK VINA RESULT:    14.724      2.687      5.148
REMARK INTER + INTRA:          26.137
REMARK INTER:                  27.195
REMARK INTRA:                  -1.058
REMARK UNBOUND:                -0.638
REMARK SMILES CCCCCCCCCCCCCC[C@@H](C)C(=O)[O-]
REMARK SMILES IDX 9 1 10 2 11 3 12 4 13 5 14 6 15 7 16 8 17 9 18 10 19 11 8 12
REMARK SMILES IDX 7 13 6 14 5 15 4 16 3 17 2 18 1 19
REMARK H PARENT
REMARK Flexibility Score: inf
ROOT
ATOM      1  C   UNL     1      15.331 -59.631  -3.670  1.00  0.00     0.000 C 
ENDROOT
BRANCH   1   2
ATOM      2  C   UNL     1      16.486 -59.621  -2.652  1.00  0.00     0.000 C 
BRANCH   2   3
ATOM      3  C   UNL     1      17.761 -60.293  -3.187  1.00  0.00     0.000 C 
BRANCH   3   4
ATOM      4  C   UNL     1      19.042 -59.562  -2.752  1.00  0.00     0.000 C 
BRANCH   4   5
ATOM      5  C   UNL     1      19.124 -58.125  -3.298  1.00  0.00     0.001 C 
BRANCH   5   6
ATOM      6  C   UNL     1      19.038 -57.069  -2.174  1.00  0.00     0.009 C 
BRANCH   6   7
ATOM      7  C   UNL     1      17.590 -56.731  -1.753  1.00  0.00     0.032 C 
ATOM      8  C   UNL     1      17.466 -56.441  -0.251  1.00  0.00     0.014 C 
BRANCH   7   9
ATOM      9  C   UNL     1      17.086 -55.555  -2.543  1.00  0.00     0.044 C 
ATOM     10  O   UNL     1      17.537 -55.320  -3.697  1.00  0.00    -0.550 OA
ATOM     11  O   UNL     1      16.115 -54.721  -2.005  1.00  0.00    -0.550 OA
ENDBRANCH   7   9
ENDBRANCH   6   7
ENDBRANCH   5   6
ENDBRANCH   4   5
ENDBRANCH   3   4
ENDBRANCH   2   3
ENDBRANCH   1   2
BRANCH   1  12
ATOM     12  C   UNL     1      15.008 -58.268  -4.315  1.00  0.00     0.000 C 
BRANCH  12  13
ATOM     13  C   UNL     1      14.082 -57.356  -3.488  1.00  0.00    -0.000 C 
BRANCH  13  14
ATOM     14  C   UNL     1      12.588 -57.451  -3.851  1.00  0.00    -0.000 C 
BRANCH  14  15
ATOM     15  C   UNL     1      11.641 -57.064  -2.694  1.00  0.00    -0.000 C 
BRANCH  15  16
ATOM     16  C   UNL     1      10.766 -55.844  -3.032  1.00  0.00    -0.000 C 
BRANCH  16  17
ATOM     17  C   UNL     1      11.266 -55.082  -4.268  1.00  0.00    -0.000 C 
BRANCH  17  18
ATOM     18  C   UNL     1      10.840 -53.606  -4.263  1.00  0.00    -0.003 C 
ATOM     19  C   UNL     1      12.056 -52.684  -4.250  1.00  0.00     0.004 C 
ENDBRANCH  17  18
ENDBRANCH  16  17
ENDBRANCH  15  16
ENDBRANCH  14  15
ENDBRANCH  13  14
ENDBRANCH  12  13
ENDBRANCH   1  12
TORSDOF 14
ENDMDL
MODEL 5
REMARK VINA RESULT:    14.968      2.673      5.403
REMARK INTER + INTRA:          26.581
REMARK INTER:                  27.724
REMARK INTRA:                  -1.143
REMARK UNBOUND:                -0.638
REMARK SMILES CCCCCCCCCCCCCC[C@@H](C)C(=O)[O-]
REMARK SMILES IDX 9 1 10 2 11 3 12 4 13 5 14 6 15 7 16 8 17 9 18 10 19 11 8 12
REMARK SMILES IDX 7 13 6 14 5 15 4 16 3 17 2 18 1 19
REMARK H PARENT
REMARK Flexibility Score: inf
ROOT
ATOM      1  C   UNL     1      15.867 -59.325  -2.764  1.00  0.00     0.000 C 
ENDROOT
BRANCH   1   2
ATOM      2  C   UNL     1      16.706 -60.615  -2.777  1.00  0.00     0.000 C 
BRANCH   2   3
ATOM      3  C   UNL     1      17.986 -60.487  -3.621  1.00  0.00     0.000 C 
BRANCH   3   4
ATOM      4  C   UNL     1      19.122 -59.776  -2.868  1.00  0.00     0.000 C 
BRANCH   4   5
ATOM      5  C   UNL     1      19.008 -58.242  -2.924  1.00  0.00     0.001 C 
BRANCH   5   6
ATOM      6  C   UNL     1      18.908 -57.613  -1.517  1.00  0.00     0.009 C 
BRANCH   6   7
ATOM      7  C   UNL     1      18.132 -56.277  -1.489  1.00  0.00     0.032 C 
ATOM      8  C   UNL     1      17.294 -56.056  -2.755  1.00  0.00     0.014 C 
BRANCH   7   9
ATOM      9  C   UNL     1      17.246 -56.223  -0.275  1.00  0.00     0.044 C 
ATOM     10  O   UNL     1      16.159 -55.586  -0.304  1.00  0.00    -0.550 OA
ATOM     11  O   UNL     1      17.622 -56.881   0.889  1.00  0.00    -0.550 OA
ENDBRANCH   7   9
ENDBRANCH   6   7
ENDBRANCH   5   6
ENDBRANCH   4   5
ENDBRANCH   3   4
ENDBRANCH   2   3
ENDBRANCH   1   2
BRANCH   1  12
ATOM     12  C   UNL     1      14.788 -59.229  -3.863  1.00  0.00     0.000 C 
BRANCH  12  13
ATOM     13  C   UNL     1      14.413 -57.796  -4.286  1.00  0.00    -0.000 C 
BRANCH  13  14
ATOM     14  C   UNL     1      13.505 -57.045  -3.294  1.00  0.00    -0.000 C 
BRANCH  14  15
ATOM     15  C   UNL     1      12.049 -57.559  -3.271  1.00  0.00    -0.000 C 
BRANCH  15  16
ATOM     16  C   UNL     1      11.020 -56.416  -3.272  1.00  0.00    -0.000 C 
BRANCH  16  17
ATOM     17  C   UNL     1      11.652 -55.051  -3.587  1.00  0.00    -0.000 C 
BRANCH  17  18
ATOM     18  C   UNL     1      10.787 -54.204  -4.533  1.00  0.00    -0.003 C 
ATOM     19  C   UNL     1       9.654 -53.519  -3.774  1.00  0.00     0.004 C 
ENDBRANCH  17  18
ENDBRANCH  16  17
ENDBRANCH  15  16
ENDBRANCH  14  15
ENDBRANCH  13  14
ENDBRANCH  12  13
ENDBRANCH   1  12
TORSDOF 14
ENDMDL
MODEL 6
REMARK VINA RESULT:    15.457      4.139      7.843
REMARK INTER + INTRA:          27.470
REMARK INTER:                  28.833
REMARK INTRA:                  -1.364
REMARK UNBOUND:                -0.638
REMARK SMILES CCCCCCCCCCCCCC[C@@H](C)C(=O)[O-]
REMARK SMILES IDX 9 1 10 2 11 3 12 4 13 5 14 6 15 7 16 8 17 9 18 10 19 11 8 12
REMARK SMILES IDX 7 13 6 14 5 15 4 16 3 17 2 18 1 19
REMARK H PARENT
REMARK Flexibility Score: inf
ROOT
ATOM      1  C   UNL     1      17.882 -60.704  -3.085  1.00  0.00     0.000 C 
ENDROOT
BRANCH   1   2
ATOM      2  C   UNL     1      16.500 -60.085  -2.809  1.00  0.00     0.000 C 
BRANCH   2   3
ATOM      3  C   UNL     1      15.804 -59.583  -4.085  1.00  0.00     0.000 C 
BRANCH   3   4
ATOM      4  C   UNL     1      14.417 -58.983  -3.805  1.00  0.00     0.000 C 
BRANCH   4   5
ATOM      5  C   UNL     1      14.367 -57.461  -4.027  1.00  0.00     0.001 C 
BRANCH   5   6
ATOM      6  C   UNL     1      12.983 -56.989  -4.524  1.00  0.00     0.009 C 
BRANCH   6   7
ATOM      7  C   UNL     1      12.210 -56.141  -3.488  1.00  0.00     0.032 C 
ATOM      8  C   UNL     1      11.087 -55.313  -4.125  1.00  0.00     0.014 C 
BRANCH   7   9
ATOM      9  C   UNL     1      11.643 -57.032  -2.417  1.00  0.00     0.044 C 
ATOM     10  O   UNL     1      10.890 -57.997  -2.719  1.00  0.00    -0.550 OA
ATOM     11  O   UNL     1      11.951 -56.796  -1.083  1.00  0.00    -0.550 OA
ENDBRANCH   7   9
ENDBRANCH   6   7
ENDBRANCH   5   6
ENDBRANCH   4   5
ENDBRANCH   3   4
ENDBRANCH   2   3
ENDBRANCH   1   2
BRANCH   1  12
ATOM     12  C   UNL     1      19.087 -59.799  -2.757  1.00  0.00     0.000 C 
BRANCH  12  13
ATOM     13  C   UNL     1      18.921 -58.319  -3.152  1.00  0.00    -0.000 C 
BRANCH  13  14
ATOM     14  C   UNL     1      19.125 -57.315  -2.002  1.00  0.00    -0.000 C 
BRANCH  14  15
ATOM     15  C   UNL     1      17.829 -56.974  -1.236  1.00  0.00    -0.000 C 
BRANCH  15  16
ATOM     16  C   UNL     1      16.698 -56.506  -2.168  1.00  0.00    -0.000 C 
BRANCH  16  17
ATOM     17  C   UNL     1      16.911 -55.073  -2.683  1.00  0.00    -0.000 C 
BRANCH  17  18
ATOM     18  C   UNL     1      17.364 -55.035  -4.150  1.00  0.00    -0.003 C 
ATOM     19  C   UNL     1      17.876 -53.648  -4.530  1.00  0.00     0.004 C 
ENDBRANCH  17  18
ENDBRANCH  16  17
ENDBRANCH  15  16
ENDBRANCH  14  15
ENDBRANCH  13  14
ENDBRANCH  12  13
ENDBRANCH   1  12
TORSDOF 14
ENDMDL
