MODEL 1
REMARK VINA RESULT:    -4.396      0.000      0.000
REMARK INTER + INTRA:          -7.562
REMARK INTER:                  -6.967
REMARK INTRA:                  -0.595
REMARK UNBOUND:                -0.595
REMARK SMILES CCCCCCCCCCCC(=O)[O-]
REMARK SMILES IDX 7 1 8 2 9 3 10 4 11 5 12 6 13 7 14 8 6 9 5 10 4 11 3 12 2 13
REMARK SMILES IDX 1 14
REMARK H PARENT
REMARK Flexibility Score: inf
ROOT
ATOM      1  C   UNL     1     -12.841   2.363 -21.846  1.00  0.00     0.000 C 
ENDROOT
BRANCH   1   2
ATOM      2  C   UNL     1     -12.022   1.349 -21.017  1.00  0.00     0.000 C 
BRANCH   2   3
ATOM      3  C   UNL     1     -11.891   1.729 -19.529  1.00  0.00     0.000 C 
BRANCH   3   4
ATOM      4  C   UNL     1     -10.445   1.830 -19.015  1.00  0.00     0.006 C 
BRANCH   4   5
ATOM      5  C   UNL     1      -9.443   2.169 -20.127  1.00  0.00     0.053 C 
BRANCH   5   6
ATOM      6  C   UNL     1      -8.315   1.187 -20.127  1.00  0.00     0.041 C 
ATOM      7  O   UNL     1      -8.540  -0.038 -20.311  1.00  0.00    -0.550 OA
ATOM      8  O   UNL     1      -7.008   1.631 -19.972  1.00  0.00    -0.550 OA
ENDBRANCH   5   6
ENDBRANCH   4   5
ENDBRANCH   3   4
ENDBRANCH   2   3
ENDBRANCH   1   2
BRANCH   1   9
ATOM      9  C   UNL     1     -14.038   2.925 -21.059  1.00  0.00     0.000 C 
BRANCH   9  10
ATOM     10  C   UNL     1     -15.137   3.483 -21.976  1.00  0.00    -0.000 C 
BRANCH  10  11
ATOM     11  C   UNL     1     -14.653   3.689 -23.422  1.00  0.00    -0.000 C 
BRANCH  11  12
ATOM     12  C   UNL     1     -14.318   5.159 -23.735  1.00  0.00    -0.000 C 
BRANCH  12  13
ATOM     13  C   UNL     1     -15.256   5.829 -24.755  1.00  0.00    -0.003 C 
ATOM     14  C   UNL     1     -16.415   6.579 -24.098  1.00  0.00     0.004 C 
ENDBRANCH  12  13
ENDBRANCH  11  12
ENDBRANCH  10  11
ENDBRANCH   9  10
ENDBRANCH   1   9
TORSDOF 10
ENDMDL
MODEL 2
REMARK VINA RESULT:    -4.252      1.513      2.747
REMARK INTER + INTRA:          -7.332
REMARK INTER:                  -6.354
REMARK INTRA:                  -0.978
REMARK UNBOUND:                -0.595
REMARK SMILES CCCCCCCCCCCC(=O)[O-]
REMARK SMILES IDX 7 1 8 2 9 3 10 4 11 5 12 6 13 7 14 8 6 9 5 10 4 11 3 12 2 13
REMARK SMILES IDX 1 14
REMARK H PARENT
REMARK Flexibility Score: inf
ROOT
ATOM      1  C   UNL     1     -12.357   2.362 -21.890  1.00  0.00     0.000 C 
ENDROOT
BRANCH   1   2
ATOM      2  C   UNL     1     -12.254   1.201 -20.877  1.00  0.00     0.000 C 
BRANCH   2   3
ATOM      3  C   UNL     1     -11.825   1.648 -19.466  1.00  0.00     0.000 C 
BRANCH   3   4
ATOM      4  C   UNL     1     -10.401   1.230 -19.062  1.00  0.00     0.006 C 
BRANCH   4   5
ATOM      5  C   UNL     1      -9.353   2.299 -19.399  1.00  0.00     0.053 C 
BRANCH   5   6
ATOM      6  C   UNL     1      -8.362   1.763 -20.384  1.00  0.00     0.041 C 
ATOM      7  O   UNL     1      -7.222   1.393 -19.999  1.00  0.00    -0.550 OA
ATOM      8  O   UNL     1      -8.716   1.627 -21.720  1.00  0.00    -0.550 OA
ENDBRANCH   5   6
ENDBRANCH   4   5
ENDBRANCH   3   4
ENDBRANCH   2   3
ENDBRANCH   1   2
BRANCH   1   9
ATOM      9  C   UNL     1     -13.788   2.542 -22.424  1.00  0.00     0.000 C 
BRANCH   9  10
ATOM     10  C   UNL     1     -14.196   4.020 -22.529  1.00  0.00    -0.000 C 
BRANCH  10  11
ATOM     11  C   UNL     1     -15.629   4.275 -22.032  1.00  0.00    -0.000 C 
BRANCH  11  12
ATOM     12  C   UNL     1     -16.222   3.072 -21.274  1.00  0.00    -0.000 C 
BRANCH  12  13
ATOM     13  C   UNL     1     -16.444   3.306 -19.769  1.00  0.00    -0.003 C 
ATOM     14  C   UNL     1     -15.190   3.049 -18.933  1.00  0.00     0.004 C 
ENDBRANCH  12  13
ENDBRANCH  11  12
ENDBRANCH  10  11
ENDBRANCH   9  10
ENDBRANCH   1   9
TORSDOF 10
ENDMDL
MODEL 3
REMARK VINA RESULT:    -4.245     15.866     17.453
REMARK INTER + INTRA:          -7.321
REMARK INTER:                  -6.372
REMARK INTRA:                  -0.949
REMARK UNBOUND:                -0.595
REMARK SMILES CCCCCCCCCCCC(=O)[O-]
REMARK SMILES IDX 7 1 8 2 9 3 10 4 11 5 12 6 13 7 14 8 6 9 5 10 4 11 3 12 2 13
REMARK SMILES IDX 1 14
REMARK H PARENT
REMARK Flexibility Score: inf
ROOT
ATOM      1  C   UNL     1      -4.305   6.197 -38.226  1.00  0.00     0.000 C 
ENDROOT
BRANCH   1   2
ATOM      2  C   UNL     1      -5.354   5.944 -37.122  1.00  0.00     0.000 C 
BRANCH   2   3
ATOM      3  C   UNL     1      -5.444   7.079 -36.083  1.00  0.00     0.000 C 
BRANCH   3   4
ATOM      4  C   UNL     1      -6.221   6.723 -34.805  1.00  0.00     0.006 C 
BRANCH   4   5
ATOM      5  C   UNL     1      -7.195   5.555 -35.010  1.00  0.00     0.053 C 
BRANCH   5   6
ATOM      6  C   UNL     1      -7.617   4.992 -33.689  1.00  0.00     0.041 C 
ATOM      7  O   UNL     1      -7.953   3.783 -33.593  1.00  0.00    -0.550 OA
ATOM      8  O   UNL     1      -7.592   5.792 -32.554  1.00  0.00    -0.550 OA
ENDBRANCH   5   6
ENDBRANCH   4   5
ENDBRANCH   3   4
ENDBRANCH   2   3
ENDBRANCH   1   2
BRANCH   1   9
ATOM      9  C   UNL     1      -2.885   6.353 -37.654  1.00  0.00     0.000 C 
BRANCH   9  10
ATOM     10  C   UNL     1      -2.250   7.705 -38.015  1.00  0.00    -0.000 C 
BRANCH  10  11
ATOM     11  C   UNL     1      -1.278   8.210 -36.934  1.00  0.00    -0.000 C 
BRANCH  11  12
ATOM     12  C   UNL     1      -1.156   7.243 -35.742  1.00  0.00    -0.000 C 
BRANCH  12  13
ATOM     13  C   UNL     1      -1.442   7.876 -34.369  1.00  0.00    -0.003 C 
ATOM     14  C   UNL     1      -2.649   8.813 -34.381  1.00  0.00     0.004 C 
ENDBRANCH  12  13
ENDBRANCH  11  12
ENDBRANCH  10  11
ENDBRANCH   9  10
ENDBRANCH   1   9
TORSDOF 10
ENDMDL
MODEL 4
REMARK VINA RESULT:    -4.219     14.672     16.073
REMARK INTER + INTRA:          -7.281
REMARK INTER:                  -6.446
REMARK INTRA:                  -0.835
REMARK UNBOUND:                -0.595
REMARK SMILES CCCCCCCCCCCC(=O)[O-]
REMARK SMILES IDX 7 1 8 2 9 3 10 4 11 5 12 6 13 7 14 8 6 9 5 10 4 11 3 12 2 13
REMARK SMILES IDX 1 14
REMARK H PARENT
REMARK Flexibility Score: inf
ROOT
ATOM      1  C   UNL     1      -6.539   6.648 -33.057  1.00  0.00     0.000 C 
ENDROOT
BRANCH   1   2
ATOM      2  C   UNL     1      -5.962   6.696 -34.489  1.00  0.00     0.000 C 
BRANCH   2   3
ATOM      3  C   UNL     1      -5.317   8.048 -34.851  1.00  0.00     0.000 C 
BRANCH   3   4
ATOM      4  C   UNL     1      -3.805   8.134 -34.581  1.00  0.00     0.006 C 
BRANCH   4   5
ATOM      5  C   UNL     1      -3.017   8.661 -35.788  1.00  0.00     0.053 C 
BRANCH   5   6
ATOM      6  C   UNL     1      -2.117   7.594 -36.327  1.00  0.00     0.041 C 
ATOM      7  O   UNL     1      -2.462   6.923 -37.334  1.00  0.00    -0.550 OA
ATOM      8  O   UNL     1      -0.875   7.375 -35.744  1.00  0.00    -0.550 OA
ENDBRANCH   5   6
ENDBRANCH   4   5
ENDBRANCH   3   4
ENDBRANCH   2   3
ENDBRANCH   1   2
BRANCH   1   9
ATOM      9  C   UNL     1      -7.624   5.569 -32.903  1.00  0.00     0.000 C 
BRANCH   9  10
ATOM     10  C   UNL     1      -8.563   5.499 -34.118  1.00  0.00    -0.000 C 
BRANCH  10  11
ATOM     11  C   UNL     1      -8.728   4.068 -34.657  1.00  0.00    -0.000 C 
BRANCH  11  12
ATOM     12  C   UNL     1      -7.441   3.231 -34.535  1.00  0.00    -0.000 C 
BRANCH  12  13
ATOM     13  C   UNL     1      -6.488   3.340 -35.738  1.00  0.00    -0.003 C 
ATOM     14  C   UNL     1      -7.210   3.661 -37.047  1.00  0.00     0.004 C 
ENDBRANCH  12  13
ENDBRANCH  11  12
ENDBRANCH  10  11
ENDBRANCH   9  10
ENDBRANCH   1   9
TORSDOF 10
ENDMDL
MODEL 5
REMARK VINA RESULT:    -4.218     14.494     16.007
REMARK INTER + INTRA:          -7.280
REMARK INTER:                  -6.473
REMARK INTRA:                  -0.806
REMARK UNBOUND:                -0.595
REMARK SMILES CCCCCCCCCCCC(=O)[O-]
REMARK SMILES IDX 7 1 8 2 9 3 10 4 11 5 12 6 13 7 14 8 6 9 5 10 4 11 3 12 2 13
REMARK SMILES IDX 1 14
REMARK H PARENT
REMARK Flexibility Score: inf
ROOT
ATOM      1  C   UNL     1      -8.644   5.143 -34.757  1.00  0.00     0.000 C 
ENDROOT
BRANCH   1   2
ATOM      2  C   UNL     1      -7.680   4.980 -33.562  1.00  0.00     0.000 C 
BRANCH   2   3
ATOM      3  C   UNL     1      -7.916   6.002 -32.433  1.00  0.00     0.000 C 
BRANCH   3   4
ATOM      4  C   UNL     1      -6.836   7.091 -32.313  1.00  0.00     0.006 C 
BRANCH   4   5
ATOM      5  C   UNL     1      -5.727   6.944 -33.364  1.00  0.00     0.053 C 
BRANCH   5   6
ATOM      6  C   UNL     1      -5.690   8.148 -34.251  1.00  0.00     0.041 C 
ATOM      7  O   UNL     1      -5.570   8.014 -35.497  1.00  0.00    -0.550 OA
ATOM      8  O   UNL     1      -5.838   9.417 -33.706  1.00  0.00    -0.550 OA
ENDBRANCH   5   6
ENDBRANCH   4   5
ENDBRANCH   3   4
ENDBRANCH   2   3
ENDBRANCH   1   2
BRANCH   1   9
ATOM      9  C   UNL     1      -7.896   5.385 -36.079  1.00  0.00     0.000 C 
BRANCH   9  10
ATOM     10  C   UNL     1      -6.544   4.656 -36.134  1.00  0.00    -0.000 C 
BRANCH  10  11
ATOM     11  C   UNL     1      -6.623   3.320 -36.892  1.00  0.00    -0.000 C 
BRANCH  11  12
ATOM     12  C   UNL     1      -5.543   3.188 -37.982  1.00  0.00    -0.000 C 
BRANCH  12  13
ATOM     13  C   UNL     1      -4.180   2.681 -37.479  1.00  0.00    -0.003 C 
ATOM     14  C   UNL     1      -3.501   1.721 -38.455  1.00  0.00     0.004 C 
ENDBRANCH  12  13
ENDBRANCH  11  12
ENDBRANCH  10  11
ENDBRANCH   9  10
ENDBRANCH   1   9
TORSDOF 10
ENDMDL
MODEL 6
REMARK VINA RESULT:    -4.214     14.763     16.105
REMARK INTER + INTRA:          -7.272
REMARK INTER:                  -6.335
REMARK INTRA:                  -0.937
REMARK UNBOUND:                -0.595
REMARK SMILES CCCCCCCCCCCC(=O)[O-]
REMARK SMILES IDX 7 1 8 2 9 3 10 4 11 5 12 6 13 7 14 8 6 9 5 10 4 11 3 12 2 13
REMARK SMILES IDX 1 14
REMARK H PARENT
REMARK Flexibility Score: inf
ROOT
ATOM      1  C   UNL     1      -7.776   3.935 -33.850  1.00  0.00     0.000 C 
ENDROOT
BRANCH   1   2
ATOM      2  C   UNL     1      -7.569   3.407 -35.287  1.00  0.00     0.000 C 
BRANCH   2   3
ATOM      3  C   UNL     1      -7.278   4.516 -36.317  1.00  0.00     0.000 C 
BRANCH   3   4
ATOM      4  C   UNL     1      -5.917   4.399 -37.023  1.00  0.00     0.006 C 
BRANCH   4   5
ATOM      5  C   UNL     1      -5.357   2.971 -36.997  1.00  0.00     0.053 C 
BRANCH   5   6
ATOM      6  C   UNL     1      -4.047   2.913 -37.717  1.00  0.00     0.041 C 
ATOM      7  O   UNL     1      -3.502   1.803 -37.955  1.00  0.00    -0.550 OA
ATOM      8  O   UNL     1      -3.450   4.084 -38.167  1.00  0.00    -0.550 OA
ENDBRANCH   5   6
ENDBRANCH   4   5
ENDBRANCH   3   4
ENDBRANCH   2   3
ENDBRANCH   1   2
BRANCH   1   9
ATOM      9  C   UNL     1      -8.277   5.390 -33.832  1.00  0.00     0.000 C 
BRANCH   9  10
ATOM     10  C   UNL     1      -7.642   6.218 -32.704  1.00  0.00    -0.000 C 
BRANCH  10  11
ATOM     11  C   UNL     1      -6.173   6.576 -32.987  1.00  0.00    -0.000 C 
BRANCH  11  12
ATOM     12  C   UNL     1      -5.974   7.232 -34.366  1.00  0.00    -0.000 C 
BRANCH  12  13
ATOM     13  C   UNL     1      -4.669   8.035 -34.514  1.00  0.00    -0.003 C 
ATOM     14  C   UNL     1      -3.995   7.837 -35.871  1.00  0.00     0.004 C 
ENDBRANCH  12  13
ENDBRANCH  11  12
ENDBRANCH  10  11
ENDBRANCH   9  10
ENDBRANCH   1   9
TORSDOF 10
ENDMDL
MODEL 7
REMARK VINA RESULT:    -4.212     13.716     15.604
REMARK INTER + INTRA:          -7.269
REMARK INTER:                  -6.321
REMARK INTRA:                  -0.948
REMARK UNBOUND:                -0.595
REMARK SMILES CCCCCCCCCCCC(=O)[O-]
REMARK SMILES IDX 7 1 8 2 9 3 10 4 11 5 12 6 13 7 14 8 6 9 5 10 4 11 3 12 2 13
REMARK SMILES IDX 1 14
REMARK H PARENT
REMARK Flexibility Score: inf
ROOT
ATOM      1  C   UNL     1      -6.877   3.328 -35.446  1.00  0.00     0.000 C 
ENDROOT
BRANCH   1   2
ATOM      2  C   UNL     1      -8.241   3.087 -36.128  1.00  0.00     0.000 C 
BRANCH   2   3
ATOM      3  C   UNL     1      -9.405   2.904 -35.135  1.00  0.00     0.000 C 
BRANCH   3   4
ATOM      4  C   UNL     1     -10.294   1.677 -35.403  1.00  0.00     0.006 C 
BRANCH   4   5
ATOM      5  C   UNL     1     -11.119   1.814 -36.690  1.00  0.00     0.053 C 
BRANCH   5   6
ATOM      6  C   UNL     1     -12.555   2.075 -36.360  1.00  0.00     0.041 C 
ATOM      7  O   UNL     1     -13.323   2.578 -37.222  1.00  0.00    -0.550 OA
ATOM      8  O   UNL     1     -13.058   1.717 -35.116  1.00  0.00    -0.550 OA
ENDBRANCH   5   6
ENDBRANCH   4   5
ENDBRANCH   3   4
ENDBRANCH   2   3
ENDBRANCH   1   2
BRANCH   1   9
ATOM      9  C   UNL     1      -6.058   4.423 -36.152  1.00  0.00     0.000 C 
BRANCH   9  10
ATOM     10  C   UNL     1      -6.939   5.557 -36.698  1.00  0.00    -0.000 C 
BRANCH  10  11
ATOM     11  C   UNL     1      -7.293   6.601 -35.625  1.00  0.00    -0.000 C 
BRANCH  11  12
ATOM     12  C   UNL     1      -6.150   6.834 -34.619  1.00  0.00    -0.000 C 
BRANCH  12  13
ATOM     13  C   UNL     1      -6.533   6.598 -33.147  1.00  0.00    -0.003 C 
ATOM     14  C   UNL     1      -7.881   5.897 -32.984  1.00  0.00     0.004 C 
ENDBRANCH  12  13
ENDBRANCH  11  12
ENDBRANCH  10  11
ENDBRANCH   9  10
ENDBRANCH   1   9
TORSDOF 10
ENDMDL
MODEL 8
REMARK VINA RESULT:    -4.199      3.726      7.022
REMARK INTER + INTRA:          -7.249
REMARK INTER:                  -6.622
REMARK INTRA:                  -0.627
REMARK UNBOUND:                -0.595
REMARK SMILES CCCCCCCCCCCC(=O)[O-]
REMARK SMILES IDX 7 1 8 2 9 3 10 4 11 5 12 6 13 7 14 8 6 9 5 10 4 11 3 12 2 13
REMARK SMILES IDX 1 14
REMARK H PARENT
REMARK Flexibility Score: inf
ROOT
ATOM      1  C   UNL     1     -12.507   1.700 -20.817  1.00  0.00     0.000 C 
ENDROOT
BRANCH   1   2
ATOM      2  C   UNL     1     -13.276   2.658 -21.753  1.00  0.00     0.000 C 
BRANCH   2   3
ATOM      3  C   UNL     1     -14.603   3.169 -21.160  1.00  0.00     0.000 C 
BRANCH   3   4
ATOM      4  C   UNL     1     -15.327   4.223 -22.014  1.00  0.00     0.006 C 
BRANCH   4   5
ATOM      5  C   UNL     1     -15.085   4.035 -23.518  1.00  0.00     0.053 C 
BRANCH   5   6
ATOM      6  C   UNL     1     -14.613   5.316 -24.132  1.00  0.00     0.041 C 
ATOM      7  O   UNL     1     -13.499   5.803 -23.805  1.00  0.00    -0.550 OA
ATOM      8  O   UNL     1     -15.383   5.945 -25.101  1.00  0.00    -0.550 OA
ENDBRANCH   5   6
ENDBRANCH   4   5
ENDBRANCH   3   4
ENDBRANCH   2   3
ENDBRANCH   1   2
BRANCH   1   9
ATOM      9  C   UNL     1     -12.047   0.423 -21.542  1.00  0.00     0.000 C 
BRANCH   9  10
ATOM     10  C   UNL     1     -10.807  -0.210 -20.891  1.00  0.00    -0.000 C 
BRANCH  10  11
ATOM     11  C   UNL     1      -9.529   0.001 -21.722  1.00  0.00    -0.000 C 
BRANCH  11  12
ATOM     12  C   UNL     1      -9.147   1.487 -21.861  1.00  0.00    -0.000 C 
BRANCH  12  13
ATOM     13  C   UNL     1      -8.671   2.153 -20.558  1.00  0.00    -0.003 C 
ATOM     14  C   UNL     1      -7.453   1.463 -19.944  1.00  0.00     0.004 C 
ENDBRANCH  12  13
ENDBRANCH  11  12
ENDBRANCH  10  11
ENDBRANCH   9  10
ENDBRANCH   1   9
TORSDOF 10
ENDMDL
MODEL 9
REMARK VINA RESULT:    -4.191      4.326      7.320
REMARK INTER + INTRA:          -7.236
REMARK INTER:                  -6.522
REMARK INTRA:                  -0.713
REMARK UNBOUND:                -0.595
REMARK SMILES CCCCCCCCCCCC(=O)[O-]
REMARK SMILES IDX 7 1 8 2 9 3 10 4 11 5 12 6 13 7 14 8 6 9 5 10 4 11 3 12 2 13
REMARK SMILES IDX 1 14
REMARK H PARENT
REMARK Flexibility Score: inf
ROOT
ATOM      1  C   UNL     1     -12.935   2.155 -20.713  1.00  0.00     0.000 C 
ENDROOT
BRANCH   1   2
ATOM      2  C   UNL     1     -14.226   2.922 -21.073  1.00  0.00     0.000 C 
BRANCH   2   3
ATOM      3  C   UNL     1     -14.664   2.741 -22.540  1.00  0.00     0.000 C 
BRANCH   3   4
ATOM      4  C   UNL     1     -14.702   4.038 -23.366  1.00  0.00     0.006 C 
BRANCH   4   5
ATOM      5  C   UNL     1     -15.608   5.110 -22.746  1.00  0.00     0.053 C 
BRANCH   5   6
ATOM      6  C   UNL     1     -16.131   6.026 -23.807  1.00  0.00     0.041 C 
ATOM      7  O   UNL     1     -15.927   5.770 -25.022  1.00  0.00    -0.550 OA
ATOM      8  O   UNL     1     -16.885   7.137 -23.454  1.00  0.00    -0.550 OA
ENDBRANCH   5   6
ENDBRANCH   4   5
ENDBRANCH   3   4
ENDBRANCH   2   3
ENDBRANCH   1   2
BRANCH   1   9
ATOM      9  C   UNL     1     -12.111   1.787 -21.959  1.00  0.00     0.000 C 
BRANCH   9  10
ATOM     10  C   UNL     1     -11.479   0.390 -21.856  1.00  0.00    -0.000 C 
BRANCH  10  11
ATOM     11  C   UNL     1     -10.093   0.317 -22.519  1.00  0.00    -0.000 C 
BRANCH  11  12
ATOM     12  C   UNL     1      -9.136   1.418 -22.024  1.00  0.00    -0.000 C 
BRANCH  12  13
ATOM     13  C   UNL     1      -8.633   1.231 -20.581  1.00  0.00    -0.003 C 
ATOM     14  C   UNL     1      -9.041   2.375 -19.653  1.00  0.00     0.004 C 
ENDBRANCH  12  13
ENDBRANCH  11  12
ENDBRANCH  10  11
ENDBRANCH   9  10
ENDBRANCH   1   9
TORSDOF 10
ENDMDL
