MODEL 1
REMARK VINA RESULT:    -2.706      0.000      0.000
REMARK INTER + INTRA:          -4.528
REMARK INTER:                  -3.972
REMARK INTRA:                  -0.556
REMARK UNBOUND:                -0.556
REMARK SMILES O=C([O-])CCCCCCCC(=O)[O-]
REMARK SMILES IDX 7 1 6 2 5 3 4 4 2 5 1 6 3 7 8 8 9 9 10 10 11 11 12 12 13 13
REMARK H PARENT
REMARK Flexibility Score: inf
ROOT
ATOM      1  C   UNL     1      13.925  26.767  21.218  1.00  0.00     0.000 C 
ENDROOT
BRANCH   1   2
ATOM      2  C   UNL     1      14.530  27.885  20.358  1.00  0.00     0.000 C 
BRANCH   2   3
ATOM      3  C   UNL     1      14.127  29.266  20.889  1.00  0.00     0.006 C 
BRANCH   3   4
ATOM      4  C   UNL     1      12.784  29.708  20.302  1.00  0.00     0.053 C 
BRANCH   4   5
ATOM      5  C   UNL     1      12.985  30.384  18.982  1.00  0.00     0.041 C 
ATOM      6  O   UNL     1      13.992  31.116  18.793  1.00  0.00    -0.550 OA
ATOM      7  O   UNL     1      12.087  30.165  17.946  1.00  0.00    -0.550 OA
ENDBRANCH   4   5
ENDBRANCH   3   4
ENDBRANCH   2   3
ENDBRANCH   1   2
BRANCH   1   8
ATOM      8  C   UNL     1      14.570  26.731  22.608  1.00  0.00     0.000 C 
BRANCH   8   9
ATOM      9  C   UNL     1      13.512  26.548  23.702  1.00  0.00     0.006 C 
BRANCH   9  10
ATOM     10  C   UNL     1      13.775  27.486  24.883  1.00  0.00     0.053 C 
BRANCH  10  11
ATOM     11  C   UNL     1      12.852  28.663  24.833  1.00  0.00     0.041 C 
ATOM     12  O   UNL     1      12.141  28.868  23.813  1.00  0.00    -0.550 OA
ATOM     13  O   UNL     1      12.812  29.561  25.891  1.00  0.00    -0.550 OA
ENDBRANCH  10  11
ENDBRANCH   9  10
ENDBRANCH   8   9
ENDBRANCH   1   8
TORSDOF 8
ENDMDL
MODEL 2
REMARK VINA RESULT:    -2.684      0.667      5.046
REMARK INTER + INTRA:          -4.495
REMARK INTER:                  -3.769
REMARK INTRA:                  -0.726
REMARK UNBOUND:                -0.556
REMARK SMILES O=C([O-])CCCCCCCC(=O)[O-]
REMARK SMILES IDX 7 1 6 2 5 3 4 4 2 5 1 6 3 7 8 8 9 9 10 10 11 11 12 12 13 13
REMARK H PARENT
REMARK Flexibility Score: inf
ROOT
ATOM      1  C   UNL     1      13.979  26.668  21.224  1.00  0.00     0.000 C 
ENDROOT
BRANCH   1   2
ATOM      2  C   UNL     1      14.732  26.707  22.560  1.00  0.00     0.000 C 
BRANCH   2   3
ATOM      3  C   UNL     1      13.765  26.562  23.742  1.00  0.00     0.006 C 
BRANCH   3   4
ATOM      4  C   UNL     1      13.929  27.720  24.730  1.00  0.00     0.053 C 
BRANCH   4   5
ATOM      5  C   UNL     1      13.265  28.954  24.206  1.00  0.00     0.041 C 
ATOM      6  O   UNL     1      12.080  28.905  23.782  1.00  0.00    -0.550 OA
ATOM      7  O   UNL     1      13.938  30.169  24.232  1.00  0.00    -0.550 OA
ENDBRANCH   4   5
ENDBRANCH   3   4
ENDBRANCH   2   3
ENDBRANCH   1   2
BRANCH   1   8
ATOM      8  C   UNL     1      14.589  27.652  20.219  1.00  0.00     0.000 C 
BRANCH   8   9
ATOM      9  C   UNL     1      14.470  29.095  20.720  1.00  0.00     0.006 C 
BRANCH   9  10
ATOM     10  C   UNL     1      13.083  29.669  20.416  1.00  0.00     0.053 C 
BRANCH  10  11
ATOM     11  C   UNL     1      13.056  30.278  19.050  1.00  0.00     0.041 C 
ATOM     12  O   UNL     1      14.025  30.975  18.647  1.00  0.00    -0.550 OA
ATOM     13  O   UNL     1      11.940  30.119  18.239  1.00  0.00    -0.550 OA
ENDBRANCH  10  11
ENDBRANCH   9  10
ENDBRANCH   8   9
ENDBRANCH   1   8
TORSDOF 8
ENDMDL
MODEL 3
REMARK VINA RESULT:    -2.579      1.106      5.561
REMARK INTER + INTRA:          -4.341
REMARK INTER:                  -3.955
REMARK INTRA:                  -0.386
REMARK UNBOUND:                -0.556
REMARK SMILES O=C([O-])CCCCCCCC(=O)[O-]
REMARK SMILES IDX 7 1 6 2 5 3 4 4 2 5 1 6 3 7 8 8 9 9 10 10 11 11 12 12 13 13
REMARK H PARENT
REMARK Flexibility Score: inf
ROOT
ATOM      1  C   UNL     1      14.397  27.963  20.722  1.00  0.00     0.000 C 
ENDROOT
BRANCH   1   2
ATOM      2  C   UNL     1      13.955  26.706  21.483  1.00  0.00     0.000 C 
BRANCH   2   3
ATOM      3  C   UNL     1      14.399  26.766  22.949  1.00  0.00     0.006 C 
BRANCH   3   4
ATOM      4  C   UNL     1      13.191  26.772  23.889  1.00  0.00     0.053 C 
BRANCH   4   5
ATOM      5  C   UNL     1      12.884  28.165  24.339  1.00  0.00     0.041 C 
ATOM      6  O   UNL     1      13.382  28.610  25.407  1.00  0.00    -0.550 OA
ATOM      7  O   UNL     1      12.089  28.990  23.554  1.00  0.00    -0.550 OA
ENDBRANCH   4   5
ENDBRANCH   3   4
ENDBRANCH   2   3
ENDBRANCH   1   2
BRANCH   1   8
ATOM      8  C   UNL     1      14.959  27.602  19.342  1.00  0.00     0.000 C 
BRANCH   8   9
ATOM      9  C   UNL     1      14.737  28.742  18.342  1.00  0.00     0.006 C 
BRANCH   9  10
ATOM     10  C   UNL     1      13.985  29.906  18.994  1.00  0.00     0.053 C 
BRANCH  10  11
ATOM     11  C   UNL     1      12.819  30.315  18.151  1.00  0.00     0.041 C 
ATOM     12  O   UNL     1      11.783  30.789  18.688  1.00  0.00    -0.550 OA
ATOM     13  O   UNL     1      12.855  30.126  16.775  1.00  0.00    -0.550 OA
ENDBRANCH  10  11
ENDBRANCH   9  10
ENDBRANCH   8   9
ENDBRANCH   1   8
TORSDOF 8
ENDMDL
MODEL 4
REMARK VINA RESULT:    -2.578      1.120      4.970
REMARK INTER + INTRA:          -4.339
REMARK INTER:                  -3.755
REMARK INTRA:                  -0.584
REMARK UNBOUND:                -0.556
REMARK SMILES O=C([O-])CCCCCCCC(=O)[O-]
REMARK SMILES IDX 7 1 6 2 5 3 4 4 2 5 1 6 3 7 8 8 9 9 10 10 11 11 12 12 13 13
REMARK H PARENT
REMARK Flexibility Score: inf
ROOT
ATOM      1  C   UNL     1      14.630  27.232  22.665  1.00  0.00     0.000 C 
ENDROOT
BRANCH   1   2
ATOM      2  C   UNL     1      14.078  26.229  23.686  1.00  0.00     0.000 C 
BRANCH   2   3
ATOM      3  C   UNL     1      14.092  26.819  25.101  1.00  0.00     0.006 C 
BRANCH   3   4
ATOM      4  C   UNL     1      14.237  28.343  25.058  1.00  0.00     0.053 C 
BRANCH   4   5
ATOM      5  C   UNL     1      12.918  29.002  25.313  1.00  0.00     0.041 C 
ATOM      6  O   UNL     1      12.051  29.058  24.401  1.00  0.00    -0.550 OA
ATOM      7  O   UNL     1      12.627  29.511  26.572  1.00  0.00    -0.550 OA
ENDBRANCH   4   5
ENDBRANCH   3   4
ENDBRANCH   2   3
ENDBRANCH   1   2
BRANCH   1   8
ATOM      8  C   UNL     1      14.235  26.838  21.237  1.00  0.00     0.000 C 
BRANCH   8   9
ATOM      9  C   UNL     1      13.987  28.079  20.372  1.00  0.00     0.006 C 
BRANCH   9  10
ATOM     10  C   UNL     1      13.580  29.277  21.235  1.00  0.00     0.053 C 
BRANCH  10  11
ATOM     11  C   UNL     1      12.463  30.034  20.587  1.00  0.00     0.041 C 
ATOM     12  O   UNL     1      12.400  30.120  19.332  1.00  0.00    -0.550 OA
ATOM     13  O   UNL     1      11.519  30.686  21.370  1.00  0.00    -0.550 OA
ENDBRANCH  10  11
ENDBRANCH   9  10
ENDBRANCH   8   9
ENDBRANCH   1   8
TORSDOF 8
ENDMDL
MODEL 5
REMARK VINA RESULT:    -2.230      2.050      6.122
REMARK INTER + INTRA:          -3.829
REMARK INTER:                  -3.486
REMARK INTRA:                  -0.343
REMARK UNBOUND:                -0.556
REMARK SMILES O=C([O-])CCCCCCCC(=O)[O-]
REMARK SMILES IDX 7 1 6 2 5 3 4 4 2 5 1 6 3 7 8 8 9 9 10 10 11 11 12 12 13 13
REMARK H PARENT
REMARK Flexibility Score: inf
ROOT
ATOM      1  C   UNL     1      13.205  30.479  22.034  1.00  0.00     0.000 C 
ENDROOT
BRANCH   1   2
ATOM      2  C   UNL     1      14.247  30.116  23.100  1.00  0.00     0.000 C 
BRANCH   2   3
ATOM      3  C   UNL     1      13.625  29.256  24.208  1.00  0.00     0.006 C 
BRANCH   3   4
ATOM      4  C   UNL     1      14.447  27.986  24.442  1.00  0.00     0.053 C 
BRANCH   4   5
ATOM      5  C   UNL     1      13.765  26.801  23.835  1.00  0.00     0.041 C 
ATOM      6  O   UNL     1      13.298  25.893  24.571  1.00  0.00    -0.550 OA
ATOM      7  O   UNL     1      13.602  26.724  22.457  1.00  0.00    -0.550 OA
ENDBRANCH   4   5
ENDBRANCH   3   4
ENDBRANCH   2   3
ENDBRANCH   1   2
BRANCH   1   8
ATOM      8  C   UNL     1      13.798  30.370  20.625  1.00  0.00     0.000 C 
BRANCH   8   9
ATOM      9  C   UNL     1      12.853  29.610  19.687  1.00  0.00     0.006 C 
BRANCH   9  10
ATOM     10  C   UNL     1      12.391  30.502  18.532  1.00  0.00     0.053 C 
BRANCH  10  11
ATOM     11  C   UNL     1      13.033  30.073  17.250  1.00  0.00     0.041 C 
ATOM     12  O   UNL     1      12.730  30.642  16.167  1.00  0.00    -0.550 OA
ATOM     13  O   UNL     1      13.931  29.013  17.242  1.00  0.00    -0.550 OA
ENDBRANCH  10  11
ENDBRANCH   9  10
ENDBRANCH   8   9
ENDBRANCH   1   8
TORSDOF 8
ENDMDL
MODEL 6
REMARK VINA RESULT:    -2.203     23.641     24.864
REMARK INTER + INTRA:          -3.789
REMARK INTER:                  -3.389
REMARK INTRA:                  -0.400
REMARK UNBOUND:                -0.556
REMARK SMILES O=C([O-])CCCCCCCC(=O)[O-]
REMARK SMILES IDX 7 1 6 2 5 3 4 4 2 5 1 6 3 7 8 8 9 9 10 10 11 11 12 12 13 13
REMARK H PARENT
REMARK Flexibility Score: inf
ROOT
ATOM      1  C   UNL     1      -3.933  13.041   9.112  1.00  0.00     0.000 C 
ENDROOT
BRANCH   1   2
ATOM      2  C   UNL     1      -4.652  14.131   9.917  1.00  0.00     0.000 C 
BRANCH   2   3
ATOM      3  C   UNL     1      -4.880  15.385   9.065  1.00  0.00     0.006 C 
BRANCH   3   4
ATOM      4  C   UNL     1      -3.794  16.431   9.328  1.00  0.00     0.053 C 
BRANCH   4   5
ATOM      5  C   UNL     1      -4.404  17.786   9.503  1.00  0.00     0.041 C 
ATOM      6  O   UNL     1      -5.006  18.339   8.545  1.00  0.00    -0.550 OA
ATOM      7  O   UNL     1      -4.350  18.417  10.740  1.00  0.00    -0.550 OA
ENDBRANCH   4   5
ENDBRANCH   3   4
ENDBRANCH   2   3
ENDBRANCH   1   2
BRANCH   1   8
ATOM      8  C   UNL     1      -3.801  11.749   9.929  1.00  0.00     0.000 C 
BRANCH   8   9
ATOM      9  C   UNL     1      -2.570  11.797  10.840  1.00  0.00     0.006 C 
BRANCH   9  10
ATOM     10  C   UNL     1      -1.428  12.575  10.180  1.00  0.00     0.053 C 
BRANCH  10  11
ATOM     11  C   UNL     1      -1.006  13.721  11.044  1.00  0.00     0.041 C 
ATOM     12  O   UNL     1      -0.950  13.585  12.295  1.00  0.00    -0.550 OA
ATOM     13  O   UNL     1      -0.722  14.955  10.473  1.00  0.00    -0.550 OA
ENDBRANCH  10  11
ENDBRANCH   9  10
ENDBRANCH   8   9
ENDBRANCH   1   8
TORSDOF 8
ENDMDL
MODEL 7
REMARK VINA RESULT:    -2.190     22.247     23.580
REMARK INTER + INTRA:          -3.771
REMARK INTER:                  -3.430
REMARK INTRA:                  -0.341
REMARK UNBOUND:                -0.556
REMARK SMILES O=C([O-])CCCCCCCC(=O)[O-]
REMARK SMILES IDX 7 1 6 2 5 3 4 4 2 5 1 6 3 7 8 8 9 9 10 10 11 11 12 12 13 13
REMARK H PARENT
REMARK Flexibility Score: inf
ROOT
ATOM      1  C   UNL     1      -4.499  18.372  11.449  1.00  0.00     0.000 C 
ENDROOT
BRANCH   1   2
ATOM      2  C   UNL     1      -5.125  19.761  11.269  1.00  0.00     0.000 C 
BRANCH   2   3
ATOM      3  C   UNL     1      -4.902  20.631  12.512  1.00  0.00     0.006 C 
BRANCH   3   4
ATOM      4  C   UNL     1      -4.512  19.773  13.719  1.00  0.00     0.053 C 
BRANCH   4   5
ATOM      5  C   UNL     1      -4.088  20.639  14.863  1.00  0.00     0.041 C 
ATOM      6  O   UNL     1      -2.867  20.762  15.145  1.00  0.00    -0.550 OA
ATOM      7  O   UNL     1      -5.038  21.350  15.585  1.00  0.00    -0.550 OA
ENDBRANCH   4   5
ENDBRANCH   3   4
ENDBRANCH   2   3
ENDBRANCH   1   2
BRANCH   1   8
ATOM      8  C   UNL     1      -5.112  17.362  10.472  1.00  0.00     0.000 C 
BRANCH   8   9
ATOM      9  C   UNL     1      -4.261  17.236   9.204  1.00  0.00     0.006 C 
BRANCH   9  10
ATOM     10  C   UNL     1      -4.337  15.819   8.629  1.00  0.00     0.053 C 
BRANCH  10  11
ATOM     11  C   UNL     1      -3.633  14.851   9.527  1.00  0.00     0.041 C 
ATOM     12  O   UNL     1      -2.398  14.972   9.746  1.00  0.00    -0.550 OA
ATOM     13  O   UNL     1      -4.329  13.785  10.084  1.00  0.00    -0.550 OA
ENDBRANCH  10  11
ENDBRANCH   9  10
ENDBRANCH   8   9
ENDBRANCH   1   8
TORSDOF 8
ENDMDL
MODEL 8
REMARK VINA RESULT:    -2.084     24.000     25.020
REMARK INTER + INTRA:          -3.615
REMARK INTER:                  -3.267
REMARK INTRA:                  -0.348
REMARK UNBOUND:                -0.556
REMARK SMILES O=C([O-])CCCCCCCC(=O)[O-]
REMARK SMILES IDX 7 1 6 2 5 3 4 4 2 5 1 6 3 7 8 8 9 9 10 10 11 11 12 12 13 13
REMARK H PARENT
REMARK Flexibility Score: inf
ROOT
ATOM      1  C   UNL     1      -2.085  14.722   9.759  1.00  0.00     0.000 C 
ENDROOT
BRANCH   1   2
ATOM      2  C   UNL     1      -2.765  15.676   8.770  1.00  0.00     0.000 C 
BRANCH   2   3
ATOM      3  C   UNL     1      -4.283  15.462   8.753  1.00  0.00     0.006 C 
BRANCH   3   4
ATOM      4  C   UNL     1      -4.960  16.243   9.882  1.00  0.00     0.053 C 
BRANCH   4   5
ATOM      5  C   UNL     1      -4.756  17.714   9.697  1.00  0.00     0.041 C 
ATOM      6  O   UNL     1      -4.341  18.421  10.653  1.00  0.00    -0.550 OA
ATOM      7  O   UNL     1      -4.976  18.295   8.455  1.00  0.00    -0.550 OA
ENDBRANCH   4   5
ENDBRANCH   3   4
ENDBRANCH   2   3
ENDBRANCH   1   2
BRANCH   1   8
ATOM      8  C   UNL     1      -2.518  13.272   9.512  1.00  0.00     0.000 C 
BRANCH   8   9
ATOM      9  C   UNL     1      -2.872  12.571  10.828  1.00  0.00     0.006 C 
BRANCH   9  10
ATOM     10  C   UNL     1      -2.461  11.096  10.793  1.00  0.00     0.053 C 
BRANCH  10  11
ATOM     11  C   UNL     1      -0.970  10.967  10.824  1.00  0.00     0.041 C 
ATOM     12  O   UNL     1      -0.317  10.895   9.749  1.00  0.00    -0.550 OA
ATOM     13  O   UNL     1      -0.306  10.875  12.041  1.00  0.00    -0.550 OA
ENDBRANCH  10  11
ENDBRANCH   9  10
ENDBRANCH   8   9
ENDBRANCH   1   8
TORSDOF 8
ENDMDL
