MODEL 1
REMARK VINA RESULT:    -3.761      0.000      0.000
REMARK INTER + INTRA:          -4.664
REMARK INTER:                  -5.081
REMARK INTRA:                   0.417
REMARK UNBOUND:                 0.417
REMARK SMILES C=C1C(=O)O[C@H]2[C@H]3O[C@@]3(C)CCC=C(C)CC[C@@H]12
REMARK SMILES IDX 6 1 18 2 2 3 1 4 3 5 4 6 5 7 17 8 16 9 14 10 15 11 13 12
REMARK SMILES IDX 7 14 9 15 8 16 10 17 11 18 12 19
REMARK H PARENT
REMARK Flexibility Score: 70.00
ROOT
ATOM      1  C   UNL     1      48.962 107.677  53.960  1.00  0.00     0.216 C 
ATOM      2  C   UNL     1      47.736 106.694  53.950  1.00  0.00     0.070 C 
ATOM      3  C   UNL     1      47.910 105.952  52.652  1.00  0.00     0.037 C 
ATOM      4  C   UNL     1      47.068 105.078  52.099  1.00  0.00     0.021 C 
ATOM      5  C   UNL     1      49.272 106.176  52.230  1.00  0.00     0.334 C 
ATOM      6  O   UNL     1      49.845 105.608  51.263  1.00  0.00    -0.247 OA
ATOM      7  O   UNL     1      49.895 107.081  53.062  1.00  0.00    -0.455 OA
ENDROOT
BRANCH   2   8
ATOM      8  C   UNL     1      46.316 107.280  54.176  1.00  0.00     0.017 C 
BRANCH   8   9
ATOM      9  C   UNL     1      45.708 107.127  55.602  1.00  0.00     0.031 C 
BRANCH   9  10
ATOM     10  C   UNL     1      46.707 107.145  56.748  1.00  0.00    -0.077 C 
ATOM     11  C   UNL     1      46.897 105.875  57.539  1.00  0.00     0.039 C 
ATOM     12  C   UNL     1      47.426 108.233  57.121  1.00  0.00    -0.028 CG0
ATOM     13  G   UNL     1      47.335 109.631  56.550  1.00  0.00     0.000 G0
ENDBRANCH   9  10
ENDBRANCH   8   9
ENDBRANCH   2   8
BRANCH   1  14
ATOM     14  C   UNL     1      48.707 109.102  53.410  1.00  0.00     0.192 C 
ATOM     15  C   UNL     1      48.626 110.264  54.356  1.00  0.00     0.096 C 
ATOM     16  O   UNL     1      47.481 109.672  53.794  1.00  0.00    -0.362 OA
ATOM     17  C   UNL     1      48.865 111.656  53.768  1.00  0.00     0.045 C 
BRANCH  15  18
ATOM     18  C   UNL     1      48.657 110.121  55.902  1.00  0.00     0.042 C 
BRANCH  18  19
ATOM     19  C   UNL     1      47.336 109.639  56.547  1.00  0.00     0.030 CG0
ATOM     20  G   UNL     1      47.433 108.239  57.113  1.00  0.00     0.000 G0
ENDBRANCH  18  19
ENDBRANCH  15  18
ENDBRANCH   1  14
TORSDOF 0
ENDMDL
MODEL 2
REMARK VINA RESULT:    -3.724      2.093      4.684
REMARK INTER + INTRA:          -4.613
REMARK INTER:                  -5.116
REMARK INTRA:                   0.503
REMARK UNBOUND:                 0.417
REMARK SMILES C=C1C(=O)O[C@H]2[C@H]3O[C@@]3(C)CCC=C(C)CC[C@@H]12
REMARK SMILES IDX 6 1 18 2 2 3 1 4 3 5 4 6 5 7 17 8 16 9 14 10 15 11 13 12
REMARK SMILES IDX 7 14 9 15 8 16 10 17 11 18 12 19
REMARK H PARENT
REMARK Flexibility Score: 70.00
ROOT
ATOM      1  C   UNL     1      45.701 109.618  54.047  1.00  0.00     0.216 C 
ATOM      2  C   UNL     1      46.629 110.879  54.174  1.00  0.00     0.070 C 
ATOM      3  C   UNL     1      46.264 111.690  52.960  1.00  0.00     0.037 C 
ATOM      4  C   UNL     1      46.848 112.808  52.526  1.00  0.00     0.021 C 
ATOM      5  C   UNL     1      45.006 111.169  52.482  1.00  0.00     0.334 C 
ATOM      6  O   UNL     1      44.302 111.673  51.567  1.00  0.00    -0.247 OA
ATOM      7  O   UNL     1      44.642 110.047  53.195  1.00  0.00    -0.455 OA
ENDROOT
BRANCH   2   8
ATOM      8  C   UNL     1      48.154 110.660  54.372  1.00  0.00     0.017 C 
BRANCH   8   9
ATOM      9  C   UNL     1      48.741 111.011  55.772  1.00  0.00     0.031 C 
BRANCH   9  10
ATOM     10  C   UNL     1      47.950 110.497  56.965  1.00  0.00    -0.077 C 
ATOM     11  C   UNL     1      47.495 111.500  57.994  1.00  0.00     0.039 C 
ATOM     12  C   UNL     1      47.642 109.192  57.176  1.00  0.00    -0.028 CG0
ATOM     13  G   UNL     1      48.072 108.003  56.345  1.00  0.00     0.000 G0
ENDBRANCH   9  10
ENDBRANCH   8   9
ENDBRANCH   2   8
BRANCH   1  14
ATOM     14  C   UNL     1      46.317 108.377  53.353  1.00  0.00     0.192 C 
ATOM     15  C   UNL     1      46.806 107.225  54.182  1.00  0.00     0.096 C 
ATOM     16  O   UNL     1      47.682 108.170  53.618  1.00  0.00    -0.362 OA
ATOM     17  C   UNL     1      46.938 105.872  53.480  1.00  0.00     0.045 C 
BRANCH  15  18
ATOM     18  C   UNL     1      46.855 107.239  55.734  1.00  0.00     0.042 C 
BRANCH  18  19
ATOM     19  C   UNL     1      48.060 107.988  56.350  1.00  0.00     0.030 CG0
ATOM     20  G   UNL     1      47.649 109.188  57.174  1.00  0.00     0.000 G0
ENDBRANCH  18  19
ENDBRANCH  15  18
ENDBRANCH   1  14
TORSDOF 0
ENDMDL
MODEL 3
REMARK VINA RESULT:    -3.699      1.727      3.777
REMARK INTER + INTRA:          -4.580
REMARK INTER:                  -5.175
REMARK INTRA:                   0.595
REMARK UNBOUND:                 0.417
REMARK SMILES C=C1C(=O)O[C@H]2[C@H]3O[C@@]3(C)CCC=C(C)CC[C@@H]12
REMARK SMILES IDX 6 1 18 2 2 3 1 4 3 5 4 6 5 7 17 8 16 9 14 10 15 11 13 12
REMARK SMILES IDX 7 14 9 15 8 16 10 17 11 18 12 19
REMARK H PARENT
REMARK Flexibility Score: 70.00
ROOT
ATOM      1  C   UNL     1      47.189 107.831  53.818  1.00  0.00     0.216 C 
ATOM      2  C   UNL     1      48.686 107.797  53.342  1.00  0.00     0.070 C 
ATOM      3  C   UNL     1      48.826 106.412  52.770  1.00  0.00     0.037 C 
ATOM      4  C   UNL     1      49.942 105.825  52.333  1.00  0.00     0.021 C 
ATOM      5  C   UNL     1      47.487 105.919  52.554  1.00  0.00     0.334 C 
ATOM      6  O   UNL     1      47.184 104.852  51.958  1.00  0.00    -0.247 OA
ATOM      7  O   UNL     1      46.557 106.802  53.060  1.00  0.00    -0.455 OA
ENDROOT
BRANCH   2   8
ATOM      8  C   UNL     1      49.794 108.196  54.354  1.00  0.00     0.017 C 
BRANCH   8   9
ATOM      9  C   UNL     1      50.581 109.508  54.059  1.00  0.00     0.031 C 
BRANCH   9  10
ATOM     10  C   UNL     1      49.729 110.740  53.797  1.00  0.00    -0.077 C 
ATOM     11  C   UNL     1      50.016 111.545  52.556  1.00  0.00     0.039 C 
ATOM     12  C   UNL     1      48.739 111.176  54.616  1.00  0.00    -0.028 CG0
ATOM     13  G   UNL     1      48.337 110.598  55.956  1.00  0.00     0.000 G0
ENDBRANCH   9  10
ENDBRANCH   8   9
ENDBRANCH   2   8
BRANCH   1  14
ATOM     14  C   UNL     1      46.930 107.472  55.302  1.00  0.00     0.192 C 
ATOM     15  C   UNL     1      46.722 108.566  56.309  1.00  0.00     0.096 C 
ATOM     16  O   UNL     1      47.942 107.875  56.191  1.00  0.00    -0.362 OA
ATOM     17  C   UNL     1      46.004 108.188  57.606  1.00  0.00     0.045 C 
BRANCH  15  18
ATOM     18  C   UNL     1      46.875 110.077  55.985  1.00  0.00     0.042 C 
BRANCH  18  19
ATOM     19  C   UNL     1      48.329 110.604  55.964  1.00  0.00     0.030 CG0
ATOM     20  G   UNL     1      48.728 111.178  54.622  1.00  0.00     0.000 G0
ENDBRANCH  18  19
ENDBRANCH  15  18
ENDBRANCH   1  14
TORSDOF 0
ENDMDL
MODEL 4
REMARK VINA RESULT:    -3.491      2.446      4.682
REMARK INTER + INTRA:          -4.299
REMARK INTER:                  -4.688
REMARK INTRA:                   0.389
REMARK UNBOUND:                 0.417
REMARK SMILES C=C1C(=O)O[C@H]2[C@H]3O[C@@]3(C)CCC=C(C)CC[C@@H]12
REMARK SMILES IDX 6 1 18 2 2 3 1 4 3 5 4 6 5 7 17 8 16 9 14 10 15 11 13 12
REMARK SMILES IDX 7 14 9 15 8 16 10 17 11 18 12 19
REMARK H PARENT
REMARK Flexibility Score: 70.00
ROOT
ATOM      1  C   UNL     1      48.001 108.909  54.141  1.00  0.00     0.216 C 
ATOM      2  C   UNL     1      47.964 110.479  54.092  1.00  0.00     0.070 C 
ATOM      3  C   UNL     1      49.418 110.853  54.189  1.00  0.00     0.037 C 
ATOM      4  C   UNL     1      49.934 112.078  54.309  1.00  0.00     0.021 C 
ATOM      5  C   UNL     1      50.171 109.661  53.882  1.00  0.00     0.334 C 
ATOM      6  O   UNL     1      51.418 109.600  53.721  1.00  0.00    -0.247 OA
ATOM      7  O   UNL     1      49.330 108.578  53.744  1.00  0.00    -0.455 OA
ENDROOT
BRANCH   2   8
ATOM      8  C   UNL     1      47.034 111.229  55.084  1.00  0.00     0.017 C 
BRANCH   8   9
ATOM      9  C   UNL     1      45.646 111.684  54.544  1.00  0.00     0.031 C 
BRANCH   9  10
ATOM     10  C   UNL     1      45.064 110.832  53.426  1.00  0.00    -0.077 C 
ATOM     11  C   UNL     1      45.001 111.430  52.044  1.00  0.00     0.039 C 
ATOM     12  C   UNL     1      44.579 109.576  53.592  1.00  0.00    -0.028 CG0
ATOM     13  G   UNL     1      44.443 108.810  54.890  1.00  0.00     0.000 G0
ENDBRANCH   9  10
ENDBRANCH   8   9
ENDBRANCH   2   8
BRANCH   1  14
ATOM     14  C   UNL     1      47.809 108.259  55.533  1.00  0.00     0.192 C 
ATOM     15  C   UNL     1      46.530 107.539  55.851  1.00  0.00     0.096 C 
ATOM     16  O   UNL     1      46.798 108.838  56.320  1.00  0.00    -0.362 OA
ATOM     17  C   UNL     1      46.570 106.526  56.997  1.00  0.00     0.045 C 
BRANCH  15  18
ATOM     18  C   UNL     1      45.301 107.505  54.902  1.00  0.00     0.042 C 
BRANCH  18  19
ATOM     19  C   UNL     1      44.443 108.792  54.887  1.00  0.00     0.030 CG0
ATOM     20  G   UNL     1      44.592 109.584  53.606  1.00  0.00     0.000 G0
ENDBRANCH  18  19
ENDBRANCH  15  18
ENDBRANCH   1  14
TORSDOF 0
ENDMDL
MODEL 5
REMARK VINA RESULT:    -3.434      2.136      4.231
REMARK INTER + INTRA:          -4.221
REMARK INTER:                  -4.618
REMARK INTRA:                   0.397
REMARK UNBOUND:                 0.417
REMARK SMILES C=C1C(=O)O[C@H]2[C@H]3O[C@@]3(C)CCC=C(C)CC[C@@H]12
REMARK SMILES IDX 6 1 18 2 2 3 1 4 3 5 4 6 5 7 17 8 16 9 14 10 15 11 13 12
REMARK SMILES IDX 7 14 9 15 8 16 10 17 11 18 12 19
REMARK H PARENT
REMARK Flexibility Score: 70.00
ROOT
ATOM      1  C   UNL     1      47.077 107.829  53.518  1.00  0.00     0.216 C 
ATOM      2  C   UNL     1      48.186 108.899  53.824  1.00  0.00     0.070 C 
ATOM      3  C   UNL     1      49.458 108.100  53.736  1.00  0.00     0.037 C 
ATOM      4  C   UNL     1      50.694 108.508  54.029  1.00  0.00     0.021 C 
ATOM      5  C   UNL     1      49.129 106.878  53.042  1.00  0.00     0.334 C 
ATOM      6  O   UNL     1      49.953 106.010  52.649  1.00  0.00    -0.247 OA
ATOM      7  O   UNL     1      47.770 106.795  52.824  1.00  0.00    -0.455 OA
ENDROOT
BRANCH   2   8
ATOM      8  C   UNL     1      48.050 109.760  55.109  1.00  0.00     0.017 C 
BRANCH   8   9
ATOM      9  C   UNL     1      47.557 111.226  54.927  1.00  0.00     0.031 C 
BRANCH   9  10
ATOM     10  C   UNL     1      46.513 111.439  53.841  1.00  0.00    -0.077 C 
ATOM     11  C   UNL     1      46.889 112.298  52.660  1.00  0.00     0.039 C 
ATOM     12  C   UNL     1      45.258 110.924  53.872  1.00  0.00    -0.028 CG0
ATOM     13  G   UNL     1      44.624 110.124  54.989  1.00  0.00     0.000 G0
ENDBRANCH   9  10
ENDBRANCH   8   9
ENDBRANCH   2   8
BRANCH   1  14
ATOM     14  C   UNL     1      46.425 107.142  54.744  1.00  0.00     0.192 C 
ATOM     15  C   UNL     1      45.035 107.524  55.162  1.00  0.00     0.096 C 
ATOM     16  O   UNL     1      46.178 107.994  55.834  1.00  0.00    -0.362 OA
ATOM     17  C   UNL     1      44.269 106.519  56.024  1.00  0.00     0.045 C 
BRANCH  15  18
ATOM     18  C   UNL     1      44.226 108.680  54.512  1.00  0.00     0.042 C 
BRANCH  18  19
ATOM     19  C   UNL     1      44.610 110.102  54.984  1.00  0.00     0.030 CG0
ATOM     20  G   UNL     1      45.257 110.929  53.895  1.00  0.00     0.000 G0
ENDBRANCH  18  19
ENDBRANCH  15  18
ENDBRANCH   1  14
TORSDOF 0
ENDMDL
MODEL 6
REMARK VINA RESULT:    -3.376      2.236      3.075
REMARK INTER + INTRA:          -4.143
REMARK INTER:                  -4.532
REMARK INTRA:                   0.389
REMARK UNBOUND:                 0.417
REMARK SMILES C=C1C(=O)O[C@H]2[C@H]3O[C@@]3(C)CCC=C(C)CC[C@@H]12
REMARK SMILES IDX 6 1 18 2 2 3 1 4 3 5 4 6 5 7 17 8 16 9 14 10 15 11 13 12
REMARK SMILES IDX 7 14 9 15 8 16 10 17 11 18 12 19
REMARK H PARENT
REMARK Flexibility Score: 70.00
ROOT
ATOM      1  C   UNL     1      49.841 109.058  54.360  1.00  0.00     0.216 C 
ATOM      2  C   UNL     1      48.295 109.040  54.632  1.00  0.00     0.070 C 
ATOM      3  C   UNL     1      47.791 108.025  53.642  1.00  0.00     0.037 C 
ATOM      4  C   UNL     1      46.521 107.713  53.374  1.00  0.00     0.021 C 
ATOM      5  C   UNL     1      48.942 107.270  53.205  1.00  0.00     0.334 C 
ATOM      6  O   UNL     1      48.914 106.239  52.483  1.00  0.00    -0.247 OA
ATOM      7  O   UNL     1      50.100 107.810  53.721  1.00  0.00    -0.455 OA
ENDROOT
BRANCH   2   8
ATOM      8  C   UNL     1      47.525 110.389  54.624  1.00  0.00     0.017 C 
BRANCH   8   9
ATOM      9  C   UNL     1      47.293 111.076  56.003  1.00  0.00     0.031 C 
BRANCH   9  10
ATOM     10  C   UNL     1      48.299 110.729  57.089  1.00  0.00    -0.077 C 
ATOM     11  C   UNL     1      47.844 109.831  58.211  1.00  0.00     0.039 C 
ATOM     12  C   UNL     1      49.576 111.188  57.127  1.00  0.00    -0.028 CG0
ATOM     13  G   UNL     1      50.224 112.171  56.177  1.00  0.00     0.000 G0
ENDBRANCH   9  10
ENDBRANCH   8   9
ENDBRANCH   2   8
BRANCH   1  14
ATOM     14  C   UNL     1      50.356 110.141  53.379  1.00  0.00     0.192 C 
ATOM     15  C   UNL     1      51.168 111.292  53.898  1.00  0.00     0.096 C 
ATOM     16  O   UNL     1      49.806 111.421  53.572  1.00  0.00    -0.362 OA
ATOM     17  C   UNL     1      52.043 112.036  52.886  1.00  0.00     0.045 C 
BRANCH  15  18
ATOM     18  C   UNL     1      51.433 111.551  55.406  1.00  0.00     0.042 C 
BRANCH  18  19
ATOM     19  C   UNL     1      50.250 112.168  56.188  1.00  0.00     0.030 CG0
ATOM     20  G   UNL     1      49.587 111.183  57.126  1.00  0.00     0.000 G0
ENDBRANCH  18  19
ENDBRANCH  15  18
ENDBRANCH   1  14
TORSDOF 0
ENDMDL
MODEL 7
REMARK VINA RESULT:    -3.357      2.845      4.710
REMARK INTER + INTRA:          -4.117
REMARK INTER:                  -4.522
REMARK INTRA:                   0.405
REMARK UNBOUND:                 0.417
REMARK SMILES C=C1C(=O)O[C@H]2[C@H]3O[C@@]3(C)CCC=C(C)CC[C@@H]12
REMARK SMILES IDX 6 1 18 2 2 3 1 4 3 5 4 6 5 7 17 8 16 9 14 10 15 11 13 12
REMARK SMILES IDX 7 14 9 15 8 16 10 17 11 18 12 19
REMARK H PARENT
REMARK Flexibility Score: 70.00
ROOT
ATOM      1  C   UNL     1      48.511 111.283  53.331  1.00  0.00     0.216 C 
ATOM      2  C   UNL     1      47.285 110.574  54.009  1.00  0.00     0.070 C 
ATOM      3  C   UNL     1      46.212 111.627  53.950  1.00  0.00     0.037 C 
ATOM      4  C   UNL     1      44.997 111.579  54.499  1.00  0.00     0.021 C 
ATOM      5  C   UNL     1      46.648 112.604  52.980  1.00  0.00     0.334 C 
ATOM      6  O   UNL     1      45.961 113.565  52.545  1.00  0.00    -0.247 OA
ATOM      7  O   UNL     1      47.927 112.324  52.550  1.00  0.00    -0.455 OA
ENDROOT
BRANCH   2   8
ATOM      8  C   UNL     1      47.483 109.930  55.408  1.00  0.00     0.017 C 
BRANCH   8   9
ATOM      9  C   UNL     1      47.887 108.425  55.441  1.00  0.00     0.031 C 
BRANCH   9  10
ATOM     10  C   UNL     1      48.505 107.882  54.162  1.00  0.00    -0.077 C 
ATOM     11  C   UNL     1      47.639 107.038  53.263  1.00  0.00     0.039 C 
ATOM     12  C   UNL     1      49.793 108.089  53.785  1.00  0.00    -0.028 CG0
ATOM     13  G   UNL     1      50.871 108.810  54.564  1.00  0.00     0.000 G0
ENDBRANCH   9  10
ENDBRANCH   8   9
ENDBRANCH   2   8
BRANCH   1  14
ATOM     14  C   UNL     1      49.512 111.988  54.280  1.00  0.00     0.192 C 
ATOM     15  C   UNL     1      50.897 111.434  54.450  1.00  0.00     0.096 C 
ATOM     16  O   UNL     1      49.885 111.235  55.407  1.00  0.00    -0.362 OA
ATOM     17  C   UNL     1      51.967 112.390  54.978  1.00  0.00     0.045 C 
BRANCH  15  18
ATOM     18  C   UNL     1      51.373 110.096  53.821  1.00  0.00     0.042 C 
BRANCH  18  19
ATOM     19  C   UNL     1      50.889 108.817  54.543  1.00  0.00     0.030 CG0
ATOM     20  G   UNL     1      49.789 108.098  53.794  1.00  0.00     0.000 G0
ENDBRANCH  18  19
ENDBRANCH  15  18
ENDBRANCH   1  14
TORSDOF 0
ENDMDL
MODEL 8
REMARK VINA RESULT:    -3.356      1.716      3.708
REMARK INTER + INTRA:          -4.117
REMARK INTER:                  -4.507
REMARK INTRA:                   0.391
REMARK UNBOUND:                 0.417
REMARK SMILES C=C1C(=O)O[C@H]2[C@H]3O[C@@]3(C)CCC=C(C)CC[C@@H]12
REMARK SMILES IDX 6 1 18 2 2 3 1 4 3 5 4 6 5 7 17 8 16 9 14 10 15 11 13 12
REMARK SMILES IDX 7 14 9 15 8 16 10 17 11 18 12 19
REMARK H PARENT
REMARK Flexibility Score: 70.00
ROOT
ATOM      1  C   UNL     1      46.727 107.339  54.630  1.00  0.00     0.216 C 
ATOM      2  C   UNL     1      48.019 107.741  53.832  1.00  0.00     0.070 C 
ATOM      3  C   UNL     1      48.272 106.534  52.970  1.00  0.00     0.037 C 
ATOM      4  C   UNL     1      49.323 106.306  52.180  1.00  0.00     0.021 C 
ATOM      5  C   UNL     1      47.048 105.769  52.965  1.00  0.00     0.334 C 
ATOM      6  O   UNL     1      46.812 104.763  52.245  1.00  0.00    -0.247 OA
ATOM      7  O   UNL     1      46.131 106.314  53.838  1.00  0.00    -0.455 OA
ENDROOT
BRANCH   2   8
ATOM      8  C   UNL     1      49.256 108.239  54.628  1.00  0.00     0.017 C 
BRANCH   8   9
ATOM      9  C   UNL     1      49.440 109.780  54.755  1.00  0.00     0.031 C 
BRANCH   9  10
ATOM     10  C   UNL     1      48.164 110.604  54.675  1.00  0.00    -0.077 C 
ATOM     11  C   UNL     1      47.933 111.428  53.434  1.00  0.00     0.039 C 
ATOM     12  C   UNL     1      47.226 110.662  55.654  1.00  0.00    -0.028 CG0
ATOM     13  G   UNL     1      47.284 110.008  57.018  1.00  0.00     0.000 G0
ENDBRANCH   9  10
ENDBRANCH   8   9
ENDBRANCH   2   8
BRANCH   1  14
ATOM     14  C   UNL     1      46.949 106.709  56.027  1.00  0.00     0.192 C 
ATOM     15  C   UNL     1      46.603 107.490  57.262  1.00  0.00     0.096 C 
ATOM     16  O   UNL     1      47.928 107.343  56.812  1.00  0.00    -0.362 OA
ATOM     17  C   UNL     1      46.372 106.692  58.546  1.00  0.00     0.045 C 
BRANCH  15  18
ATOM     18  C   UNL     1      46.143 108.973  57.243  1.00  0.00     0.042 C 
BRANCH  18  19
ATOM     19  C   UNL     1      47.269 110.012  57.032  1.00  0.00     0.030 CG0
ATOM     20  G   UNL     1      47.224 110.661  55.666  1.00  0.00     0.000 G0
ENDBRANCH  18  19
ENDBRANCH  15  18
ENDBRANCH   1  14
TORSDOF 0
ENDMDL
MODEL 9
REMARK VINA RESULT:    -3.291     15.394     17.475
REMARK INTER + INTRA:          -4.029
REMARK INTER:                  -4.410
REMARK INTRA:                   0.382
REMARK UNBOUND:                 0.417
REMARK SMILES C=C1C(=O)O[C@H]2[C@H]3O[C@@]3(C)CCC=C(C)CC[C@@H]12
REMARK SMILES IDX 6 1 18 2 2 3 1 4 3 5 4 6 5 7 17 8 16 9 14 10 15 11 13 12
REMARK SMILES IDX 7 14 9 15 8 16 10 17 11 18 12 19
REMARK H PARENT
REMARK Flexibility Score: 70.00
ROOT
ATOM      1  C   UNL     1      60.724  98.716  52.686  1.00  0.00     0.216 C 
ATOM      2  C   UNL     1      61.182  97.803  53.878  1.00  0.00     0.070 C 
ATOM      3  C   UNL     1      60.027  97.895  54.837  1.00  0.00     0.037 C 
ATOM      4  C   UNL     1      59.955  97.394  56.072  1.00  0.00     0.021 C 
ATOM      5  C   UNL     1      58.910  98.416  54.087  1.00  0.00     0.334 C 
ATOM      6  O   UNL     1      57.724  98.507  54.500  1.00  0.00    -0.247 OA
ATOM      7  O   UNL     1      59.305  98.775  52.816  1.00  0.00    -0.455 OA
ENDROOT
BRANCH   2   8
ATOM      8  C   UNL     1      62.575  98.060  54.516  1.00  0.00     0.017 C 
BRANCH   8   9
ATOM      9  C   UNL     1      63.756  97.178  54.011  1.00  0.00     0.031 C 
BRANCH   9  10
ATOM     10  C   UNL     1      63.617  96.641  52.595  1.00  0.00    -0.077 C 
ATOM     11  C   UNL     1      63.343  95.169  52.423  1.00  0.00     0.039 C 
ATOM     12  C   UNL     1      63.744  97.394  51.473  1.00  0.00    -0.028 CG0
ATOM     13  G   UNL     1      64.115  98.859  51.391  1.00  0.00     0.000 G0
ENDBRANCH   9  10
ENDBRANCH   8   9
ENDBRANCH   2   8
BRANCH   1  14
ATOM     14  C   UNL     1      61.206 100.188  52.721  1.00  0.00     0.192 C 
ATOM     15  C   UNL     1      62.244 100.657  51.744  1.00  0.00     0.096 C 
ATOM     16  O   UNL     1      62.553 100.359  53.083  1.00  0.00    -0.362 OA
ATOM     17  C   UNL     1      62.326 102.163  51.487  1.00  0.00     0.045 C 
BRANCH  15  18
ATOM     18  C   UNL     1      62.982  99.716  50.753  1.00  0.00     0.042 C 
BRANCH  18  19
ATOM     19  C   UNL     1      64.116  98.864  51.371  1.00  0.00     0.030 CG0
ATOM     20  G   UNL     1      63.754  97.400  51.490  1.00  0.00     0.000 G0
ENDBRANCH  18  19
ENDBRANCH  15  18
ENDBRANCH   1  14
TORSDOF 0
ENDMDL
