MODEL 1
REMARK VINA RESULT:    -4.874      0.000      0.000
REMARK INTER + INTRA:          -5.199
REMARK INTER:                  -5.159
REMARK INTRA:                  -0.040
REMARK UNBOUND:                -0.040
REMARK SMILES COc1ccc2ccc(=O)oc2c1
REMARK SMILES IDX 3 1 13 2 12 3 6 4 5 5 4 6 7 7 8 8 9 9 10 10 11 11 2 12 1 13
REMARK H PARENT
REMARK Flexibility Score: inf
ROOT
ATOM      1  C   UNL     1       6.075   9.177   2.183  1.00  0.00     0.122 A 
ATOM      2  C   UNL     1       5.745  10.311   2.953  1.00  0.00     0.094 A 
ATOM      3  C   UNL     1       4.676  10.264   3.854  1.00  0.00     0.142 A 
ATOM      4  C   UNL     1       3.925   9.077   3.994  1.00  0.00     0.018 A 
ATOM      5  C   UNL     1       4.252   7.950   3.229  1.00  0.00     0.016 A 
ATOM      6  C   UNL     1       5.321   8.004   2.330  1.00  0.00     0.047 A 
ATOM      7  C   UNL     1       2.862   9.062   4.902  1.00  0.00     0.019 A 
ATOM      8  C   UNL     1       2.577  10.211   5.640  1.00  0.00     0.094 A 
ATOM      9  C   UNL     1       3.364  11.352   5.450  1.00  0.00     0.336 A 
ATOM     10  O   UNL     1       3.123  12.398   6.106  1.00  0.00    -0.246 OA
ATOM     11  O   UNL     1       4.370  11.339   4.578  1.00  0.00    -0.423 OA
ENDROOT
BRANCH   1  12
ATOM     12  O   UNL     1       7.137   9.174   1.266  1.00  0.00    -0.497 OA
ATOM     13  C   UNL     1       7.390   8.129   0.333  1.00  0.00     0.278 C 
ENDBRANCH   1  12
TORSDOF 1
ENDMDL
MODEL 2
REMARK VINA RESULT:    -4.808      4.967      6.919
REMARK INTER + INTRA:          -5.129
REMARK INTER:                  -5.096
REMARK INTRA:                  -0.032
REMARK UNBOUND:                -0.040
REMARK SMILES COc1ccc2ccc(=O)oc2c1
REMARK SMILES IDX 3 1 13 2 12 3 6 4 5 5 4 6 7 7 8 8 9 9 10 10 11 11 2 12 1 13
REMARK H PARENT
REMARK Flexibility Score: inf
ROOT
ATOM      1  C   UNL     1       5.737   6.017   1.340  1.00  0.00     0.122 A 
ATOM      2  C   UNL     1       5.175   4.732   1.479  1.00  0.00     0.094 A 
ATOM      3  C   UNL     1       4.047   4.371   0.733  1.00  0.00     0.142 A 
ATOM      4  C   UNL     1       3.470   5.298  -0.162  1.00  0.00     0.018 A 
ATOM      5  C   UNL     1       4.029   6.576  -0.300  1.00  0.00     0.016 A 
ATOM      6  C   UNL     1       5.155   6.928   0.448  1.00  0.00     0.047 A 
ATOM      7  C   UNL     1       2.344   4.908  -0.892  1.00  0.00     0.019 A 
ATOM      8  C   UNL     1       1.826   3.625  -0.718  1.00  0.00     0.094 A 
ATOM      9  C   UNL     1       2.450   2.759   0.187  1.00  0.00     0.336 A 
ATOM     10  O   UNL     1       1.998   1.597   0.358  1.00  0.00    -0.246 OA
ATOM     11  O   UNL     1       3.521   3.156   0.869  1.00  0.00    -0.423 OA
ENDROOT
BRANCH   1  12
ATOM     12  O   UNL     1       6.867   6.425   2.065  1.00  0.00    -0.497 OA
ATOM     13  C   UNL     1       8.117   6.770   1.477  1.00  0.00     0.278 C 
ENDBRANCH   1  12
TORSDOF 1
ENDMDL
MODEL 3
REMARK VINA RESULT:    -4.805      1.192      4.908
REMARK INTER + INTRA:          -5.126
REMARK INTER:                  -5.086
REMARK INTRA:                  -0.039
REMARK UNBOUND:                -0.040
REMARK SMILES COc1ccc2ccc(=O)oc2c1
REMARK SMILES IDX 3 1 13 2 12 3 6 4 5 5 4 6 7 7 8 8 9 9 10 10 11 11 2 12 1 13
REMARK H PARENT
REMARK Flexibility Score: inf
ROOT
ATOM      1  C   UNL     1       4.937  11.185   4.230  1.00  0.00     0.122 A 
ATOM      2  C   UNL     1       5.912  10.951   3.238  1.00  0.00     0.094 A 
ATOM      3  C   UNL     1       5.941   9.731   2.552  1.00  0.00     0.142 A 
ATOM      4  C   UNL     1       4.990   8.732   2.854  1.00  0.00     0.018 A 
ATOM      5  C   UNL     1       4.022   8.964   3.839  1.00  0.00     0.016 A 
ATOM      6  C   UNL     1       3.999  10.184   4.520  1.00  0.00     0.047 A 
ATOM      7  C   UNL     1       5.046   7.524   2.151  1.00  0.00     0.019 A 
ATOM      8  C   UNL     1       6.029   7.343   1.180  1.00  0.00     0.094 A 
ATOM      9  C   UNL     1       6.938   8.377   0.934  1.00  0.00     0.336 A 
ATOM     10  O   UNL     1       7.834   8.232   0.061  1.00  0.00    -0.246 OA
ATOM     11  O   UNL     1       6.863   9.516   1.617  1.00  0.00    -0.423 OA
ENDROOT
BRANCH   1  12
ATOM     12  O   UNL     1       4.867  12.390   4.944  1.00  0.00    -0.497 OA
ATOM     13  C   UNL     1       3.734  12.815   5.694  1.00  0.00     0.278 C 
ENDBRANCH   1  12
TORSDOF 1
ENDMDL
MODEL 4
REMARK VINA RESULT:    -4.801      4.982      6.155
REMARK INTER + INTRA:          -5.122
REMARK INTER:                  -5.082
REMARK INTRA:                  -0.039
REMARK UNBOUND:                -0.040
REMARK SMILES COc1ccc2ccc(=O)oc2c1
REMARK SMILES IDX 3 1 13 2 12 3 6 4 5 5 4 6 7 7 8 8 9 9 10 10 11 11 2 12 1 13
REMARK H PARENT
REMARK Flexibility Score: inf
ROOT
ATOM      1  C   UNL     1       3.551   4.755   0.693  1.00  0.00     0.122 A 
ATOM      2  C   UNL     1       4.676   4.766   1.542  1.00  0.00     0.094 A 
ATOM      3  C   UNL     1       5.629   5.786   1.437  1.00  0.00     0.142 A 
ATOM      4  C   UNL     1       5.463   6.807   0.477  1.00  0.00     0.018 A 
ATOM      5  C   UNL     1       4.344   6.796  -0.367  1.00  0.00     0.016 A 
ATOM      6  C   UNL     1       3.397   5.775  -0.256  1.00  0.00     0.047 A 
ATOM      7  C   UNL     1       6.432   7.811   0.396  1.00  0.00     0.019 A 
ATOM      8  C   UNL     1       7.527   7.776   1.259  1.00  0.00     0.094 A 
ATOM      9  C   UNL     1       7.627   6.733   2.185  1.00  0.00     0.336 A 
ATOM     10  O   UNL     1       8.607   6.684   2.973  1.00  0.00    -0.246 OA
ATOM     11  O   UNL     1       6.689   5.790   2.242  1.00  0.00    -0.423 OA
ENDROOT
BRANCH   1  12
ATOM     12  O   UNL     1       2.569   3.755   0.760  1.00  0.00    -0.497 OA
ATOM     13  C   UNL     1       1.622   3.489  -0.270  1.00  0.00     0.278 C 
ENDBRANCH   1  12
TORSDOF 1
ENDMDL
MODEL 5
REMARK VINA RESULT:    -4.775      1.794      2.290
REMARK INTER + INTRA:          -5.094
REMARK INTER:                  -5.060
REMARK INTRA:                  -0.034
REMARK UNBOUND:                -0.040
REMARK SMILES COc1ccc2ccc(=O)oc2c1
REMARK SMILES IDX 3 1 13 2 12 3 6 4 5 5 4 6 7 7 8 8 9 9 10 10 11 11 2 12 1 13
REMARK H PARENT
REMARK Flexibility Score: inf
ROOT
ATOM      1  C   UNL     1       4.875   7.685   2.276  1.00  0.00     0.122 A 
ATOM      2  C   UNL     1       5.471   8.963   2.237  1.00  0.00     0.094 A 
ATOM      3  C   UNL     1       5.092   9.946   3.159  1.00  0.00     0.142 A 
ATOM      4  C   UNL     1       4.110   9.657   4.132  1.00  0.00     0.018 A 
ATOM      5  C   UNL     1       3.518   8.387   4.170  1.00  0.00     0.016 A 
ATOM      6  C   UNL     1       3.902   7.411   3.247  1.00  0.00     0.047 A 
ATOM      7  C   UNL     1       3.753  10.659   5.038  1.00  0.00     0.019 A 
ATOM      8  C   UNL     1       4.372  11.906   4.957  1.00  0.00     0.094 A 
ATOM      9  C   UNL     1       5.337  12.122   3.967  1.00  0.00     0.336 A 
ATOM     10  O   UNL     1       5.907  13.240   3.877  1.00  0.00    -0.246 OA
ATOM     11  O   UNL     1       5.658  11.149   3.117  1.00  0.00    -0.423 OA
ENDROOT
BRANCH   1  12
ATOM     12  O   UNL     1       5.221   6.668   1.375  1.00  0.00    -0.497 OA
ATOM     13  C   UNL     1       4.417   6.266   0.270  1.00  0.00     0.278 C 
ENDBRANCH   1  12
TORSDOF 1
ENDMDL
MODEL 6
REMARK VINA RESULT:    -4.749      1.794      5.547
REMARK INTER + INTRA:          -5.067
REMARK INTER:                  -5.028
REMARK INTRA:                  -0.039
REMARK UNBOUND:                -0.040
REMARK SMILES COc1ccc2ccc(=O)oc2c1
REMARK SMILES IDX 3 1 13 2 12 3 6 4 5 5 4 6 7 7 8 8 9 9 10 10 11 11 2 12 1 13
REMARK H PARENT
REMARK Flexibility Score: inf
ROOT
ATOM      1  C   UNL     1       2.308  10.862   6.348  1.00  0.00     0.122 A 
ATOM      2  C   UNL     1       2.683   9.899   5.389  1.00  0.00     0.094 A 
ATOM      3  C   UNL     1       3.779  10.129   4.551  1.00  0.00     0.142 A 
ATOM      4  C   UNL     1       4.514  11.329   4.666  1.00  0.00     0.018 A 
ATOM      5  C   UNL     1       4.141  12.286   5.620  1.00  0.00     0.016 A 
ATOM      6  C   UNL     1       3.045  12.049   6.453  1.00  0.00     0.047 A 
ATOM      7  C   UNL     1       5.604  11.529   3.814  1.00  0.00     0.019 A 
ATOM      8  C   UNL     1       5.933  10.546   2.882  1.00  0.00     0.094 A 
ATOM      9  C   UNL     1       5.160   9.381   2.824  1.00  0.00     0.336 A 
ATOM     10  O   UNL     1       5.441   8.482   1.989  1.00  0.00    -0.246 OA
ATOM     11  O   UNL     1       4.128   9.216   3.647  1.00  0.00    -0.423 OA
ENDROOT
BRANCH   1  12
ATOM     12  O   UNL     1       1.217  10.678   7.211  1.00  0.00    -0.497 OA
ATOM     13  C   UNL     1       1.068  11.329   8.468  1.00  0.00     0.278 C 
ENDBRANCH   1  12
TORSDOF 1
ENDMDL
MODEL 7
REMARK VINA RESULT:    -4.706      2.409      5.257
REMARK INTER + INTRA:          -5.021
REMARK INTER:                  -4.987
REMARK INTRA:                  -0.033
REMARK UNBOUND:                -0.040
REMARK SMILES COc1ccc2ccc(=O)oc2c1
REMARK SMILES IDX 3 1 13 2 12 3 6 4 5 5 4 6 7 7 8 8 9 9 10 10 11 11 2 12 1 13
REMARK H PARENT
REMARK Flexibility Score: inf
ROOT
ATOM      1  C   UNL     1       4.151   9.702   4.299  1.00  0.00     0.122 A 
ATOM      2  C   UNL     1       3.645   8.411   4.044  1.00  0.00     0.094 A 
ATOM      3  C   UNL     1       4.132   7.664   2.965  1.00  0.00     0.142 A 
ATOM      4  C   UNL     1       5.135   8.204   2.131  1.00  0.00     0.018 A 
ATOM      5  C   UNL     1       5.638   9.487   2.385  1.00  0.00     0.016 A 
ATOM      6  C   UNL     1       5.146  10.227   3.464  1.00  0.00     0.047 A 
ATOM      7  C   UNL     1       5.600   7.433   1.062  1.00  0.00     0.019 A 
ATOM      8  C   UNL     1       5.067   6.162   0.852  1.00  0.00     0.094 A 
ATOM      9  C   UNL     1       4.075   5.691   1.719  1.00  0.00     0.336 A 
ATOM     10  O   UNL     1       3.581   4.547   1.546  1.00  0.00    -0.246 OA
ATOM     11  O   UNL     1       3.650   6.446   2.729  1.00  0.00    -0.423 OA
ENDROOT
BRANCH   1  12
ATOM     12  O   UNL     1       3.695  10.490   5.367  1.00  0.00    -0.497 OA
ATOM     13  C   UNL     1       2.480  11.233   5.356  1.00  0.00     0.278 C 
ENDBRANCH   1  12
TORSDOF 1
ENDMDL
MODEL 8
REMARK VINA RESULT:    -4.669     10.752     12.084
REMARK INTER + INTRA:          -4.982
REMARK INTER:                  -4.945
REMARK INTRA:                  -0.037
REMARK UNBOUND:                -0.040
REMARK SMILES COc1ccc2ccc(=O)oc2c1
REMARK SMILES IDX 3 1 13 2 12 3 6 4 5 5 4 6 7 7 8 8 9 9 10 10 11 11 2 12 1 13
REMARK H PARENT
REMARK Flexibility Score: inf
ROOT
ATOM      1  C   UNL     1      -3.881   6.522  11.405  1.00  0.00     0.122 A 
ATOM      2  C   UNL     1      -3.237   5.522  10.648  1.00  0.00     0.094 A 
ATOM      3  C   UNL     1      -1.967   5.065  11.019  1.00  0.00     0.142 A 
ATOM      4  C   UNL     1      -1.329   5.608  12.156  1.00  0.00     0.018 A 
ATOM      5  C   UNL     1      -1.969   6.602  12.908  1.00  0.00     0.016 A 
ATOM      6  C   UNL     1      -3.237   7.052  12.531  1.00  0.00     0.047 A 
ATOM      7  C   UNL     1      -0.061   5.132  12.500  1.00  0.00     0.019 A 
ATOM      8  C   UNL     1       0.533   4.142  11.719  1.00  0.00     0.094 A 
ATOM      9  C   UNL     1      -0.157   3.650  10.606  1.00  0.00     0.336 A 
ATOM     10  O   UNL     1       0.362   2.757   9.888  1.00  0.00    -0.246 OA
ATOM     11  O   UNL     1      -1.364   4.121  10.301  1.00  0.00    -0.423 OA
ENDROOT
BRANCH   1  12
ATOM     12  O   UNL     1      -5.154   7.011  11.074  1.00  0.00    -0.497 OA
ATOM     13  C   UNL     1      -5.679   7.055   9.751  1.00  0.00     0.278 C 
ENDBRANCH   1  12
TORSDOF 1
ENDMDL
MODEL 9
REMARK VINA RESULT:    -4.613      5.524      7.328
REMARK INTER + INTRA:          -4.922
REMARK INTER:                  -4.889
REMARK INTRA:                  -0.033
REMARK UNBOUND:                -0.040
REMARK SMILES COc1ccc2ccc(=O)oc2c1
REMARK SMILES IDX 3 1 13 2 12 3 6 4 5 5 4 6 7 7 8 8 9 9 10 10 11 11 2 12 1 13
REMARK H PARENT
REMARK Flexibility Score: inf
ROOT
ATOM      1  C   UNL     1       3.094   2.394  -0.162  1.00  0.00     0.122 A 
ATOM      2  C   UNL     1       4.163   2.914   0.597  1.00  0.00     0.094 A 
ATOM      3  C   UNL     1       4.457   4.281   0.557  1.00  0.00     0.142 A 
ATOM      4  C   UNL     1       3.679   5.145  -0.245  1.00  0.00     0.018 A 
ATOM      5  C   UNL     1       2.617   4.629  -0.999  1.00  0.00     0.016 A 
ATOM      6  C   UNL     1       2.330   3.262  -0.954  1.00  0.00     0.047 A 
ATOM      7  C   UNL     1       3.998   6.506  -0.264  1.00  0.00     0.019 A 
ATOM      8  C   UNL     1       5.065   6.969   0.505  1.00  0.00     0.094 A 
ATOM      9  C   UNL     1       5.792   6.056   1.276  1.00  0.00     0.336 A 
ATOM     10  O   UNL     1       6.759   6.454   1.977  1.00  0.00    -0.246 OA
ATOM     11  O   UNL     1       5.467   4.765   1.276  1.00  0.00    -0.423 OA
ENDROOT
BRANCH   1  12
ATOM     12  O   UNL     1       2.761   1.032  -0.156  1.00  0.00    -0.497 OA
ATOM     13  C   UNL     1       3.299   0.069  -1.056  1.00  0.00     0.278 C 
ENDBRANCH   1  12
TORSDOF 1
ENDMDL
