MODEL 1
REMARK VINA RESULT:    -5.790      0.000      0.000
REMARK INTER + INTRA:         -18.536
REMARK INTER:                 -14.591
REMARK INTRA:                  -3.944
REMARK UNBOUND:                -3.944
REMARK SMILES CCCCCCCCCCCCCCCCCCCCCCCCCCCC(=O)[O-]
REMARK SMILES IDX 15 1 16 2 17 3 18 4 19 5 20 6 21 7 22 8 23 9 24 10 25 11
REMARK SMILES IDX 26 12 27 13 28 14 29 15 30 16 14 17 13 18 12 19 11 20 10 21
REMARK SMILES IDX 9 22 8 23 7 24 6 25 5 26 4 27 3 28 2 29 1 30
REMARK H PARENT
REMARK Flexibility Score: inf
ROOT
ATOM      1  C   UNL     1      53.261  16.726   2.591  1.00  0.00     0.000 C 
ENDROOT
BRANCH   1   2
ATOM      2  C   UNL     1      54.741  17.148   2.620  1.00  0.00     0.000 C 
BRANCH   2   3
ATOM      3  C   UNL     1      55.213  17.951   1.393  1.00  0.00     0.000 C 
BRANCH   3   4
ATOM      4  C   UNL     1      56.074  17.121   0.428  1.00  0.00     0.000 C 
BRANCH   4   5
ATOM      5  C   UNL     1      55.571  17.267  -1.017  1.00  0.00     0.000 C 
BRANCH   5   6
ATOM      6  C   UNL     1      54.190  17.936  -1.098  1.00  0.00     0.000 C 
BRANCH   6   7
ATOM      7  C   UNL     1      53.167  17.092  -1.873  1.00  0.00     0.000 C 
BRANCH   7   8
ATOM      8  C   UNL     1      52.707  15.890  -1.039  1.00  0.00     0.000 C 
BRANCH   8   9
ATOM      9  C   UNL     1      53.567  14.654  -1.330  1.00  0.00     0.000 C 
BRANCH   9  10
ATOM     10  C   UNL     1      53.685  13.760  -0.087  1.00  0.00     0.000 C 
BRANCH  10  11
ATOM     11  C   UNL     1      55.069  13.843   0.574  1.00  0.00     0.000 C 
BRANCH  11  12
ATOM     12  C   UNL     1      56.113  12.954  -0.124  1.00  0.00     0.006 C 
BRANCH  12  13
ATOM     13  C   UNL     1      57.332  12.683   0.766  1.00  0.00     0.053 C 
BRANCH  13  14
ATOM     14  C   UNL     1      58.567  13.339   0.230  1.00  0.00     0.041 C 
ATOM     15  O   UNL     1      58.508  14.497  -0.262  1.00  0.00    -0.550 OA
ATOM     16  O   UNL     1      59.777  12.657   0.243  1.00  0.00    -0.550 OA
ENDBRANCH  13  14
ENDBRANCH  12  13
ENDBRANCH  11  12
ENDBRANCH  10  11
ENDBRANCH   9  10
ENDBRANCH   8   9
ENDBRANCH   7   8
ENDBRANCH   6   7
ENDBRANCH   5   6
ENDBRANCH   4   5
ENDBRANCH   3   4
ENDBRANCH   2   3
ENDBRANCH   1   2
BRANCH   1  17
ATOM     17  C   UNL     1      52.322  17.693   1.845  1.00  0.00     0.000 C 
BRANCH  17  18
ATOM     18  C   UNL     1      51.316  18.418   2.763  1.00  0.00     0.000 C 
BRANCH  18  19
ATOM     19  C   UNL     1      50.311  19.274   1.973  1.00  0.00     0.000 C 
BRANCH  19  20
ATOM     20  C   UNL     1      49.842  18.592   0.676  1.00  0.00     0.000 C 
BRANCH  20  21
ATOM     21  C   UNL     1      50.348  19.314  -0.585  1.00  0.00     0.000 C 
BRANCH  21  22
ATOM     22  C   UNL     1      49.531  18.962  -1.838  1.00  0.00    -0.000 C 
BRANCH  22  23
ATOM     23  C   UNL     1      48.169  19.679  -1.879  1.00  0.00    -0.000 C 
BRANCH  23  24
ATOM     24  C   UNL     1      48.278  21.169  -1.514  1.00  0.00    -0.000 C 
BRANCH  24  25
ATOM     25  C   UNL     1      47.172  21.616  -0.542  1.00  0.00    -0.000 C 
BRANCH  25  26
ATOM     26  C   UNL     1      46.435  20.434   0.106  1.00  0.00    -0.000 C 
BRANCH  26  27
ATOM     27  C   UNL     1      46.605  20.393   1.635  1.00  0.00    -0.000 C 
BRANCH  27  28
ATOM     28  C   UNL     1      47.310  21.644   2.192  1.00  0.00    -0.000 C 
BRANCH  28  29
ATOM     29  C   UNL     1      46.548  22.376   3.311  1.00  0.00    -0.003 C 
ATOM     30  C   UNL     1      45.325  21.606   3.808  1.00  0.00     0.004 C 
ENDBRANCH  28  29
ENDBRANCH  27  28
ENDBRANCH  26  27
ENDBRANCH  25  26
ENDBRANCH  24  25
ENDBRANCH  23  24
ENDBRANCH  22  23
ENDBRANCH  21  22
ENDBRANCH  20  21
ENDBRANCH  19  20
ENDBRANCH  18  19
ENDBRANCH  17  18
ENDBRANCH   1  17
TORSDOF 26
ENDMDL
MODEL 2
REMARK VINA RESULT:    -5.781      1.437      3.494
REMARK INTER + INTRA:         -18.512
REMARK INTER:                 -14.402
REMARK INTRA:                  -4.110
REMARK UNBOUND:                -3.944
REMARK SMILES CCCCCCCCCCCCCCCCCCCCCCCCCCCC(=O)[O-]
REMARK SMILES IDX 15 1 16 2 17 3 18 4 19 5 20 6 21 7 22 8 23 9 24 10 25 11
REMARK SMILES IDX 26 12 27 13 28 14 29 15 30 16 14 17 13 18 12 19 11 20 10 21
REMARK SMILES IDX 9 22 8 23 7 24 6 25 5 26 4 27 3 28 2 29 1 30
REMARK H PARENT
REMARK Flexibility Score: inf
ROOT
ATOM      1  C   UNL     1      53.449  15.833  -1.878  1.00  0.00     0.000 C 
ENDROOT
BRANCH   1   2
ATOM      2  C   UNL     1      53.025  14.608  -1.046  1.00  0.00     0.000 C 
BRANCH   2   3
ATOM      3  C   UNL     1      54.175  13.886  -0.320  1.00  0.00     0.000 C 
BRANCH   3   4
ATOM      4  C   UNL     1      54.278  14.263   1.166  1.00  0.00     0.000 C 
BRANCH   4   5
ATOM      5  C   UNL     1      52.979  14.921   1.655  1.00  0.00     0.000 C 
BRANCH   5   6
ATOM      6  C   UNL     1      53.132  16.432   1.890  1.00  0.00     0.000 C 
BRANCH   6   7
ATOM      7  C   UNL     1      54.529  16.812   2.404  1.00  0.00     0.000 C 
BRANCH   7   8
ATOM      8  C   UNL     1      55.152  17.911   1.535  1.00  0.00     0.000 C 
BRANCH   8   9
ATOM      9  C   UNL     1      55.909  17.311   0.345  1.00  0.00     0.000 C 
BRANCH   9  10
ATOM     10  C   UNL     1      57.167  16.564   0.813  1.00  0.00     0.000 C 
BRANCH  10  11
ATOM     11  C   UNL     1      57.698  15.579  -0.240  1.00  0.00     0.000 C 
BRANCH  11  12
ATOM     12  C   UNL     1      58.584  14.479   0.371  1.00  0.00     0.006 C 
BRANCH  12  13
ATOM     13  C   UNL     1      57.760  13.294   0.890  1.00  0.00     0.053 C 
BRANCH  13  14
ATOM     14  C   UNL     1      58.000  12.056   0.082  1.00  0.00     0.041 C 
ATOM     15  O   UNL     1      58.897  11.240   0.424  1.00  0.00    -0.550 OA
ATOM     16  O   UNL     1      57.256  11.821  -1.067  1.00  0.00    -0.550 OA
ENDBRANCH  13  14
ENDBRANCH  12  13
ENDBRANCH  11  12
ENDBRANCH  10  11
ENDBRANCH   9  10
ENDBRANCH   8   9
ENDBRANCH   7   8
ENDBRANCH   6   7
ENDBRANCH   5   6
ENDBRANCH   4   5
ENDBRANCH   3   4
ENDBRANCH   2   3
ENDBRANCH   1   2
BRANCH   1  17
ATOM     17  C   UNL     1      52.347  16.887  -2.095  1.00  0.00     0.000 C 
BRANCH  17  18
ATOM     18  C   UNL     1      52.403  18.061  -1.095  1.00  0.00     0.000 C 
BRANCH  18  19
ATOM     19  C   UNL     1      51.239  19.050  -1.285  1.00  0.00     0.000 C 
BRANCH  19  20
ATOM     20  C   UNL     1      49.871  18.349  -1.350  1.00  0.00     0.000 C 
BRANCH  20  21
ATOM     21  C   UNL     1      48.821  19.177  -2.112  1.00  0.00     0.000 C 
BRANCH  21  22
ATOM     22  C   UNL     1      48.691  20.611  -1.573  1.00  0.00    -0.000 C 
BRANCH  22  23
ATOM     23  C   UNL     1      47.346  21.263  -1.938  1.00  0.00    -0.000 C 
BRANCH  23  24
ATOM     24  C   UNL     1      46.406  21.388  -0.727  1.00  0.00    -0.000 C 
BRANCH  24  25
ATOM     25  C   UNL     1      47.162  21.310   0.611  1.00  0.00    -0.000 C 
BRANCH  25  26
ATOM     26  C   UNL     1      46.736  20.107   1.467  1.00  0.00    -0.000 C 
BRANCH  26  27
ATOM     27  C   UNL     1      47.725  19.810   2.608  1.00  0.00    -0.000 C 
BRANCH  27  28
ATOM     28  C   UNL     1      48.207  18.347   2.616  1.00  0.00    -0.000 C 
BRANCH  28  29
ATOM     29  C   UNL     1      49.729  18.163   2.471  1.00  0.00    -0.003 C 
ATOM     30  C   UNL     1      50.472  19.476   2.230  1.00  0.00     0.004 C 
ENDBRANCH  28  29
ENDBRANCH  27  28
ENDBRANCH  26  27
ENDBRANCH  25  26
ENDBRANCH  24  25
ENDBRANCH  23  24
ENDBRANCH  22  23
ENDBRANCH  21  22
ENDBRANCH  20  21
ENDBRANCH  19  20
ENDBRANCH  18  19
ENDBRANCH  17  18
ENDBRANCH   1  17
TORSDOF 26
ENDMDL
MODEL 3
REMARK VINA RESULT:    -5.760      3.759     11.390
REMARK INTER + INTRA:         -18.460
REMARK INTER:                 -15.138
REMARK INTRA:                  -3.322
REMARK UNBOUND:                -3.944
REMARK SMILES CCCCCCCCCCCCCCCCCCCCCCCCCCCC(=O)[O-]
REMARK SMILES IDX 15 1 16 2 17 3 18 4 19 5 20 6 21 7 22 8 23 9 24 10 25 11
REMARK SMILES IDX 26 12 27 13 28 14 29 15 30 16 14 17 13 18 12 19 11 20 10 21
REMARK SMILES IDX 9 22 8 23 7 24 6 25 5 26 4 27 3 28 2 29 1 30
REMARK H PARENT
REMARK Flexibility Score: inf
ROOT
ATOM      1  C   UNL     1      53.891  14.139  -0.945  1.00  0.00     0.000 C 
ENDROOT
BRANCH   1   2
ATOM      2  C   UNL     1      53.059  15.414  -0.713  1.00  0.00     0.000 C 
BRANCH   2   3
ATOM      3  C   UNL     1      53.332  16.559  -1.706  1.00  0.00     0.000 C 
BRANCH   3   4
ATOM      4  C   UNL     1      54.218  17.667  -1.116  1.00  0.00     0.000 C 
BRANCH   4   5
ATOM      5  C   UNL     1      55.657  17.167  -0.912  1.00  0.00     0.000 C 
BRANCH   5   6
ATOM      6  C   UNL     1      56.054  17.096   0.571  1.00  0.00     0.000 C 
BRANCH   6   7
ATOM      7  C   UNL     1      55.094  17.880   1.479  1.00  0.00     0.000 C 
BRANCH   7   8
ATOM      8  C   UNL     1      54.431  16.952   2.505  1.00  0.00     0.000 C 
BRANCH   8   9
ATOM      9  C   UNL     1      53.074  17.507   2.954  1.00  0.00     0.000 C 
BRANCH   9  10
ATOM     10  C   UNL     1      52.113  17.642   1.763  1.00  0.00     0.000 C 
BRANCH  10  11
ATOM     11  C   UNL     1      50.914  18.552   2.069  1.00  0.00     0.000 C 
BRANCH  11  12
ATOM     12  C   UNL     1      49.820  18.473   0.991  1.00  0.00     0.006 C 
BRANCH  12  13
ATOM     13  C   UNL     1      50.373  18.736  -0.416  1.00  0.00     0.053 C 
BRANCH  13  14
ATOM     14  C   UNL     1      49.673  19.881  -1.081  1.00  0.00     0.041 C 
ATOM     15  O   UNL     1      50.284  20.600  -1.916  1.00  0.00    -0.550 OA
ATOM     16  O   UNL     1      48.355  20.174  -0.755  1.00  0.00    -0.550 OA
ENDBRANCH  13  14
ENDBRANCH  12  13
ENDBRANCH  11  12
ENDBRANCH  10  11
ENDBRANCH   9  10
ENDBRANCH   8   9
ENDBRANCH   7   8
ENDBRANCH   6   7
ENDBRANCH   5   6
ENDBRANCH   4   5
ENDBRANCH   3   4
ENDBRANCH   2   3
ENDBRANCH   1   2
BRANCH   1  17
ATOM     17  C   UNL     1      54.728  13.677   0.263  1.00  0.00     0.000 C 
BRANCH  17  18
ATOM     18  C   UNL     1      55.764  12.585  -0.077  1.00  0.00     0.000 C 
BRANCH  18  19
ATOM     19  C   UNL     1      57.021  12.673   0.806  1.00  0.00     0.000 C 
BRANCH  19  20
ATOM     20  C   UNL     1      58.285  13.028   0.006  1.00  0.00     0.000 C 
BRANCH  20  21
ATOM     21  C   UNL     1      58.483  14.547  -0.140  1.00  0.00     0.000 C 
BRANCH  21  22
ATOM     22  C   UNL     1      59.965  14.951  -0.183  1.00  0.00    -0.000 C 
BRANCH  22  23
ATOM     23  C   UNL     1      60.806  14.245   0.895  1.00  0.00    -0.000 C 
BRANCH  23  24
ATOM     24  C   UNL     1      62.132  13.698   0.342  1.00  0.00    -0.000 C 
BRANCH  24  25
ATOM     25  C   UNL     1      61.953  12.353  -0.386  1.00  0.00    -0.000 C 
BRANCH  25  26
ATOM     26  C   UNL     1      61.524  11.218   0.557  1.00  0.00    -0.000 C 
BRANCH  26  27
ATOM     27  C   UNL     1      60.645  10.166  -0.141  1.00  0.00    -0.000 C 
BRANCH  27  28
ATOM     28  C   UNL     1      60.300   8.974   0.771  1.00  0.00    -0.000 C 
BRANCH  28  29
ATOM     29  C   UNL     1      60.791   7.605   0.266  1.00  0.00    -0.003 C 
ATOM     30  C   UNL     1      62.301   7.418   0.414  1.00  0.00     0.004 C 
ENDBRANCH  28  29
ENDBRANCH  27  28
ENDBRANCH  26  27
ENDBRANCH  25  26
ENDBRANCH  24  25
ENDBRANCH  23  24
ENDBRANCH  22  23
ENDBRANCH  21  22
ENDBRANCH  20  21
ENDBRANCH  19  20
ENDBRANCH  18  19
ENDBRANCH  17  18
ENDBRANCH   1  17
TORSDOF 26
ENDMDL
MODEL 4
REMARK VINA RESULT:    -5.722      1.474      3.741
REMARK INTER + INTRA:         -18.364
REMARK INTER:                 -14.209
REMARK INTRA:                  -4.155
REMARK UNBOUND:                -3.944
REMARK SMILES CCCCCCCCCCCCCCCCCCCCCCCCCCCC(=O)[O-]
REMARK SMILES IDX 15 1 16 2 17 3 18 4 19 5 20 6 21 7 22 8 23 9 24 10 25 11
REMARK SMILES IDX 26 12 27 13 28 14 29 15 30 16 14 17 13 18 12 19 11 20 10 21
REMARK SMILES IDX 9 22 8 23 7 24 6 25 5 26 4 27 3 28 2 29 1 30
REMARK H PARENT
REMARK Flexibility Score: inf
ROOT
ATOM      1  C   UNL     1      53.442  15.789  -1.871  1.00  0.00     0.000 C 
ENDROOT
BRANCH   1   2
ATOM      2  C   UNL     1      52.887  14.787  -0.841  1.00  0.00     0.000 C 
BRANCH   2   3
ATOM      3  C   UNL     1      53.955  14.057  -0.003  1.00  0.00     0.000 C 
BRANCH   3   4
ATOM      4  C   UNL     1      53.910  14.434   1.485  1.00  0.00     0.000 C 
BRANCH   4   5
ATOM      5  C   UNL     1      52.865  15.530   1.741  1.00  0.00     0.000 C 
BRANCH   5   6
ATOM      6  C   UNL     1      53.491  16.836   2.256  1.00  0.00     0.000 C 
BRANCH   6   7
ATOM      7  C   UNL     1      55.016  16.871   2.079  1.00  0.00     0.000 C 
BRANCH   7   8
ATOM      8  C   UNL     1      55.409  17.754   0.888  1.00  0.00     0.000 C 
BRANCH   8   9
ATOM      9  C   UNL     1      56.383  17.023  -0.043  1.00  0.00     0.000 C 
BRANCH   9  10
ATOM     10  C   UNL     1      57.032  15.826   0.668  1.00  0.00     0.000 C 
BRANCH  10  11
ATOM     11  C   UNL     1      58.154  15.181  -0.160  1.00  0.00     0.000 C 
BRANCH  11  12
ATOM     12  C   UNL     1      58.551  13.789   0.363  1.00  0.00     0.006 C 
BRANCH  12  13
ATOM     13  C   UNL     1      57.329  12.943   0.744  1.00  0.00     0.053 C 
BRANCH  13  14
ATOM     14  C   UNL     1      57.256  11.682  -0.061  1.00  0.00     0.041 C 
ATOM     15  O   UNL     1      56.139  11.204  -0.392  1.00  0.00    -0.550 OA
ATOM     16  O   UNL     1      58.423  11.017  -0.418  1.00  0.00    -0.550 OA
ENDBRANCH  13  14
ENDBRANCH  12  13
ENDBRANCH  11  12
ENDBRANCH  10  11
ENDBRANCH   9  10
ENDBRANCH   8   9
ENDBRANCH   7   8
ENDBRANCH   6   7
ENDBRANCH   5   6
ENDBRANCH   4   5
ENDBRANCH   3   4
ENDBRANCH   2   3
ENDBRANCH   1   2
BRANCH   1  17
ATOM     17  C   UNL     1      52.509  16.970  -2.200  1.00  0.00     0.000 C 
BRANCH  17  18
ATOM     18  C   UNL     1      52.200  17.875  -0.989  1.00  0.00     0.000 C 
BRANCH  18  19
ATOM     19  C   UNL     1      51.123  18.928  -1.304  1.00  0.00     0.000 C 
BRANCH  19  20
ATOM     20  C   UNL     1      50.240  19.255  -0.088  1.00  0.00     0.000 C 
BRANCH  20  21
ATOM     21  C   UNL     1      50.279  18.150   0.983  1.00  0.00     0.000 C 
BRANCH  21  22
ATOM     22  C   UNL     1      49.616  18.578   2.302  1.00  0.00    -0.000 C 
BRANCH  22  23
ATOM     23  C   UNL     1      49.789  20.080   2.594  1.00  0.00    -0.000 C 
BRANCH  23  24
ATOM     24  C   UNL     1      48.443  20.816   2.701  1.00  0.00    -0.000 C 
BRANCH  24  25
ATOM     25  C   UNL     1      47.242  19.862   2.564  1.00  0.00    -0.000 C 
BRANCH  25  26
ATOM     26  C   UNL     1      46.269  20.285   1.451  1.00  0.00    -0.000 C 
BRANCH  26  27
ATOM     27  C   UNL     1      46.984  20.597   0.125  1.00  0.00    -0.000 C 
BRANCH  27  28
ATOM     28  C   UNL     1      46.090  21.359  -0.871  1.00  0.00    -0.000 C 
BRANCH  28  29
ATOM     29  C   UNL     1      46.836  22.001  -2.055  1.00  0.00    -0.003 C 
ATOM     30  C   UNL     1      48.356  21.896  -1.935  1.00  0.00     0.004 C 
ENDBRANCH  28  29
ENDBRANCH  27  28
ENDBRANCH  26  27
ENDBRANCH  25  26
ENDBRANCH  24  25
ENDBRANCH  23  24
ENDBRANCH  22  23
ENDBRANCH  21  22
ENDBRANCH  20  21
ENDBRANCH  19  20
ENDBRANCH  18  19
ENDBRANCH  17  18
ENDBRANCH   1  17
TORSDOF 26
ENDMDL
MODEL 5
REMARK VINA RESULT:    -5.685      3.845     10.506
REMARK INTER + INTRA:         -18.271
REMARK INTER:                 -13.948
REMARK INTRA:                  -4.323
REMARK UNBOUND:                -3.944
REMARK SMILES CCCCCCCCCCCCCCCCCCCCCCCCCCCC(=O)[O-]
REMARK SMILES IDX 15 1 16 2 17 3 18 4 19 5 20 6 21 7 22 8 23 9 24 10 25 11
REMARK SMILES IDX 26 12 27 13 28 14 29 15 30 16 14 17 13 18 12 19 11 20 10 21
REMARK SMILES IDX 9 22 8 23 7 24 6 25 5 26 4 27 3 28 2 29 1 30
REMARK H PARENT
REMARK Flexibility Score: inf
ROOT
ATOM      1  C   UNL     1      53.666  15.305  -1.691  1.00  0.00     0.000 C 
ENDROOT
BRANCH   1   2
ATOM      2  C   UNL     1      53.118  16.722  -1.442  1.00  0.00     0.000 C 
BRANCH   2   3
ATOM      3  C   UNL     1      54.184  17.782  -1.108  1.00  0.00     0.000 C 
BRANCH   3   4
ATOM      4  C   UNL     1      55.587  17.185  -0.924  1.00  0.00     0.000 C 
BRANCH   4   5
ATOM      5  C   UNL     1      55.941  17.066   0.566  1.00  0.00     0.000 C 
BRANCH   5   6
ATOM      6  C   UNL     1      55.061  17.958   1.456  1.00  0.00     0.000 C 
BRANCH   6   7
ATOM      7  C   UNL     1      54.326  17.165   2.547  1.00  0.00     0.000 C 
BRANCH   7   8
ATOM      8  C   UNL     1      52.856  16.947   2.170  1.00  0.00     0.000 C 
BRANCH   8   9
ATOM      9  C   UNL     1      51.996  18.148   2.581  1.00  0.00     0.000 C 
BRANCH   9  10
ATOM     10  C   UNL     1      50.534  17.949   2.157  1.00  0.00     0.000 C 
BRANCH  10  11
ATOM     11  C   UNL     1      50.345  18.009   0.633  1.00  0.00     0.000 C 
BRANCH  11  12
ATOM     12  C   UNL     1      50.608  19.411   0.058  1.00  0.00     0.006 C 
BRANCH  12  13
ATOM     13  C   UNL     1      50.457  19.449  -1.468  1.00  0.00     0.053 C 
BRANCH  13  14
ATOM     14  C   UNL     1      49.021  19.364  -1.884  1.00  0.00     0.041 C 
ATOM     15  O   UNL     1      48.189  20.217  -1.475  1.00  0.00    -0.550 OA
ATOM     16  O   UNL     1      48.594  18.322  -2.698  1.00  0.00    -0.550 OA
ENDBRANCH  13  14
ENDBRANCH  12  13
ENDBRANCH  11  12
ENDBRANCH  10  11
ENDBRANCH   9  10
ENDBRANCH   8   9
ENDBRANCH   7   8
ENDBRANCH   6   7
ENDBRANCH   5   6
ENDBRANCH   4   5
ENDBRANCH   3   4
ENDBRANCH   2   3
ENDBRANCH   1   2
BRANCH   1  17
ATOM     17  C   UNL     1      53.198  14.237  -0.683  1.00  0.00     0.000 C 
BRANCH  17  18
ATOM     18  C   UNL     1      54.256  13.881   0.383  1.00  0.00     0.000 C 
BRANCH  18  19
ATOM     19  C   UNL     1      55.629  13.565  -0.236  1.00  0.00     0.000 C 
BRANCH  19  20
ATOM     20  C   UNL     1      56.407  12.503   0.559  1.00  0.00     0.000 C 
BRANCH  20  21
ATOM     21  C   UNL     1      56.847  11.316  -0.318  1.00  0.00     0.000 C 
BRANCH  21  22
ATOM     22  C   UNL     1      58.374  11.215  -0.455  1.00  0.00    -0.000 C 
BRANCH  22  23
ATOM     23  C   UNL     1      59.021  10.407   0.684  1.00  0.00    -0.000 C 
BRANCH  23  24
ATOM     24  C   UNL     1      60.434  10.907   1.030  1.00  0.00    -0.000 C 
BRANCH  24  25
ATOM     25  C   UNL     1      61.290  11.155  -0.226  1.00  0.00    -0.000 C 
BRANCH  25  26
ATOM     26  C   UNL     1      62.168  12.411  -0.109  1.00  0.00    -0.000 C 
BRANCH  26  27
ATOM     27  C   UNL     1      61.401  13.622   0.450  1.00  0.00    -0.000 C 
BRANCH  27  28
ATOM     28  C   UNL     1      60.706  14.450  -0.647  1.00  0.00    -0.000 C 
BRANCH  28  29
ATOM     29  C   UNL     1      59.242  14.824  -0.352  1.00  0.00    -0.003 C 
ATOM     30  C   UNL     1      59.010  15.244   1.099  1.00  0.00     0.004 C 
ENDBRANCH  28  29
ENDBRANCH  27  28
ENDBRANCH  26  27
ENDBRANCH  25  26
ENDBRANCH  24  25
ENDBRANCH  23  24
ENDBRANCH  22  23
ENDBRANCH  21  22
ENDBRANCH  20  21
ENDBRANCH  19  20
ENDBRANCH  18  19
ENDBRANCH  17  18
ENDBRANCH   1  17
TORSDOF 26
ENDMDL
MODEL 6
REMARK VINA RESULT:    -5.672      1.136      2.268
REMARK INTER + INTRA:         -18.238
REMARK INTER:                 -14.870
REMARK INTRA:                  -3.368
REMARK UNBOUND:                -3.944
REMARK SMILES CCCCCCCCCCCCCCCCCCCCCCCCCCCC(=O)[O-]
REMARK SMILES IDX 15 1 16 2 17 3 18 4 19 5 20 6 21 7 22 8 23 9 24 10 25 11
REMARK SMILES IDX 26 12 27 13 28 14 29 15 30 16 14 17 13 18 12 19 11 20 10 21
REMARK SMILES IDX 9 22 8 23 7 24 6 25 5 26 4 27 3 28 2 29 1 30
REMARK H PARENT
REMARK Flexibility Score: inf
ROOT
ATOM      1  C   UNL     1      55.088  17.990   1.506  1.00  0.00     0.000 C 
ENDROOT
BRANCH   1   2
ATOM      2  C   UNL     1      55.993  17.433   0.392  1.00  0.00     0.000 C 
BRANCH   2   3
ATOM      3  C   UNL     1      55.289  17.189  -0.956  1.00  0.00     0.000 C 
BRANCH   3   4
ATOM      4  C   UNL     1      53.888  17.816  -1.024  1.00  0.00     0.000 C 
BRANCH   4   5
ATOM      5  C   UNL     1      52.877  16.831  -1.631  1.00  0.00     0.000 C 
BRANCH   5   6
ATOM      6  C   UNL     1      53.470  15.429  -1.843  1.00  0.00     0.000 C 
BRANCH   6   7
ATOM      7  C   UNL     1      53.161  14.474  -0.681  1.00  0.00     0.000 C 
BRANCH   7   8
ATOM      8  C   UNL     1      54.294  13.457  -0.492  1.00  0.00     0.000 C 
BRANCH   8   9
ATOM      9  C   UNL     1      55.227  13.877   0.651  1.00  0.00     0.000 C 
BRANCH   9  10
ATOM     10  C   UNL     1      56.690  13.556   0.312  1.00  0.00     0.000 C 
BRANCH  10  11
ATOM     11  C   UNL     1      56.850  12.209  -0.410  1.00  0.00     0.000 C 
BRANCH  11  12
ATOM     12  C   UNL     1      57.654  11.187   0.413  1.00  0.00     0.006 C 
BRANCH  12  13
ATOM     13  C   UNL     1      58.844  10.620  -0.371  1.00  0.00     0.053 C 
BRANCH  13  14
ATOM     14  C   UNL     1      60.139  11.230   0.070  1.00  0.00     0.041 C 
ATOM     15  O   UNL     1      60.197  12.454   0.361  1.00  0.00    -0.550 OA
ATOM     16  O   UNL     1      61.289  10.453   0.126  1.00  0.00    -0.550 OA
ENDBRANCH  13  14
ENDBRANCH  12  13
ENDBRANCH  11  12
ENDBRANCH  10  11
ENDBRANCH   9  10
ENDBRANCH   8   9
ENDBRANCH   7   8
ENDBRANCH   6   7
ENDBRANCH   5   6
ENDBRANCH   4   5
ENDBRANCH   3   4
ENDBRANCH   2   3
ENDBRANCH   1   2
BRANCH   1  17
ATOM     17  C   UNL     1      54.525  16.935   2.478  1.00  0.00     0.000 C 
BRANCH  17  18
ATOM     18  C   UNL     1      53.032  16.613   2.252  1.00  0.00     0.000 C 
BRANCH  18  19
ATOM     19  C   UNL     1      52.136  17.856   2.394  1.00  0.00     0.000 C 
BRANCH  19  20
ATOM     20  C   UNL     1      50.942  17.840   1.425  1.00  0.00     0.000 C 
BRANCH  20  21
ATOM     21  C   UNL     1      50.322  19.236   1.231  1.00  0.00     0.000 C 
BRANCH  21  22
ATOM     22  C   UNL     1      50.254  19.655  -0.246  1.00  0.00    -0.000 C 
BRANCH  22  23
ATOM     23  C   UNL     1      48.852  19.468  -0.852  1.00  0.00    -0.000 C 
BRANCH  23  24
ATOM     24  C   UNL     1      48.037  20.773  -0.861  1.00  0.00    -0.000 C 
BRANCH  24  25
ATOM     25  C   UNL     1      46.550  20.537  -0.541  1.00  0.00    -0.000 C 
BRANCH  25  26
ATOM     26  C   UNL     1      46.092  21.264   0.733  1.00  0.00    -0.000 C 
BRANCH  26  27
ATOM     27  C   UNL     1      47.267  21.678   1.636  1.00  0.00    -0.000 C 
BRANCH  27  28
ATOM     28  C   UNL     1      46.809  22.245   2.992  1.00  0.00    -0.000 C 
BRANCH  28  29
ATOM     29  C   UNL     1      45.284  22.288   3.198  1.00  0.00    -0.003 C 
ATOM     30  C   UNL     1      44.778  21.216   4.164  1.00  0.00     0.004 C 
ENDBRANCH  28  29
ENDBRANCH  27  28
ENDBRANCH  26  27
ENDBRANCH  25  26
ENDBRANCH  24  25
ENDBRANCH  23  24
ENDBRANCH  22  23
ENDBRANCH  21  22
ENDBRANCH  20  21
ENDBRANCH  19  20
ENDBRANCH  18  19
ENDBRANCH  17  18
ENDBRANCH   1  17
TORSDOF 26
ENDMDL
MODEL 7
REMARK VINA RESULT:    -5.664      4.126     10.100
REMARK INTER + INTRA:         -18.218
REMARK INTER:                 -14.709
REMARK INTRA:                  -3.509
REMARK UNBOUND:                -3.944
REMARK SMILES CCCCCCCCCCCCCCCCCCCCCCCCCCCC(=O)[O-]
REMARK SMILES IDX 15 1 16 2 17 3 18 4 19 5 20 6 21 7 22 8 23 9 24 10 25 11
REMARK SMILES IDX 26 12 27 13 28 14 29 15 30 16 14 17 13 18 12 19 11 20 10 21
REMARK SMILES IDX 9 22 8 23 7 24 6 25 5 26 4 27 3 28 2 29 1 30
REMARK H PARENT
REMARK Flexibility Score: inf
ROOT
ATOM      1  C   UNL     1      54.404  17.087   2.498  1.00  0.00     0.000 C 
ENDROOT
BRANCH   1   2
ATOM      2  C   UNL     1      52.936  17.507   2.701  1.00  0.00     0.000 C 
BRANCH   2   3
ATOM      3  C   UNL     1      51.922  16.782   1.797  1.00  0.00     0.000 C 
BRANCH   3   4
ATOM      4  C   UNL     1      50.611  17.563   1.619  1.00  0.00     0.000 C 
BRANCH   4   5
ATOM      5  C   UNL     1      50.738  18.983   2.193  1.00  0.00     0.000 C 
BRANCH   5   6
ATOM      6  C   UNL     1      49.411  19.758   2.153  1.00  0.00     0.000 C 
BRANCH   6   7
ATOM      7  C   UNL     1      48.209  18.896   2.571  1.00  0.00     0.000 C 
BRANCH   7   8
ATOM      8  C   UNL     1      46.913  19.716   2.546  1.00  0.00     0.000 C 
BRANCH   8   9
ATOM      9  C   UNL     1      47.207  21.217   2.659  1.00  0.00     0.000 C 
BRANCH   9  10
ATOM     10  C   UNL     1      46.129  22.044   1.943  1.00  0.00     0.000 C 
BRANCH  10  11
ATOM     11  C   UNL     1      45.929  21.618   0.480  1.00  0.00     0.000 C 
BRANCH  11  12
ATOM     12  C   UNL     1      47.241  21.626  -0.323  1.00  0.00     0.006 C 
BRANCH  12  13
ATOM     13  C   UNL     1      47.265  20.537  -1.404  1.00  0.00     0.053 C 
BRANCH  13  14
ATOM     14  C   UNL     1      46.138  20.697  -2.376  1.00  0.00     0.041 C 
ATOM     15  O   UNL     1      45.378  19.725  -2.632  1.00  0.00    -0.550 OA
ATOM     16  O   UNL     1      45.947  21.910  -3.026  1.00  0.00    -0.550 OA
ENDBRANCH  13  14
ENDBRANCH  12  13
ENDBRANCH  11  12
ENDBRANCH  10  11
ENDBRANCH   9  10
ENDBRANCH   8   9
ENDBRANCH   7   8
ENDBRANCH   6   7
ENDBRANCH   5   6
ENDBRANCH   4   5
ENDBRANCH   3   4
ENDBRANCH   2   3
ENDBRANCH   1   2
BRANCH   1  17
ATOM     17  C   UNL     1      55.201  17.960   1.510  1.00  0.00     0.000 C 
BRANCH  17  18
ATOM     18  C   UNL     1      56.118  17.153   0.566  1.00  0.00     0.000 C 
BRANCH  18  19
ATOM     19  C   UNL     1      55.603  17.143  -0.884  1.00  0.00     0.000 C 
BRANCH  19  20
ATOM     20  C   UNL     1      54.272  17.897  -1.046  1.00  0.00     0.000 C 
BRANCH  20  21
ATOM     21  C   UNL     1      53.122  16.973  -1.486  1.00  0.00     0.000 C 
BRANCH  21  22
ATOM     22  C   UNL     1      53.596  15.544  -1.799  1.00  0.00    -0.000 C 
BRANCH  22  23
ATOM     23  C   UNL     1      53.243  14.544  -0.683  1.00  0.00    -0.000 C 
BRANCH  23  24
ATOM     24  C   UNL     1      54.288  13.424  -0.547  1.00  0.00    -0.000 C 
BRANCH  24  25
ATOM     25  C   UNL     1      55.377  13.763   0.487  1.00  0.00    -0.000 C 
BRANCH  25  26
ATOM     26  C   UNL     1      56.607  12.848   0.379  1.00  0.00    -0.000 C 
BRANCH  26  27
ATOM     27  C   UNL     1      57.912  13.557   0.779  1.00  0.00    -0.000 C 
BRANCH  27  28
ATOM     28  C   UNL     1      58.475  14.451  -0.341  1.00  0.00    -0.000 C 
BRANCH  28  29
ATOM     29  C   UNL     1      59.392  15.592   0.135  1.00  0.00    -0.003 C 
ATOM     30  C   UNL     1      60.040  15.315   1.491  1.00  0.00     0.004 C 
ENDBRANCH  28  29
ENDBRANCH  27  28
ENDBRANCH  26  27
ENDBRANCH  25  26
ENDBRANCH  24  25
ENDBRANCH  23  24
ENDBRANCH  22  23
ENDBRANCH  21  22
ENDBRANCH  20  21
ENDBRANCH  19  20
ENDBRANCH  18  19
ENDBRANCH  17  18
ENDBRANCH   1  17
TORSDOF 26
ENDMDL
MODEL 8
REMARK VINA RESULT:    -5.658      2.911      4.977
REMARK INTER + INTRA:         -18.202
REMARK INTER:                 -15.074
REMARK INTRA:                  -3.129
REMARK UNBOUND:                -3.944
REMARK SMILES CCCCCCCCCCCCCCCCCCCCCCCCCCCC(=O)[O-]
REMARK SMILES IDX 15 1 16 2 17 3 18 4 19 5 20 6 21 7 22 8 23 9 24 10 25 11
REMARK SMILES IDX 26 12 27 13 28 14 29 15 30 16 14 17 13 18 12 19 11 20 10 21
REMARK SMILES IDX 9 22 8 23 7 24 6 25 5 26 4 27 3 28 2 29 1 30
REMARK H PARENT
REMARK Flexibility Score: inf
ROOT
ATOM      1  C   UNL     1      53.101  14.491  -1.042  1.00  0.00     0.000 C 
ENDROOT
BRANCH   1   2
ATOM      2  C   UNL     1      53.999  13.962   0.091  1.00  0.00     0.000 C 
BRANCH   2   3
ATOM      3  C   UNL     1      55.083  12.960  -0.352  1.00  0.00     0.000 C 
BRANCH   3   4
ATOM      4  C   UNL     1      56.292  12.927   0.595  1.00  0.00     0.000 C 
BRANCH   4   5
ATOM      5  C   UNL     1      57.555  13.441  -0.113  1.00  0.00     0.000 C 
BRANCH   5   6
ATOM      6  C   UNL     1      57.974  14.840   0.366  1.00  0.00     0.000 C 
BRANCH   6   7
ATOM      7  C   UNL     1      56.953  15.925  -0.007  1.00  0.00     0.000 C 
BRANCH   7   8
ATOM      8  C   UNL     1      56.818  16.960   1.116  1.00  0.00     0.000 C 
BRANCH   8   9
ATOM      9  C   UNL     1      55.587  17.849   0.903  1.00  0.00     0.000 C 
BRANCH   9  10
ATOM     10  C   UNL     1      54.682  17.842   2.144  1.00  0.00     0.000 C 
BRANCH  10  11
ATOM     11  C   UNL     1      53.835  16.564   2.253  1.00  0.00     0.000 C 
BRANCH  11  12
ATOM     12  C   UNL     1      52.340  16.821   1.996  1.00  0.00     0.006 C 
BRANCH  12  13
ATOM     13  C   UNL     1      51.858  18.129   2.637  1.00  0.00     0.053 C 
BRANCH  13  14
ATOM     14  C   UNL     1      50.437  18.433   2.274  1.00  0.00     0.041 C 
ATOM     15  O   UNL     1      49.636  17.499   2.007  1.00  0.00    -0.550 OA
ATOM     16  O   UNL     1      50.007  19.752   2.196  1.00  0.00    -0.550 OA
ENDBRANCH  13  14
ENDBRANCH  12  13
ENDBRANCH  11  12
ENDBRANCH  10  11
ENDBRANCH   9  10
ENDBRANCH   8   9
ENDBRANCH   7   8
ENDBRANCH   6   7
ENDBRANCH   5   6
ENDBRANCH   4   5
ENDBRANCH   3   4
ENDBRANCH   2   3
ENDBRANCH   1   2
BRANCH   1  17
ATOM     17  C   UNL     1      53.640  15.734  -1.775  1.00  0.00     0.000 C 
BRANCH  17  18
ATOM     18  C   UNL     1      52.551  16.769  -2.130  1.00  0.00     0.000 C 
BRANCH  18  19
ATOM     19  C   UNL     1      52.445  17.891  -1.083  1.00  0.00     0.000 C 
BRANCH  19  20
ATOM     20  C   UNL     1      51.431  18.978  -1.479  1.00  0.00     0.000 C 
BRANCH  20  21
ATOM     21  C   UNL     1      50.490  18.521  -2.608  1.00  0.00     0.000 C 
BRANCH  21  22
ATOM     22  C   UNL     1      49.005  18.680  -2.242  1.00  0.00    -0.000 C 
BRANCH  22  23
ATOM     23  C   UNL     1      48.780  19.677  -1.092  1.00  0.00    -0.000 C 
BRANCH  23  24
ATOM     24  C   UNL     1      48.495  21.101  -1.597  1.00  0.00    -0.000 C 
BRANCH  24  25
ATOM     25  C   UNL     1      47.196  21.682  -1.009  1.00  0.00    -0.000 C 
BRANCH  25  26
ATOM     26  C   UNL     1      46.458  20.689  -0.098  1.00  0.00    -0.000 C 
BRANCH  26  27
ATOM     27  C   UNL     1      45.817  21.368   1.125  1.00  0.00    -0.000 C 
BRANCH  27  28
ATOM     28  C   UNL     1      46.157  20.660   2.449  1.00  0.00    -0.000 C 
BRANCH  28  29
ATOM     29  C   UNL     1      45.334  21.123   3.665  1.00  0.00    -0.003 C 
ATOM     30  C   UNL     1      44.182  22.055   3.290  1.00  0.00     0.004 C 
ENDBRANCH  28  29
ENDBRANCH  27  28
ENDBRANCH  26  27
ENDBRANCH  25  26
ENDBRANCH  24  25
ENDBRANCH  23  24
ENDBRANCH  22  23
ENDBRANCH  21  22
ENDBRANCH  20  21
ENDBRANCH  19  20
ENDBRANCH  18  19
ENDBRANCH  17  18
ENDBRANCH   1  17
TORSDOF 26
ENDMDL
MODEL 9
REMARK VINA RESULT:    -5.624      2.354      5.156
REMARK INTER + INTRA:         -18.117
REMARK INTER:                 -14.236
REMARK INTRA:                  -3.880
REMARK UNBOUND:                -3.944
REMARK SMILES CCCCCCCCCCCCCCCCCCCCCCCCCCCC(=O)[O-]
REMARK SMILES IDX 15 1 16 2 17 3 18 4 19 5 20 6 21 7 22 8 23 9 24 10 25 11
REMARK SMILES IDX 26 12 27 13 28 14 29 15 30 16 14 17 13 18 12 19 11 20 10 21
REMARK SMILES IDX 9 22 8 23 7 24 6 25 5 26 4 27 3 28 2 29 1 30
REMARK H PARENT
REMARK Flexibility Score: inf
ROOT
ATOM      1  C   UNL     1      52.591  15.776   1.873  1.00  0.00     0.000 C 
ENDROOT
BRANCH   1   2
ATOM      2  C   UNL     1      53.628  14.699   1.503  1.00  0.00     0.000 C 
BRANCH   2   3
ATOM      3  C   UNL     1      53.484  14.118   0.083  1.00  0.00     0.000 C 
BRANCH   3   4
ATOM      4  C   UNL     1      54.743  13.377  -0.392  1.00  0.00     0.000 C 
BRANCH   4   5
ATOM      5  C   UNL     1      55.890  13.543   0.617  1.00  0.00     0.000 C 
BRANCH   5   6
ATOM      6  C   UNL     1      57.251  13.124   0.040  1.00  0.00     0.000 C 
BRANCH   6   7
ATOM      7  C   UNL     1      58.421  13.910   0.652  1.00  0.00     0.000 C 
BRANCH   7   8
ATOM      8  C   UNL     1      59.062  14.836  -0.388  1.00  0.00     0.000 C 
BRANCH   8   9
ATOM      9  C   UNL     1      60.569  14.575  -0.506  1.00  0.00     0.000 C 
BRANCH   9  10
ATOM     10  C   UNL     1      61.168  14.187   0.853  1.00  0.00     0.000 C 
BRANCH  10  11
ATOM     11  C   UNL     1      62.005  12.900   0.787  1.00  0.00     0.000 C 
BRANCH  11  12
ATOM     12  C   UNL     1      61.472  11.900  -0.254  1.00  0.00     0.006 C 
BRANCH  12  13
ATOM     13  C   UNL     1      60.500  10.887   0.361  1.00  0.00     0.053 C 
BRANCH  13  14
ATOM     14  C   UNL     1      61.089   9.511   0.408  1.00  0.00     0.041 C 
ATOM     15  O   UNL     1      60.392   8.534   0.789  1.00  0.00    -0.550 OA
ATOM     16  O   UNL     1      62.420   9.313   0.063  1.00  0.00    -0.550 OA
ENDBRANCH  13  14
ENDBRANCH  12  13
ENDBRANCH  11  12
ENDBRANCH  10  11
ENDBRANCH   9  10
ENDBRANCH   8   9
ENDBRANCH   7   8
ENDBRANCH   6   7
ENDBRANCH   5   6
ENDBRANCH   4   5
ENDBRANCH   3   4
ENDBRANCH   2   3
ENDBRANCH   1   2
BRANCH   1  17
ATOM     17  C   UNL     1      53.182  17.139   2.278  1.00  0.00     0.000 C 
BRANCH  17  18
ATOM     18  C   UNL     1      54.713  17.121   2.472  1.00  0.00     0.000 C 
BRANCH  18  19
ATOM     19  C   UNL     1      55.446  17.993   1.437  1.00  0.00     0.000 C 
BRANCH  19  20
ATOM     20  C   UNL     1      56.252  17.162   0.425  1.00  0.00     0.000 C 
BRANCH  20  21
ATOM     21  C   UNL     1      55.516  16.989  -0.915  1.00  0.00     0.000 C 
BRANCH  21  22
ATOM     22  C   UNL     1      54.327  17.951  -1.067  1.00  0.00    -0.000 C 
BRANCH  22  23
ATOM     23  C   UNL     1      53.051  17.246  -1.560  1.00  0.00    -0.000 C 
BRANCH  23  24
ATOM     24  C   UNL     1      51.771  17.898  -1.011  1.00  0.00    -0.000 C 
BRANCH  24  25
ATOM     25  C   UNL     1      51.013  18.697  -2.086  1.00  0.00    -0.000 C 
BRANCH  25  26
ATOM     26  C   UNL     1      51.014  20.210  -1.815  1.00  0.00    -0.000 C 
BRANCH  26  27
ATOM     27  C   UNL     1      49.605  20.825  -1.872  1.00  0.00    -0.000 C 
BRANCH  27  28
ATOM     28  C   UNL     1      48.522  19.892  -1.298  1.00  0.00    -0.000 C 
BRANCH  28  29
ATOM     29  C   UNL     1      47.237  20.598  -0.828  1.00  0.00    -0.003 C 
ATOM     30  C   UNL     1      47.021  21.957  -1.494  1.00  0.00     0.004 C 
ENDBRANCH  28  29
ENDBRANCH  27  28
ENDBRANCH  26  27
ENDBRANCH  25  26
ENDBRANCH  24  25
ENDBRANCH  23  24
ENDBRANCH  22  23
ENDBRANCH  21  22
ENDBRANCH  20  21
ENDBRANCH  19  20
ENDBRANCH  18  19
ENDBRANCH  17  18
ENDBRANCH   1  17
TORSDOF 26
ENDMDL
