MODEL 1
REMARK VINA RESULT:    -3.022      0.000      0.000
REMARK INTER + INTRA:          -3.022
REMARK INTER:                  -3.022
REMARK INTRA:                   0.000
REMARK UNBOUND:                 0.000
REMARK SMILES CC(=O)[O-]
REMARK SMILES IDX 1 1 2 2 3 3 4 4
REMARK H PARENT
REMARK Flexibility Score: inf
ROOT
ATOM      1  C   UNL     1     -20.756  -6.077   2.978  1.00  0.00     0.063 C 
ATOM      2  C   UNL     1     -20.703  -7.293   2.117  1.00  0.00     0.038 C 
ATOM      3  O   UNL     1     -21.675  -8.093   2.093  1.00  0.00    -0.550 OA
ATOM      4  O   UNL     1     -19.605  -7.520   1.299  1.00  0.00    -0.550 OA
ENDROOT
TORSDOF 0
ENDMDL
MODEL 2
REMARK VINA RESULT:    -3.000     17.599     18.120
REMARK INTER + INTRA:          -3.000
REMARK INTER:                  -3.000
REMARK INTRA:                   0.000
REMARK UNBOUND:                 0.000
REMARK SMILES CC(=O)[O-]
REMARK SMILES IDX 1 1 2 2 3 3 4 4
REMARK H PARENT
REMARK Flexibility Score: inf
ROOT
ATOM      1  C   UNL     1     -31.236   6.101   3.378  1.00  0.00     0.063 C 
ATOM      2  C   UNL     1     -32.628   6.174   3.910  1.00  0.00     0.038 C 
ATOM      3  O   UNL     1     -32.934   7.051   4.759  1.00  0.00    -0.550 OA
ATOM      4  O   UNL     1     -33.602   5.308   3.432  1.00  0.00    -0.550 OA
ENDROOT
TORSDOF 0
ENDMDL
MODEL 3
REMARK VINA RESULT:    -2.993      0.092      1.619
REMARK INTER + INTRA:          -2.993
REMARK INTER:                  -2.993
REMARK INTRA:                   0.000
REMARK UNBOUND:                 0.000
REMARK SMILES CC(=O)[O-]
REMARK SMILES IDX 1 1 2 2 3 3 4 4
REMARK H PARENT
REMARK Flexibility Score: inf
ROOT
ATOM      1  C   UNL     1     -20.777  -6.086   2.989  1.00  0.00     0.063 C 
ATOM      2  C   UNL     1     -20.700  -7.278   2.096  1.00  0.00     0.038 C 
ATOM      3  O   UNL     1     -19.668  -7.485   1.407  1.00  0.00    -0.550 OA
ATOM      4  O   UNL     1     -21.746  -8.191   2.064  1.00  0.00    -0.550 OA
ENDROOT
TORSDOF 0
ENDMDL
MODEL 4
REMARK VINA RESULT:    -2.911     17.413     17.859
REMARK INTER + INTRA:          -2.911
REMARK INTER:                  -2.911
REMARK INTRA:                   0.000
REMARK UNBOUND:                 0.000
REMARK SMILES CC(=O)[O-]
REMARK SMILES IDX 1 1 2 2 3 3 4 4
REMARK H PARENT
REMARK Flexibility Score: inf
ROOT
ATOM      1  C   UNL     1     -32.597   7.028   4.755  1.00  0.00     0.063 C 
ATOM      2  C   UNL     1     -32.520   6.011   3.667  1.00  0.00     0.038 C 
ATOM      3  O   UNL     1     -33.529   5.316   3.380  1.00  0.00    -0.550 OA
ATOM      4  O   UNL     1     -31.351   5.864   2.933  1.00  0.00    -0.550 OA
ENDROOT
TORSDOF 0
ENDMDL
MODEL 5
REMARK VINA RESULT:    -2.891     17.453     17.987
REMARK INTER + INTRA:          -2.891
REMARK INTER:                  -2.891
REMARK INTRA:                   0.000
REMARK UNBOUND:                 0.000
REMARK SMILES CC(=O)[O-]
REMARK SMILES IDX 1 1 2 2 3 3 4 4
REMARK H PARENT
REMARK Flexibility Score: inf
ROOT
ATOM      1  C   UNL     1     -32.710   7.108   4.736  1.00  0.00     0.063 C 
ATOM      2  C   UNL     1     -32.546   6.042   3.707  1.00  0.00     0.038 C 
ATOM      3  O   UNL     1     -31.417   5.832   3.190  1.00  0.00    -0.550 OA
ATOM      4  O   UNL     1     -33.625   5.243   3.354  1.00  0.00    -0.550 OA
ENDROOT
TORSDOF 0
ENDMDL
MODEL 6
REMARK VINA RESULT:    -2.846     17.075     17.557
REMARK INTER + INTRA:          -2.846
REMARK INTER:                  -2.846
REMARK INTRA:                   0.000
REMARK UNBOUND:                 0.000
REMARK SMILES CC(=O)[O-]
REMARK SMILES IDX 1 1 2 2 3 3 4 4
REMARK H PARENT
REMARK Flexibility Score: inf
ROOT
ATOM      1  C   UNL     1     -33.194   5.882   3.608  1.00  0.00     0.063 C 
ATOM      2  C   UNL     1     -31.729   6.115   3.763  1.00  0.00     0.038 C 
ATOM      3  O   UNL     1     -30.937   5.785   2.843  1.00  0.00    -0.550 OA
ATOM      4  O   UNL     1     -31.241   6.743   4.901  1.00  0.00    -0.550 OA
ENDROOT
TORSDOF 0
ENDMDL
MODEL 7
REMARK VINA RESULT:    -2.836      1.768      2.035
REMARK INTER + INTRA:          -2.836
REMARK INTER:                  -2.836
REMARK INTRA:                   0.000
REMARK UNBOUND:                 0.000
REMARK SMILES CC(=O)[O-]
REMARK SMILES IDX 1 1 2 2 3 3 4 4
REMARK H PARENT
REMARK Flexibility Score: inf
ROOT
ATOM      1  C   UNL     1     -20.810  -7.639   1.925  1.00  0.00     0.063 C 
ATOM      2  C   UNL     1     -20.492  -6.237   2.324  1.00  0.00     0.038 C 
ATOM      3  O   UNL     1     -20.988  -5.752   3.374  1.00  0.00    -0.550 OA
ATOM      4  O   UNL     1     -19.607  -5.482   1.567  1.00  0.00    -0.550 OA
ENDROOT
TORSDOF 0
ENDMDL
MODEL 8
REMARK VINA RESULT:    -2.832     17.872     18.391
REMARK INTER + INTRA:          -2.832
REMARK INTER:                  -2.832
REMARK INTRA:                   0.000
REMARK UNBOUND:                 0.000
REMARK SMILES CC(=O)[O-]
REMARK SMILES IDX 1 1 2 2 3 3 4 4
REMARK H PARENT
REMARK Flexibility Score: inf
ROOT
ATOM      1  C   UNL     1     -33.087   5.830   3.544  1.00  0.00     0.063 C 
ATOM      2  C   UNL     1     -32.260   6.639   4.486  1.00  0.00     0.038 C 
ATOM      3  O   UNL     1     -31.029   6.404   4.607  1.00  0.00    -0.550 OA
ATOM      4  O   UNL     1     -32.834   7.687   5.192  1.00  0.00    -0.550 OA
ENDROOT
TORSDOF 0
ENDMDL
MODEL 9
REMARK VINA RESULT:    -2.724     17.419     17.898
REMARK INTER + INTRA:          -2.724
REMARK INTER:                  -2.724
REMARK INTRA:                   0.000
REMARK UNBOUND:                 0.000
REMARK SMILES CC(=O)[O-]
REMARK SMILES IDX 1 1 2 2 3 3 4 4
REMARK H PARENT
REMARK Flexibility Score: inf
ROOT
ATOM      1  C   UNL     1     -31.471   5.953   3.075  1.00  0.00     0.063 C 
ATOM      2  C   UNL     1     -31.809   6.534   4.406  1.00  0.00     0.038 C 
ATOM      3  O   UNL     1     -33.009   6.770   4.705  1.00  0.00    -0.550 OA
ATOM      4  O   UNL     1     -30.808   6.765   5.339  1.00  0.00    -0.550 OA
ENDROOT
TORSDOF 0
ENDMDL
