MODEL 1
REMARK VINA RESULT:    -4.109      0.000      0.000
REMARK INTER + INTRA:          -6.554
REMARK INTER:                  -5.551
REMARK INTRA:                  -1.003
REMARK UNBOUND:                -1.003
REMARK SMILES CC(=O)CCC=C(C)CCC=C(C)C
REMARK SMILES IDX 7 1 6 2 8 3 9 4 10 5 11 6 13 7 12 8 14 9 5 10 4 11 2 12 3 13
REMARK SMILES IDX 1 14
REMARK H PARENT
REMARK Flexibility Score: inf
ROOT
ATOM      1  C   UNL     1      13.762  14.740  15.326  1.00  0.00    -0.077 C 
ATOM      2  C   UNL     1      14.447  15.635  16.070  1.00  0.00    -0.028 C 
ATOM      3  C   UNL     1      13.458  14.996  13.869  1.00  0.00     0.039 C 
ENDROOT
BRANCH   1   4
ATOM      4  C   UNL     1      13.299  13.447  15.963  1.00  0.00     0.034 C 
BRANCH   4   5
ATOM      5  C   UNL     1      14.447  12.722  16.677  1.00  0.00     0.032 C 
BRANCH   5   6
ATOM      6  C   UNL     1      15.183  11.804  15.728  1.00  0.00    -0.028 C 
ATOM      7  C   UNL     1      17.208  13.274  15.579  1.00  0.00     0.039 C 
ATOM      8  C   UNL     1      16.405  12.049  15.208  1.00  0.00    -0.080 C 
ATOM      9  C   UNL     1      16.977  11.060  14.226  1.00  0.00     0.039 C 
ENDBRANCH   5   6
ENDBRANCH   4   5
ENDBRANCH   1   4
BRANCH   2  10
ATOM     10  C   UNL     1      14.971  16.939  15.516  1.00  0.00     0.035 C 
BRANCH  10  11
ATOM     11  C   UNL     1      16.491  17.069  15.677  1.00  0.00     0.079 C 
BRANCH  11  12
ATOM     12  C   UNL     1      16.894  18.440  16.152  1.00  0.00     0.130 C 
ATOM     13  O   UNL     1      16.756  19.404  15.413  1.00  0.00    -0.300 OA
ATOM     14  C   UNL     1      17.500  18.627  17.510  1.00  0.00     0.087 C 
ENDBRANCH  11  12
ENDBRANCH  10  11
ENDBRANCH   2  10
TORSDOF 6
ENDMDL
MODEL 2
REMARK VINA RESULT:    -4.105      2.649      5.672
REMARK INTER + INTRA:          -6.548
REMARK INTER:                  -5.586
REMARK INTRA:                  -0.962
REMARK UNBOUND:                -1.003
REMARK SMILES CC(=O)CCC=C(C)CCC=C(C)C
REMARK SMILES IDX 7 1 6 2 8 3 9 4 10 5 11 6 13 7 12 8 14 9 5 10 4 11 2 12 3 13
REMARK SMILES IDX 1 14
REMARK H PARENT
REMARK Flexibility Score: inf
ROOT
ATOM      1  C   UNL     1      16.283  12.751  15.583  1.00  0.00    -0.077 C 
ATOM      2  C   UNL     1      15.230  13.220  16.287  1.00  0.00    -0.028 C 
ATOM      3  C   UNL     1      16.214  11.432  14.850  1.00  0.00     0.039 C 
ENDROOT
BRANCH   1   4
ATOM      4  C   UNL     1      17.556  13.568  15.518  1.00  0.00     0.034 C 
BRANCH   4   5
ATOM      5  C   UNL     1      17.379  14.827  14.658  1.00  0.00     0.032 C 
BRANCH   5   6
ATOM      6  C   UNL     1      17.650  16.077  15.463  1.00  0.00    -0.028 C 
ATOM      7  C   UNL     1      15.242  16.761  15.565  1.00  0.00     0.039 C 
ATOM      8  C   UNL     1      16.710  16.965  15.853  1.00  0.00    -0.080 C 
ATOM      9  C   UNL     1      17.154  18.196  16.601  1.00  0.00     0.039 C 
ENDBRANCH   5   6
ENDBRANCH   4   5
ENDBRANCH   1   4
BRANCH   2  10
ATOM     10  C   UNL     1      13.914  12.487  16.389  1.00  0.00     0.035 C 
BRANCH  10  11
ATOM     11  C   UNL     1      12.724  13.378  16.006  1.00  0.00     0.079 C 
BRANCH  11  12
ATOM     12  C   UNL     1      12.106  12.962  14.696  1.00  0.00     0.130 C 
ATOM     13  O   UNL     1      10.957  12.547  14.670  1.00  0.00    -0.300 OA
ATOM     14  C   UNL     1      12.904  13.018  13.428  1.00  0.00     0.087 C 
ENDBRANCH  11  12
ENDBRANCH  10  11
ENDBRANCH   2  10
TORSDOF 6
ENDMDL
MODEL 3
REMARK VINA RESULT:    -4.102     15.247     17.168
REMARK INTER + INTRA:          -6.544
REMARK INTER:                  -5.664
REMARK INTRA:                  -0.880
REMARK UNBOUND:                -1.003
REMARK SMILES CC(=O)CCC=C(C)CCC=C(C)C
REMARK SMILES IDX 7 1 6 2 8 3 9 4 10 5 11 6 13 7 12 8 14 9 5 10 4 11 2 12 3 13
REMARK SMILES IDX 1 14
REMARK H PARENT
REMARK Flexibility Score: inf
ROOT
ATOM      1  C   UNL     1       4.381  29.896  16.989  1.00  0.00    -0.077 C 
ATOM      2  C   UNL     1       5.505  29.662  17.701  1.00  0.00    -0.028 C 
ATOM      3  C   UNL     1       4.247  31.115  16.108  1.00  0.00     0.039 C 
ENDROOT
BRANCH   1   4
ATOM      4  C   UNL     1       3.234  28.910  17.069  1.00  0.00     0.034 C 
BRANCH   4   5
ATOM      5  C   UNL     1       3.280  27.892  15.922  1.00  0.00     0.032 C 
BRANCH   5   6
ATOM      6  C   UNL     1       3.080  26.485  16.437  1.00  0.00    -0.028 C 
ATOM      7  C   UNL     1       5.531  26.030  16.696  1.00  0.00     0.039 C 
ATOM      8  C   UNL     1       4.076  25.631  16.761  1.00  0.00    -0.080 C 
ATOM      9  C   UNL     1       3.709  24.238  17.203  1.00  0.00     0.039 C 
ENDBRANCH   5   6
ENDBRANCH   4   5
ENDBRANCH   1   4
BRANCH   2  10
ATOM     10  C   UNL     1       6.708  30.575  17.665  1.00  0.00     0.035 C 
BRANCH  10  11
ATOM     11  C   UNL     1       8.001  29.817  17.338  1.00  0.00     0.079 C 
BRANCH  11  12
ATOM     12  C   UNL     1       8.651  30.326  16.078  1.00  0.00     0.130 C 
ATOM     13  O   UNL     1       9.765  30.827  16.128  1.00  0.00    -0.300 OA
ATOM     14  C   UNL     1       7.926  30.257  14.768  1.00  0.00     0.087 C 
ENDBRANCH  11  12
ENDBRANCH  10  11
ENDBRANCH   2  10
TORSDOF 6
ENDMDL
MODEL 4
REMARK VINA RESULT:    -4.047     13.961     16.500
REMARK INTER + INTRA:          -6.470
REMARK INTER:                  -5.106
REMARK INTRA:                  -1.365
REMARK UNBOUND:                -1.003
REMARK SMILES CC(=O)CCC=C(C)CCC=C(C)C
REMARK SMILES IDX 7 1 6 2 8 3 9 4 10 5 11 6 13 7 12 8 14 9 5 10 4 11 2 12 3 13
REMARK SMILES IDX 1 14
REMARK H PARENT
REMARK Flexibility Score: inf
ROOT
ATOM      1  C   UNL     1       5.747  28.513  17.201  1.00  0.00    -0.077 C 
ATOM      2  C   UNL     1       6.638  27.508  17.347  1.00  0.00    -0.028 C 
ATOM      3  C   UNL     1       4.649  28.447  16.168  1.00  0.00     0.039 C 
ENDROOT
BRANCH   1   4
ATOM      4  C   UNL     1       5.845  29.727  18.101  1.00  0.00     0.034 C 
BRANCH   4   5
ATOM      5  C   UNL     1       6.515  30.909  17.389  1.00  0.00     0.032 C 
BRANCH   5   6
ATOM      6  C   UNL     1       7.978  30.629  17.129  1.00  0.00    -0.028 C 
ATOM      7  C   UNL     1       7.681  30.357  14.655  1.00  0.00     0.039 C 
ATOM      8  C   UNL     1       8.509  30.354  15.918  1.00  0.00    -0.080 C 
ATOM      9  C   UNL     1       9.980  30.036  15.837  1.00  0.00     0.039 C 
ENDBRANCH   5   6
ENDBRANCH   4   5
ENDBRANCH   1   4
BRANCH   2  10
ATOM     10  C   UNL     1       6.604  26.249  16.514  1.00  0.00     0.035 C 
BRANCH  10  11
ATOM     11  C   UNL     1       7.964  25.943  15.871  1.00  0.00     0.079 C 
BRANCH  11  12
ATOM     12  C   UNL     1       8.127  26.628  14.539  1.00  0.00     0.130 C 
ATOM     13  O   UNL     1       9.227  27.032  14.194  1.00  0.00    -0.300 OA
ATOM     14  C   UNL     1       6.941  26.851  13.649  1.00  0.00     0.087 C 
ENDBRANCH  11  12
ENDBRANCH  10  11
ENDBRANCH   2  10
TORSDOF 6
ENDMDL
MODEL 5
REMARK VINA RESULT:    -3.950     14.765     17.385
REMARK INTER + INTRA:          -6.338
REMARK INTER:                  -5.190
REMARK INTRA:                  -1.149
REMARK UNBOUND:                -1.003
REMARK SMILES CC(=O)CCC=C(C)CCC=C(C)C
REMARK SMILES IDX 7 1 6 2 8 3 9 4 10 5 11 6 13 7 12 8 14 9 5 10 4 11 2 12 3 13
REMARK SMILES IDX 1 14
REMARK H PARENT
REMARK Flexibility Score: inf
ROOT
ATOM      1  C   UNL     1       7.826  28.898  16.686  1.00  0.00    -0.077 C 
ATOM      2  C   UNL     1       7.188  27.925  17.373  1.00  0.00    -0.028 C 
ATOM      3  C   UNL     1       8.613  28.591  15.435  1.00  0.00     0.039 C 
ENDROOT
BRANCH   1   4
ATOM      4  C   UNL     1       7.741  30.329  17.175  1.00  0.00     0.034 C 
BRANCH   4   5
ATOM      5  C   UNL     1       6.373  30.636  17.799  1.00  0.00     0.032 C 
BRANCH   5   6
ATOM      6  C   UNL     1       5.397  31.124  16.754  1.00  0.00    -0.028 C 
ATOM      7  C   UNL     1       3.835  29.184  17.034  1.00  0.00     0.039 C 
ATOM      8  C   UNL     1       4.273  30.474  16.382  1.00  0.00    -0.080 C 
ATOM      9  C   UNL     1       3.435  31.067  15.278  1.00  0.00     0.039 C 
ENDBRANCH   5   6
ENDBRANCH   4   5
ENDBRANCH   1   4
BRANCH   2  10
ATOM     10  C   UNL     1       7.196  26.476  16.949  1.00  0.00     0.035 C 
BRANCH  10  11
ATOM     11  C   UNL     1       5.795  25.975  16.572  1.00  0.00     0.079 C 
BRANCH  11  12
ATOM     12  C   UNL     1       5.694  25.630  15.109  1.00  0.00     0.130 C 
ATOM     13  O   UNL     1       6.346  24.700  14.658  1.00  0.00    -0.300 OA
ATOM     14  C   UNL     1       4.828  26.442  14.194  1.00  0.00     0.087 C 
ENDBRANCH  11  12
ENDBRANCH  10  11
ENDBRANCH   2  10
TORSDOF 6
ENDMDL
MODEL 6
REMARK VINA RESULT:    -3.934     14.704     16.636
REMARK INTER + INTRA:          -6.317
REMARK INTER:                  -4.896
REMARK INTRA:                  -1.422
REMARK UNBOUND:                -1.003
REMARK SMILES CC(=O)CCC=C(C)CCC=C(C)C
REMARK SMILES IDX 7 1 6 2 8 3 9 4 10 5 11 6 13 7 12 8 14 9 5 10 4 11 2 12 3 13
REMARK SMILES IDX 1 14
REMARK H PARENT
REMARK Flexibility Score: inf
ROOT
ATOM      1  C   UNL     1       8.109  29.804  15.514  1.00  0.00    -0.077 C 
ATOM      2  C   UNL     1       8.099  29.966  16.854  1.00  0.00    -0.028 C 
ATOM      3  C   UNL     1       7.042  30.416  14.638  1.00  0.00     0.039 C 
ENDROOT
BRANCH   1   4
ATOM      4  C   UNL     1       9.221  28.999  14.873  1.00  0.00     0.034 C 
BRANCH   4   5
ATOM      5  C   UNL     1       9.224  27.545  15.361  1.00  0.00     0.032 C 
BRANCH   5   6
ATOM      6  C   UNL     1       7.948  26.837  14.967  1.00  0.00    -0.028 C 
ATOM      7  C   UNL     1       7.186  26.493  17.330  1.00  0.00     0.039 C 
ATOM      8  C   UNL     1       7.041  26.338  15.835  1.00  0.00    -0.080 C 
ATOM      9  C   UNL     1       5.848  25.603  15.279  1.00  0.00     0.039 C 
ENDBRANCH   5   6
ENDBRANCH   4   5
ENDBRANCH   1   4
BRANCH   2  10
ATOM     10  C   UNL     1       7.046  30.771  17.579  1.00  0.00     0.035 C 
BRANCH  10  11
ATOM     11  C   UNL     1       5.921  29.888  18.134  1.00  0.00     0.079 C 
BRANCH  11  12
ATOM     12  C   UNL     1       4.703  29.900  17.246  1.00  0.00     0.130 C 
ATOM     13  O   UNL     1       4.254  30.963  16.845  1.00  0.00    -0.300 OA
ATOM     14  C   UNL     1       4.016  28.619  16.881  1.00  0.00     0.087 C 
ENDBRANCH  11  12
ENDBRANCH  10  11
ENDBRANCH   2  10
TORSDOF 6
ENDMDL
MODEL 7
REMARK VINA RESULT:    -3.934     13.753     16.078
REMARK INTER + INTRA:          -6.317
REMARK INTER:                  -5.329
REMARK INTRA:                  -0.987
REMARK UNBOUND:                -1.003
REMARK SMILES CC(=O)CCC=C(C)CCC=C(C)C
REMARK SMILES IDX 7 1 6 2 8 3 9 4 10 5 11 6 13 7 12 8 14 9 5 10 4 11 2 12 3 13
REMARK SMILES IDX 1 14
REMARK H PARENT
REMARK Flexibility Score: inf
ROOT
ATOM      1  C   UNL     1       7.259  30.433  16.059  1.00  0.00    -0.077 C 
ATOM      2  C   UNL     1       8.463  30.307  16.658  1.00  0.00    -0.028 C 
ATOM      3  C   UNL     1       7.126  30.428  14.554  1.00  0.00     0.039 C 
ENDROOT
BRANCH   1   4
ATOM      4  C   UNL     1       6.016  30.570  16.912  1.00  0.00     0.034 C 
BRANCH   4   5
ATOM      5  C   UNL     1       5.785  29.328  17.782  1.00  0.00     0.032 C 
BRANCH   5   6
ATOM      6  C   UNL     1       5.265  28.174  16.955  1.00  0.00    -0.028 C 
ATOM      7  C   UNL     1       7.256  26.717  17.392  1.00  0.00     0.039 C 
ATOM      8  C   UNL     1       5.922  27.012  16.749  1.00  0.00    -0.080 C 
ATOM      9  C   UNL     1       5.292  25.984  15.846  1.00  0.00     0.039 C 
ENDBRANCH   5   6
ENDBRANCH   4   5
ENDBRANCH   1   4
BRANCH   2  10
ATOM     10  C   UNL     1       9.753  30.141  15.891  1.00  0.00     0.035 C 
BRANCH  10  11
ATOM     11  C   UNL     1      10.029  28.675  15.532  1.00  0.00     0.079 C 
BRANCH  11  12
ATOM     12  C   UNL     1      11.288  28.520  14.719  1.00  0.00     0.130 C 
ATOM     13  O   UNL     1      11.391  29.088  13.642  1.00  0.00    -0.300 OA
ATOM     14  C   UNL     1      12.402  27.642  15.205  1.00  0.00     0.087 C 
ENDBRANCH  11  12
ENDBRANCH  10  11
ENDBRANCH   2  10
TORSDOF 6
ENDMDL
MODEL 8
REMARK VINA RESULT:    -3.898     12.197     15.096
REMARK INTER + INTRA:          -6.269
REMARK INTER:                  -5.461
REMARK INTRA:                  -0.809
REMARK UNBOUND:                -1.003
REMARK SMILES CC(=O)CCC=C(C)CCC=C(C)C
REMARK SMILES IDX 7 1 6 2 8 3 9 4 10 5 11 6 13 7 12 8 14 9 5 10 4 11 2 12 3 13
REMARK SMILES IDX 1 14
REMARK H PARENT
REMARK Flexibility Score: inf
ROOT
ATOM      1  C   UNL     1      10.067  28.559  14.843  1.00  0.00    -0.077 C 
ATOM      2  C   UNL     1      11.391  28.813  14.758  1.00  0.00    -0.028 C 
ATOM      3  C   UNL     1       9.518  27.167  14.641  1.00  0.00     0.039 C 
ENDROOT
BRANCH   1   4
ATOM      4  C   UNL     1       9.114  29.693  15.157  1.00  0.00     0.034 C 
BRANCH   4   5
ATOM      5  C   UNL     1       8.957  29.901  16.668  1.00  0.00     0.032 C 
BRANCH   5   6
ATOM      6  C   UNL     1       7.509  30.128  17.038  1.00  0.00    -0.028 C 
ATOM      7  C   UNL     1       7.010  27.691  17.347  1.00  0.00     0.039 C 
ATOM      8  C   UNL     1       6.620  29.150  17.317  1.00  0.00    -0.080 C 
ATOM      9  C   UNL     1       5.194  29.541  17.609  1.00  0.00     0.039 C 
ENDBRANCH   5   6
ENDBRANCH   4   5
ENDBRANCH   1   4
BRANCH   2  10
ATOM     10  C   UNL     1      12.419  27.743  14.474  1.00  0.00     0.035 C 
BRANCH  10  11
ATOM     11  C   UNL     1      13.450  27.616  15.604  1.00  0.00     0.079 C 
BRANCH  11  12
ATOM     12  C   UNL     1      13.614  26.189  16.060  1.00  0.00     0.130 C 
ATOM     13  O   UNL     1      14.645  25.845  16.621  1.00  0.00    -0.300 OA
ATOM     14  C   UNL     1      12.539  25.178  15.798  1.00  0.00     0.087 C 
ENDBRANCH  11  12
ENDBRANCH  10  11
ENDBRANCH   2  10
TORSDOF 6
ENDMDL
