MODEL 1
REMARK VINA RESULT:    -4.591      0.000      0.000
REMARK INTER + INTRA:          -9.560
REMARK INTER:                  -8.081
REMARK INTRA:                  -1.479
REMARK UNBOUND:                -1.479
REMARK SMILES CCCCCCCCCCCCCCC(=O)[O-]
REMARK SMILES IDX 9 1 10 2 11 3 12 4 13 5 14 6 15 7 16 8 17 9 8 10 7 11 6 12
REMARK SMILES IDX 5 13 4 14 3 15 2 16 1 17
REMARK H PARENT
REMARK Flexibility Score: inf
ROOT
ATOM      1  C   UNL     1      10.530   4.996  10.183  1.00  0.00     0.000 C 
ENDROOT
BRANCH   1   2
ATOM      2  C   UNL     1      11.965   5.471  10.456  1.00  0.00     0.000 C 
BRANCH   2   3
ATOM      3  C   UNL     1      12.090   6.987  10.261  1.00  0.00     0.000 C 
BRANCH   3   4
ATOM      4  C   UNL     1      11.518   7.746  11.467  1.00  0.00     0.000 C 
BRANCH   4   5
ATOM      5  C   UNL     1      11.396   9.260  11.217  1.00  0.00     0.006 C 
BRANCH   5   6
ATOM      6  C   UNL     1      12.342   9.800  10.132  1.00  0.00     0.053 C 
BRANCH   6   7
ATOM      7  C   UNL     1      12.423  11.295  10.150  1.00  0.00     0.041 C 
ATOM      8  O   UNL     1      12.449  11.941   9.070  1.00  0.00    -0.550 OA
ATOM      9  O   UNL     1      12.506  11.973  11.359  1.00  0.00    -0.550 OA
ENDBRANCH   6   7
ENDBRANCH   5   6
ENDBRANCH   4   5
ENDBRANCH   3   4
ENDBRANCH   2   3
ENDBRANCH   1   2
BRANCH   1  10
ATOM     10  C   UNL     1      10.482   3.650   9.445  1.00  0.00     0.000 C 
BRANCH  10  11
ATOM     11  C   UNL     1      11.866   2.989   9.322  1.00  0.00    -0.000 C 
BRANCH  11  12
ATOM     12  C   UNL     1      11.819   1.479   9.638  1.00  0.00    -0.000 C 
BRANCH  12  13
ATOM     13  C   UNL     1      12.346   1.124  11.040  1.00  0.00    -0.000 C 
BRANCH  13  14
ATOM     14  C   UNL     1      13.205   2.241  11.654  1.00  0.00    -0.000 C 
BRANCH  14  15
ATOM     15  C   UNL     1      12.909   2.459  13.146  1.00  0.00    -0.000 C 
BRANCH  15  16
ATOM     16  C   UNL     1      11.405   2.478  13.456  1.00  0.00    -0.003 C 
ATOM     17  C   UNL     1      10.909   3.902  13.693  1.00  0.00     0.004 C 
ENDBRANCH  15  16
ENDBRANCH  14  15
ENDBRANCH  13  14
ENDBRANCH  12  13
ENDBRANCH  11  12
ENDBRANCH  10  11
ENDBRANCH   1  10
TORSDOF 13
ENDMDL
MODEL 2
REMARK VINA RESULT:    -4.518      4.323      6.185
REMARK INTER + INTRA:          -9.431
REMARK INTER:                  -6.943
REMARK INTRA:                  -2.488
REMARK UNBOUND:                -1.479
REMARK SMILES CCCCCCCCCCCCCCC(=O)[O-]
REMARK SMILES IDX 9 1 10 2 11 3 12 4 13 5 14 6 15 7 16 8 17 9 8 10 7 11 6 12
REMARK SMILES IDX 5 13 4 14 3 15 2 16 1 17
REMARK H PARENT
REMARK Flexibility Score: inf
ROOT
ATOM      1  C   UNL     1      10.469   5.786  11.847  1.00  0.00     0.000 C 
ENDROOT
BRANCH   1   2
ATOM      2  C   UNL     1      10.356   6.095  13.347  1.00  0.00     0.000 C 
BRANCH   2   3
ATOM      3  C   UNL     1      10.025   4.829  14.146  1.00  0.00     0.000 C 
BRANCH   3   4
ATOM      4  C   UNL     1       9.997   3.594  13.233  1.00  0.00     0.000 C 
BRANCH   4   5
ATOM      5  C   UNL     1      10.908   2.460  13.736  1.00  0.00     0.006 C 
BRANCH   5   6
ATOM      6  C   UNL     1      12.007   2.916  14.709  1.00  0.00     0.053 C 
BRANCH   6   7
ATOM      7  C   UNL     1      13.239   2.071  14.602  1.00  0.00     0.041 C 
ATOM      8  O   UNL     1      13.364   1.251  13.654  1.00  0.00    -0.550 OA
ATOM      9  O   UNL     1      14.233   2.164  15.567  1.00  0.00    -0.550 OA
ENDBRANCH   6   7
ENDBRANCH   5   6
ENDBRANCH   4   5
ENDBRANCH   3   4
ENDBRANCH   2   3
ENDBRANCH   1   2
BRANCH   1  10
ATOM     10  C   UNL     1      11.666   6.486  11.185  1.00  0.00     0.000 C 
BRANCH  10  11
ATOM     11  C   UNL     1      12.565   5.514  10.401  1.00  0.00    -0.000 C 
BRANCH  11  12
ATOM     12  C   UNL     1      13.092   4.365  11.288  1.00  0.00    -0.000 C 
BRANCH  12  13
ATOM     13  C   UNL     1      12.807   2.964  10.718  1.00  0.00    -0.000 C 
BRANCH  13  14
ATOM     14  C   UNL     1      11.875   2.996   9.496  1.00  0.00    -0.000 C 
BRANCH  14  15
ATOM     15  C   UNL     1      10.574   2.212   9.727  1.00  0.00    -0.000 C 
BRANCH  15  16
ATOM     16  C   UNL     1       9.321   3.090   9.594  1.00  0.00    -0.003 C 
ATOM     17  C   UNL     1       9.533   4.200   8.568  1.00  0.00     0.004 C 
ENDBRANCH  15  16
ENDBRANCH  14  15
ENDBRANCH  13  14
ENDBRANCH  12  13
ENDBRANCH  11  12
ENDBRANCH  10  11
ENDBRANCH   1  10
TORSDOF 13
ENDMDL
MODEL 3
REMARK VINA RESULT:    -4.459      1.343      2.604
REMARK INTER + INTRA:          -9.328
REMARK INTER:                  -8.013
REMARK INTRA:                  -1.315
REMARK UNBOUND:                -1.479
REMARK SMILES CCCCCCCCCCCCCCC(=O)[O-]
REMARK SMILES IDX 9 1 10 2 11 3 12 4 13 5 14 6 15 7 16 8 17 9 8 10 7 11 6 12
REMARK SMILES IDX 5 13 4 14 3 15 2 16 1 17
REMARK H PARENT
REMARK Flexibility Score: inf
ROOT
ATOM      1  C   UNL     1      11.148   7.040  11.926  1.00  0.00     0.000 C 
ENDROOT
BRANCH   1   2
ATOM      2  C   UNL     1      11.957   7.170  10.627  1.00  0.00     0.000 C 
BRANCH   2   3
ATOM      3  C   UNL     1      12.083   8.637  10.201  1.00  0.00     0.000 C 
BRANCH   3   4
ATOM      4  C   UNL     1      11.442   9.569  11.242  1.00  0.00     0.000 C 
BRANCH   4   5
ATOM      5  C   UNL     1      12.045  10.985  11.227  1.00  0.00     0.006 C 
BRANCH   5   6
ATOM      6  C   UNL     1      12.864  11.310   9.967  1.00  0.00     0.053 C 
BRANCH   6   7
ATOM      7  C   UNL     1      12.405  12.574   9.309  1.00  0.00     0.041 C 
ATOM      8  O   UNL     1      11.675  13.386   9.936  1.00  0.00    -0.550 OA
ATOM      9  O   UNL     1      12.755  12.840   7.992  1.00  0.00    -0.550 OA
ENDBRANCH   6   7
ENDBRANCH   5   6
ENDBRANCH   4   5
ENDBRANCH   3   4
ENDBRANCH   2   3
ENDBRANCH   1   2
BRANCH   1  10
ATOM     10  C   UNL     1      10.541   5.640  12.109  1.00  0.00     0.000 C 
BRANCH  10  11
ATOM     11  C   UNL     1       9.955   5.072  10.804  1.00  0.00    -0.000 C 
BRANCH  11  12
ATOM     12  C   UNL     1       9.626   3.568  10.922  1.00  0.00    -0.000 C 
BRANCH  12  13
ATOM     13  C   UNL     1      10.164   2.725   9.752  1.00  0.00    -0.000 C 
BRANCH  13  14
ATOM     14  C   UNL     1      11.690   2.832   9.593  1.00  0.00    -0.000 C 
BRANCH  14  15
ATOM     15  C   UNL     1      12.446   1.824  10.473  1.00  0.00    -0.000 C 
BRANCH  15  16
ATOM     16  C   UNL     1      13.150   2.489  11.665  1.00  0.00    -0.003 C 
ATOM     17  C   UNL     1      13.582   3.912  11.324  1.00  0.00     0.004 C 
ENDBRANCH  15  16
ENDBRANCH  14  15
ENDBRANCH  13  14
ENDBRANCH  12  13
ENDBRANCH  11  12
ENDBRANCH  10  11
ENDBRANCH   1  10
TORSDOF 13
ENDMDL
MODEL 4
REMARK VINA RESULT:    -4.427      1.711      2.792
REMARK INTER + INTRA:          -9.271
REMARK INTER:                  -8.579
REMARK INTRA:                  -0.692
REMARK UNBOUND:                -1.479
REMARK SMILES CCCCCCCCCCCCCCC(=O)[O-]
REMARK SMILES IDX 9 1 10 2 11 3 12 4 13 5 14 6 15 7 16 8 17 9 8 10 7 11 6 12
REMARK SMILES IDX 5 13 4 14 3 15 2 16 1 17
REMARK H PARENT
REMARK Flexibility Score: inf
ROOT
ATOM      1  C   UNL     1      11.519   7.095  11.659  1.00  0.00     0.000 C 
ENDROOT
BRANCH   1   2
ATOM      2  C   UNL     1      11.403   8.623  11.558  1.00  0.00     0.000 C 
BRANCH   2   3
ATOM      3  C   UNL     1      12.054   9.139  10.269  1.00  0.00     0.000 C 
BRANCH   3   4
ATOM      4  C   UNL     1      12.483  10.607  10.419  1.00  0.00     0.000 C 
BRANCH   4   5
ATOM      5  C   UNL     1      11.831  11.298  11.631  1.00  0.00     0.006 C 
BRANCH   5   6
ATOM      6  C   UNL     1      12.452  12.658  11.992  1.00  0.00     0.053 C 
BRANCH   6   7
ATOM      7  C   UNL     1      12.037  13.736  11.040  1.00  0.00     0.041 C 
ATOM      8  O   UNL     1      10.835  13.831  10.675  1.00  0.00    -0.550 OA
ATOM      9  O   UNL     1      12.983  14.614  10.527  1.00  0.00    -0.550 OA
ENDBRANCH   6   7
ENDBRANCH   5   6
ENDBRANCH   4   5
ENDBRANCH   3   4
ENDBRANCH   2   3
ENDBRANCH   1   2
BRANCH   1  10
ATOM     10  C   UNL     1      12.028   6.451  10.360  1.00  0.00     0.000 C 
BRANCH  10  11
ATOM     11  C   UNL     1      12.996   5.283  10.615  1.00  0.00    -0.000 C 
BRANCH  11  12
ATOM     12  C   UNL     1      12.342   4.159  11.448  1.00  0.00    -0.000 C 
BRANCH  12  13
ATOM     13  C   UNL     1      12.811   2.746  11.054  1.00  0.00    -0.000 C 
BRANCH  13  14
ATOM     14  C   UNL     1      13.064   1.842  12.270  1.00  0.00    -0.000 C 
BRANCH  14  15
ATOM     15  C   UNL     1      12.721   2.532  13.599  1.00  0.00    -0.000 C 
BRANCH  15  16
ATOM     16  C   UNL     1      13.627   2.080  14.754  1.00  0.00    -0.003 C 
ATOM     17  C   UNL     1      13.295   0.655  15.188  1.00  0.00     0.004 C 
ENDBRANCH  15  16
ENDBRANCH  14  15
ENDBRANCH  13  14
ENDBRANCH  12  13
ENDBRANCH  11  12
ENDBRANCH  10  11
ENDBRANCH   1  10
TORSDOF 13
ENDMDL
MODEL 5
REMARK VINA RESULT:    -4.406      3.572      5.387
REMARK INTER + INTRA:          -9.233
REMARK INTER:                  -7.095
REMARK INTRA:                  -2.138
REMARK UNBOUND:                -1.479
REMARK SMILES CCCCCCCCCCCCCCC(=O)[O-]
REMARK SMILES IDX 9 1 10 2 11 3 12 4 13 5 14 6 15 7 16 8 17 9 8 10 7 11 6 12
REMARK SMILES IDX 5 13 4 14 3 15 2 16 1 17
REMARK H PARENT
REMARK Flexibility Score: inf
ROOT
ATOM      1  C   UNL     1      11.828   6.061  11.616  1.00  0.00     0.000 C 
ENDROOT
BRANCH   1   2
ATOM      2  C   UNL     1      12.673   5.218  10.648  1.00  0.00     0.000 C 
BRANCH   2   3
ATOM      3  C   UNL     1      13.258   3.990  11.356  1.00  0.00     0.000 C 
BRANCH   3   4
ATOM      4  C   UNL     1      12.679   2.691  10.774  1.00  0.00     0.000 C 
BRANCH   4   5
ATOM      5  C   UNL     1      11.920   2.916   9.454  1.00  0.00     0.006 C 
BRANCH   5   6
ATOM      6  C   UNL     1      10.508   2.310   9.425  1.00  0.00     0.053 C 
BRANCH   6   7
ATOM      7  C   UNL     1       9.481   3.299   8.968  1.00  0.00     0.041 C 
ATOM      8  O   UNL     1       9.837   4.372   8.412  1.00  0.00    -0.550 OA
ATOM      9  O   UNL     1       8.132   3.054   9.187  1.00  0.00    -0.550 OA
ENDBRANCH   6   7
ENDBRANCH   5   6
ENDBRANCH   4   5
ENDBRANCH   3   4
ENDBRANCH   2   3
ENDBRANCH   1   2
BRANCH   1  10
ATOM     10  C   UNL     1      10.345   5.661  11.610  1.00  0.00     0.000 C 
BRANCH  10  11
ATOM     11  C   UNL     1       9.884   5.070  12.954  1.00  0.00    -0.000 C 
BRANCH  11  12
ATOM     12  C   UNL     1       9.221   3.686  12.783  1.00  0.00    -0.000 C 
BRANCH  12  13
ATOM     13  C   UNL     1      10.080   2.521  13.306  1.00  0.00    -0.000 C 
BRANCH  13  14
ATOM     14  C   UNL     1      11.249   2.991  14.186  1.00  0.00    -0.000 C 
BRANCH  14  15
ATOM     15  C   UNL     1      11.774   1.880  15.109  1.00  0.00    -0.000 C 
BRANCH  15  16
ATOM     16  C   UNL     1      13.188   1.413  14.730  1.00  0.00    -0.003 C 
ATOM     17  C   UNL     1      14.250   2.200  15.491  1.00  0.00     0.004 C 
ENDBRANCH  15  16
ENDBRANCH  14  15
ENDBRANCH  13  14
ENDBRANCH  12  13
ENDBRANCH  11  12
ENDBRANCH  10  11
ENDBRANCH   1  10
TORSDOF 13
ENDMDL
MODEL 6
REMARK VINA RESULT:    -4.389      4.040      6.055
REMARK INTER + INTRA:          -9.204
REMARK INTER:                  -7.720
REMARK INTRA:                  -1.484
REMARK UNBOUND:                -1.479
REMARK SMILES CCCCCCCCCCCCCCC(=O)[O-]
REMARK SMILES IDX 9 1 10 2 11 3 12 4 13 5 14 6 15 7 16 8 17 9 8 10 7 11 6 12
REMARK SMILES IDX 5 13 4 14 3 15 2 16 1 17
REMARK H PARENT
REMARK Flexibility Score: inf
ROOT
ATOM      1  C   UNL     1      10.844   6.228  11.402  1.00  0.00     0.000 C 
ENDROOT
BRANCH   1   2
ATOM      2  C   UNL     1      11.992   6.407  10.398  1.00  0.00     0.000 C 
BRANCH   2   3
ATOM      3  C   UNL     1      13.026   5.284  10.540  1.00  0.00     0.000 C 
BRANCH   3   4
ATOM      4  C   UNL     1      12.503   4.166  11.455  1.00  0.00     0.000 C 
BRANCH   4   5
ATOM      5  C   UNL     1      13.432   2.939  11.489  1.00  0.00     0.006 C 
BRANCH   5   6
ATOM      6  C   UNL     1      12.701   1.589  11.410  1.00  0.00     0.053 C 
BRANCH   6   7
ATOM      7  C   UNL     1      11.518   1.644  10.494  1.00  0.00     0.041 C 
ATOM      8  O   UNL     1      10.355   1.488  10.950  1.00  0.00    -0.550 OA
ATOM      9  O   UNL     1      11.703   1.832   9.130  1.00  0.00    -0.550 OA
ENDBRANCH   6   7
ENDBRANCH   5   6
ENDBRANCH   4   5
ENDBRANCH   3   4
ENDBRANCH   2   3
ENDBRANCH   1   2
BRANCH   1  10
ATOM     10  C   UNL     1      10.883   7.263  12.537  1.00  0.00     0.000 C 
BRANCH  10  11
ATOM     11  C   UNL     1      10.459   6.673  13.894  1.00  0.00    -0.000 C 
BRANCH  11  12
ATOM     12  C   UNL     1       9.946   5.223  13.761  1.00  0.00    -0.000 C 
BRANCH  12  13
ATOM     13  C   UNL     1      10.261   4.342  14.983  1.00  0.00    -0.000 C 
BRANCH  13  14
ATOM     14  C   UNL     1      11.304   3.254  14.680  1.00  0.00    -0.000 C 
BRANCH  14  15
ATOM     15  C   UNL     1      11.299   2.126  15.724  1.00  0.00    -0.000 C 
BRANCH  15  16
ATOM     16  C   UNL     1      12.594   1.301  15.713  1.00  0.00    -0.003 C 
ATOM     17  C   UNL     1      13.756   2.111  15.144  1.00  0.00     0.004 C 
ENDBRANCH  15  16
ENDBRANCH  14  15
ENDBRANCH  13  14
ENDBRANCH  12  13
ENDBRANCH  11  12
ENDBRANCH  10  11
ENDBRANCH   1  10
TORSDOF 13
ENDMDL
MODEL 7
REMARK VINA RESULT:    -4.345      4.140      7.012
REMARK INTER + INTRA:          -9.125
REMARK INTER:                  -7.647
REMARK INTRA:                  -1.478
REMARK UNBOUND:                -1.479
REMARK SMILES CCCCCCCCCCCCCCC(=O)[O-]
REMARK SMILES IDX 9 1 10 2 11 3 12 4 13 5 14 6 15 7 16 8 17 9 8 10 7 11 6 12
REMARK SMILES IDX 5 13 4 14 3 15 2 16 1 17
REMARK H PARENT
REMARK Flexibility Score: inf
ROOT
ATOM      1  C   UNL     1      11.578   3.145   9.265  1.00  0.00     0.000 C 
ENDROOT
BRANCH   1   2
ATOM      2  C   UNL     1      12.388   2.127  10.080  1.00  0.00     0.000 C 
BRANCH   2   3
ATOM      3  C   UNL     1      13.049   2.794  11.293  1.00  0.00     0.000 C 
BRANCH   3   4
ATOM      4  C   UNL     1      12.652   2.083  12.596  1.00  0.00     0.000 C 
BRANCH   4   5
ATOM      5  C   UNL     1      12.147   3.057  13.676  1.00  0.00     0.006 C 
BRANCH   5   6
ATOM      6  C   UNL     1      11.881   2.403  15.042  1.00  0.00     0.053 C 
BRANCH   6   7
ATOM      7  C   UNL     1      13.048   1.591  15.513  1.00  0.00     0.041 C 
ATOM      8  O   UNL     1      12.907   0.365  15.764  1.00  0.00    -0.550 OA
ATOM      9  O   UNL     1      14.283   2.195  15.708  1.00  0.00    -0.550 OA
ENDBRANCH   6   7
ENDBRANCH   5   6
ENDBRANCH   4   5
ENDBRANCH   3   4
ENDBRANCH   2   3
ENDBRANCH   1   2
BRANCH   1  10
ATOM     10  C   UNL     1      10.131   3.286   9.762  1.00  0.00     0.000 C 
BRANCH  10  11
ATOM     11  C   UNL     1       9.748   4.744  10.071  1.00  0.00    -0.000 C 
BRANCH  11  12
ATOM     12  C   UNL     1      10.127   5.152  11.511  1.00  0.00    -0.000 C 
BRANCH  12  13
ATOM     13  C   UNL     1      11.051   6.380  11.582  1.00  0.00    -0.000 C 
BRANCH  13  14
ATOM     14  C   UNL     1      11.979   6.500  10.362  1.00  0.00    -0.000 C 
BRANCH  14  15
ATOM     15  C   UNL     1      12.313   7.959  10.017  1.00  0.00    -0.000 C 
BRANCH  15  16
ATOM     16  C   UNL     1      11.695   8.959  11.005  1.00  0.00    -0.003 C 
ATOM     17  C   UNL     1      12.055  10.394  10.633  1.00  0.00     0.004 C 
ENDBRANCH  15  16
ENDBRANCH  14  15
ENDBRANCH  13  14
ENDBRANCH  12  13
ENDBRANCH  11  12
ENDBRANCH  10  11
ENDBRANCH   1  10
TORSDOF 13
ENDMDL
MODEL 8
REMARK VINA RESULT:    -4.313      3.878      8.170
REMARK INTER + INTRA:          -9.070
REMARK INTER:                  -7.834
REMARK INTRA:                  -1.236
REMARK UNBOUND:                -1.479
REMARK SMILES CCCCCCCCCCCCCCC(=O)[O-]
REMARK SMILES IDX 9 1 10 2 11 3 12 4 13 5 14 6 15 7 16 8 17 9 8 10 7 11 6 12
REMARK SMILES IDX 5 13 4 14 3 15 2 16 1 17
REMARK H PARENT
REMARK Flexibility Score: inf
ROOT
ATOM      1  C   UNL     1      11.987   9.272  10.254  1.00  0.00     0.000 C 
ENDROOT
BRANCH   1   2
ATOM      2  C   UNL     1      11.556   9.173  11.725  1.00  0.00     0.000 C 
BRANCH   2   3
ATOM      3  C   UNL     1      11.200   7.729  12.097  1.00  0.00     0.000 C 
BRANCH   3   4
ATOM      4  C   UNL     1      11.558   6.763  10.957  1.00  0.00     0.000 C 
BRANCH   4   5
ATOM      5  C   UNL     1      10.662   5.511  10.932  1.00  0.00     0.006 C 
BRANCH   5   6
ATOM      6  C   UNL     1      10.722   4.716   9.617  1.00  0.00     0.053 C 
BRANCH   6   7
ATOM      7  C   UNL     1       9.361   4.314   9.141  1.00  0.00     0.041 C 
ATOM      8  O   UNL     1       8.461   4.017   9.970  1.00  0.00    -0.550 OA
ATOM      9  O   UNL     1       9.096   4.234   7.780  1.00  0.00    -0.550 OA
ENDBRANCH   6   7
ENDBRANCH   5   6
ENDBRANCH   4   5
ENDBRANCH   3   4
ENDBRANCH   2   3
ENDBRANCH   1   2
BRANCH   1  10
ATOM     10  C   UNL     1      12.476  10.679   9.873  1.00  0.00     0.000 C 
BRANCH  10  11
ATOM     11  C   UNL     1      12.506  11.642  11.073  1.00  0.00    -0.000 C 
BRANCH  11  12
ATOM     12  C   UNL     1      11.949  13.036  10.713  1.00  0.00    -0.000 C 
BRANCH  12  13
ATOM     13  C   UNL     1      11.693  13.934  11.936  1.00  0.00    -0.000 C 
BRANCH  13  14
ATOM     14  C   UNL     1      10.737  13.294  12.956  1.00  0.00    -0.000 C 
BRANCH  14  15
ATOM     15  C   UNL     1       9.389  12.900  12.333  1.00  0.00    -0.000 C 
BRANCH  15  16
ATOM     16  C   UNL     1       8.889  11.530  12.816  1.00  0.00    -0.003 C 
ATOM     17  C   UNL     1       9.599  11.107  14.099  1.00  0.00     0.004 C 
ENDBRANCH  15  16
ENDBRANCH  14  15
ENDBRANCH  13  14
ENDBRANCH  12  13
ENDBRANCH  11  12
ENDBRANCH  10  11
ENDBRANCH   1  10
TORSDOF 13
ENDMDL
MODEL 9
REMARK VINA RESULT:    -4.259      3.777      7.947
REMARK INTER + INTRA:          -8.975
REMARK INTER:                  -7.853
REMARK INTRA:                  -1.122
REMARK UNBOUND:                -1.479
REMARK SMILES CCCCCCCCCCCCCCC(=O)[O-]
REMARK SMILES IDX 9 1 10 2 11 3 12 4 13 5 14 6 15 7 16 8 17 9 8 10 7 11 6 12
REMARK SMILES IDX 5 13 4 14 3 15 2 16 1 17
REMARK H PARENT
REMARK Flexibility Score: inf
ROOT
ATOM      1  C   UNL     1      11.288   7.597  12.072  1.00  0.00     0.000 C 
ENDROOT
BRANCH   1   2
ATOM      2  C   UNL     1      11.615   6.625  10.929  1.00  0.00     0.000 C 
BRANCH   2   3
ATOM      3  C   UNL     1      10.600   5.478  10.874  1.00  0.00     0.000 C 
BRANCH   3   4
ATOM      4  C   UNL     1      10.647   4.766   9.514  1.00  0.00     0.000 C 
BRANCH   4   5
ATOM      5  C   UNL     1      11.172   3.322   9.614  1.00  0.00     0.006 C 
BRANCH   5   6
ATOM      6  C   UNL     1      11.277   2.785  11.050  1.00  0.00     0.053 C 
BRANCH   6   7
ATOM      7  C   UNL     1      12.689   2.465  11.430  1.00  0.00     0.041 C 
ATOM      8  O   UNL     1      13.569   3.366  11.413  1.00  0.00    -0.550 OA
ATOM      9  O   UNL     1      13.043   1.165  11.768  1.00  0.00    -0.550 OA
ENDBRANCH   6   7
ENDBRANCH   5   6
ENDBRANCH   4   5
ENDBRANCH   3   4
ENDBRANCH   2   3
ENDBRANCH   1   2
BRANCH   1  10
ATOM     10  C   UNL     1      11.410   9.070  11.652  1.00  0.00     0.000 C 
BRANCH  10  11
ATOM     11  C   UNL     1      12.039   9.240  10.258  1.00  0.00    -0.000 C 
BRANCH  11  12
ATOM     12  C   UNL     1      12.579  10.669  10.035  1.00  0.00    -0.000 C 
BRANCH  12  13
ATOM     13  C   UNL     1      12.374  11.602  11.241  1.00  0.00    -0.000 C 
BRANCH  13  14
ATOM     14  C   UNL     1      11.755  12.954  10.851  1.00  0.00    -0.000 C 
BRANCH  14  15
ATOM     15  C   UNL     1      10.524  13.305  11.701  1.00  0.00    -0.000 C 
BRANCH  15  16
ATOM     16  C   UNL     1      10.309  12.328  12.867  1.00  0.00    -0.003 C 
ATOM     17  C   UNL     1       8.941  11.658  12.777  1.00  0.00     0.004 C 
ENDBRANCH  15  16
ENDBRANCH  14  15
ENDBRANCH  13  14
ENDBRANCH  12  13
ENDBRANCH  11  12
ENDBRANCH  10  11
ENDBRANCH   1  10
TORSDOF 13
ENDMDL
