MODEL 1
REMARK VINA RESULT:    22.028      0.000      0.000
REMARK INTER + INTRA:          58.652
REMARK INTER:                  58.086
REMARK INTRA:                   0.566
REMARK UNBOUND:                 0.566
REMARK SMILES CCCCCCCCCCCCCCCCCCCCCCCCCCCCCC(=O)[O-]
REMARK SMILES IDX 16 1 17 2 18 3 19 4 20 5 21 6 22 7 23 8 24 9 25 10 26 11
REMARK SMILES IDX 27 12 28 13 29 14 30 15 31 16 32 17 15 18 14 19 13 20 12 21
REMARK SMILES IDX 11 22 10 23 9 24 8 25 7 26 6 27 5 28 4 29 3 30 2 31 1 32
REMARK H PARENT
REMARK Flexibility Score: inf
ROOT
ATOM      1  C   UNL     1      58.724 136.638  -4.359  1.00  0.00     0.000 C 
ENDROOT
BRANCH   1   2
ATOM      2  C   UNL     1      57.542 137.353  -5.029  1.00  0.00     0.000 C 
BRANCH   2   3
ATOM      3  C   UNL     1      56.451 137.687  -4.002  1.00  0.00     0.000 C 
BRANCH   3   4
ATOM      4  C   UNL     1      56.644 139.065  -3.343  1.00  0.00     0.000 C 
BRANCH   4   5
ATOM      5  C   UNL     1      57.643 139.094  -2.170  1.00  0.00     0.000 C 
BRANCH   5   6
ATOM      6  C   UNL     1      57.027 139.641  -0.870  1.00  0.00     0.000 C 
BRANCH   6   7
ATOM      7  C   UNL     1      55.509 139.856  -0.989  1.00  0.00     0.000 C 
BRANCH   7   8
ATOM      8  C   UNL     1      55.131 141.344  -1.038  1.00  0.00     0.000 C 
BRANCH   8   9
ATOM      9  C   UNL     1      54.076 141.681   0.027  1.00  0.00     0.000 C 
BRANCH   9  10
ATOM     10  C   UNL     1      52.900 140.681   0.018  1.00  0.00     0.000 C 
BRANCH  10  11
ATOM     11  C   UNL     1      53.078 139.509   0.997  1.00  0.00     0.000 C 
BRANCH  11  12
ATOM     12  C   UNL     1      51.763 139.072   1.657  1.00  0.00     0.000 C 
BRANCH  12  13
ATOM     13  C   UNL     1      50.588 139.921   1.158  1.00  0.00     0.006 C 
BRANCH  13  14
ATOM     14  C   UNL     1      49.541 139.052   0.454  1.00  0.00     0.053 C 
BRANCH  14  15
ATOM     15  C   UNL     1      50.065 137.671   0.216  1.00  0.00     0.041 C 
ATOM     16  O   UNL     1      49.883 136.765   1.073  1.00  0.00    -0.550 OA
ATOM     17  O   UNL     1      50.767 137.383  -0.949  1.00  0.00    -0.550 OA
ENDBRANCH  14  15
ENDBRANCH  13  14
ENDBRANCH  12  13
ENDBRANCH  11  12
ENDBRANCH  10  11
ENDBRANCH   9  10
ENDBRANCH   8   9
ENDBRANCH   7   8
ENDBRANCH   6   7
ENDBRANCH   5   6
ENDBRANCH   4   5
ENDBRANCH   3   4
ENDBRANCH   2   3
ENDBRANCH   1   2
BRANCH   1  18
ATOM     18  C   UNL     1      59.110 135.328  -5.067  1.00  0.00     0.000 C 
BRANCH  18  19
ATOM     19  C   UNL     1      60.621 135.145  -5.323  1.00  0.00     0.000 C 
BRANCH  19  20
ATOM     20  C   UNL     1      60.979 134.469  -6.659  1.00  0.00     0.000 C 
BRANCH  20  21
ATOM     21  C   UNL     1      61.943 133.273  -6.543  1.00  0.00     0.000 C 
BRANCH  21  22
ATOM     22  C   UNL     1      62.210 132.554  -7.884  1.00  0.00     0.000 C 
BRANCH  22  23
ATOM     23  C   UNL     1      62.816 131.153  -7.690  1.00  0.00     0.000 C 
BRANCH  23  24
ATOM     24  C   UNL     1      61.834 130.026  -8.046  1.00  0.00    -0.000 C 
BRANCH  24  25
ATOM     25  C   UNL     1      61.311 129.284  -6.809  1.00  0.00    -0.000 C 
BRANCH  25  26
ATOM     26  C   UNL     1      62.195 128.075  -6.477  1.00  0.00    -0.000 C 
BRANCH  26  27
ATOM     27  C   UNL     1      63.288 127.887  -7.539  1.00  0.00    -0.000 C 
BRANCH  27  28
ATOM     28  C   UNL     1      64.677 128.313  -7.043  1.00  0.00    -0.000 C 
BRANCH  28  29
ATOM     29  C   UNL     1      65.769 128.143  -8.115  1.00  0.00    -0.000 C 
BRANCH  29  30
ATOM     30  C   UNL     1      66.988 129.052  -7.850  1.00  0.00    -0.000 C 
BRANCH  30  31
ATOM     31  C   UNL     1      66.872 129.868  -6.552  1.00  0.00    -0.003 C 
ATOM     32  C   UNL     1      66.498 129.016  -5.340  1.00  0.00     0.004 C 
ENDBRANCH  30  31
ENDBRANCH  29  30
ENDBRANCH  28  29
ENDBRANCH  27  28
ENDBRANCH  26  27
ENDBRANCH  25  26
ENDBRANCH  24  25
ENDBRANCH  23  24
ENDBRANCH  22  23
ENDBRANCH  21  22
ENDBRANCH  20  21
ENDBRANCH  19  20
ENDBRANCH  18  19
ENDBRANCH   1  18
TORSDOF 28
ENDMDL
MODEL 2
REMARK VINA RESULT:    22.324      2.142      2.930
REMARK INTER + INTRA:          59.432
REMARK INTER:                  60.634
REMARK INTRA:                  -1.202
REMARK UNBOUND:                 0.566
REMARK SMILES CCCCCCCCCCCCCCCCCCCCCCCCCCCCCC(=O)[O-]
REMARK SMILES IDX 16 1 17 2 18 3 19 4 20 5 21 6 22 7 23 8 24 9 25 10 26 11
REMARK SMILES IDX 27 12 28 13 29 14 30 15 31 16 32 17 15 18 14 19 13 20 12 21
REMARK SMILES IDX 11 22 10 23 9 24 8 25 7 26 6 27 5 28 4 29 3 30 2 31 1 32
REMARK H PARENT
REMARK Flexibility Score: inf
ROOT
ATOM      1  C   UNL     1      56.988 135.204  -2.382  1.00  0.00     0.000 C 
ENDROOT
BRANCH   1   2
ATOM      2  C   UNL     1      57.702 136.412  -3.004  1.00  0.00     0.000 C 
BRANCH   2   3
ATOM      3  C   UNL     1      56.910 136.959  -4.201  1.00  0.00     0.000 C 
BRANCH   3   4
ATOM      4  C   UNL     1      55.922 138.074  -3.813  1.00  0.00     0.000 C 
BRANCH   4   5
ATOM      5  C   UNL     1      56.294 138.866  -2.545  1.00  0.00     0.000 C 
BRANCH   5   6
ATOM      6  C   UNL     1      56.428 140.377  -2.799  1.00  0.00     0.000 C 
BRANCH   6   7
ATOM      7  C   UNL     1      57.036 141.119  -1.596  1.00  0.00     0.000 C 
BRANCH   7   8
ATOM      8  C   UNL     1      56.020 142.036  -0.900  1.00  0.00     0.000 C 
BRANCH   8   9
ATOM      9  C   UNL     1      55.240 141.274   0.183  1.00  0.00     0.000 C 
BRANCH   9  10
ATOM     10  C   UNL     1      53.725 141.233  -0.112  1.00  0.00     0.000 C 
BRANCH  10  11
ATOM     11  C   UNL     1      52.916 140.435   0.925  1.00  0.00     0.000 C 
BRANCH  11  12
ATOM     12  C   UNL     1      52.391 139.100   0.379  1.00  0.00     0.000 C 
BRANCH  12  13
ATOM     13  C   UNL     1      52.152 138.097   1.514  1.00  0.00     0.006 C 
BRANCH  13  14
ATOM     14  C   UNL     1      50.655 137.854   1.728  1.00  0.00     0.053 C 
BRANCH  14  15
ATOM     15  C   UNL     1      50.048 137.175   0.540  1.00  0.00     0.041 C 
ATOM     16  O   UNL     1      49.329 136.151   0.692  1.00  0.00    -0.550 OA
ATOM     17  O   UNL     1      50.282 137.666  -0.738  1.00  0.00    -0.550 OA
ENDBRANCH  14  15
ENDBRANCH  13  14
ENDBRANCH  12  13
ENDBRANCH  11  12
ENDBRANCH  10  11
ENDBRANCH   9  10
ENDBRANCH   8   9
ENDBRANCH   7   8
ENDBRANCH   6   7
ENDBRANCH   5   6
ENDBRANCH   4   5
ENDBRANCH   3   4
ENDBRANCH   2   3
ENDBRANCH   1   2
BRANCH   1  18
ATOM     18  C   UNL     1      56.861 134.019  -3.355  1.00  0.00     0.000 C 
BRANCH  18  19
ATOM     19  C   UNL     1      58.168 133.237  -3.605  1.00  0.00     0.000 C 
BRANCH  19  20
ATOM     20  C   UNL     1      58.035 131.704  -3.538  1.00  0.00     0.000 C 
BRANCH  20  21
ATOM     21  C   UNL     1      58.894 131.024  -2.455  1.00  0.00     0.000 C 
BRANCH  21  22
ATOM     22  C   UNL     1      59.029 129.496  -2.633  1.00  0.00     0.000 C 
BRANCH  22  23
ATOM     23  C   UNL     1      60.203 129.112  -3.551  1.00  0.00     0.000 C 
BRANCH  23  24
ATOM     24  C   UNL     1      59.872 127.929  -4.474  1.00  0.00    -0.000 C 
BRANCH  24  25
ATOM     25  C   UNL     1      60.776 127.875  -5.714  1.00  0.00    -0.000 C 
BRANCH  25  26
ATOM     26  C   UNL     1      60.358 128.929  -6.747  1.00  0.00    -0.000 C 
BRANCH  26  27
ATOM     27  C   UNL     1      61.195 130.208  -6.595  1.00  0.00    -0.000 C 
BRANCH  27  28
ATOM     28  C   UNL     1      62.654 130.017  -7.035  1.00  0.00    -0.000 C 
BRANCH  28  29
ATOM     29  C   UNL     1      63.635 130.008  -5.848  1.00  0.00    -0.000 C 
BRANCH  29  30
ATOM     30  C   UNL     1      64.520 128.744  -5.838  1.00  0.00    -0.000 C 
BRANCH  30  31
ATOM     31  C   UNL     1      65.946 129.000  -5.321  1.00  0.00    -0.003 C 
ATOM     32  C   UNL     1      67.011 128.865  -6.407  1.00  0.00     0.004 C 
ENDBRANCH  30  31
ENDBRANCH  29  30
ENDBRANCH  28  29
ENDBRANCH  27  28
ENDBRANCH  26  27
ENDBRANCH  25  26
ENDBRANCH  24  25
ENDBRANCH  23  24
ENDBRANCH  22  23
ENDBRANCH  21  22
ENDBRANCH  20  21
ENDBRANCH  19  20
ENDBRANCH  18  19
ENDBRANCH   1  18
TORSDOF 28
ENDMDL
MODEL 3
REMARK VINA RESULT:    22.525      1.633      3.108
REMARK INTER + INTRA:          59.962
REMARK INTER:                  61.364
REMARK INTRA:                  -1.402
REMARK UNBOUND:                 0.566
REMARK SMILES CCCCCCCCCCCCCCCCCCCCCCCCCCCCCC(=O)[O-]
REMARK SMILES IDX 16 1 17 2 18 3 19 4 20 5 21 6 22 7 23 8 24 9 25 10 26 11
REMARK SMILES IDX 27 12 28 13 29 14 30 15 31 16 32 17 15 18 14 19 13 20 12 21
REMARK SMILES IDX 11 22 10 23 9 24 8 25 7 26 6 27 5 28 4 29 3 30 2 31 1 32
REMARK H PARENT
REMARK Flexibility Score: inf
ROOT
ATOM      1  C   UNL     1      56.547 137.535  -4.687  1.00  0.00     0.000 C 
ENDROOT
BRANCH   1   2
ATOM      2  C   UNL     1      55.942 137.868  -3.316  1.00  0.00     0.000 C 
BRANCH   2   3
ATOM      3  C   UNL     1      56.850 138.832  -2.538  1.00  0.00     0.000 C 
BRANCH   3   4
ATOM      4  C   UNL     1      56.467 140.311  -2.732  1.00  0.00     0.000 C 
BRANCH   4   5
ATOM      5  C   UNL     1      56.266 141.111  -1.431  1.00  0.00     0.000 C 
BRANCH   5   6
ATOM      6  C   UNL     1      54.978 140.727  -0.684  1.00  0.00     0.000 C 
BRANCH   6   7
ATOM      7  C   UNL     1      54.062 141.939  -0.438  1.00  0.00     0.000 C 
BRANCH   7   8
ATOM      8  C   UNL     1      53.279 141.823   0.878  1.00  0.00     0.000 C 
BRANCH   8   9
ATOM      9  C   UNL     1      53.218 140.365   1.358  1.00  0.00     0.000 C 
BRANCH   9  10
ATOM     10  C   UNL     1      52.001 140.103   2.271  1.00  0.00     0.000 C 
BRANCH  10  11
ATOM     11  C   UNL     1      50.964 139.147   1.658  1.00  0.00     0.000 C 
BRANCH  11  12
ATOM     12  C   UNL     1      51.528 138.311   0.500  1.00  0.00     0.000 C 
BRANCH  12  13
ATOM     13  C   UNL     1      50.404 137.601  -0.265  1.00  0.00     0.006 C 
BRANCH  13  14
ATOM     14  C   UNL     1      50.435 136.091  -0.011  1.00  0.00     0.053 C 
BRANCH  14  15
ATOM     15  C   UNL     1      49.120 135.612   0.521  1.00  0.00     0.041 C 
ATOM     16  O   UNL     1      48.754 134.421   0.332  1.00  0.00    -0.550 OA
ATOM     17  O   UNL     1      48.291 136.483   1.217  1.00  0.00    -0.550 OA
ENDBRANCH  14  15
ENDBRANCH  13  14
ENDBRANCH  12  13
ENDBRANCH  11  12
ENDBRANCH  10  11
ENDBRANCH   9  10
ENDBRANCH   8   9
ENDBRANCH   7   8
ENDBRANCH   6   7
ENDBRANCH   5   6
ENDBRANCH   4   5
ENDBRANCH   3   4
ENDBRANCH   2   3
ENDBRANCH   1   2
BRANCH   1  18
ATOM     18  C   UNL     1      58.038 137.900  -4.788  1.00  0.00     0.000 C 
BRANCH  18  19
ATOM     19  C   UNL     1      58.670 137.685  -6.180  1.00  0.00     0.000 C 
BRANCH  19  20
ATOM     20  C   UNL     1      60.053 137.011  -6.172  1.00  0.00     0.000 C 
BRANCH  20  21
ATOM     21  C   UNL     1      60.060 135.548  -5.688  1.00  0.00     0.000 C 
BRANCH  21  22
ATOM     22  C   UNL     1      61.476 134.967  -5.478  1.00  0.00     0.000 C 
BRANCH  22  23
ATOM     23  C   UNL     1      61.890 134.006  -6.606  1.00  0.00     0.000 C 
BRANCH  23  24
ATOM     24  C   UNL     1      61.391 132.571  -6.378  1.00  0.00    -0.000 C 
BRANCH  24  25
ATOM     25  C   UNL     1      61.637 131.659  -7.588  1.00  0.00    -0.000 C 
BRANCH  25  26
ATOM     26  C   UNL     1      63.108 131.703  -8.021  1.00  0.00    -0.000 C 
BRANCH  26  27
ATOM     27  C   UNL     1      63.692 130.286  -8.124  1.00  0.00    -0.000 C 
BRANCH  27  28
ATOM     28  C   UNL     1      63.686 129.543  -6.780  1.00  0.00    -0.000 C 
BRANCH  28  29
ATOM     29  C   UNL     1      63.305 128.058  -6.925  1.00  0.00    -0.000 C 
BRANCH  29  30
ATOM     30  C   UNL     1      61.954 127.875  -7.649  1.00  0.00    -0.000 C 
BRANCH  30  31
ATOM     31  C   UNL     1      60.840 128.785  -7.105  1.00  0.00    -0.003 C 
ATOM     32  C   UNL     1      60.528 128.537  -5.631  1.00  0.00     0.004 C 
ENDBRANCH  30  31
ENDBRANCH  29  30
ENDBRANCH  28  29
ENDBRANCH  27  28
ENDBRANCH  26  27
ENDBRANCH  25  26
ENDBRANCH  24  25
ENDBRANCH  23  24
ENDBRANCH  22  23
ENDBRANCH  21  22
ENDBRANCH  20  21
ENDBRANCH  19  20
ENDBRANCH  18  19
ENDBRANCH   1  18
TORSDOF 28
ENDMDL
MODEL 4
REMARK VINA RESULT:    22.886      1.831      3.325
REMARK INTER + INTRA:          60.914
REMARK INTER:                  61.404
REMARK INTRA:                  -0.490
REMARK UNBOUND:                 0.566
REMARK SMILES CCCCCCCCCCCCCCCCCCCCCCCCCCCCCC(=O)[O-]
REMARK SMILES IDX 16 1 17 2 18 3 19 4 20 5 21 6 22 7 23 8 24 9 25 10 26 11
REMARK SMILES IDX 27 12 28 13 29 14 30 15 31 16 32 17 15 18 14 19 13 20 12 21
REMARK SMILES IDX 11 22 10 23 9 24 8 25 7 26 6 27 5 28 4 29 3 30 2 31 1 32
REMARK H PARENT
REMARK Flexibility Score: inf
ROOT
ATOM      1  C   UNL     1      57.390 136.964  -4.335  1.00  0.00     0.000 C 
ENDROOT
BRANCH   1   2
ATOM      2  C   UNL     1      56.784 138.335  -4.001  1.00  0.00     0.000 C 
BRANCH   2   3
ATOM      3  C   UNL     1      56.440 138.431  -2.507  1.00  0.00     0.000 C 
BRANCH   3   4
ATOM      4  C   UNL     1      56.951 139.728  -1.852  1.00  0.00     0.000 C 
BRANCH   4   5
ATOM      5  C   UNL     1      56.224 141.013  -2.292  1.00  0.00     0.000 C 
BRANCH   5   6
ATOM      6  C   UNL     1      55.766 141.879  -1.106  1.00  0.00     0.000 C 
BRANCH   6   7
ATOM      7  C   UNL     1      54.542 141.284  -0.387  1.00  0.00     0.000 C 
BRANCH   7   8
ATOM      8  C   UNL     1      54.527 139.749  -0.431  1.00  0.00     0.000 C 
BRANCH   8   9
ATOM      9  C   UNL     1      53.819 139.168   0.804  1.00  0.00     0.000 C 
BRANCH   9  10
ATOM     10  C   UNL     1      52.526 139.937   1.148  1.00  0.00     0.000 C 
BRANCH  10  11
ATOM     11  C   UNL     1      51.259 139.066   1.102  1.00  0.00     0.000 C 
BRANCH  11  12
ATOM     12  C   UNL     1      51.043 138.392  -0.261  1.00  0.00     0.000 C 
BRANCH  12  13
ATOM     13  C   UNL     1      50.549 136.951  -0.090  1.00  0.00     0.006 C 
BRANCH  13  14
ATOM     14  C   UNL     1      49.501 136.857   1.023  1.00  0.00     0.053 C 
BRANCH  14  15
ATOM     15  C   UNL     1      48.403 135.912   0.645  1.00  0.00     0.041 C 
ATOM     16  O   UNL     1      48.676 134.776   0.175  1.00  0.00    -0.550 OA
ATOM     17  O   UNL     1      47.075 136.290   0.802  1.00  0.00    -0.550 OA
ENDBRANCH  14  15
ENDBRANCH  13  14
ENDBRANCH  12  13
ENDBRANCH  11  12
ENDBRANCH  10  11
ENDBRANCH   9  10
ENDBRANCH   8   9
ENDBRANCH   7   8
ENDBRANCH   6   7
ENDBRANCH   5   6
ENDBRANCH   4   5
ENDBRANCH   3   4
ENDBRANCH   2   3
ENDBRANCH   1   2
BRANCH   1  18
ATOM     18  C   UNL     1      58.352 137.013  -5.535  1.00  0.00     0.000 C 
BRANCH  18  19
ATOM     19  C   UNL     1      59.794 136.553  -5.234  1.00  0.00     0.000 C 
BRANCH  19  20
ATOM     20  C   UNL     1      60.027 135.034  -5.321  1.00  0.00     0.000 C 
BRANCH  20  21
ATOM     21  C   UNL     1      61.191 134.606  -6.235  1.00  0.00     0.000 C 
BRANCH  21  22
ATOM     22  C   UNL     1      61.049 133.174  -6.798  1.00  0.00     0.000 C 
BRANCH  22  23
ATOM     23  C   UNL     1      61.851 132.970  -8.095  1.00  0.00     0.000 C 
BRANCH  23  24
ATOM     24  C   UNL     1      62.611 131.635  -8.120  1.00  0.00    -0.000 C 
BRANCH  24  25
ATOM     25  C   UNL     1      62.641 130.946  -6.748  1.00  0.00    -0.000 C 
BRANCH  25  26
ATOM     26  C   UNL     1      63.037 129.470  -6.882  1.00  0.00    -0.000 C 
BRANCH  26  27
ATOM     27  C   UNL     1      62.121 128.745  -7.878  1.00  0.00    -0.000 C 
BRANCH  27  28
ATOM     28  C   UNL     1      60.726 128.459  -7.302  1.00  0.00    -0.000 C 
BRANCH  28  29
ATOM     29  C   UNL     1      60.777 127.950  -5.850  1.00  0.00    -0.000 C 
BRANCH  29  30
ATOM     30  C   UNL     1      60.370 129.042  -4.838  1.00  0.00    -0.000 C 
BRANCH  30  31
ATOM     31  C   UNL     1      59.573 128.499  -3.640  1.00  0.00    -0.003 C 
ATOM     32  C   UNL     1      58.606 129.524  -3.049  1.00  0.00     0.004 C 
ENDBRANCH  30  31
ENDBRANCH  29  30
ENDBRANCH  28  29
ENDBRANCH  27  28
ENDBRANCH  26  27
ENDBRANCH  25  26
ENDBRANCH  24  25
ENDBRANCH  23  24
ENDBRANCH  22  23
ENDBRANCH  21  22
ENDBRANCH  20  21
ENDBRANCH  19  20
ENDBRANCH  18  19
ENDBRANCH   1  18
TORSDOF 28
ENDMDL
MODEL 5
REMARK VINA RESULT:    23.935      1.446      2.742
REMARK INTER + INTRA:          63.680
REMARK INTER:                  65.474
REMARK INTRA:                  -1.794
REMARK UNBOUND:                 0.566
REMARK SMILES CCCCCCCCCCCCCCCCCCCCCCCCCCCCCC(=O)[O-]
REMARK SMILES IDX 16 1 17 2 18 3 19 4 20 5 21 6 22 7 23 8 24 9 25 10 26 11
REMARK SMILES IDX 27 12 28 13 29 14 30 15 31 16 32 17 15 18 14 19 13 20 12 21
REMARK SMILES IDX 11 22 10 23 9 24 8 25 7 26 6 27 5 28 4 29 3 30 2 31 1 32
REMARK H PARENT
REMARK Flexibility Score: inf
ROOT
ATOM      1  C   UNL     1      57.590 138.032  -4.850  1.00  0.00     0.000 C 
ENDROOT
BRANCH   1   2
ATOM      2  C   UNL     1      56.919 137.228  -3.727  1.00  0.00     0.000 C 
BRANCH   2   3
ATOM      3  C   UNL     1      56.060 138.140  -2.839  1.00  0.00     0.000 C 
BRANCH   3   4
ATOM      4  C   UNL     1      55.839 139.538  -3.445  1.00  0.00     0.000 C 
BRANCH   4   5
ATOM      5  C   UNL     1      56.548 140.690  -2.708  1.00  0.00     0.000 C 
BRANCH   5   6
ATOM      6  C   UNL     1      57.203 140.245  -1.389  1.00  0.00     0.000 C 
BRANCH   6   7
ATOM      7  C   UNL     1      56.527 140.878  -0.160  1.00  0.00     0.000 C 
BRANCH   7   8
ATOM      8  C   UNL     1      55.326 141.756  -0.540  1.00  0.00     0.000 C 
BRANCH   8   9
ATOM      9  C   UNL     1      54.001 141.047  -0.218  1.00  0.00     0.000 C 
BRANCH   9  10
ATOM     10  C   UNL     1      54.076 139.527  -0.474  1.00  0.00     0.000 C 
BRANCH  10  11
ATOM     11  C   UNL     1      53.098 138.707   0.383  1.00  0.00     0.000 C 
BRANCH  11  12
ATOM     12  C   UNL     1      52.340 139.559   1.411  1.00  0.00     0.000 C 
BRANCH  12  13
ATOM     13  C   UNL     1      50.976 138.942   1.739  1.00  0.00     0.006 C 
BRANCH  13  14
ATOM     14  C   UNL     1      50.965 137.440   1.439  1.00  0.00     0.053 C 
BRANCH  14  15
ATOM     15  C   UNL     1      49.917 137.104   0.424  1.00  0.00     0.041 C 
ATOM     16  O   UNL     1      48.883 136.469   0.764  1.00  0.00    -0.550 OA
ATOM     17  O   UNL     1      50.085 137.485  -0.902  1.00  0.00    -0.550 OA
ENDBRANCH  14  15
ENDBRANCH  13  14
ENDBRANCH  12  13
ENDBRANCH  11  12
ENDBRANCH  10  11
ENDBRANCH   9  10
ENDBRANCH   8   9
ENDBRANCH   7   8
ENDBRANCH   6   7
ENDBRANCH   5   6
ENDBRANCH   4   5
ENDBRANCH   3   4
ENDBRANCH   2   3
ENDBRANCH   1   2
BRANCH   1  18
ATOM     18  C   UNL     1      58.202 137.137  -5.942  1.00  0.00     0.000 C 
BRANCH  18  19
ATOM     19  C   UNL     1      58.940 137.893  -7.067  1.00  0.00     0.000 C 
BRANCH  19  20
ATOM     20  C   UNL     1      60.145 138.734  -6.607  1.00  0.00     0.000 C 
BRANCH  20  21
ATOM     21  C   UNL     1      61.522 138.160  -6.992  1.00  0.00     0.000 C 
BRANCH  21  22
ATOM     22  C   UNL     1      61.521 136.633  -7.223  1.00  0.00     0.000 C 
BRANCH  22  23
ATOM     23  C   UNL     1      61.693 135.841  -5.915  1.00  0.00     0.000 C 
BRANCH  23  24
ATOM     24  C   UNL     1      61.302 134.362  -6.061  1.00  0.00    -0.000 C 
BRANCH  24  25
ATOM     25  C   UNL     1      62.126 133.635  -7.133  1.00  0.00    -0.000 C 
BRANCH  25  26
ATOM     26  C   UNL     1      61.311 132.511  -7.785  1.00  0.00    -0.000 C 
BRANCH  26  27
ATOM     27  C   UNL     1      61.816 131.133  -7.330  1.00  0.00    -0.000 C 
BRANCH  27  28
ATOM     28  C   UNL     1      63.042 130.659  -8.125  1.00  0.00    -0.000 C 
BRANCH  28  29
ATOM     29  C   UNL     1      63.452 129.216  -7.778  1.00  0.00    -0.000 C 
BRANCH  29  30
ATOM     30  C   UNL     1      64.538 129.170  -6.683  1.00  0.00    -0.000 C 
BRANCH  30  31
ATOM     31  C   UNL     1      65.911 129.674  -7.161  1.00  0.00    -0.003 C 
ATOM     32  C   UNL     1      67.051 128.713  -6.830  1.00  0.00     0.004 C 
ENDBRANCH  30  31
ENDBRANCH  29  30
ENDBRANCH  28  29
ENDBRANCH  27  28
ENDBRANCH  26  27
ENDBRANCH  25  26
ENDBRANCH  24  25
ENDBRANCH  23  24
ENDBRANCH  22  23
ENDBRANCH  21  22
ENDBRANCH  20  21
ENDBRANCH  19  20
ENDBRANCH  18  19
ENDBRANCH   1  18
TORSDOF 28
ENDMDL
MODEL 6
REMARK VINA RESULT:    23.966      3.128     13.696
REMARK INTER + INTRA:          63.762
REMARK INTER:                  65.694
REMARK INTRA:                  -1.931
REMARK UNBOUND:                 0.566
REMARK SMILES CCCCCCCCCCCCCCCCCCCCCCCCCCCCCC(=O)[O-]
REMARK SMILES IDX 16 1 17 2 18 3 19 4 20 5 21 6 22 7 23 8 24 9 25 10 26 11
REMARK SMILES IDX 27 12 28 13 29 14 30 15 31 16 32 17 15 18 14 19 13 20 12 21
REMARK SMILES IDX 11 22 10 23 9 24 8 25 7 26 6 27 5 28 4 29 3 30 2 31 1 32
REMARK H PARENT
REMARK Flexibility Score: inf
ROOT
ATOM      1  C   UNL     1      58.641 135.725  -5.062  1.00  0.00     0.000 C 
ENDROOT
BRANCH   1   2
ATOM      2  C   UNL     1      60.112 135.334  -4.856  1.00  0.00     0.000 C 
BRANCH   2   3
ATOM      3  C   UNL     1      60.624 134.491  -6.033  1.00  0.00     0.000 C 
BRANCH   3   4
ATOM      4  C   UNL     1      61.749 133.518  -5.634  1.00  0.00     0.000 C 
BRANCH   4   5
ATOM      5  C   UNL     1      61.347 132.031  -5.602  1.00  0.00     0.000 C 
BRANCH   5   6
ATOM      6  C   UNL     1      62.487 131.092  -6.030  1.00  0.00     0.000 C 
BRANCH   6   7
ATOM      7  C   UNL     1      62.392 130.697  -7.514  1.00  0.00     0.000 C 
BRANCH   7   8
ATOM      8  C   UNL     1      62.953 129.292  -7.782  1.00  0.00     0.000 C 
BRANCH   8   9
ATOM      9  C   UNL     1      62.084 128.214  -7.117  1.00  0.00     0.000 C 
BRANCH   9  10
ATOM     10  C   UNL     1      60.576 128.484  -7.307  1.00  0.00     0.000 C 
BRANCH  10  11
ATOM     11  C   UNL     1      59.760 128.370  -6.008  1.00  0.00     0.000 C 
BRANCH  11  12
ATOM     12  C   UNL     1      60.593 127.877  -4.816  1.00  0.00     0.000 C 
BRANCH  12  13
ATOM     13  C   UNL     1      60.468 128.833  -3.624  1.00  0.00     0.006 C 
BRANCH  13  14
ATOM     14  C   UNL     1      59.106 129.533  -3.621  1.00  0.00     0.053 C 
BRANCH  14  15
ATOM     15  C   UNL     1      59.007 130.505  -2.486  1.00  0.00     0.041 C 
ATOM     16  O   UNL     1      59.741 130.373  -1.471  1.00  0.00    -0.550 OA
ATOM     17  O   UNL     1      58.095 131.552  -2.544  1.00  0.00    -0.550 OA
ENDBRANCH  14  15
ENDBRANCH  13  14
ENDBRANCH  12  13
ENDBRANCH  11  12
ENDBRANCH  10  11
ENDBRANCH   9  10
ENDBRANCH   8   9
ENDBRANCH   7   8
ENDBRANCH   6   7
ENDBRANCH   5   6
ENDBRANCH   4   5
ENDBRANCH   3   4
ENDBRANCH   2   3
ENDBRANCH   1   2
BRANCH   1  18
ATOM     18  C   UNL     1      58.465 137.201  -5.458  1.00  0.00     0.000 C 
BRANCH  18  19
ATOM     19  C   UNL     1      57.096 137.815  -5.096  1.00  0.00     0.000 C 
BRANCH  19  20
ATOM     20  C   UNL     1      56.895 138.127  -3.602  1.00  0.00     0.000 C 
BRANCH  20  21
ATOM     21  C   UNL     1      56.965 139.622  -3.236  1.00  0.00     0.000 C 
BRANCH  21  22
ATOM     22  C   UNL     1      55.736 140.131  -2.450  1.00  0.00     0.000 C 
BRANCH  22  23
ATOM     23  C   UNL     1      56.120 140.741  -1.091  1.00  0.00     0.000 C 
BRANCH  23  24
ATOM     24  C   UNL     1      55.015 141.638  -0.510  1.00  0.00    -0.000 C 
BRANCH  24  25
ATOM     25  C   UNL     1      54.154 140.914   0.535  1.00  0.00    -0.000 C 
BRANCH  25  26
ATOM     26  C   UNL     1      53.527 139.643  -0.052  1.00  0.00    -0.000 C 
BRANCH  26  27
ATOM     27  C   UNL     1      53.346 138.570   1.031  1.00  0.00    -0.000 C 
BRANCH  27  28
ATOM     28  C   UNL     1      51.869 138.248   1.306  1.00  0.00    -0.000 C 
BRANCH  28  29
ATOM     29  C   UNL     1      50.994 138.351   0.043  1.00  0.00    -0.000 C 
BRANCH  29  30
ATOM     30  C   UNL     1      49.506 138.075   0.345  1.00  0.00    -0.000 C 
BRANCH  30  31
ATOM     31  C   UNL     1      49.030 136.694  -0.137  1.00  0.00    -0.003 C 
ATOM     32  C   UNL     1      49.132 135.615   0.939  1.00  0.00     0.004 C 
ENDBRANCH  30  31
ENDBRANCH  29  30
ENDBRANCH  28  29
ENDBRANCH  27  28
ENDBRANCH  26  27
ENDBRANCH  25  26
ENDBRANCH  24  25
ENDBRANCH  23  24
ENDBRANCH  22  23
ENDBRANCH  21  22
ENDBRANCH  20  21
ENDBRANCH  19  20
ENDBRANCH  18  19
ENDBRANCH   1  18
TORSDOF 28
ENDMDL
