MODEL 1
REMARK VINA RESULT:    -1.078      0.000      0.000
REMARK INTER + INTRA:          -3.012
REMARK INTER:                  -2.087
REMARK INTRA:                  -0.926
REMARK UNBOUND:                -0.926
REMARK SMILES CCCCCCCCCCCCCCCCCC(=O)[O-]
REMARK SMILES IDX 10 1 11 2 12 3 13 4 14 5 15 6 16 7 17 8 18 9 19 10 20 11
REMARK SMILES IDX 9 12 8 13 7 14 6 15 5 16 4 17 3 18 2 19 1 20
REMARK H PARENT
REMARK Flexibility Score: inf
ROOT
ATOM      1  C   UNL     1      52.327 147.440  -1.768  1.00  0.00     0.000 C 
ENDROOT
BRANCH   1   2
ATOM      2  C   UNL     1      52.513 148.125  -3.133  1.00  0.00     0.000 C 
BRANCH   2   3
ATOM      3  C   UNL     1      53.973 148.094  -3.615  1.00  0.00     0.000 C 
BRANCH   3   4
ATOM      4  C   UNL     1      54.093 147.889  -5.133  1.00  0.00     0.000 C 
BRANCH   4   5
ATOM      5  C   UNL     1      52.708 147.827  -5.792  1.00  0.00     0.000 C 
BRANCH   5   6
ATOM      6  C   UNL     1      52.783 147.954  -7.330  1.00  0.00     0.000 C 
BRANCH   6   7
ATOM      7  C   UNL     1      51.418 147.802  -8.028  1.00  0.00     0.006 C 
BRANCH   7   8
ATOM      8  C   UNL     1      50.216 148.123  -7.130  1.00  0.00     0.053 C 
BRANCH   8   9
ATOM      9  C   UNL     1      48.969 147.435  -7.597  1.00  0.00     0.041 C 
ATOM     10  O   UNL     1      47.910 148.093  -7.766  1.00  0.00    -0.550 OA
ATOM     11  O   UNL     1      48.979 146.071  -7.862  1.00  0.00    -0.550 OA
ENDBRANCH   8   9
ENDBRANCH   7   8
ENDBRANCH   6   7
ENDBRANCH   5   6
ENDBRANCH   4   5
ENDBRANCH   3   4
ENDBRANCH   2   3
ENDBRANCH   1   2
BRANCH   1  12
ATOM     12  C   UNL     1      53.657 146.958  -1.166  1.00  0.00     0.000 C 
BRANCH  12  13
ATOM     13  C   UNL     1      53.638 146.924   0.370  1.00  0.00    -0.000 C 
BRANCH  13  14
ATOM     14  C   UNL     1      52.592 147.901   0.928  1.00  0.00    -0.000 C 
BRANCH  14  15
ATOM     15  C   UNL     1      51.297 147.204   1.381  1.00  0.00    -0.000 C 
BRANCH  15  16
ATOM     16  C   UNL     1      50.260 148.124   2.052  1.00  0.00    -0.000 C 
BRANCH  16  17
ATOM     17  C   UNL     1      48.821 147.840   1.589  1.00  0.00    -0.000 C 
BRANCH  17  18
ATOM     18  C   UNL     1      48.656 147.967   0.067  1.00  0.00    -0.000 C 
BRANCH  18  19
ATOM     19  C   UNL     1      47.187 147.903  -0.378  1.00  0.00    -0.003 C 
ATOM     20  C   UNL     1      47.041 147.119  -1.680  1.00  0.00     0.004 C 
ENDBRANCH  18  19
ENDBRANCH  17  18
ENDBRANCH  16  17
ENDBRANCH  15  16
ENDBRANCH  14  15
ENDBRANCH  13  14
ENDBRANCH  12  13
ENDBRANCH   1  12
TORSDOF 16
ENDMDL
MODEL 2
REMARK VINA RESULT:     1.729      2.098      6.559
REMARK INTER + INTRA:           2.420
REMARK INTER:                   3.145
REMARK INTRA:                  -0.724
REMARK UNBOUND:                -0.926
REMARK SMILES CCCCCCCCCCCCCCCCCC(=O)[O-]
REMARK SMILES IDX 10 1 11 2 12 3 13 4 14 5 15 6 16 7 17 8 18 9 19 10 20 11
REMARK SMILES IDX 9 12 8 13 7 14 6 15 5 16 4 17 3 18 2 19 1 20
REMARK H PARENT
REMARK Flexibility Score: inf
ROOT
ATOM      1  C   UNL     1      54.453 146.375  -0.730  1.00  0.00     0.000 C 
ENDROOT
BRANCH   1   2
ATOM      2  C   UNL     1      53.419 147.497  -0.532  1.00  0.00     0.000 C 
BRANCH   2   3
ATOM      3  C   UNL     1      52.148 147.009   0.182  1.00  0.00     0.000 C 
BRANCH   3   4
ATOM      4  C   UNL     1      52.079 147.462   1.649  1.00  0.00     0.000 C 
BRANCH   4   5
ATOM      5  C   UNL     1      50.632 147.764   2.064  1.00  0.00     0.000 C 
BRANCH   5   6
ATOM      6  C   UNL     1      49.737 148.122   0.858  1.00  0.00     0.000 C 
BRANCH   6   7
ATOM      7  C   UNL     1      48.573 147.136   0.640  1.00  0.00     0.006 C 
BRANCH   7   8
ATOM      8  C   UNL     1      47.483 147.652  -0.309  1.00  0.00     0.053 C 
BRANCH   8   9
ATOM      9  C   UNL     1      47.851 147.451  -1.747  1.00  0.00     0.041 C 
ATOM     10  O   UNL     1      47.168 146.681  -2.472  1.00  0.00    -0.550 OA
ATOM     11  O   UNL     1      48.936 148.125  -2.293  1.00  0.00    -0.550 OA
ENDBRANCH   8   9
ENDBRANCH   7   8
ENDBRANCH   6   7
ENDBRANCH   5   6
ENDBRANCH   4   5
ENDBRANCH   3   4
ENDBRANCH   2   3
ENDBRANCH   1   2
BRANCH   1  12
ATOM     12  C   UNL     1      55.740 146.874  -1.406  1.00  0.00     0.000 C 
BRANCH  12  13
ATOM     13  C   UNL     1      55.466 147.698  -2.674  1.00  0.00    -0.000 C 
BRANCH  13  14
ATOM     14  C   UNL     1      54.795 146.836  -3.753  1.00  0.00    -0.000 C 
BRANCH  14  15
ATOM     15  C   UNL     1      54.886 147.454  -5.160  1.00  0.00    -0.000 C 
BRANCH  15  16
ATOM     16  C   UNL     1      53.593 148.119  -5.667  1.00  0.00    -0.000 C 
BRANCH  16  17
ATOM     17  C   UNL     1      52.521 147.099  -6.089  1.00  0.00    -0.000 C 
BRANCH  17  18
ATOM     18  C   UNL     1      51.121 147.725  -6.195  1.00  0.00    -0.000 C 
BRANCH  18  19
ATOM     19  C   UNL     1      50.584 147.735  -7.634  1.00  0.00    -0.003 C 
ATOM     20  C   UNL     1      49.063 147.868  -7.651  1.00  0.00     0.004 C 
ENDBRANCH  18  19
ENDBRANCH  17  18
ENDBRANCH  16  17
ENDBRANCH  15  16
ENDBRANCH  14  15
ENDBRANCH  13  14
ENDBRANCH  12  13
ENDBRANCH   1  12
TORSDOF 16
ENDMDL
