MODEL 1
REMARK VINA RESULT:    -3.908      0.000      0.000
REMARK INTER + INTRA:          -4.984
REMARK INTER:                  -4.822
REMARK INTRA:                  -0.162
REMARK UNBOUND:                -0.162
REMARK SMILES CCCCCC(=O)[O-]
REMARK SMILES IDX 4 1 5 2 6 3 7 4 8 5 3 6 2 7 1 8
REMARK H PARENT
REMARK Flexibility Score: inf
ROOT
ATOM      1  C   UNL     1     -99.443 -60.765 -66.658  1.00  0.00     0.006 C 
ENDROOT
BRANCH   1   2
ATOM      2  C   UNL     1     -99.956 -61.277 -65.306  1.00  0.00     0.053 C 
BRANCH   2   3
ATOM      3  C   UNL     1     -98.899 -62.036 -64.563  1.00  0.00     0.041 C 
ATOM      4  O   UNL     1     -97.912 -61.430 -64.069  1.00  0.00    -0.550 OA
ATOM      5  O   UNL     1     -99.021 -63.409 -64.390  1.00  0.00    -0.550 OA
ENDBRANCH   2   3
ENDBRANCH   1   2
BRANCH   1   6
ATOM      6  C   UNL     1     -99.310 -59.235 -66.688  1.00  0.00     0.000 C 
BRANCH   6   7
ATOM      7  C   UNL     1     -97.907 -58.815 -67.143  1.00  0.00    -0.003 C 
ATOM      8  C   UNL     1     -97.142 -58.133 -66.013  1.00  0.00     0.004 C 
ENDBRANCH   6   7
ENDBRANCH   1   6
TORSDOF 4
ENDMDL
MODEL 2
REMARK VINA RESULT:    -3.835      2.460      4.121
REMARK INTER + INTRA:          -4.894
REMARK INTER:                  -4.807
REMARK INTRA:                  -0.087
REMARK UNBOUND:                -0.162
REMARK SMILES CCCCCC(=O)[O-]
REMARK SMILES IDX 4 1 5 2 6 3 7 4 8 5 3 6 2 7 1 8
REMARK H PARENT
REMARK Flexibility Score: inf
ROOT
ATOM      1  C   UNL     1     -99.420 -60.932 -66.576  1.00  0.00     0.006 C 
ENDROOT
BRANCH   1   2
ATOM      2  C   UNL     1     -99.439 -59.403 -66.690  1.00  0.00     0.053 C 
BRANCH   2   3
ATOM      3  C   UNL     1     -98.058 -58.840 -66.828  1.00  0.00     0.041 C 
ATOM      4  O   UNL     1     -97.419 -58.980 -67.904  1.00  0.00    -0.550 OA
ATOM      5  O   UNL     1     -97.488 -58.131 -65.777  1.00  0.00    -0.550 OA
ENDBRANCH   2   3
ENDBRANCH   1   2
BRANCH   1   6
ATOM      6  C   UNL     1     -99.899 -61.418 -65.199  1.00  0.00     0.000 C 
BRANCH   6   7
ATOM      7  C   UNL     1     -98.732 -61.978 -64.378  1.00  0.00    -0.003 C 
ATOM      8  C   UNL     1     -98.937 -63.458 -64.068  1.00  0.00     0.004 C 
ENDBRANCH   6   7
ENDBRANCH   1   6
TORSDOF 4
ENDMDL
MODEL 3
REMARK VINA RESULT:    -3.759      2.815      4.192
REMARK INTER + INTRA:          -4.800
REMARK INTER:                  -4.696
REMARK INTRA:                  -0.104
REMARK UNBOUND:                -0.162
REMARK SMILES CCCCCC(=O)[O-]
REMARK SMILES IDX 4 1 5 2 6 3 7 4 8 5 3 6 2 7 1 8
REMARK H PARENT
REMARK Flexibility Score: inf
ROOT
ATOM      1  C   UNL     1     -99.254 -62.253 -65.913  1.00  0.00     0.006 C 
ENDROOT
BRANCH   1   2
ATOM      2  C   UNL     1    -100.223 -61.495 -66.830  1.00  0.00     0.053 C 
BRANCH   2   3
ATOM      3  C   UNL     1    -100.347 -60.055 -66.437  1.00  0.00     0.041 C 
ATOM      4  O   UNL     1     -99.404 -59.252 -66.663  1.00  0.00    -0.550 OA
ATOM      5  O   UNL     1    -101.518 -59.594 -65.848  1.00  0.00    -0.550 OA
ENDBRANCH   2   3
ENDBRANCH   1   2
BRANCH   1   6
ATOM      6  C   UNL     1     -99.583 -62.051 -64.426  1.00  0.00     0.000 C 
BRANCH   6   7
ATOM      7  C   UNL     1     -99.540 -63.384 -63.669  1.00  0.00    -0.003 C 
ATOM      8  C   UNL     1     -98.124 -63.949 -63.628  1.00  0.00     0.004 C 
ENDBRANCH   6   7
ENDBRANCH   1   6
TORSDOF 4
ENDMDL
MODEL 4
REMARK VINA RESULT:    -3.748      1.185      1.748
REMARK INTER + INTRA:          -4.787
REMARK INTER:                  -4.686
REMARK INTRA:                  -0.100
REMARK UNBOUND:                -0.162
REMARK SMILES CCCCCC(=O)[O-]
REMARK SMILES IDX 4 1 5 2 6 3 7 4 8 5 3 6 2 7 1 8
REMARK H PARENT
REMARK Flexibility Score: inf
ROOT
ATOM      1  C   UNL     1     -99.874 -61.544 -65.310  1.00  0.00     0.006 C 
ENDROOT
BRANCH   1   2
ATOM      2  C   UNL     1     -98.653 -61.823 -64.425  1.00  0.00     0.053 C 
BRANCH   2   3
ATOM      3  C   UNL     1     -98.767 -63.140 -63.721  1.00  0.00     0.041 C 
ATOM      4  O   UNL     1     -97.735 -63.814 -63.463  1.00  0.00    -0.550 OA
ATOM      5  O   UNL     1    -100.012 -63.608 -63.321  1.00  0.00    -0.550 OA
ENDBRANCH   2   3
ENDBRANCH   1   2
BRANCH   1   6
ATOM      6  C   UNL     1     -99.479 -60.991 -66.689  1.00  0.00     0.000 C 
BRANCH   6   7
ATOM      7  C   UNL     1     -99.517 -59.458 -66.696  1.00  0.00    -0.003 C 
ATOM      8  C   UNL     1     -98.143 -58.875 -67.015  1.00  0.00     0.004 C 
ENDBRANCH   6   7
ENDBRANCH   1   6
TORSDOF 4
ENDMDL
MODEL 5
REMARK VINA RESULT:    -3.684      2.907      4.111
REMARK INTER + INTRA:          -4.708
REMARK INTER:                  -4.549
REMARK INTRA:                  -0.159
REMARK UNBOUND:                -0.162
REMARK SMILES CCCCCC(=O)[O-]
REMARK SMILES IDX 4 1 5 2 6 3 7 4 8 5 3 6 2 7 1 8
REMARK H PARENT
REMARK Flexibility Score: inf
ROOT
ATOM      1  C   UNL     1    -100.101 -59.615 -66.558  1.00  0.00     0.006 C 
ENDROOT
BRANCH   1   2
ATOM      2  C   UNL     1     -98.649 -59.823 -66.106  1.00  0.00     0.053 C 
BRANCH   2   3
ATOM      3  C   UNL     1     -97.735 -58.785 -66.682  1.00  0.00     0.041 C 
ATOM      4  O   UNL     1     -97.446 -58.804 -67.908  1.00  0.00    -0.550 OA
ATOM      5  O   UNL     1     -97.228 -57.778 -65.871  1.00  0.00    -0.550 OA
ENDBRANCH   2   3
ENDBRANCH   1   2
BRANCH   1   6
ATOM      6  C   UNL     1    -100.681 -60.864 -67.241  1.00  0.00     0.000 C 
BRANCH   6   7
ATOM      7  C   UNL     1     -99.772 -62.079 -67.026  1.00  0.00    -0.003 C 
ATOM      8  C   UNL     1     -99.679 -62.929 -68.290  1.00  0.00     0.004 C 
ENDBRANCH   6   7
ENDBRANCH   1   6
TORSDOF 4
ENDMDL
MODEL 6
REMARK VINA RESULT:    -3.658      1.843      2.460
REMARK INTER + INTRA:          -4.675
REMARK INTER:                  -4.576
REMARK INTRA:                  -0.099
REMARK UNBOUND:                -0.162
REMARK SMILES CCCCCC(=O)[O-]
REMARK SMILES IDX 4 1 5 2 6 3 7 4 8 5 3 6 2 7 1 8
REMARK H PARENT
REMARK Flexibility Score: inf
ROOT
ATOM      1  C   UNL     1     -98.856 -58.954 -67.032  1.00  0.00     0.006 C 
ENDROOT
BRANCH   1   2
ATOM      2  C   UNL     1     -99.164 -60.450 -66.884  1.00  0.00     0.053 C 
BRANCH   2   3
ATOM      3  C   UNL     1    -100.212 -60.700 -65.844  1.00  0.00     0.041 C 
ATOM      4  O   UNL     1    -100.004 -61.530 -64.920  1.00  0.00    -0.550 OA
ATOM      5  O   UNL     1    -101.407 -59.992 -65.877  1.00  0.00    -0.550 OA
ENDBRANCH   2   3
ENDBRANCH   1   2
BRANCH   1   6
ATOM      6  C   UNL     1     -97.358 -58.651 -66.873  1.00  0.00     0.000 C 
BRANCH   6   7
ATOM      7  C   UNL     1     -97.108 -57.743 -65.663  1.00  0.00    -0.003 C 
ATOM      8  C   UNL     1     -96.392 -58.497 -64.546  1.00  0.00     0.004 C 
ENDBRANCH   6   7
ENDBRANCH   1   6
TORSDOF 4
ENDMDL
MODEL 7
REMARK VINA RESULT:    -3.424      3.176      4.304
REMARK INTER + INTRA:          -4.387
REMARK INTER:                  -4.275
REMARK INTRA:                  -0.112
REMARK UNBOUND:                -0.162
REMARK SMILES CCCCCC(=O)[O-]
REMARK SMILES IDX 4 1 5 2 6 3 7 4 8 5 3 6 2 7 1 8
REMARK H PARENT
REMARK Flexibility Score: inf
ROOT
ATOM      1  C   UNL     1     -99.401 -61.493 -65.079  1.00  0.00     0.006 C 
ENDROOT
BRANCH   1   2
ATOM      2  C   UNL     1     -99.611 -62.579 -66.142  1.00  0.00     0.053 C 
BRANCH   2   3
ATOM      3  C   UNL     1    -100.030 -61.996 -67.457  1.00  0.00     0.041 C 
ATOM      4  O   UNL     1    -100.760 -60.971 -67.492  1.00  0.00    -0.550 OA
ATOM      5  O   UNL     1     -99.586 -62.565 -68.643  1.00  0.00    -0.550 OA
ENDBRANCH   2   3
ENDBRANCH   1   2
BRANCH   1   6
ATOM      6  C   UNL     1     -98.559 -61.993 -63.895  1.00  0.00     0.000 C 
BRANCH   6   7
ATOM      7  C   UNL     1     -98.683 -63.512 -63.737  1.00  0.00    -0.003 C 
ATOM      8  C   UNL     1     -97.372 -64.125 -63.252  1.00  0.00     0.004 C 
ENDBRANCH   6   7
ENDBRANCH   1   6
TORSDOF 4
ENDMDL
MODEL 8
REMARK VINA RESULT:    -3.213      1.890      2.767
REMARK INTER + INTRA:          -4.126
REMARK INTER:                  -4.002
REMARK INTRA:                  -0.124
REMARK UNBOUND:                -0.162
REMARK SMILES CCCCCC(=O)[O-]
REMARK SMILES IDX 4 1 5 2 6 3 7 4 8 5 3 6 2 7 1 8
REMARK H PARENT
REMARK Flexibility Score: inf
ROOT
ATOM      1  C   UNL     1     -99.366 -61.066 -66.025  1.00  0.00     0.006 C 
ENDROOT
BRANCH   1   2
ATOM      2  C   UNL     1     -99.804 -61.764 -64.731  1.00  0.00     0.053 C 
BRANCH   2   3
ATOM      3  C   UNL     1     -98.728 -62.654 -64.189  1.00  0.00     0.041 C 
ATOM      4  O   UNL     1     -97.660 -62.158 -63.741  1.00  0.00    -0.550 OA
ATOM      5  O   UNL     1     -98.918 -64.029 -64.148  1.00  0.00    -0.550 OA
ENDBRANCH   2   3
ENDBRANCH   1   2
BRANCH   1   6
ATOM      6  C   UNL     1    -100.245 -61.458 -67.223  1.00  0.00     0.000 C 
BRANCH   6   7
ATOM      7  C   UNL     1     -99.838 -62.828 -67.777  1.00  0.00    -0.003 C 
ATOM      8  C   UNL     1     -98.844 -62.684 -68.926  1.00  0.00     0.004 C 
ENDBRANCH   6   7
ENDBRANCH   1   6
TORSDOF 4
ENDMDL
MODEL 9
REMARK VINA RESULT:    -3.146      2.228      2.553
REMARK INTER + INTRA:          -4.043
REMARK INTER:                  -4.190
REMARK INTRA:                   0.147
REMARK UNBOUND:                -0.162
REMARK SMILES CCCCCC(=O)[O-]
REMARK SMILES IDX 4 1 5 2 6 3 7 4 8 5 3 6 2 7 1 8
REMARK H PARENT
REMARK Flexibility Score: inf
ROOT
ATOM      1  C   UNL     1     -98.634 -60.372 -65.701  1.00  0.00     0.006 C 
ENDROOT
BRANCH   1   2
ATOM      2  C   UNL     1     -99.665 -61.501 -65.828  1.00  0.00     0.053 C 
BRANCH   2   3
ATOM      3  C   UNL     1    -100.071 -61.723 -67.253  1.00  0.00     0.041 C 
ATOM      4  O   UNL     1     -99.497 -62.602 -67.947  1.00  0.00    -0.550 OA
ATOM      5  O   UNL     1    -101.108 -60.979 -67.804  1.00  0.00    -0.550 OA
ENDBRANCH   2   3
ENDBRANCH   1   2
BRANCH   1   6
ATOM      6  C   UNL     1     -98.891 -59.234 -66.701  1.00  0.00     0.000 C 
BRANCH   6   7
ATOM      7  C   UNL     1     -97.578 -58.563 -67.119  1.00  0.00    -0.003 C 
ATOM      8  C   UNL     1     -96.880 -57.924 -65.922  1.00  0.00     0.004 C 
ENDBRANCH   6   7
ENDBRANCH   1   6
TORSDOF 4
ENDMDL
