MODEL 1
REMARK VINA RESULT:    -1.634      0.000      0.000
REMARK INTER + INTRA:          -2.660
REMARK INTER:                  -2.398
REMARK INTRA:                  -0.262
REMARK UNBOUND:                -0.262
REMARK SMILES O=C([O-])CCCCCCCC(=O)[O-]
REMARK SMILES IDX 7 1 6 2 5 3 4 4 2 5 1 6 3 7 8 8 9 9 10 10 11 11 12 12 13 13
REMARK H PARENT
REMARK Flexibility Score: inf
ROOT
ATOM      1  C   UNL     1      -6.643  28.368 -17.294  1.00  0.00     0.000 C 
ENDROOT
BRANCH   1   2
ATOM      2  C   UNL     1      -7.582  28.835 -16.170  1.00  0.00     0.000 C 
BRANCH   2   3
ATOM      3  C   UNL     1      -8.755  29.681 -16.693  1.00  0.00     0.006 C 
BRANCH   3   4
ATOM      4  C   UNL     1      -9.300  30.640 -15.626  1.00  0.00     0.053 C 
BRANCH   4   5
ATOM      5  C   UNL     1      -9.034  32.072 -15.977  1.00  0.00     0.041 C 
ATOM      6  O   UNL     1      -9.127  32.460 -17.171  1.00  0.00    -0.550 OA
ATOM      7  O   UNL     1      -8.711  32.984 -14.979  1.00  0.00    -0.550 OA
ENDBRANCH   4   5
ENDBRANCH   3   4
ENDBRANCH   2   3
ENDBRANCH   1   2
BRANCH   1   8
ATOM      8  C   UNL     1      -7.053  28.914 -18.672  1.00  0.00     0.000 C 
BRANCH   8   9
ATOM      9  C   UNL     1      -6.338  28.196 -19.832  1.00  0.00     0.006 C 
BRANCH   9  10
ATOM     10  C   UNL     1      -6.390  28.951 -21.169  1.00  0.00     0.053 C 
BRANCH  10  11
ATOM     11  C   UNL     1      -6.061  28.061 -22.328  1.00  0.00     0.041 C 
ATOM     12  O   UNL     1      -4.875  27.968 -22.740  1.00  0.00    -0.550 OA
ATOM     13  O   UNL     1      -7.061  27.309 -22.932  1.00  0.00    -0.550 OA
ENDBRANCH  10  11
ENDBRANCH   9  10
ENDBRANCH   8   9
ENDBRANCH   1   8
TORSDOF 8
ENDMDL
MODEL 2
REMARK VINA RESULT:    -1.503      0.164      6.793
REMARK INTER + INTRA:          -2.468
REMARK INTER:                  -2.213
REMARK INTRA:                  -0.255
REMARK UNBOUND:                -0.262
REMARK SMILES O=C([O-])CCCCCCCC(=O)[O-]
REMARK SMILES IDX 7 1 6 2 5 3 4 4 2 5 1 6 3 7 8 8 9 9 10 10 11 11 12 12 13 13
REMARK H PARENT
REMARK Flexibility Score: inf
ROOT
ATOM      1  C   UNL     1      -6.497  28.465 -17.350  1.00  0.00     0.000 C 
ENDROOT
BRANCH   1   2
ATOM      2  C   UNL     1      -6.983  28.945 -18.727  1.00  0.00     0.000 C 
BRANCH   2   3
ATOM      3  C   UNL     1      -6.374  28.134 -19.884  1.00  0.00     0.006 C 
BRANCH   3   4
ATOM      4  C   UNL     1      -6.326  28.936 -21.192  1.00  0.00     0.053 C 
BRANCH   4   5
ATOM      5  C   UNL     1      -5.978  28.069 -22.364  1.00  0.00     0.041 C 
ATOM      6  O   UNL     1      -4.875  28.213 -22.953  1.00  0.00    -0.550 OA
ATOM      7  O   UNL     1      -6.861  27.082 -22.786  1.00  0.00    -0.550 OA
ENDBRANCH   4   5
ENDBRANCH   3   4
ENDBRANCH   2   3
ENDBRANCH   1   2
BRANCH   1   8
ATOM      8  C   UNL     1      -7.515  28.750 -16.232  1.00  0.00     0.000 C 
BRANCH   8   9
ATOM      9  C   UNL     1      -8.661  29.670 -16.693  1.00  0.00     0.006 C 
BRANCH   9  10
ATOM     10  C   UNL     1      -9.181  30.623 -15.605  1.00  0.00     0.053 C 
BRANCH  10  11
ATOM     11  C   UNL     1      -9.033  32.060 -16.002  1.00  0.00     0.041 C 
ATOM     12  O   UNL     1      -9.264  32.417 -17.187  1.00  0.00    -0.550 OA
ATOM     13  O   UNL     1      -8.671  33.009 -15.054  1.00  0.00    -0.550 OA
ENDBRANCH  10  11
ENDBRANCH   9  10
ENDBRANCH   8   9
ENDBRANCH   1   8
TORSDOF 8
ENDMDL
