MODEL 1
REMARK VINA RESULT:    -4.684      0.000      0.000
REMARK INTER + INTRA:          -5.130
REMARK INTER:                  -5.094
REMARK INTRA:                  -0.035
REMARK UNBOUND:                -0.035
REMARK SMILES O=C([O-])c1ccc(O)cc1
REMARK SMILES IDX 4 1 5 2 10 3 6 4 9 5 7 6 2 7 1 8 3 9 8 10
REMARK H PARENT 8 11
REMARK Flexibility Score: inf
ROOT
ATOM      1  C   UNL     1       0.402  -5.604 -41.831  1.00  0.00    -0.003 A 
ATOM      2  C   UNL     1       1.085  -5.626 -40.601  1.00  0.00     0.014 A 
ATOM      3  C   UNL     1       1.095  -5.200 -42.987  1.00  0.00     0.014 A 
ATOM      4  C   UNL     1       2.430  -5.252 -40.531  1.00  0.00     0.047 A 
ATOM      5  C   UNL     1       2.440  -4.827 -42.914  1.00  0.00     0.047 A 
ATOM      6  C   UNL     1       3.111  -4.851 -41.684  1.00  0.00     0.115 A 
ENDROOT
BRANCH   1   7
ATOM      7  C   UNL     1      -1.021  -6.000 -41.902  1.00  0.00     0.071 C 
ATOM      8  O   UNL     1      -1.724  -5.688 -42.901  1.00  0.00    -0.545 OA
ATOM      9  O   UNL     1      -1.604  -6.724 -40.868  1.00  0.00    -0.545 OA
ENDBRANCH   1   7
BRANCH   6  10
ATOM     10  O   UNL     1       4.452  -4.481 -41.599  1.00  0.00    -0.508 OA
ATOM     11  H   UNL     1       4.727  -3.548 -41.315  1.00  0.00     0.293 HD
ENDBRANCH   6  10
TORSDOF 2
ENDMDL
MODEL 2
REMARK VINA RESULT:    -4.654      7.154      7.380
REMARK INTER + INTRA:          -5.098
REMARK INTER:                  -5.066
REMARK INTRA:                  -0.032
REMARK UNBOUND:                -0.035
REMARK SMILES O=C([O-])c1ccc(O)cc1
REMARK SMILES IDX 4 1 5 2 10 3 6 4 9 5 7 6 2 7 1 8 3 9 8 10
REMARK H PARENT 8 11
REMARK Flexibility Score: inf
ROOT
ATOM      1  C   UNL     1       4.769 -10.118 -46.025  1.00  0.00    -0.003 A 
ATOM      2  C   UNL     1       5.694 -10.737 -45.165  1.00  0.00     0.014 A 
ATOM      3  C   UNL     1       5.025  -8.807 -46.470  1.00  0.00     0.014 A 
ATOM      4  C   UNL     1       6.848 -10.059 -44.760  1.00  0.00     0.047 A 
ATOM      5  C   UNL     1       6.180  -8.133 -46.064  1.00  0.00     0.047 A 
ATOM      6  C   UNL     1       7.095  -8.758 -45.206  1.00  0.00     0.115 A 
ENDROOT
BRANCH   1   7
ATOM      7  C   UNL     1       3.548 -10.836 -46.452  1.00  0.00     0.071 C 
ATOM      8  O   UNL     1       3.143 -10.760 -47.642  1.00  0.00    -0.545 OA
ATOM      9  O   UNL     1       2.830 -11.606 -45.544  1.00  0.00    -0.545 OA
ENDBRANCH   1   7
BRANCH   6  10
ATOM     10  O   UNL     1       8.249  -8.096 -44.794  1.00  0.00    -0.508 OA
ATOM     11  H   UNL     1       9.052  -8.002 -45.406  1.00  0.00     0.293 HD
ENDBRANCH   6  10
TORSDOF 2
ENDMDL
MODEL 3
REMARK VINA RESULT:    -4.628      5.997      7.582
REMARK INTER + INTRA:          -5.069
REMARK INTER:                  -5.040
REMARK INTRA:                  -0.029
REMARK UNBOUND:                -0.035
REMARK SMILES O=C([O-])c1ccc(O)cc1
REMARK SMILES IDX 4 1 5 2 10 3 6 4 9 5 7 6 2 7 1 8 3 9 8 10
REMARK H PARENT 8 11
REMARK Flexibility Score: inf
ROOT
ATOM      1  C   UNL     1       4.479  -9.016 -46.162  1.00  0.00    -0.003 A 
ATOM      2  C   UNL     1       3.401  -8.246 -45.690  1.00  0.00     0.014 A 
ATOM      3  C   UNL     1       4.396 -10.419 -46.092  1.00  0.00     0.014 A 
ATOM      4  C   UNL     1       2.266  -8.866 -45.160  1.00  0.00     0.047 A 
ATOM      5  C   UNL     1       3.260 -11.036 -45.562  1.00  0.00     0.047 A 
ATOM      6  C   UNL     1       2.191 -10.261 -45.093  1.00  0.00     0.115 A 
ENDROOT
BRANCH   1   7
ATOM      7  C   UNL     1       5.679  -8.357 -46.723  1.00  0.00     0.071 C 
ATOM      8  O   UNL     1       6.078  -8.632 -47.886  1.00  0.00    -0.545 OA
ATOM      9  O   UNL     1       6.385  -7.424 -45.972  1.00  0.00    -0.545 OA
ENDBRANCH   1   7
BRANCH   6  10
ATOM     10  O   UNL     1       1.053 -10.865 -44.563  1.00  0.00    -0.508 OA
ATOM     11  H   UNL     1       0.138 -10.726 -44.977  1.00  0.00     0.293 HD
ENDBRANCH   6  10
TORSDOF 2
ENDMDL
MODEL 4
REMARK VINA RESULT:    -4.486      7.045      7.979
REMARK INTER + INTRA:          -4.914
REMARK INTER:                  -4.880
REMARK INTRA:                  -0.034
REMARK UNBOUND:                -0.035
REMARK SMILES O=C([O-])c1ccc(O)cc1
REMARK SMILES IDX 4 1 5 2 10 3 6 4 9 5 7 6 2 7 1 8 3 9 8 10
REMARK H PARENT 8 11
REMARK Flexibility Score: inf
ROOT
ATOM      1  C   UNL     1      -0.463 -12.205 -40.348  1.00  0.00    -0.003 A 
ATOM      2  C   UNL     1      -1.030 -13.415 -39.907  1.00  0.00     0.014 A 
ATOM      3  C   UNL     1       0.876 -11.920 -40.020  1.00  0.00     0.014 A 
ATOM      4  C   UNL     1      -0.273 -14.319 -39.156  1.00  0.00     0.047 A 
ATOM      5  C   UNL     1       1.629 -12.827 -39.269  1.00  0.00     0.047 A 
ATOM      6  C   UNL     1       1.057 -14.029 -38.834  1.00  0.00     0.115 A 
ENDROOT
BRANCH   1   7
ATOM      7  C   UNL     1      -1.266 -11.249 -41.142  1.00  0.00     0.071 C 
ATOM      8  O   UNL     1      -2.249 -11.647 -41.821  1.00  0.00    -0.545 OA
ATOM      9  O   UNL     1      -0.945  -9.896 -41.149  1.00  0.00    -0.545 OA
ENDBRANCH   1   7
BRANCH   6  10
ATOM     10  O   UNL     1       1.798 -14.940 -38.085  1.00  0.00    -0.508 OA
ATOM     11  H   UNL     1       2.166 -14.700 -37.172  1.00  0.00     0.293 HD
ENDBRANCH   6  10
TORSDOF 2
ENDMDL
MODEL 5
REMARK VINA RESULT:    -4.318      9.366     10.604
REMARK INTER + INTRA:          -4.732
REMARK INTER:                  -4.700
REMARK INTRA:                  -0.032
REMARK UNBOUND:                -0.035
REMARK SMILES O=C([O-])c1ccc(O)cc1
REMARK SMILES IDX 4 1 5 2 10 3 6 4 9 5 7 6 2 7 1 8 3 9 8 10
REMARK H PARENT 8 11
REMARK Flexibility Score: inf
ROOT
ATOM      1  C   UNL     1       8.524 -12.121 -41.169  1.00  0.00    -0.003 A 
ATOM      2  C   UNL     1       8.007 -12.035 -39.864  1.00  0.00     0.014 A 
ATOM      3  C   UNL     1       7.747 -12.732 -42.171  1.00  0.00     0.014 A 
ATOM      4  C   UNL     1       6.740 -12.550 -39.568  1.00  0.00     0.047 A 
ATOM      5  C   UNL     1       6.481 -13.245 -41.872  1.00  0.00     0.047 A 
ATOM      6  C   UNL     1       5.975 -13.155 -40.569  1.00  0.00     0.115 A 
ENDROOT
BRANCH   1   7
ATOM      7  C   UNL     1       9.864 -11.577 -41.480  1.00  0.00     0.071 C 
ATOM      8  O   UNL     1      10.073 -10.967 -42.561  1.00  0.00    -0.545 OA
ATOM      9  O   UNL     1      10.913 -11.732 -40.580  1.00  0.00    -0.545 OA
ENDBRANCH   1   7
BRANCH   6  10
ATOM     10  O   UNL     1       4.715 -13.663 -40.259  1.00  0.00    -0.508 OA
ATOM     11  H   UNL     1       4.373 -13.686 -39.305  1.00  0.00     0.293 HD
ENDBRANCH   6  10
TORSDOF 2
ENDMDL
MODEL 6
REMARK VINA RESULT:    -4.269      8.623      9.066
REMARK INTER + INTRA:          -4.679
REMARK INTER:                  -4.647
REMARK INTRA:                  -0.031
REMARK UNBOUND:                -0.035
REMARK SMILES O=C([O-])c1ccc(O)cc1
REMARK SMILES IDX 4 1 5 2 10 3 6 4 9 5 7 6 2 7 1 8 3 9 8 10
REMARK H PARENT 8 11
REMARK Flexibility Score: inf
ROOT
ATOM      1  C   UNL     1       5.808 -12.621 -41.100  1.00  0.00    -0.003 A 
ATOM      2  C   UNL     1       6.326 -12.151 -39.879  1.00  0.00     0.014 A 
ATOM      3  C   UNL     1       6.701 -12.963 -42.132  1.00  0.00     0.014 A 
ATOM      4  C   UNL     1       7.707 -12.027 -39.697  1.00  0.00     0.047 A 
ATOM      5  C   UNL     1       8.081 -12.838 -41.946  1.00  0.00     0.047 A 
ATOM      6  C   UNL     1       8.587 -12.368 -40.727  1.00  0.00     0.115 A 
ENDROOT
BRANCH   1   7
ATOM      7  C   UNL     1       4.347 -12.751 -41.291  1.00  0.00     0.071 C 
ATOM      8  O   UNL     1       3.623 -13.240 -40.384  1.00  0.00    -0.545 OA
ATOM      9  O   UNL     1       3.752 -12.335 -42.477  1.00  0.00    -0.545 OA
ENDBRANCH   1   7
BRANCH   6  10
ATOM     10  O   UNL     1       9.961 -12.240 -40.530  1.00  0.00    -0.508 OA
ATOM     11  H   UNL     1      10.534 -11.680 -41.150  1.00  0.00     0.293 HD
ENDBRANCH   6  10
TORSDOF 2
ENDMDL
MODEL 7
REMARK VINA RESULT:    -4.264      6.995      8.946
REMARK INTER + INTRA:          -4.673
REMARK INTER:                  -4.645
REMARK INTRA:                  -0.029
REMARK UNBOUND:                -0.035
REMARK SMILES O=C([O-])c1ccc(O)cc1
REMARK SMILES IDX 4 1 5 2 10 3 6 4 9 5 7 6 2 7 1 8 3 9 8 10
REMARK H PARENT 8 11
REMARK Flexibility Score: inf
ROOT
ATOM      1  C   UNL     1       9.613  -5.916 -41.006  1.00  0.00    -0.003 A 
ATOM      2  C   UNL     1      10.083  -4.592 -40.937  1.00  0.00     0.014 A 
ATOM      3  C   UNL     1       8.268  -6.179 -40.686  1.00  0.00     0.014 A 
ATOM      4  C   UNL     1       9.225  -3.555 -40.557  1.00  0.00     0.047 A 
ATOM      5  C   UNL     1       7.413  -5.140 -40.307  1.00  0.00     0.047 A 
ATOM      6  C   UNL     1       7.890  -3.825 -40.240  1.00  0.00     0.115 A 
ENDROOT
BRANCH   1   7
ATOM      7  C   UNL     1      10.522  -7.012 -41.408  1.00  0.00     0.071 C 
ATOM      8  O   UNL     1      11.031  -7.032 -42.561  1.00  0.00    -0.545 OA
ATOM      9  O   UNL     1      10.828  -8.035 -40.518  1.00  0.00    -0.545 OA
ENDBRANCH   1   7
BRANCH   6  10
ATOM     10  O   UNL     1       7.048  -2.781 -39.863  1.00  0.00    -0.508 OA
ATOM     11  H   UNL     1       6.248  -2.516 -40.427  1.00  0.00     0.293 HD
ENDBRANCH   6  10
TORSDOF 2
ENDMDL
MODEL 8
REMARK VINA RESULT:    -4.116      1.724      4.295
REMARK INTER + INTRA:          -4.512
REMARK INTER:                  -4.484
REMARK INTRA:                  -0.028
REMARK UNBOUND:                -0.035
REMARK SMILES O=C([O-])c1ccc(O)cc1
REMARK SMILES IDX 4 1 5 2 10 3 6 4 9 5 7 6 2 7 1 8 3 9 8 10
REMARK H PARENT 8 11
REMARK Flexibility Score: inf
ROOT
ATOM      1  C   UNL     1       0.675  -5.827 -42.419  1.00  0.00    -0.003 A 
ATOM      2  C   UNL     1       0.591  -6.610 -41.254  1.00  0.00     0.014 A 
ATOM      3  C   UNL     1      -0.513  -5.386 -43.030  1.00  0.00     0.014 A 
ATOM      4  C   UNL     1      -0.654  -6.944 -40.713  1.00  0.00     0.047 A 
ATOM      5  C   UNL     1      -1.757  -5.721 -42.487  1.00  0.00     0.047 A 
ATOM      6  C   UNL     1      -1.830  -6.502 -41.327  1.00  0.00     0.115 A 
ENDROOT
BRANCH   1   7
ATOM      7  C   UNL     1       1.994  -5.475 -42.990  1.00  0.00     0.071 C 
ATOM      8  O   UNL     1       2.749  -6.368 -43.458  1.00  0.00    -0.545 OA
ATOM      9  O   UNL     1       2.419  -4.151 -43.018  1.00  0.00    -0.545 OA
ENDBRANCH   1   7
BRANCH   6  10
ATOM     10  O   UNL     1      -3.064  -6.843 -40.776  1.00  0.00    -0.508 OA
ATOM     11  H   UNL     1      -3.144  -7.551 -40.055  1.00  0.00     0.293 HD
ENDBRANCH   6  10
TORSDOF 2
ENDMDL
MODEL 9
REMARK VINA RESULT:    -4.082      6.801      7.926
REMARK INTER + INTRA:          -4.475
REMARK INTER:                  -4.442
REMARK INTRA:                  -0.033
REMARK UNBOUND:                -0.035
REMARK SMILES O=C([O-])c1ccc(O)cc1
REMARK SMILES IDX 4 1 5 2 10 3 6 4 9 5 7 6 2 7 1 8 3 9 8 10
REMARK H PARENT 8 11
REMARK Flexibility Score: inf
ROOT
ATOM      1  C   UNL     1       5.232  -9.393 -45.666  1.00  0.00    -0.003 A 
ATOM      2  C   UNL     1       4.095 -10.060 -46.155  1.00  0.00     0.014 A 
ATOM      3  C   UNL     1       5.655  -9.645 -44.348  1.00  0.00     0.014 A 
ATOM      4  C   UNL     1       3.397 -10.960 -45.343  1.00  0.00     0.047 A 
ATOM      5  C   UNL     1       4.956 -10.546 -43.539  1.00  0.00     0.047 A 
ATOM      6  C   UNL     1       3.824 -11.206 -44.035  1.00  0.00     0.115 A 
ENDROOT
BRANCH   1   7
ATOM      7  C   UNL     1       5.967  -8.440 -46.526  1.00  0.00     0.071 C 
ATOM      8  O   UNL     1       6.524  -7.426 -46.029  1.00  0.00    -0.545 OA
ATOM      9  O   UNL     1       6.055  -8.652 -47.897  1.00  0.00    -0.545 OA
ENDBRANCH   1   7
BRANCH   6  10
ATOM     10  O   UNL     1       3.120 -12.106 -43.238  1.00  0.00    -0.508 OA
ATOM     11  H   UNL     1       3.425 -12.332 -42.298  1.00  0.00     0.293 HD
ENDBRANCH   6  10
TORSDOF 2
ENDMDL
