MODEL 1
REMARK VINA RESULT:    -3.815      0.000      0.000
REMARK INTER + INTRA:          -8.378
REMARK INTER:                  -7.161
REMARK INTRA:                  -1.217
REMARK UNBOUND:                -1.217
REMARK SMILES O=C([O-])CCCCCCCCCCCCCCC(=O)[O-]
REMARK SMILES IDX 10 1 9 2 8 3 7 4 6 5 5 6 4 7 2 8 1 9 3 10 11 11 12 12 13 13
REMARK SMILES IDX 14 14 15 15 16 16 17 17 18 18 19 19 20 20
REMARK H PARENT
REMARK Flexibility Score: inf
ROOT
ATOM      1  C   UNL     1      -3.926  -1.756  32.279  1.00  0.00     0.000 C 
ENDROOT
BRANCH   1   2
ATOM      2  C   UNL     1      -3.733  -1.457  33.778  1.00  0.00     0.000 C 
BRANCH   2   3
ATOM      3  C   UNL     1      -2.663  -0.398  34.101  1.00  0.00     0.000 C 
BRANCH   3   4
ATOM      4  C   UNL     1      -2.829   0.253  35.491  1.00  0.00     0.000 C 
BRANCH   4   5
ATOM      5  C   UNL     1      -4.303   0.434  35.884  1.00  0.00     0.000 C 
BRANCH   5   6
ATOM      6  C   UNL     1      -4.526   0.077  37.358  1.00  0.00     0.006 C 
BRANCH   6   7
ATOM      7  C   UNL     1      -3.461   0.726  38.248  1.00  0.00     0.053 C 
BRANCH   7   8
ATOM      8  C   UNL     1      -3.771   2.173  38.465  1.00  0.00     0.041 C 
ATOM      9  O   UNL     1      -3.051   3.061  37.938  1.00  0.00    -0.550 OA
ATOM     10  O   UNL     1      -4.883   2.541  39.211  1.00  0.00    -0.550 OA
ENDBRANCH   7   8
ENDBRANCH   6   7
ENDBRANCH   5   6
ENDBRANCH   4   5
ENDBRANCH   3   4
ENDBRANCH   2   3
ENDBRANCH   1   2
BRANCH   1  11
ATOM     11  C   UNL     1      -3.498  -3.168  31.834  1.00  0.00     0.000 C 
BRANCH  11  12
ATOM     12  C   UNL     1      -3.194  -4.101  33.017  1.00  0.00     0.000 C 
BRANCH  12  13
ATOM     13  C   UNL     1      -1.898  -4.910  32.824  1.00  0.00     0.000 C 
BRANCH  13  14
ATOM     14  C   UNL     1      -1.617  -5.371  31.379  1.00  0.00     0.000 C 
BRANCH  14  15
ATOM     15  C   UNL     1      -1.420  -6.886  31.203  1.00  0.00     0.000 C 
BRANCH  15  16
ATOM     16  C   UNL     1      -2.742  -7.640  30.998  1.00  0.00     0.006 C 
BRANCH  16  17
ATOM     17  C   UNL     1      -3.766  -6.763  30.272  1.00  0.00     0.053 C 
BRANCH  17  18
ATOM     18  C   UNL     1      -5.139  -6.999  30.817  1.00  0.00     0.041 C 
ATOM     19  O   UNL     1      -5.653  -8.147  30.764  1.00  0.00    -0.550 OA
ATOM     20  O   UNL     1      -5.832  -5.962  31.429  1.00  0.00    -0.550 OA
ENDBRANCH  17  18
ENDBRANCH  16  17
ENDBRANCH  15  16
ENDBRANCH  14  15
ENDBRANCH  13  14
ENDBRANCH  12  13
ENDBRANCH  11  12
ENDBRANCH   1  11
TORSDOF 15
ENDMDL
MODEL 2
REMARK VINA RESULT:    -3.811      5.913      8.833
REMARK INTER + INTRA:          -8.370
REMARK INTER:                  -6.407
REMARK INTRA:                  -1.963
REMARK UNBOUND:                -1.217
REMARK SMILES O=C([O-])CCCCCCCCCCCCCCC(=O)[O-]
REMARK SMILES IDX 10 1 9 2 8 3 7 4 6 5 5 6 4 7 2 8 1 9 3 10 11 11 12 12 13 13
REMARK SMILES IDX 14 14 15 15 16 16 17 17 18 18 19 19 20 20
REMARK H PARENT
REMARK Flexibility Score: inf
ROOT
ATOM      1  C   UNL     1      -4.274  -3.901  30.796  1.00  0.00     0.000 C 
ENDROOT
BRANCH   1   2
ATOM      2  C   UNL     1      -4.036  -4.109  29.288  1.00  0.00     0.000 C 
BRANCH   2   3
ATOM      3  C   UNL     1      -2.582  -3.911  28.822  1.00  0.00     0.000 C 
BRANCH   3   4
ATOM      4  C   UNL     1      -2.068  -5.029  27.889  1.00  0.00     0.000 C 
BRANCH   4   5
ATOM      5  C   UNL     1      -0.955  -4.544  26.948  1.00  0.00     0.000 C 
BRANCH   5   6
ATOM      6  C   UNL     1      -1.480  -4.382  25.516  1.00  0.00     0.006 C 
BRANCH   6   7
ATOM      7  C   UNL     1      -2.913  -4.908  25.393  1.00  0.00     0.053 C 
BRANCH   7   8
ATOM      8  C   UNL     1      -3.039  -5.814  24.210  1.00  0.00     0.041 C 
ATOM      9  O   UNL     1      -3.287  -5.339  23.071  1.00  0.00    -0.550 OA
ATOM     10  O   UNL     1      -2.835  -7.180  24.357  1.00  0.00    -0.550 OA
ENDBRANCH   7   8
ENDBRANCH   6   7
ENDBRANCH   5   6
ENDBRANCH   4   5
ENDBRANCH   3   4
ENDBRANCH   2   3
ENDBRANCH   1   2
BRANCH   1  11
ATOM     11  C   UNL     1      -3.161  -3.132  31.534  1.00  0.00     0.000 C 
BRANCH  11  12
ATOM     12  C   UNL     1      -2.808  -3.752  32.895  1.00  0.00     0.000 C 
BRANCH  12  13
ATOM     13  C   UNL     1      -2.555  -5.269  32.815  1.00  0.00     0.000 C 
BRANCH  13  14
ATOM     14  C   UNL     1      -1.273  -5.685  32.065  1.00  0.00     0.000 C 
BRANCH  14  15
ATOM     15  C   UNL     1      -1.475  -6.733  30.957  1.00  0.00     0.000 C 
BRANCH  15  16
ATOM     16  C   UNL     1      -2.633  -7.698  31.253  1.00  0.00     0.006 C 
BRANCH  16  17
ATOM     17  C   UNL     1      -3.644  -7.708  30.103  1.00  0.00     0.053 C 
BRANCH  17  18
ATOM     18  C   UNL     1      -4.086  -9.106  29.805  1.00  0.00     0.041 C 
ATOM     19  O   UNL     1      -4.656  -9.792  30.693  1.00  0.00    -0.550 OA
ATOM     20  O   UNL     1      -3.914  -9.633  28.532  1.00  0.00    -0.550 OA
ENDBRANCH  17  18
ENDBRANCH  16  17
ENDBRANCH  15  16
ENDBRANCH  14  15
ENDBRANCH  13  14
ENDBRANCH  12  13
ENDBRANCH  11  12
ENDBRANCH   1  11
TORSDOF 15
ENDMDL
MODEL 3
REMARK VINA RESULT:    -3.799      5.883      8.280
REMARK INTER + INTRA:          -8.348
REMARK INTER:                  -6.385
REMARK INTRA:                  -1.962
REMARK UNBOUND:                -1.217
REMARK SMILES O=C([O-])CCCCCCCCCCCCCCC(=O)[O-]
REMARK SMILES IDX 10 1 9 2 8 3 7 4 6 5 5 6 4 7 2 8 1 9 3 10 11 11 12 12 13 13
REMARK SMILES IDX 14 14 15 15 16 16 17 17 18 18 19 19 20 20
REMARK H PARENT
REMARK Flexibility Score: inf
ROOT
ATOM      1  C   UNL     1      -4.292  -3.565  32.551  1.00  0.00     0.000 C 
ENDROOT
BRANCH   1   2
ATOM      2  C   UNL     1      -2.805  -3.748  32.914  1.00  0.00     0.000 C 
BRANCH   2   3
ATOM      3  C   UNL     1      -2.328  -5.210  33.000  1.00  0.00     0.000 C 
BRANCH   3   4
ATOM      4  C   UNL     1      -1.479  -5.661  31.792  1.00  0.00     0.000 C 
BRANCH   4   5
ATOM      5  C   UNL     1      -1.833  -7.079  31.321  1.00  0.00     0.000 C 
BRANCH   5   6
ATOM      6  C   UNL     1      -2.884  -7.041  30.205  1.00  0.00     0.006 C 
BRANCH   6   7
ATOM      7  C   UNL     1      -4.204  -7.665  30.671  1.00  0.00     0.053 C 
BRANCH   7   8
ATOM      8  C   UNL     1      -4.236  -9.124  30.348  1.00  0.00     0.041 C 
ATOM      9  O   UNL     1      -4.767  -9.525  29.279  1.00  0.00    -0.550 OA
ATOM     10  O   UNL     1      -3.637 -10.039  31.204  1.00  0.00    -0.550 OA
ENDBRANCH   7   8
ENDBRANCH   6   7
ENDBRANCH   5   6
ENDBRANCH   4   5
ENDBRANCH   3   4
ENDBRANCH   2   3
ENDBRANCH   1   2
BRANCH   1  11
ATOM     11  C   UNL     1      -4.608  -3.613  31.044  1.00  0.00     0.000 C 
BRANCH  11  12
ATOM     12  C   UNL     1      -3.609  -2.806  30.198  1.00  0.00     0.000 C 
BRANCH  12  13
ATOM     13  C   UNL     1      -3.054  -3.605  29.005  1.00  0.00     0.000 C 
BRANCH  13  14
ATOM     14  C   UNL     1      -1.519  -3.598  28.863  1.00  0.00     0.000 C 
BRANCH  14  15
ATOM     15  C   UNL     1      -0.973  -2.743  27.706  1.00  0.00     0.000 C 
BRANCH  15  16
ATOM     16  C   UNL     1      -1.850  -2.813  26.447  1.00  0.00     0.006 C 
BRANCH  16  17
ATOM     17  C   UNL     1      -1.148  -3.596  25.334  1.00  0.00     0.053 C 
BRANCH  17  18
ATOM     18  C   UNL     1      -1.827  -4.911  25.110  1.00  0.00     0.041 C 
ATOM     19  O   UNL     1      -2.339  -5.532  26.077  1.00  0.00    -0.550 OA
ATOM     20  O   UNL     1      -1.939  -5.425  23.824  1.00  0.00    -0.550 OA
ENDBRANCH  17  18
ENDBRANCH  16  17
ENDBRANCH  15  16
ENDBRANCH  14  15
ENDBRANCH  13  14
ENDBRANCH  12  13
ENDBRANCH  11  12
ENDBRANCH   1  11
TORSDOF 15
ENDMDL
MODEL 4
REMARK VINA RESULT:    -3.733      7.317      9.705
REMARK INTER + INTRA:          -8.222
REMARK INTER:                  -6.105
REMARK INTRA:                  -2.117
REMARK UNBOUND:                -1.217
REMARK SMILES O=C([O-])CCCCCCCCCCCCCCC(=O)[O-]
REMARK SMILES IDX 10 1 9 2 8 3 7 4 6 5 5 6 4 7 2 8 1 9 3 10 11 11 12 12 13 13
REMARK SMILES IDX 14 14 15 15 16 16 17 17 18 18 19 19 20 20
REMARK H PARENT
REMARK Flexibility Score: inf
ROOT
ATOM      1  C   UNL     1      -7.502   1.008  38.006  1.00  0.00     0.000 C 
ENDROOT
BRANCH   1   2
ATOM      2  C   UNL     1      -6.443   0.115  37.333  1.00  0.00     0.000 C 
BRANCH   2   3
ATOM      3  C   UNL     1      -5.378  -0.465  38.282  1.00  0.00     0.000 C 
BRANCH   3   4
ATOM      4  C   UNL     1      -3.943   0.014  37.977  1.00  0.00     0.000 C 
BRANCH   4   5
ATOM      5  C   UNL     1      -3.664   1.422  38.523  1.00  0.00     0.000 C 
BRANCH   5   6
ATOM      6  C   UNL     1      -3.358   2.403  37.385  1.00  0.00     0.006 C 
BRANCH   6   7
ATOM      7  C   UNL     1      -4.556   3.318  37.111  1.00  0.00     0.053 C 
BRANCH   7   8
ATOM      8  C   UNL     1      -4.194   4.746  37.373  1.00  0.00     0.041 C 
ATOM      9  O   UNL     1      -4.502   5.640  36.542  1.00  0.00    -0.550 OA
ATOM     10  O   UNL     1      -3.558   5.096  38.557  1.00  0.00    -0.550 OA
ENDBRANCH   7   8
ENDBRANCH   6   7
ENDBRANCH   5   6
ENDBRANCH   4   5
ENDBRANCH   3   4
ENDBRANCH   2   3
ENDBRANCH   1   2
BRANCH   1  11
ATOM     11  C   UNL     1      -7.305   1.232  39.517  1.00  0.00     0.000 C 
BRANCH  11  12
ATOM     12  C   UNL     1      -6.925   2.681  39.862  1.00  0.00     0.000 C 
BRANCH  12  13
ATOM     13  C   UNL     1      -8.062   3.681  39.581  1.00  0.00     0.000 C 
BRANCH  13  14
ATOM     14  C   UNL     1      -7.668   4.907  38.732  1.00  0.00     0.000 C 
BRANCH  14  15
ATOM     15  C   UNL     1      -8.031   4.813  37.240  1.00  0.00     0.000 C 
BRANCH  15  16
ATOM     16  C   UNL     1      -9.545   4.717  37.000  1.00  0.00     0.006 C 
BRANCH  16  17
ATOM     17  C   UNL     1      -9.857   3.749  35.855  1.00  0.00     0.053 C 
BRANCH  17  18
ATOM     18  C   UNL     1     -10.858   4.349  34.919  1.00  0.00     0.041 C 
ATOM     19  O   UNL     1     -11.957   3.772  34.711  1.00  0.00    -0.550 OA
ATOM     20  O   UNL     1     -10.598   5.573  34.314  1.00  0.00    -0.550 OA
ENDBRANCH  17  18
ENDBRANCH  16  17
ENDBRANCH  15  16
ENDBRANCH  14  15
ENDBRANCH  13  14
ENDBRANCH  12  13
ENDBRANCH  11  12
ENDBRANCH   1  11
TORSDOF 15
ENDMDL
MODEL 5
REMARK VINA RESULT:    -3.730      3.207      9.508
REMARK INTER + INTRA:          -8.217
REMARK INTER:                  -6.216
REMARK INTRA:                  -2.001
REMARK UNBOUND:                -1.217
REMARK SMILES O=C([O-])CCCCCCCCCCCCCCC(=O)[O-]
REMARK SMILES IDX 10 1 9 2 8 3 7 4 6 5 5 6 4 7 2 8 1 9 3 10 11 11 12 12 13 13
REMARK SMILES IDX 14 14 15 15 16 16 17 17 18 18 19 19 20 20
REMARK H PARENT
REMARK Flexibility Score: inf
ROOT
ATOM      1  C   UNL     1      -4.011   1.530  38.424  1.00  0.00     0.000 C 
ENDROOT
BRANCH   1   2
ATOM      2  C   UNL     1      -3.419   2.331  37.248  1.00  0.00     0.000 C 
BRANCH   2   3
ATOM      3  C   UNL     1      -2.907   1.482  36.070  1.00  0.00     0.000 C 
BRANCH   3   4
ATOM      4  C   UNL     1      -3.841   1.492  34.841  1.00  0.00     0.000 C 
BRANCH   4   5
ATOM      5  C   UNL     1      -4.327   0.086  34.460  1.00  0.00     0.000 C 
BRANCH   5   6
ATOM      6  C   UNL     1      -3.153  -0.807  34.041  1.00  0.00     0.006 C 
BRANCH   6   7
ATOM      7  C   UNL     1      -3.488  -1.595  32.771  1.00  0.00     0.053 C 
BRANCH   7   8
ATOM      8  C   UNL     1      -3.554  -3.060  33.065  1.00  0.00     0.041 C 
ATOM      9  O   UNL     1      -4.635  -3.582  33.444  1.00  0.00    -0.550 OA
ATOM     10  O   UNL     1      -2.433  -3.858  32.875  1.00  0.00    -0.550 OA
ENDBRANCH   7   8
ENDBRANCH   6   7
ENDBRANCH   5   6
ENDBRANCH   4   5
ENDBRANCH   3   4
ENDBRANCH   2   3
ENDBRANCH   1   2
BRANCH   1  11
ATOM     11  C   UNL     1      -4.102   0.009  38.199  1.00  0.00     0.000 C 
BRANCH  11  12
ATOM     12  C   UNL     1      -5.551  -0.500  38.132  1.00  0.00     0.000 C 
BRANCH  12  13
ATOM     13  C   UNL     1      -6.582   0.579  38.508  1.00  0.00     0.000 C 
BRANCH  13  14
ATOM     14  C   UNL     1      -7.622   0.906  37.418  1.00  0.00     0.000 C 
BRANCH  14  15
ATOM     15  C   UNL     1      -7.174   1.947  36.378  1.00  0.00     0.000 C 
BRANCH  15  16
ATOM     16  C   UNL     1      -6.977   3.347  36.980  1.00  0.00     0.006 C 
BRANCH  16  17
ATOM     17  C   UNL     1      -8.241   3.812  37.709  1.00  0.00     0.053 C 
BRANCH  17  18
ATOM     18  C   UNL     1      -7.999   5.119  38.395  1.00  0.00     0.041 C 
ATOM     19  O   UNL     1      -8.160   6.201  37.772  1.00  0.00    -0.550 OA
ATOM     20  O   UNL     1      -7.645   5.144  39.738  1.00  0.00    -0.550 OA
ENDBRANCH  17  18
ENDBRANCH  16  17
ENDBRANCH  15  16
ENDBRANCH  14  15
ENDBRANCH  13  14
ENDBRANCH  12  13
ENDBRANCH  11  12
ENDBRANCH   1  11
TORSDOF 15
ENDMDL
MODEL 6
REMARK VINA RESULT:    -3.683      7.403     10.126
REMARK INTER + INTRA:          -8.129
REMARK INTER:                  -5.923
REMARK INTRA:                  -2.206
REMARK UNBOUND:                -1.217
REMARK SMILES O=C([O-])CCCCCCCCCCCCCCC(=O)[O-]
REMARK SMILES IDX 10 1 9 2 8 3 7 4 6 5 5 6 4 7 2 8 1 9 3 10 11 11 12 12 13 13
REMARK SMILES IDX 14 14 15 15 16 16 17 17 18 18 19 19 20 20
REMARK H PARENT
REMARK Flexibility Score: inf
ROOT
ATOM      1  C   UNL     1      -9.395   3.435  35.908  1.00  0.00     0.000 C 
ENDROOT
BRANCH   1   2
ATOM      2  C   UNL     1      -8.184   4.189  36.493  1.00  0.00     0.000 C 
BRANCH   2   3
ATOM      3  C   UNL     1      -8.487   5.050  37.733  1.00  0.00     0.000 C 
BRANCH   3   4
ATOM      4  C   UNL     1      -7.833   4.526  39.030  1.00  0.00     0.000 C 
BRANCH   4   5
ATOM      5  C   UNL     1      -6.414   3.985  38.797  1.00  0.00     0.000 C 
BRANCH   5   6
ATOM      6  C   UNL     1      -6.268   2.567  39.360  1.00  0.00     0.006 C 
BRANCH   6   7
ATOM      7  C   UNL     1      -6.127   1.540  38.232  1.00  0.00     0.053 C 
BRANCH   7   8
ATOM      8  C   UNL     1      -4.859   0.762  38.386  1.00  0.00     0.041 C 
ATOM      9  O   UNL     1      -3.788   1.349  38.690  1.00  0.00    -0.550 OA
ATOM     10  O   UNL     1      -4.870  -0.620  38.241  1.00  0.00    -0.550 OA
ENDBRANCH   7   8
ENDBRANCH   6   7
ENDBRANCH   5   6
ENDBRANCH   4   5
ENDBRANCH   3   4
ENDBRANCH   2   3
ENDBRANCH   1   2
BRANCH   1  11
ATOM     11  C   UNL     1     -10.762   4.099  36.160  1.00  0.00     0.000 C 
BRANCH  11  12
ATOM     12  C   UNL     1     -11.939   3.261  35.634  1.00  0.00     0.000 C 
BRANCH  12  13
ATOM     13  C   UNL     1     -13.017   3.006  36.702  1.00  0.00     0.000 C 
BRANCH  13  14
ATOM     14  C   UNL     1     -12.565   3.220  38.161  1.00  0.00     0.000 C 
BRANCH  14  15
ATOM     15  C   UNL     1     -12.140   1.944  38.908  1.00  0.00     0.000 C 
BRANCH  15  16
ATOM     16  C   UNL     1     -10.628   1.883  39.173  1.00  0.00     0.006 C 
BRANCH  16  17
ATOM     17  C   UNL     1      -9.975   0.760  38.363  1.00  0.00     0.053 C 
BRANCH  17  18
ATOM     18  C   UNL     1      -9.568  -0.365  39.261  1.00  0.00     0.041 C 
ATOM     19  O   UNL     1     -10.369  -0.809  40.124  1.00  0.00    -0.550 OA
ATOM     20  O   UNL     1      -8.320  -0.959  39.111  1.00  0.00    -0.550 OA
ENDBRANCH  17  18
ENDBRANCH  16  17
ENDBRANCH  15  16
ENDBRANCH  14  15
ENDBRANCH  13  14
ENDBRANCH  12  13
ENDBRANCH  11  12
ENDBRANCH   1  11
TORSDOF 15
ENDMDL
MODEL 7
REMARK VINA RESULT:    -3.678     10.616     12.764
REMARK INTER + INTRA:          -8.120
REMARK INTER:                  -6.202
REMARK INTRA:                  -1.918
REMARK UNBOUND:                -1.217
REMARK SMILES O=C([O-])CCCCCCCCCCCCCCC(=O)[O-]
REMARK SMILES IDX 10 1 9 2 8 3 7 4 6 5 5 6 4 7 2 8 1 9 3 10 11 11 12 12 13 13
REMARK SMILES IDX 14 14 15 15 16 16 17 17 18 18 19 19 20 20
REMARK H PARENT
REMARK Flexibility Score: inf
ROOT
ATOM      1  C   UNL     1     -10.282   3.788  33.973  1.00  0.00     0.000 C 
ENDROOT
BRANCH   1   2
ATOM      2  C   UNL     1     -11.553   3.474  33.160  1.00  0.00     0.000 C 
BRANCH   2   3
ATOM      3  C   UNL     1     -12.589   4.612  33.102  1.00  0.00     0.000 C 
BRANCH   3   4
ATOM      4  C   UNL     1     -12.572   5.404  31.777  1.00  0.00     0.000 C 
BRANCH   4   5
ATOM      5  C   UNL     1     -11.982   4.593  30.614  1.00  0.00     0.000 C 
BRANCH   5   6
ATOM      6  C   UNL     1     -10.773   5.309  30.002  1.00  0.00     0.006 C 
BRANCH   6   7
ATOM      7  C   UNL     1     -11.037   5.682  28.540  1.00  0.00     0.053 C 
BRANCH   7   8
ATOM      8  C   UNL     1     -11.861   6.927  28.457  1.00  0.00     0.041 C 
ATOM      9  O   UNL     1     -11.464   7.988  29.006  1.00  0.00    -0.550 OA
ATOM     10  O   UNL     1     -13.046   6.929  27.733  1.00  0.00    -0.550 OA
ENDBRANCH   7   8
ENDBRANCH   6   7
ENDBRANCH   5   6
ENDBRANCH   4   5
ENDBRANCH   3   4
ENDBRANCH   2   3
ENDBRANCH   1   2
BRANCH   1  11
ATOM     11  C   UNL     1     -10.288   5.146  34.699  1.00  0.00     0.000 C 
BRANCH  11  12
ATOM     12  C   UNL     1     -10.284   5.006  36.230  1.00  0.00     0.000 C 
BRANCH  12  13
ATOM     13  C   UNL     1      -9.934   3.581  36.699  1.00  0.00     0.000 C 
BRANCH  13  14
ATOM     14  C   UNL     1     -11.062   2.835  37.441  1.00  0.00     0.000 C 
BRANCH  14  15
ATOM     15  C   UNL     1     -12.375   3.622  37.596  1.00  0.00     0.000 C 
BRANCH  15  16
ATOM     16  C   UNL     1     -13.462   3.169  36.609  1.00  0.00     0.006 C 
BRANCH  16  17
ATOM     17  C   UNL     1     -13.162   1.768  36.069  1.00  0.00     0.053 C 
BRANCH  17  18
ATOM     18  C   UNL     1     -14.201   0.795  36.529  1.00  0.00     0.041 C 
ATOM     19  O   UNL     1     -14.374   0.587  37.758  1.00  0.00    -0.550 OA
ATOM     20  O   UNL     1     -15.014   0.156  35.601  1.00  0.00    -0.550 OA
ENDBRANCH  17  18
ENDBRANCH  16  17
ENDBRANCH  15  16
ENDBRANCH  14  15
ENDBRANCH  13  14
ENDBRANCH  12  13
ENDBRANCH  11  12
ENDBRANCH   1  11
TORSDOF 15
ENDMDL
MODEL 8
REMARK VINA RESULT:    -3.668      5.667      7.603
REMARK INTER + INTRA:          -8.102
REMARK INTER:                  -5.597
REMARK INTRA:                  -2.504
REMARK UNBOUND:                -1.217
REMARK SMILES O=C([O-])CCCCCCCCCCCCCCC(=O)[O-]
REMARK SMILES IDX 10 1 9 2 8 3 7 4 6 5 5 6 4 7 2 8 1 9 3 10 11 11 12 12 13 13
REMARK SMILES IDX 14 14 15 15 16 16 17 17 18 18 19 19 20 20
REMARK H PARENT
REMARK Flexibility Score: inf
ROOT
ATOM      1  C   UNL     1      -6.000  -4.164  31.575  1.00  0.00     0.000 C 
ENDROOT
BRANCH   1   2
ATOM      2  C   UNL     1      -5.732  -4.888  30.242  1.00  0.00     0.000 C 
BRANCH   2   3
ATOM      3  C   UNL     1      -4.941  -4.073  29.202  1.00  0.00     0.000 C 
BRANCH   3   4
ATOM      4  C   UNL     1      -3.442  -4.436  29.135  1.00  0.00     0.000 C 
BRANCH   4   5
ATOM      5  C   UNL     1      -2.532  -3.208  29.289  1.00  0.00     0.000 C 
BRANCH   5   6
ATOM      6  C   UNL     1      -1.427  -3.206  28.225  1.00  0.00     0.006 C 
BRANCH   6   7
ATOM      7  C   UNL     1      -1.458  -4.496  27.399  1.00  0.00     0.053 C 
BRANCH   7   8
ATOM      8  C   UNL     1      -1.715  -4.189  25.958  1.00  0.00     0.041 C 
ATOM      9  O   UNL     1      -0.875  -4.517  25.080  1.00  0.00    -0.550 OA
ATOM     10  O   UNL     1      -2.906  -3.583  25.579  1.00  0.00    -0.550 OA
ENDBRANCH   7   8
ENDBRANCH   6   7
ENDBRANCH   5   6
ENDBRANCH   4   5
ENDBRANCH   3   4
ENDBRANCH   2   3
ENDBRANCH   1   2
BRANCH   1  11
ATOM     11  C   UNL     1      -4.963  -4.427  32.683  1.00  0.00     0.000 C 
BRANCH  11  12
ATOM     12  C   UNL     1      -3.932  -3.295  32.818  1.00  0.00     0.000 C 
BRANCH  12  13
ATOM     13  C   UNL     1      -2.484  -3.811  32.909  1.00  0.00     0.000 C 
BRANCH  13  14
ATOM     14  C   UNL     1      -2.318  -5.339  32.774  1.00  0.00     0.000 C 
BRANCH  14  15
ATOM     15  C   UNL     1      -1.248  -5.794  31.767  1.00  0.00     0.000 C 
BRANCH  15  16
ATOM     16  C   UNL     1      -1.738  -6.922  30.846  1.00  0.00     0.006 C 
BRANCH  16  17
ATOM     17  C   UNL     1      -3.110  -7.435  31.291  1.00  0.00     0.053 C 
BRANCH  17  18
ATOM     18  C   UNL     1      -3.671  -8.380  30.275  1.00  0.00     0.041 C 
ATOM     19  O   UNL     1      -3.888  -7.989  29.098  1.00  0.00    -0.550 OA
ATOM     20  O   UNL     1      -3.906  -9.706  30.615  1.00  0.00    -0.550 OA
ENDBRANCH  17  18
ENDBRANCH  16  17
ENDBRANCH  15  16
ENDBRANCH  14  15
ENDBRANCH  13  14
ENDBRANCH  12  13
ENDBRANCH  11  12
ENDBRANCH   1  11
TORSDOF 15
ENDMDL
MODEL 9
REMARK VINA RESULT:    -3.654      4.684      9.236
REMARK INTER + INTRA:          -8.075
REMARK INTER:                  -5.870
REMARK INTRA:                  -2.205
REMARK UNBOUND:                -1.217
REMARK SMILES O=C([O-])CCCCCCCCCCCCCCC(=O)[O-]
REMARK SMILES IDX 10 1 9 2 8 3 7 4 6 5 5 6 4 7 2 8 1 9 3 10 11 11 12 12 13 13
REMARK SMILES IDX 14 14 15 15 16 16 17 17 18 18 19 19 20 20
REMARK H PARENT
REMARK Flexibility Score: inf
ROOT
ATOM      1  C   UNL     1      -4.135  -0.266  37.877  1.00  0.00     0.000 C 
ENDROOT
BRANCH   1   2
ATOM      2  C   UNL     1      -5.434  -0.666  38.602  1.00  0.00     0.000 C 
BRANCH   2   3
ATOM      3  C   UNL     1      -6.643  -0.923  37.682  1.00  0.00     0.000 C 
BRANCH   3   4
ATOM      4  C   UNL     1      -6.440  -0.430  36.233  1.00  0.00     0.000 C 
BRANCH   4   5
ATOM      5  C   UNL     1      -6.360  -1.586  35.225  1.00  0.00     0.000 C 
BRANCH   5   6
ATOM      6  C   UNL     1      -5.622  -1.155  33.952  1.00  0.00     0.006 C 
BRANCH   6   7
ATOM      7  C   UNL     1      -4.612  -0.043  34.252  1.00  0.00     0.053 C 
BRANCH   7   8
ATOM      8  C   UNL     1      -3.216  -0.576  34.205  1.00  0.00     0.041 C 
ATOM      9  O   UNL     1      -2.304  -0.026  34.877  1.00  0.00    -0.550 OA
ATOM     10  O   UNL     1      -2.931  -1.711  33.456  1.00  0.00    -0.550 OA
ENDBRANCH   7   8
ENDBRANCH   6   7
ENDBRANCH   5   6
ENDBRANCH   4   5
ENDBRANCH   3   4
ENDBRANCH   2   3
ENDBRANCH   1   2
BRANCH   1  11
ATOM     11  C   UNL     1      -3.512   1.066  38.337  1.00  0.00     0.000 C 
BRANCH  11  12
ATOM     12  C   UNL     1      -3.780   2.221  37.359  1.00  0.00     0.000 C 
BRANCH  12  13
ATOM     13  C   UNL     1      -5.102   2.956  37.648  1.00  0.00     0.000 C 
BRANCH  13  14
ATOM     14  C   UNL     1      -5.550   2.952  39.124  1.00  0.00     0.000 C 
BRANCH  14  15
ATOM     15  C   UNL     1      -7.069   2.856  39.346  1.00  0.00     0.000 C 
BRANCH  15  16
ATOM     16  C   UNL     1      -7.859   2.761  38.032  1.00  0.00     0.006 C 
BRANCH  16  17
ATOM     17  C   UNL     1      -9.311   3.203  38.233  1.00  0.00     0.053 C 
BRANCH  17  18
ATOM     18  C   UNL     1      -9.822   3.898  37.012  1.00  0.00     0.041 C 
ATOM     19  O   UNL     1     -10.541   3.279  36.184  1.00  0.00    -0.550 OA
ATOM     20  O   UNL     1      -9.547   5.245  36.812  1.00  0.00    -0.550 OA
ENDBRANCH  17  18
ENDBRANCH  16  17
ENDBRANCH  15  16
ENDBRANCH  14  15
ENDBRANCH  13  14
ENDBRANCH  12  13
ENDBRANCH  11  12
ENDBRANCH   1  11
TORSDOF 15
ENDMDL
