MODEL 1
REMARK VINA RESULT:    -2.938      0.000      0.000
REMARK INTER + INTRA:          -3.740
REMARK INTER:                  -3.625
REMARK INTRA:                  -0.114
REMARK UNBOUND:                -0.114
REMARK SMILES CCCCCC(=O)[O-]
REMARK SMILES IDX 4 1 5 2 6 3 7 4 8 5 3 6 2 7 1 8
REMARK H PARENT
REMARK Flexibility Score: inf
ROOT
ATOM      1  C   UNL     1     -18.262  32.998 -19.188  1.00  0.00     0.006 C 
ENDROOT
BRANCH   1   2
ATOM      2  C   UNL     1     -19.134  33.962 -18.375  1.00  0.00     0.053 C 
BRANCH   2   3
ATOM      3  C   UNL     1     -20.583  33.702 -18.637  1.00  0.00     0.041 C 
ATOM      4  O   UNL     1     -20.944  33.141 -19.705  1.00  0.00    -0.550 OA
ATOM      5  O   UNL     1     -21.543  34.125 -17.724  1.00  0.00    -0.550 OA
ENDBRANCH   2   3
ENDBRANCH   1   2
BRANCH   1   6
ATOM      6  C   UNL     1     -17.148  33.718 -19.965  1.00  0.00     0.000 C 
BRANCH   6   7
ATOM      7  C   UNL     1     -15.767  33.083 -19.744  1.00  0.00    -0.003 C 
ATOM      8  C   UNL     1     -15.019  33.779 -18.610  1.00  0.00     0.004 C 
ENDBRANCH   6   7
ENDBRANCH   1   6
TORSDOF 4
ENDMDL
MODEL 2
REMARK VINA RESULT:    -2.874      3.029      4.798
REMARK INTER + INTRA:          -3.661
REMARK INTER:                  -3.612
REMARK INTRA:                  -0.050
REMARK UNBOUND:                -0.114
REMARK SMILES CCCCCC(=O)[O-]
REMARK SMILES IDX 4 1 5 2 6 3 7 4 8 5 3 6 2 7 1 8
REMARK H PARENT
REMARK Flexibility Score: inf
ROOT
ATOM      1  C   UNL     1     -18.451  33.381 -19.036  1.00  0.00     0.006 C 
ENDROOT
BRANCH   1   2
ATOM      2  C   UNL     1     -17.344  33.371 -20.098  1.00  0.00     0.053 C 
BRANCH   2   3
ATOM      3  C   UNL     1     -16.081  32.806 -19.530  1.00  0.00     0.041 C 
ATOM      4  O   UNL     1     -15.939  31.560 -19.416  1.00  0.00    -0.550 OA
ATOM      5  O   UNL     1     -15.079  33.656 -19.078  1.00  0.00    -0.550 OA
ENDBRANCH   2   3
ENDBRANCH   1   2
BRANCH   1   6
ATOM      6  C   UNL     1     -19.834  33.698 -19.626  1.00  0.00     0.000 C 
BRANCH   6   7
ATOM      7  C   UNL     1     -20.913  33.865 -18.546  1.00  0.00    -0.003 C 
ATOM      8  C   UNL     1     -21.875  32.680 -18.544  1.00  0.00     0.004 C 
ENDBRANCH   6   7
ENDBRANCH   1   6
TORSDOF 4
ENDMDL
MODEL 3
REMARK VINA RESULT:    -2.032     21.910     23.081
REMARK INTER + INTRA:          -2.622
REMARK INTER:                  -2.577
REMARK INTRA:                  -0.045
REMARK UNBOUND:                -0.114
REMARK SMILES CCCCCC(=O)[O-]
REMARK SMILES IDX 4 1 5 2 6 3 7 4 8 5 3 6 2 7 1 8
REMARK H PARENT
REMARK Flexibility Score: inf
ROOT
ATOM      1  C   UNL     1      -4.394  17.436 -10.753  1.00  0.00     0.006 C 
ENDROOT
BRANCH   1   2
ATOM      2  C   UNL     1      -3.754  18.822 -10.900  1.00  0.00     0.053 C 
BRANCH   2   3
ATOM      3  C   UNL     1      -4.809  19.869 -11.066  1.00  0.00     0.041 C 
ATOM      4  O   UNL     1      -4.492  21.087 -11.115  1.00  0.00    -0.550 OA
ATOM      5  O   UNL     1      -6.150  19.505 -11.115  1.00  0.00    -0.550 OA
ENDBRANCH   2   3
ENDBRANCH   1   2
BRANCH   1   6
ATOM      6  C   UNL     1      -3.372  16.347 -10.388  1.00  0.00     0.000 C 
BRANCH   6   7
ATOM      7  C   UNL     1      -3.985  14.939 -10.388  1.00  0.00    -0.003 C 
ATOM      8  C   UNL     1      -2.914  13.875 -10.159  1.00  0.00     0.004 C 
ENDBRANCH   6   7
ENDBRANCH   1   6
TORSDOF 4
ENDMDL
MODEL 4
REMARK VINA RESULT:    -2.012      1.168      1.657
REMARK INTER + INTRA:          -2.597
REMARK INTER:                  -2.660
REMARK INTRA:                   0.064
REMARK UNBOUND:                -0.114
REMARK SMILES CCCCCC(=O)[O-]
REMARK SMILES IDX 4 1 5 2 6 3 7 4 8 5 3 6 2 7 1 8
REMARK H PARENT
REMARK Flexibility Score: inf
ROOT
ATOM      1  C   UNL     1     -17.049  32.938 -19.044  1.00  0.00     0.006 C 
ENDROOT
BRANCH   1   2
ATOM      2  C   UNL     1     -17.942  34.123 -19.433  1.00  0.00     0.053 C 
BRANCH   2   3
ATOM      3  C   UNL     1     -19.366  33.844 -19.072  1.00  0.00     0.041 C 
ATOM      4  O   UNL     1     -19.651  33.348 -17.950  1.00  0.00    -0.550 OA
ATOM      5  O   UNL     1     -20.378  34.085 -19.995  1.00  0.00    -0.550 OA
ENDBRANCH   2   3
ENDBRANCH   1   2
BRANCH   1   6
ATOM      6  C   UNL     1     -15.803  32.818 -19.936  1.00  0.00     0.000 C 
BRANCH   6   7
ATOM      7  C   UNL     1     -14.613  33.627 -19.399  1.00  0.00    -0.003 C 
ATOM      8  C   UNL     1     -14.882  34.125 -17.982  1.00  0.00     0.004 C 
ENDBRANCH   6   7
ENDBRANCH   1   6
TORSDOF 4
ENDMDL
MODEL 5
REMARK VINA RESULT:    -2.008     20.380     21.555
REMARK INTER + INTRA:          -2.593
REMARK INTER:                  -2.491
REMARK INTRA:                  -0.101
REMARK UNBOUND:                -0.114
REMARK SMILES CCCCCC(=O)[O-]
REMARK SMILES IDX 4 1 5 2 6 3 7 4 8 5 3 6 2 7 1 8
REMARK H PARENT
REMARK Flexibility Score: inf
ROOT
ATOM      1  C   UNL     1      -4.101  19.367 -10.815  1.00  0.00     0.006 C 
ENDROOT
BRANCH   1   2
ATOM      2  C   UNL     1      -5.609  19.259 -11.068  1.00  0.00     0.053 C 
BRANCH   2   3
ATOM      3  C   UNL     1      -6.094  20.442 -11.844  1.00  0.00     0.041 C 
ATOM      4  O   UNL     1      -6.820  20.280 -12.861  1.00  0.00    -0.550 OA
ATOM      5  O   UNL     1      -5.703  21.724 -11.476  1.00  0.00    -0.550 OA
ENDBRANCH   2   3
ENDBRANCH   1   2
BRANCH   1   6
ATOM      6  C   UNL     1      -3.395  18.002 -10.854  1.00  0.00     0.000 C 
BRANCH   6   7
ATOM      7  C   UNL     1      -4.382  16.825 -10.820  1.00  0.00    -0.003 C 
ATOM      8  C   UNL     1      -3.662  15.513 -10.519  1.00  0.00     0.004 C 
ENDBRANCH   6   7
ENDBRANCH   1   6
TORSDOF 4
ENDMDL
MODEL 6
REMARK VINA RESULT:    -1.556     21.802     23.031
REMARK INTER + INTRA:          -2.034
REMARK INTER:                  -1.987
REMARK INTRA:                  -0.047
REMARK UNBOUND:                -0.114
REMARK SMILES CCCCCC(=O)[O-]
REMARK SMILES IDX 4 1 5 2 6 3 7 4 8 5 3 6 2 7 1 8
REMARK H PARENT
REMARK Flexibility Score: inf
ROOT
ATOM      1  C   UNL     1      -4.788  17.923 -10.735  1.00  0.00     0.006 C 
ENDROOT
BRANCH   1   2
ATOM      2  C   UNL     1      -3.444  17.186 -10.683  1.00  0.00     0.053 C 
BRANCH   2   3
ATOM      3  C   UNL     1      -3.660  15.706 -10.662  1.00  0.00     0.041 C 
ATOM      4  O   UNL     1      -4.808  15.230 -10.867  1.00  0.00    -0.550 OA
ATOM      5  O   UNL     1      -2.604  14.853 -10.366  1.00  0.00    -0.550 OA
ENDBRANCH   2   3
ENDBRANCH   1   2
BRANCH   1   6
ATOM      6  C   UNL     1      -4.631  19.419 -11.052  1.00  0.00     0.000 C 
BRANCH   6   7
ATOM      7  C   UNL     1      -5.980  20.119 -11.279  1.00  0.00    -0.003 C 
ATOM      8  C   UNL     1      -5.784  21.604 -11.571  1.00  0.00     0.004 C 
ENDBRANCH   6   7
ENDBRANCH   1   6
TORSDOF 4
ENDMDL
MODEL 7
REMARK VINA RESULT:    -0.763     20.591     21.771
REMARK INTER + INTRA:          -1.056
REMARK INTER:                  -0.915
REMARK INTRA:                  -0.142
REMARK UNBOUND:                -0.114
REMARK SMILES CCCCCC(=O)[O-]
REMARK SMILES IDX 4 1 5 2 6 3 7 4 8 5 3 6 2 7 1 8
REMARK H PARENT
REMARK Flexibility Score: inf
ROOT
ATOM      1  C   UNL     1      -6.013  18.927 -10.677  1.00  0.00     0.006 C 
ENDROOT
BRANCH   1   2
ATOM      2  C   UNL     1      -5.414  17.555 -11.011  1.00  0.00     0.053 C 
BRANCH   2   3
ATOM      3  C   UNL     1      -3.939  17.556 -10.764  1.00  0.00     0.041 C 
ATOM      4  O   UNL     1      -3.366  16.516 -10.343  1.00  0.00    -0.550 OA
ATOM      5  O   UNL     1      -3.202  18.720 -10.950  1.00  0.00    -0.550 OA
ENDBRANCH   2   3
ENDBRANCH   1   2
BRANCH   1   6
ATOM      6  C   UNL     1      -6.362  19.742 -11.932  1.00  0.00     0.000 C 
BRANCH   6   7
ATOM      7  C   UNL     1      -6.352  21.256 -11.675  1.00  0.00    -0.003 C 
ATOM      8  C   UNL     1      -4.931  21.765 -11.445  1.00  0.00     0.004 C 
ENDBRANCH   6   7
ENDBRANCH   1   6
TORSDOF 4
ENDMDL
MODEL 8
REMARK VINA RESULT:    -0.428     19.052     19.917
REMARK INTER + INTRA:          -0.643
REMARK INTER:                  -0.570
REMARK INTRA:                  -0.072
REMARK UNBOUND:                -0.114
REMARK SMILES CCCCCC(=O)[O-]
REMARK SMILES IDX 4 1 5 2 6 3 7 4 8 5 3 6 2 7 1 8
REMARK H PARENT
REMARK Flexibility Score: inf
ROOT
ATOM      1  C   UNL     1     -21.063  26.961  -0.827  1.00  0.00     0.006 C 
ENDROOT
BRANCH   1   2
ATOM      2  C   UNL     1     -20.617  25.624  -0.222  1.00  0.00     0.053 C 
BRANCH   2   3
ATOM      3  C   UNL     1     -20.181  24.683  -1.300  1.00  0.00     0.041 C 
ATOM      4  O   UNL     1     -19.869  23.496  -1.017  1.00  0.00    -0.550 OA
ATOM      5  O   UNL     1     -20.069  25.130  -2.611  1.00  0.00    -0.550 OA
ENDBRANCH   2   3
ENDBRANCH   1   2
BRANCH   1   6
ATOM      6  C   UNL     1     -22.118  27.677   0.031  1.00  0.00     0.000 C 
BRANCH   6   7
ATOM      7  C   UNL     1     -22.125  29.197  -0.187  1.00  0.00    -0.003 C 
ATOM      8  C   UNL     1     -22.086  29.538  -1.674  1.00  0.00     0.004 C 
ENDBRANCH   6   7
ENDBRANCH   1   6
TORSDOF 4
ENDMDL
