MODEL 1
REMARK VINA RESULT:    -4.340      0.000      0.000
REMARK INTER + INTRA:          -6.648
REMARK INTER:                  -6.370
REMARK INTRA:                  -0.278
REMARK UNBOUND:                -0.278
REMARK SMILES O=C([O-])CCCCCCCC(=O)[O-]
REMARK SMILES IDX 7 1 6 2 5 3 4 4 2 5 1 6 3 7 8 8 9 9 10 10 11 11 12 12 13 13
REMARK H PARENT
REMARK Flexibility Score: inf
ROOT
ATOM      1  C   UNL     1       7.090 -32.115 -18.837  1.00  0.00     0.000 C 
ENDROOT
BRANCH   1   2
ATOM      2  C   UNL     1       6.548 -32.790 -20.106  1.00  0.00     0.000 C 
BRANCH   2   3
ATOM      3  C   UNL     1       7.405 -33.983 -20.555  1.00  0.00     0.006 C 
BRANCH   3   4
ATOM      4  C   UNL     1       6.609 -35.293 -20.615  1.00  0.00     0.053 C 
BRANCH   4   5
ATOM      5  C   UNL     1       6.640 -35.860 -21.998  1.00  0.00     0.041 C 
ATOM      6  O   UNL     1       6.017 -35.288 -22.932  1.00  0.00    -0.550 OA
ATOM      7  O   UNL     1       7.316 -37.048 -22.249  1.00  0.00    -0.550 OA
ENDBRANCH   4   5
ENDBRANCH   3   4
ENDBRANCH   2   3
ENDBRANCH   1   2
BRANCH   1   8
ATOM      8  C   UNL     1       5.949 -31.734 -17.887  1.00  0.00     0.000 C 
BRANCH   8   9
ATOM      9  C   UNL     1       6.146 -30.320 -17.327  1.00  0.00     0.006 C 
BRANCH   9  10
ATOM     10  C   UNL     1       7.466 -29.715 -17.814  1.00  0.00     0.053 C 
BRANCH  10  11
ATOM     11  C   UNL     1       7.791 -28.476 -17.042  1.00  0.00     0.041 C 
ATOM     12  O   UNL     1       7.821 -28.503 -15.785  1.00  0.00    -0.550 OA
ATOM     13  O   UNL     1       8.012 -27.279 -17.711  1.00  0.00    -0.550 OA
ENDBRANCH  10  11
ENDBRANCH   9  10
ENDBRANCH   8   9
ENDBRANCH   1   8
TORSDOF 8
ENDMDL
MODEL 2
REMARK VINA RESULT:    -4.193      9.723     12.141
REMARK INTER + INTRA:          -6.432
REMARK INTER:                  -6.175
REMARK INTRA:                  -0.257
REMARK UNBOUND:                -0.278
REMARK SMILES O=C([O-])CCCCCCCC(=O)[O-]
REMARK SMILES IDX 7 1 6 2 5 3 4 4 2 5 1 6 3 7 8 8 9 9 10 10 11 11 12 12 13 13
REMARK H PARENT
REMARK Flexibility Score: inf
ROOT
ATOM      1  C   UNL     1      -0.844 -41.065 -19.953  1.00  0.00     0.000 C 
ENDROOT
BRANCH   1   2
ATOM      2  C   UNL     1      -1.551 -41.448 -18.644  1.00  0.00     0.000 C 
BRANCH   2   3
ATOM      3  C   UNL     1      -0.566 -41.837 -17.531  1.00  0.00     0.006 C 
BRANCH   3   4
ATOM      4  C   UNL     1      -1.033 -43.059 -16.729  1.00  0.00     0.053 C 
BRANCH   4   5
ATOM      5  C   UNL     1      -0.988 -44.289 -17.579  1.00  0.00     0.041 C 
ATOM      6  O   UNL     1       0.119 -44.764 -17.948  1.00  0.00    -0.550 OA
ATOM      7  O   UNL     1      -2.169 -44.885 -18.005  1.00  0.00    -0.550 OA
ENDBRANCH   4   5
ENDBRANCH   3   4
ENDBRANCH   2   3
ENDBRANCH   1   2
BRANCH   1   8
ATOM      8  C   UNL     1      -1.542 -39.877 -20.626  1.00  0.00     0.000 C 
BRANCH   8   9
ATOM      9  C   UNL     1      -0.599 -39.166 -21.605  1.00  0.00     0.006 C 
BRANCH   9  10
ATOM     10  C   UNL     1      -1.179 -37.821 -22.049  1.00  0.00     0.053 C 
BRANCH  10  11
ATOM     11  C   UNL     1      -0.433 -36.692 -21.412  1.00  0.00     0.041 C 
ATOM     12  O   UNL     1      -1.058 -35.753 -20.856  1.00  0.00    -0.550 OA
ATOM     13  O   UNL     1       0.955 -36.652 -21.477  1.00  0.00    -0.550 OA
ENDBRANCH  10  11
ENDBRANCH   9  10
ENDBRANCH   8   9
ENDBRANCH   1   8
TORSDOF 8
ENDMDL
MODEL 3
REMARK VINA RESULT:    -4.158     12.737     14.531
REMARK INTER + INTRA:          -6.381
REMARK INTER:                  -5.847
REMARK INTRA:                  -0.534
REMARK UNBOUND:                -0.278
REMARK SMILES O=C([O-])CCCCCCCC(=O)[O-]
REMARK SMILES IDX 7 1 6 2 5 3 4 4 2 5 1 6 3 7 8 8 9 9 10 10 11 11 12 12 13 13
REMARK H PARENT
REMARK Flexibility Score: inf
ROOT
ATOM      1  C   UNL     1      -0.492 -46.368 -17.508  1.00  0.00     0.000 C 
ENDROOT
BRANCH   1   2
ATOM      2  C   UNL     1       0.955 -45.978 -17.848  1.00  0.00     0.000 C 
BRANCH   2   3
ATOM      3  C   UNL     1       1.776 -45.609 -16.603  1.00  0.00     0.006 C 
BRANCH   3   4
ATOM      4  C   UNL     1       2.916 -46.600 -16.332  1.00  0.00     0.053 C 
BRANCH   4   5
ATOM      5  C   UNL     1       4.153 -45.871 -15.914  1.00  0.00     0.041 C 
ATOM      6  O   UNL     1       4.066 -44.781 -15.289  1.00  0.00    -0.550 OA
ATOM      7  O   UNL     1       5.404 -46.370 -16.257  1.00  0.00    -0.550 OA
ENDBRANCH   4   5
ENDBRANCH   3   4
ENDBRANCH   2   3
ENDBRANCH   1   2
BRANCH   1   8
ATOM      8  C   UNL     1      -1.203 -45.236 -16.757  1.00  0.00     0.000 C 
BRANCH   8   9
ATOM      9  C   UNL     1      -1.606 -44.107 -17.714  1.00  0.00     0.006 C 
BRANCH   9  10
ATOM     10  C   UNL     1      -0.958 -42.782 -17.304  1.00  0.00     0.053 C 
BRANCH  10  11
ATOM     11  C   UNL     1      -0.106 -42.250 -18.412  1.00  0.00     0.041 C 
ATOM     12  O   UNL     1       1.147 -42.329 -18.342  1.00  0.00    -0.550 OA
ATOM     13  O   UNL     1      -0.697 -41.621 -19.501  1.00  0.00    -0.550 OA
ENDBRANCH  10  11
ENDBRANCH   9  10
ENDBRANCH   8   9
ENDBRANCH   1   8
TORSDOF 8
ENDMDL
MODEL 4
REMARK VINA RESULT:    -4.115     12.406     15.216
REMARK INTER + INTRA:          -6.318
REMARK INTER:                  -5.697
REMARK INTRA:                  -0.621
REMARK UNBOUND:                -0.278
REMARK SMILES O=C([O-])CCCCCCCC(=O)[O-]
REMARK SMILES IDX 7 1 6 2 5 3 4 4 2 5 1 6 3 7 8 8 9 9 10 10 11 11 12 12 13 13
REMARK H PARENT
REMARK Flexibility Score: inf
ROOT
ATOM      1  C   UNL     1       1.420 -44.607 -18.404  1.00  0.00     0.000 C 
ENDROOT
BRANCH   1   2
ATOM      2  C   UNL     1       1.998 -43.524 -17.480  1.00  0.00     0.000 C 
BRANCH   2   3
ATOM      3  C   UNL     1       1.435 -42.127 -17.781  1.00  0.00     0.006 C 
BRANCH   3   4
ATOM      4  C   UNL     1       0.160 -42.174 -18.632  1.00  0.00     0.053 C 
BRANCH   4   5
ATOM      5  C   UNL     1      -0.993 -41.594 -17.878  1.00  0.00     0.041 C 
ATOM      6  O   UNL     1      -1.997 -41.151 -18.497  1.00  0.00    -0.550 OA
ATOM      7  O   UNL     1      -0.940 -41.495 -16.493  1.00  0.00    -0.550 OA
ENDBRANCH   4   5
ENDBRANCH   3   4
ENDBRANCH   2   3
ENDBRANCH   1   2
BRANCH   1   8
ATOM      8  C   UNL     1       1.437 -45.979 -17.719  1.00  0.00     0.000 C 
BRANCH   8   9
ATOM      9  C   UNL     1       0.039 -46.610 -17.715  1.00  0.00     0.006 C 
BRANCH   9  10
ATOM     10  C   UNL     1      -0.946 -45.760 -16.907  1.00  0.00     0.053 C 
BRANCH  10  11
ATOM     11  C   UNL     1      -2.264 -45.677 -17.607  1.00  0.00     0.041 C 
ATOM     12  O   UNL     1      -2.914 -44.600 -17.609  1.00  0.00    -0.550 OA
ATOM     13  O   UNL     1      -2.800 -46.806 -18.215  1.00  0.00    -0.550 OA
ENDBRANCH  10  11
ENDBRANCH   9  10
ENDBRANCH   8   9
ENDBRANCH   1   8
TORSDOF 8
ENDMDL
MODEL 5
REMARK VINA RESULT:    -4.079     12.621     14.524
REMARK INTER + INTRA:          -6.265
REMARK INTER:                  -5.439
REMARK INTRA:                  -0.826
REMARK UNBOUND:                -0.278
REMARK SMILES O=C([O-])CCCCCCCC(=O)[O-]
REMARK SMILES IDX 7 1 6 2 5 3 4 4 2 5 1 6 3 7 8 8 9 9 10 10 11 11 12 12 13 13
REMARK H PARENT
REMARK Flexibility Score: inf
ROOT
ATOM      1  C   UNL     1       1.932 -45.033 -16.937  1.00  0.00     0.000 C 
ENDROOT
BRANCH   1   2
ATOM      2  C   UNL     1       1.017 -44.884 -15.711  1.00  0.00     0.000 C 
BRANCH   2   3
ATOM      3  C   UNL     1      -0.381 -45.480 -15.940  1.00  0.00     0.006 C 
BRANCH   3   4
ATOM      4  C   UNL     1      -0.630 -45.857 -17.406  1.00  0.00     0.053 C 
BRANCH   4   5
ATOM      5  C   UNL     1      -2.095 -45.858 -17.703  1.00  0.00     0.041 C 
ATOM      6  O   UNL     1      -2.635 -46.867 -18.230  1.00  0.00    -0.550 OA
ATOM      7  O   UNL     1      -2.859 -44.726 -17.444  1.00  0.00    -0.550 OA
ENDBRANCH   4   5
ENDBRANCH   3   4
ENDBRANCH   2   3
ENDBRANCH   1   2
BRANCH   1   8
ATOM      8  C   UNL     1       2.682 -43.727 -17.224  1.00  0.00     0.000 C 
BRANCH   8   9
ATOM      9  C   UNL     1       1.747 -42.517 -17.109  1.00  0.00     0.006 C 
BRANCH   9  10
ATOM     10  C   UNL     1       0.776 -42.459 -18.292  1.00  0.00     0.053 C 
BRANCH  10  11
ATOM     11  C   UNL     1      -0.585 -42.041 -17.833  1.00  0.00     0.041 C 
ATOM     12  O   UNL     1      -1.506 -41.855 -18.670  1.00  0.00    -0.550 OA
ATOM     13  O   UNL     1      -0.822 -41.808 -16.484  1.00  0.00    -0.550 OA
ENDBRANCH  10  11
ENDBRANCH   9  10
ENDBRANCH   8   9
ENDBRANCH   1   8
TORSDOF 8
ENDMDL
MODEL 6
REMARK VINA RESULT:    -4.025      6.486      8.242
REMARK INTER + INTRA:          -6.185
REMARK INTER:                  -5.772
REMARK INTRA:                  -0.413
REMARK UNBOUND:                -0.278
REMARK SMILES O=C([O-])CCCCCCCC(=O)[O-]
REMARK SMILES IDX 7 1 6 2 5 3 4 4 2 5 1 6 3 7 8 8 9 9 10 10 11 11 12 12 13 13
REMARK H PARENT
REMARK Flexibility Score: inf
ROOT
ATOM      1  C   UNL     1       2.932 -35.910 -23.626  1.00  0.00     0.000 C 
ENDROOT
BRANCH   1   2
ATOM      2  C   UNL     1       1.882 -36.931 -24.091  1.00  0.00     0.000 C 
BRANCH   2   3
ATOM      3  C   UNL     1       1.115 -37.565 -22.920  1.00  0.00     0.006 C 
BRANCH   3   4
ATOM      4  C   UNL     1       1.058 -36.653 -21.688  1.00  0.00     0.053 C 
BRANCH   4   5
ATOM      5  C   UNL     1      -0.362 -36.355 -21.324  1.00  0.00     0.041 C 
ATOM      6  O   UNL     1      -1.306 -36.845 -21.999  1.00  0.00    -0.550 OA
ATOM      7  O   UNL     1      -0.645 -35.497 -20.267  1.00  0.00    -0.550 OA
ENDBRANCH   4   5
ENDBRANCH   3   4
ENDBRANCH   2   3
ENDBRANCH   1   2
BRANCH   1   8
ATOM      8  C   UNL     1       4.339 -36.520 -23.651  1.00  0.00     0.000 C 
BRANCH   8   9
ATOM      9  C   UNL     1       5.275 -35.786 -22.683  1.00  0.00     0.006 C 
BRANCH   9  10
ATOM     10  C   UNL     1       6.365 -36.722 -22.155  1.00  0.00     0.053 C 
BRANCH  10  11
ATOM     11  C   UNL     1       5.977 -37.278 -20.822  1.00  0.00     0.041 C 
ATOM     12  O   UNL     1       6.715 -38.120 -20.248  1.00  0.00    -0.550 OA
ATOM     13  O   UNL     1       4.774 -36.904 -20.236  1.00  0.00    -0.550 OA
ENDBRANCH  10  11
ENDBRANCH   9  10
ENDBRANCH   8   9
ENDBRANCH   1   8
TORSDOF 8
ENDMDL
MODEL 7
REMARK VINA RESULT:    -3.959      8.705     11.472
REMARK INTER + INTRA:          -6.089
REMARK INTER:                  -5.908
REMARK INTRA:                  -0.181
REMARK UNBOUND:                -0.278
REMARK SMILES O=C([O-])CCCCCCCC(=O)[O-]
REMARK SMILES IDX 7 1 6 2 5 3 4 4 2 5 1 6 3 7 8 8 9 9 10 10 11 11 12 12 13 13
REMARK H PARENT
REMARK Flexibility Score: inf
ROOT
ATOM      1  C   UNL     1      -0.774 -39.748 -21.326  1.00  0.00     0.000 C 
ENDROOT
BRANCH   1   2
ATOM      2  C   UNL     1      -1.563 -40.316 -20.137  1.00  0.00     0.000 C 
BRANCH   2   3
ATOM      3  C   UNL     1      -0.842 -41.488 -19.453  1.00  0.00     0.006 C 
BRANCH   3   4
ATOM      4  C   UNL     1      -1.575 -41.983 -18.199  1.00  0.00     0.053 C 
BRANCH   4   5
ATOM      5  C   UNL     1      -1.160 -43.381 -17.869  1.00  0.00     0.041 C 
ATOM      6  O   UNL     1       0.052 -43.648 -17.653  1.00  0.00    -0.550 OA
ATOM      7  O   UNL     1      -2.103 -44.401 -17.847  1.00  0.00    -0.550 OA
ENDBRANCH   4   5
ENDBRANCH   3   4
ENDBRANCH   2   3
ENDBRANCH   1   2
BRANCH   1   8
ATOM      8  C   UNL     1      -1.104 -38.266 -21.545  1.00  0.00     0.000 C 
BRANCH   8   9
ATOM      9  C   UNL     1       0.173 -37.419 -21.600  1.00  0.00     0.006 C 
BRANCH   9  10
ATOM     10  C   UNL     1       0.770 -37.414 -23.011  1.00  0.00     0.053 C 
BRANCH  10  11
ATOM     11  C   UNL     1       2.256 -37.260 -22.950  1.00  0.00     0.041 C 
ATOM     12  O   UNL     1       2.981 -37.751 -23.854  1.00  0.00    -0.550 OA
ATOM     13  O   UNL     1       2.845 -36.617 -21.869  1.00  0.00    -0.550 OA
ENDBRANCH  10  11
ENDBRANCH   9  10
ENDBRANCH   8   9
ENDBRANCH   1   8
TORSDOF 8
ENDMDL
MODEL 8
REMARK VINA RESULT:    -3.918     12.211     14.312
REMARK INTER + INTRA:          -6.028
REMARK INTER:                  -5.256
REMARK INTRA:                  -0.772
REMARK UNBOUND:                -0.278
REMARK SMILES O=C([O-])CCCCCCCC(=O)[O-]
REMARK SMILES IDX 7 1 6 2 5 3 4 4 2 5 1 6 3 7 8 8 9 9 10 10 11 11 12 12 13 13
REMARK H PARENT
REMARK Flexibility Score: inf
ROOT
ATOM      1  C   UNL     1       0.468 -42.211 -15.597  1.00  0.00     0.000 C 
ENDROOT
BRANCH   1   2
ATOM      2  C   UNL     1      -0.767 -42.891 -14.987  1.00  0.00     0.000 C 
BRANCH   2   3
ATOM      3  C   UNL     1      -0.770 -44.413 -15.200  1.00  0.00     0.006 C 
BRANCH   3   4
ATOM      4  C   UNL     1      -2.045 -44.911 -15.893  1.00  0.00     0.053 C 
BRANCH   4   5
ATOM      5  C   UNL     1      -1.702 -45.674 -17.132  1.00  0.00     0.041 C 
ATOM      6  O   UNL     1      -2.588 -45.917 -17.993  1.00  0.00    -0.550 OA
ATOM      7  O   UNL     1      -0.413 -46.161 -17.315  1.00  0.00    -0.550 OA
ENDBRANCH   4   5
ENDBRANCH   3   4
ENDBRANCH   2   3
ENDBRANCH   1   2
BRANCH   1   8
ATOM      8  C   UNL     1       1.303 -43.212 -16.405  1.00  0.00     0.000 C 
BRANCH   8   9
ATOM      9  C   UNL     1       1.133 -42.982 -17.911  1.00  0.00     0.006 C 
BRANCH   9  10
ATOM     10  C   UNL     1       0.539 -41.599 -18.193  1.00  0.00     0.053 C 
BRANCH  10  11
ATOM     11  C   UNL     1      -0.733 -41.724 -18.970  1.00  0.00     0.041 C 
ATOM     12  O   UNL     1      -0.854 -41.151 -20.084  1.00  0.00    -0.550 OA
ATOM     13  O   UNL     1      -1.804 -42.433 -18.441  1.00  0.00    -0.550 OA
ENDBRANCH  10  11
ENDBRANCH   9  10
ENDBRANCH   8   9
ENDBRANCH   1   8
TORSDOF 8
ENDMDL
MODEL 9
REMARK VINA RESULT:    -3.891     11.834     13.783
REMARK INTER + INTRA:          -5.988
REMARK INTER:                  -5.266
REMARK INTRA:                  -0.723
REMARK UNBOUND:                -0.278
REMARK SMILES O=C([O-])CCCCCCCC(=O)[O-]
REMARK SMILES IDX 7 1 6 2 5 3 4 4 2 5 1 6 3 7 8 8 9 9 10 10 11 11 12 12 13 13
REMARK H PARENT
REMARK Flexibility Score: inf
ROOT
ATOM      1  C   UNL     1       0.855 -45.506 -17.853  1.00  0.00     0.000 C 
ENDROOT
BRANCH   1   2
ATOM      2  C   UNL     1      -0.627 -45.691 -17.492  1.00  0.00     0.000 C 
BRANCH   2   3
ATOM      3  C   UNL     1      -1.267 -44.407 -16.943  1.00  0.00     0.006 C 
BRANCH   3   4
ATOM      4  C   UNL     1      -1.477 -43.341 -18.027  1.00  0.00     0.053 C 
BRANCH   4   5
ATOM      5  C   UNL     1      -0.573 -42.174 -17.793  1.00  0.00     0.041 C 
ATOM      6  O   UNL     1       0.268 -41.838 -18.669  1.00  0.00    -0.550 OA
ATOM      7  O   UNL     1      -0.623 -41.485 -16.587  1.00  0.00    -0.550 OA
ENDBRANCH   4   5
ENDBRANCH   3   4
ENDBRANCH   2   3
ENDBRANCH   1   2
BRANCH   1   8
ATOM      8  C   UNL     1       1.761 -46.161 -16.805  1.00  0.00     0.000 C 
BRANCH   8   9
ATOM      9  C   UNL     1       2.906 -45.223 -16.402  1.00  0.00     0.006 C 
BRANCH   9  10
ATOM     10  C   UNL     1       2.392 -43.802 -16.157  1.00  0.00     0.053 C 
BRANCH  10  11
ATOM     11  C   UNL     1       3.253 -42.804 -16.863  1.00  0.00     0.041 C 
ATOM     12  O   UNL     1       3.669 -41.784 -16.255  1.00  0.00    -0.550 OA
ATOM     13  O   UNL     1       3.557 -42.976 -18.208  1.00  0.00    -0.550 OA
ENDBRANCH  10  11
ENDBRANCH   9  10
ENDBRANCH   8   9
ENDBRANCH   1   8
TORSDOF 8
ENDMDL
