MODEL 1
REMARK VINA RESULT:    -4.613      0.000      0.000
REMARK INTER + INTRA:          -5.264
REMARK INTER:                  -5.018
REMARK INTRA:                  -0.247
REMARK UNBOUND:                -0.247
REMARK SMILES O=C([O-])c1ccccc1O
REMARK SMILES IDX 4 1 9 2 5 3 8 4 6 5 7 6 2 7 1 8 3 9 10 10
REMARK H PARENT 10 11
REMARK Flexibility Score: inf
ROOT
ATOM      1  C   UNL     1      19.716   5.440 -11.497  1.00  0.00     0.039 A 
ATOM      2  C   UNL     1      20.577   6.346 -10.833  1.00  0.00     0.124 A 
ATOM      3  C   UNL     1      20.182   4.786 -12.655  1.00  0.00     0.014 A 
ATOM      4  C   UNL     1      21.867   6.578 -11.332  1.00  0.00     0.047 A 
ATOM      5  C   UNL     1      21.470   5.026 -13.139  1.00  0.00     0.001 A 
ATOM      6  C   UNL     1      22.311   5.920 -12.479  1.00  0.00     0.004 A 
ENDROOT
BRANCH   1   7
ATOM      7  C   UNL     1      18.341   5.165 -11.004  1.00  0.00     0.075 C 
ATOM      8  O   UNL     1      17.606   6.109 -10.610  1.00  0.00    -0.545 OA
ATOM      9  O   UNL     1      17.839   3.870 -10.966  1.00  0.00    -0.545 OA
ENDBRANCH   1   7
BRANCH   2  10
ATOM     10  O   UNL     1      20.158   7.018  -9.684  1.00  0.00    -0.507 OA
ATOM     11  H   UNL     1      20.751   7.696  -9.218  1.00  0.00     0.293 HD
ENDBRANCH   2  10
TORSDOF 2
ENDMDL
MODEL 2
REMARK VINA RESULT:    -4.590      1.364      2.439
REMARK INTER + INTRA:          -5.239
REMARK INTER:                  -4.991
REMARK INTRA:                  -0.248
REMARK UNBOUND:                -0.247
REMARK SMILES O=C([O-])c1ccccc1O
REMARK SMILES IDX 4 1 9 2 5 3 8 4 6 5 7 6 2 7 1 8 3 9 10 10
REMARK H PARENT 10 11
REMARK Flexibility Score: inf
ROOT
ATOM      1  C   UNL     1      19.572   5.642 -11.112  1.00  0.00     0.039 A 
ATOM      2  C   UNL     1      20.433   5.580 -12.234  1.00  0.00     0.124 A 
ATOM      3  C   UNL     1      19.963   6.411  -9.998  1.00  0.00     0.014 A 
ATOM      4  C   UNL     1      21.652   6.276 -12.219  1.00  0.00     0.047 A 
ATOM      5  C   UNL     1      21.179   7.098  -9.998  1.00  0.00     0.001 A 
ATOM      6  C   UNL     1      22.022   7.032 -11.106  1.00  0.00     0.004 A 
ENDROOT
BRANCH   1   7
ATOM      7  C   UNL     1      18.273   4.921 -11.085  1.00  0.00     0.075 C 
ATOM      8  O   UNL     1      18.196   3.732 -11.497  1.00  0.00    -0.545 OA
ATOM      9  O   UNL     1      17.121   5.536 -10.609  1.00  0.00    -0.545 OA
ENDBRANCH   1   7
BRANCH   2  10
ATOM     10  O   UNL     1      20.088   4.831 -13.360  1.00  0.00    -0.507 OA
ATOM     11  H   UNL     1      19.564   3.967 -13.285  1.00  0.00     0.293 HD
ENDBRANCH   2  10
TORSDOF 2
ENDMDL
MODEL 3
REMARK VINA RESULT:    -4.433      2.295      3.478
REMARK INTER + INTRA:          -5.068
REMARK INTER:                  -4.817
REMARK INTRA:                  -0.251
REMARK UNBOUND:                -0.247
REMARK SMILES O=C([O-])c1ccccc1O
REMARK SMILES IDX 4 1 9 2 5 3 8 4 6 5 7 6 2 7 1 8 3 9 10 10
REMARK H PARENT 10 11
REMARK Flexibility Score: inf
ROOT
ATOM      1  C   UNL     1      20.782   5.966 -11.613  1.00  0.00     0.039 A 
ATOM      2  C   UNL     1      20.583   6.509 -10.321  1.00  0.00     0.124 A 
ATOM      3  C   UNL     1      19.693   5.353 -12.266  1.00  0.00     0.014 A 
ATOM      4  C   UNL     1      19.321   6.427  -9.714  1.00  0.00     0.047 A 
ATOM      5  C   UNL     1      18.442   5.280 -11.649  1.00  0.00     0.001 A 
ATOM      6  C   UNL     1      18.256   5.816 -10.376  1.00  0.00     0.004 A 
ENDROOT
BRANCH   1   7
ATOM      7  C   UNL     1      22.101   6.030 -12.293  1.00  0.00     0.075 C 
ATOM      8  O   UNL     1      22.726   7.122 -12.369  1.00  0.00    -0.545 OA
ATOM      9  O   UNL     1      22.673   4.897 -12.858  1.00  0.00    -0.545 OA
ENDBRANCH   1   7
BRANCH   2  10
ATOM     10  O   UNL     1      21.631   7.125  -9.636  1.00  0.00    -0.507 OA
ATOM     11  H   UNL     1      21.463   7.838  -8.936  1.00  0.00     0.293 HD
ENDBRANCH   2  10
TORSDOF 2
ENDMDL
MODEL 4
REMARK VINA RESULT:    -4.386      2.399      4.078
REMARK INTER + INTRA:          -5.018
REMARK INTER:                  -4.764
REMARK INTRA:                  -0.254
REMARK UNBOUND:                -0.247
REMARK SMILES O=C([O-])c1ccccc1O
REMARK SMILES IDX 4 1 9 2 5 3 8 4 6 5 7 6 2 7 1 8 3 9 10 10
REMARK H PARENT 10 11
REMARK Flexibility Score: inf
ROOT
ATOM      1  C   UNL     1      21.068   5.983 -11.819  1.00  0.00     0.039 A 
ATOM      2  C   UNL     1      19.995   5.226 -12.347  1.00  0.00     0.124 A 
ATOM      3  C   UNL     1      20.863   6.715 -10.632  1.00  0.00     0.014 A 
ATOM      4  C   UNL     1      18.756   5.217 -11.689  1.00  0.00     0.047 A 
ATOM      5  C   UNL     1      19.623   6.695  -9.988  1.00  0.00     0.001 A 
ATOM      6  C   UNL     1      18.572   5.947 -10.515  1.00  0.00     0.004 A 
ENDROOT
BRANCH   1   7
ATOM      7  C   UNL     1      22.397   6.022 -12.483  1.00  0.00     0.075 C 
ATOM      8  O   UNL     1      23.018   7.112 -12.600  1.00  0.00    -0.545 OA
ATOM      9  O   UNL     1      22.982   4.866 -12.985  1.00  0.00    -0.545 OA
ENDBRANCH   1   7
BRANCH   2  10
ATOM     10  O   UNL     1      20.151   4.486 -13.520  1.00  0.00    -0.507 OA
ATOM     11  H   UNL     1      20.936   4.635 -14.143  1.00  0.00     0.293 HD
ENDBRANCH   2  10
TORSDOF 2
ENDMDL
MODEL 5
REMARK VINA RESULT:    -4.140     24.317     25.420
REMARK INTER + INTRA:          -4.750
REMARK INTER:                  -4.500
REMARK INTRA:                  -0.250
REMARK UNBOUND:                -0.247
REMARK SMILES O=C([O-])c1ccccc1O
REMARK SMILES IDX 4 1 9 2 5 3 8 4 6 5 7 6 2 7 1 8 3 9 10 10
REMARK H PARENT 10 11
REMARK Flexibility Score: inf
ROOT
ATOM      1  C   UNL     1      29.471 -12.379 -26.420  1.00  0.00     0.039 A 
ATOM      2  C   UNL     1      28.056 -12.383 -26.419  1.00  0.00     0.124 A 
ATOM      3  C   UNL     1      30.150 -12.754 -27.597  1.00  0.00     0.014 A 
ATOM      4  C   UNL     1      27.357 -12.757 -27.577  1.00  0.00     0.047 A 
ATOM      5  C   UNL     1      29.440 -13.124 -28.742  1.00  0.00     0.001 A 
ATOM      6  C   UNL     1      28.047 -13.125 -28.733  1.00  0.00     0.004 A 
ENDROOT
BRANCH   1   7
ATOM      7  C   UNL     1      30.252 -11.990 -25.217  1.00  0.00     0.075 C 
ATOM      8  O   UNL     1      30.022 -10.896 -24.636  1.00  0.00    -0.545 OA
ATOM      9  O   UNL     1      31.246 -12.817 -24.709  1.00  0.00    -0.545 OA
ENDBRANCH   1   7
BRANCH   2  10
ATOM     10  O   UNL     1      27.341 -12.020 -25.277  1.00  0.00    -0.507 OA
ATOM     11  H   UNL     1      27.292 -12.624 -24.465  1.00  0.00     0.293 HD
ENDBRANCH   2  10
TORSDOF 2
ENDMDL
MODEL 6
REMARK VINA RESULT:    -4.120     24.613     25.982
REMARK INTER + INTRA:          -4.728
REMARK INTER:                  -4.478
REMARK INTRA:                  -0.250
REMARK UNBOUND:                -0.247
REMARK SMILES O=C([O-])c1ccccc1O
REMARK SMILES IDX 4 1 9 2 5 3 8 4 6 5 7 6 2 7 1 8 3 9 10 10
REMARK H PARENT 10 11
REMARK Flexibility Score: inf
ROOT
ATOM      1  C   UNL     1      29.514 -12.578 -26.521  1.00  0.00     0.039 A 
ATOM      2  C   UNL     1      30.004 -12.861 -27.818  1.00  0.00     0.124 A 
ATOM      3  C   UNL     1      28.121 -12.570 -26.309  1.00  0.00     0.014 A 
ATOM      4  C   UNL     1      29.105 -13.125 -28.863  1.00  0.00     0.047 A 
ATOM      5  C   UNL     1      27.239 -12.835 -27.358  1.00  0.00     0.001 A 
ATOM      6  C   UNL     1      27.729 -13.113 -28.633  1.00  0.00     0.004 A 
ENDROOT
BRANCH   1   7
ATOM      7  C   UNL     1      30.430 -12.293 -25.386  1.00  0.00     0.075 C 
ATOM      8  O   UNL     1      31.366 -13.089 -25.108  1.00  0.00    -0.545 OA
ATOM      9  O   UNL     1      30.276 -11.151 -24.609  1.00  0.00    -0.545 OA
ENDBRANCH   1   7
BRANCH   2  10
ATOM     10  O   UNL     1      31.375 -12.880 -28.077  1.00  0.00    -0.507 OA
ATOM     11  H   UNL     1      32.024 -12.306 -27.551  1.00  0.00     0.293 HD
ENDBRANCH   2  10
TORSDOF 2
ENDMDL
MODEL 7
REMARK VINA RESULT:    -4.086     10.763     12.142
REMARK INTER + INTRA:          -4.691
REMARK INTER:                  -4.486
REMARK INTRA:                  -0.205
REMARK UNBOUND:                -0.247
REMARK SMILES O=C([O-])c1ccccc1O
REMARK SMILES IDX 4 1 9 2 5 3 8 4 6 5 7 6 2 7 1 8 3 9 10 10
REMARK H PARENT 10 11
REMARK Flexibility Score: inf
ROOT
ATOM      1  C   UNL     1      24.662  -2.578 -18.183  1.00  0.00     0.039 A 
ATOM      2  C   UNL     1      24.867  -2.213 -19.535  1.00  0.00     0.124 A 
ATOM      3  C   UNL     1      24.887  -3.916 -17.800  1.00  0.00     0.014 A 
ATOM      4  C   UNL     1      25.283  -3.178 -20.465  1.00  0.00     0.047 A 
ATOM      5  C   UNL     1      25.302  -4.865 -18.737  1.00  0.00     0.001 A 
ATOM      6  C   UNL     1      25.501  -4.497 -20.066  1.00  0.00     0.004 A 
ENDROOT
BRANCH   1   7
ATOM      7  C   UNL     1      24.221  -1.590 -17.165  1.00  0.00     0.075 C 
ATOM      8  O   UNL     1      24.427  -1.803 -15.940  1.00  0.00    -0.545 OA
ATOM      9  O   UNL     1      23.576  -0.417 -17.537  1.00  0.00    -0.545 OA
ENDBRANCH   1   7
BRANCH   2  10
ATOM     10  O   UNL     1      24.657  -0.901 -19.961  1.00  0.00    -0.507 OA
ATOM     11  H   UNL     1      23.729  -0.494 -19.995  1.00  0.00     0.293 HD
ENDBRANCH   2  10
TORSDOF 2
ENDMDL
MODEL 8
REMARK VINA RESULT:    -4.074     12.542     13.963
REMARK INTER + INTRA:          -4.678
REMARK INTER:                  -4.438
REMARK INTRA:                  -0.240
REMARK UNBOUND:                -0.247
REMARK SMILES O=C([O-])c1ccccc1O
REMARK SMILES IDX 4 1 9 2 5 3 8 4 6 5 7 6 2 7 1 8 3 9 10 10
REMARK H PARENT 10 11
REMARK Flexibility Score: inf
ROOT
ATOM      1  C   UNL     1      25.400  -3.932 -19.951  1.00  0.00     0.039 A 
ATOM      2  C   UNL     1      25.352  -4.033 -18.540  1.00  0.00     0.124 A 
ATOM      3  C   UNL     1      24.939  -2.748 -20.562  1.00  0.00     0.014 A 
ATOM      4  C   UNL     1      24.850  -2.966 -17.779  1.00  0.00     0.047 A 
ATOM      5  C   UNL     1      24.443  -1.695 -19.791  1.00  0.00     0.001 A 
ATOM      6  C   UNL     1      24.399  -1.803 -18.403  1.00  0.00     0.004 A 
ENDROOT
BRANCH   1   7
ATOM      7  C   UNL     1      25.924  -5.036 -20.795  1.00  0.00     0.075 C 
ATOM      8  O   UNL     1      26.543  -4.782 -21.863  1.00  0.00    -0.545 OA
ATOM      9  O   UNL     1      25.744  -6.365 -20.431  1.00  0.00    -0.545 OA
ENDBRANCH   1   7
BRANCH   2  10
ATOM     10  O   UNL     1      25.797  -5.185 -17.890  1.00  0.00    -0.507 OA
ATOM     11  H   UNL     1      25.149  -5.875 -17.528  1.00  0.00     0.293 HD
ENDBRANCH   2  10
TORSDOF 2
ENDMDL
MODEL 9
REMARK VINA RESULT:    -4.023     12.634     14.074
REMARK INTER + INTRA:          -4.622
REMARK INTER:                  -4.378
REMARK INTRA:                  -0.243
REMARK UNBOUND:                -0.247
REMARK SMILES O=C([O-])c1ccccc1O
REMARK SMILES IDX 4 1 9 2 5 3 8 4 6 5 7 6 2 7 1 8 3 9 10 10
REMARK H PARENT 10 11
REMARK Flexibility Score: inf
ROOT
ATOM      1  C   UNL     1      25.364  -4.258 -19.638  1.00  0.00     0.039 A 
ATOM      2  C   UNL     1      24.917  -3.042 -20.208  1.00  0.00     0.124 A 
ATOM      3  C   UNL     1      25.377  -4.384 -18.234  1.00  0.00     0.014 A 
ATOM      4  C   UNL     1      24.500  -1.992 -19.377  1.00  0.00     0.047 A 
ATOM      5  C   UNL     1      24.958  -3.330 -17.420  1.00  0.00     0.001 A 
ATOM      6  C   UNL     1      24.519  -2.136 -17.990  1.00  0.00     0.004 A 
ENDROOT
BRANCH   1   7
ATOM      7  C   UNL     1      25.816  -5.396 -20.480  1.00  0.00     0.075 C 
ATOM      8  O   UNL     1      25.580  -6.582 -20.125  1.00  0.00    -0.545 OA
ATOM      9  O   UNL     1      26.504  -5.182 -21.668  1.00  0.00    -0.545 OA
ENDBRANCH   1   7
BRANCH   2  10
ATOM     10  O   UNL     1      24.888  -2.871 -21.593  1.00  0.00    -0.507 OA
ATOM     11  H   UNL     1      25.716  -2.611 -22.115  1.00  0.00     0.293 HD
ENDBRANCH   2  10
TORSDOF 2
ENDMDL
