MODEL 1
REMARK VINA RESULT:    -6.071      0.000      0.000
REMARK INTER + INTRA:          -7.398
REMARK INTER:                  -7.135
REMARK INTRA:                  -0.263
REMARK UNBOUND:                -0.263
REMARK SMILES O=c1c(O)c(-c2ccc(O)cc2)oc2cc(O)cc(O)c12
REMARK SMILES IDX 5 1 3 2 2 3 1 4 21 5 19 6 18 7 16 8 15 9 14 10 13 11 6 12
REMARK SMILES IDX 7 13 8 14 9 15 12 16 11 17 10 18 4 20 20 22 17 24
REMARK H PARENT 10 19 4 21 20 23 17 25
REMARK Flexibility Score: inf
ROOT
ATOM      1  C   UNL     1      -2.968  52.072  10.669  1.00  0.00     0.180 A 
ATOM      2  C   UNL     1      -2.083  53.129  10.943  1.00  0.00     0.208 A 
ATOM      3  C   UNL     1      -1.894  53.532  12.275  1.00  0.00     0.238 A 
ATOM      4  O   UNL     1      -1.059  54.442  12.519  1.00  0.00    -0.285 OA
ATOM      5  C   UNL     1      -2.605  52.884  13.314  1.00  0.00     0.111 A 
ATOM      6  C   UNL     1      -2.521  53.237  14.694  1.00  0.00     0.134 A 
ATOM      7  C   UNL     1      -3.167  52.443  15.650  1.00  0.00     0.093 A 
ATOM      8  C   UNL     1      -3.949  51.350  15.269  1.00  0.00     0.123 A 
ATOM      9  C   UNL     1      -4.085  51.033  13.919  1.00  0.00     0.094 A 
ATOM     10  C   UNL     1      -3.422  51.784  12.945  1.00  0.00     0.146 A 
ATOM     11  O   UNL     1      -3.569  51.442  11.671  1.00  0.00    -0.452 OA
ENDROOT
BRANCH   1  12
ATOM     12  C   UNL     1      -3.239  51.608   9.289  1.00  0.00     0.021 A 
ATOM     13  C   UNL     1      -2.578  50.489   8.750  1.00  0.00     0.016 A 
ATOM     14  C   UNL     1      -2.832  50.084   7.436  1.00  0.00     0.047 A 
ATOM     15  C   UNL     1      -3.736  50.795   6.641  1.00  0.00     0.115 A 
ATOM     16  C   UNL     1      -4.130  52.330   8.478  1.00  0.00     0.016 A 
ATOM     17  C   UNL     1      -4.382  51.921   7.165  1.00  0.00     0.047 A 
BRANCH  15  18
ATOM     18  O   UNL     1      -3.979  50.379   5.335  1.00  0.00    -0.508 OA
ATOM     19  H   UNL     1      -4.915  50.378   4.945  1.00  0.00     0.293 HD
ENDBRANCH  15  18
ENDBRANCH   1  12
BRANCH   2  20
ATOM     20  O   UNL     1      -1.375  53.740   9.904  1.00  0.00    -0.502 OA
ATOM     21  H   UNL     1      -1.254  53.305   8.998  1.00  0.00     0.293 HD
ENDBRANCH   2  20
BRANCH   6  22
ATOM     22  O   UNL     1      -1.844  54.362  15.173  1.00  0.00    -0.507 OA
ATOM     23  H   UNL     1      -2.118  54.897  15.983  1.00  0.00     0.293 HD
ENDBRANCH   6  22
BRANCH   8  24
ATOM     24  O   UNL     1      -4.601  50.575  16.225  1.00  0.00    -0.508 OA
ATOM     25  H   UNL     1      -4.399  49.589  16.336  1.00  0.00     0.293 HD
ENDBRANCH   8  24
TORSDOF 5
ENDMDL
MODEL 2
REMARK VINA RESULT:    -6.062      0.108      1.062
REMARK INTER + INTRA:          -7.388
REMARK INTER:                  -7.094
REMARK INTRA:                  -0.294
REMARK UNBOUND:                -0.263
REMARK SMILES O=c1c(O)c(-c2ccc(O)cc2)oc2cc(O)cc(O)c12
REMARK SMILES IDX 5 1 3 2 2 3 1 4 21 5 19 6 18 7 16 8 15 9 14 10 13 11 6 12
REMARK SMILES IDX 7 13 8 14 9 15 12 16 11 17 10 18 4 20 20 22 17 24
REMARK H PARENT 10 19 4 21 20 23 17 25
REMARK Flexibility Score: inf
ROOT
ATOM      1  C   UNL     1      -2.898  52.074  10.690  1.00  0.00     0.180 A 
ATOM      2  C   UNL     1      -1.963  53.082  10.985  1.00  0.00     0.208 A 
ATOM      3  C   UNL     1      -1.762  53.456  12.323  1.00  0.00     0.238 A 
ATOM      4  O   UNL     1      -0.885  54.320  12.585  1.00  0.00    -0.285 OA
ATOM      5  C   UNL     1      -2.510  52.828  13.349  1.00  0.00     0.111 A 
ATOM      6  C   UNL     1      -2.417  53.157  14.735  1.00  0.00     0.134 A 
ATOM      7  C   UNL     1      -3.107  52.382  15.676  1.00  0.00     0.093 A 
ATOM      8  C   UNL     1      -3.939  51.334  15.275  1.00  0.00     0.123 A 
ATOM      9  C   UNL     1      -4.083  51.044  13.919  1.00  0.00     0.094 A 
ATOM     10  C   UNL     1      -3.378  51.776  12.960  1.00  0.00     0.146 A 
ATOM     11  O   UNL     1      -3.535  51.460  11.681  1.00  0.00    -0.452 OA
ENDROOT
BRANCH   1  12
ATOM     12  C   UNL     1      -3.183  51.644   9.303  1.00  0.00     0.021 A 
ATOM     13  C   UNL     1      -4.112  52.330   8.499  1.00  0.00     0.016 A 
ATOM     14  C   UNL     1      -4.383  51.890   7.200  1.00  0.00     0.047 A 
ATOM     15  C   UNL     1      -3.742  50.756   6.692  1.00  0.00     0.115 A 
ATOM     16  C   UNL     1      -2.560  50.493   8.793  1.00  0.00     0.016 A 
ATOM     17  C   UNL     1      -2.832  50.057   7.493  1.00  0.00     0.047 A 
BRANCH  15  18
ATOM     18  O   UNL     1      -4.021  50.331   5.395  1.00  0.00    -0.508 OA
ATOM     19  H   UNL     1      -4.646  49.553   5.216  1.00  0.00     0.293 HD
ENDBRANCH  15  18
ENDBRANCH   1  12
BRANCH   2  20
ATOM     20  O   UNL     1      -1.220  53.672   9.959  1.00  0.00    -0.502 OA
ATOM     21  H   UNL     1      -0.212  53.759   9.998  1.00  0.00     0.293 HD
ENDBRANCH   2  20
BRANCH   6  22
ATOM     22  O   UNL     1      -1.688  54.240  15.234  1.00  0.00    -0.507 OA
ATOM     23  H   UNL     1      -1.170  54.235  16.100  1.00  0.00     0.293 HD
ENDBRANCH   6  22
BRANCH   8  24
ATOM     24  O   UNL     1      -4.634  50.579  16.216  1.00  0.00    -0.508 OA
ATOM     25  H   UNL     1      -4.161  49.915  16.817  1.00  0.00     0.293 HD
ENDBRANCH   8  24
TORSDOF 5
ENDMDL
MODEL 3
REMARK VINA RESULT:    -6.006      1.652      6.568
REMARK INTER + INTRA:          -7.322
REMARK INTER:                  -7.071
REMARK INTRA:                  -0.251
REMARK UNBOUND:                -0.263
REMARK SMILES O=c1c(O)c(-c2ccc(O)cc2)oc2cc(O)cc(O)c12
REMARK SMILES IDX 5 1 3 2 2 3 1 4 21 5 19 6 18 7 16 8 15 9 14 10 13 11 6 12
REMARK SMILES IDX 7 13 8 14 9 15 12 16 11 17 10 18 4 20 20 22 17 24
REMARK H PARENT 10 19 4 21 20 23 17 25
REMARK Flexibility Score: inf
ROOT
ATOM      1  C   UNL     1      -2.994  52.132  11.874  1.00  0.00     0.180 A 
ATOM      2  C   UNL     1      -3.289  53.465  11.539  1.00  0.00     0.208 A 
ATOM      3  C   UNL     1      -3.305  53.841  10.186  1.00  0.00     0.238 A 
ATOM      4  O   UNL     1      -3.623  55.023   9.890  1.00  0.00    -0.285 OA
ATOM      5  C   UNL     1      -3.010  52.883   9.186  1.00  0.00     0.111 A 
ATOM      6  C   UNL     1      -2.958  53.163   7.787  1.00  0.00     0.134 A 
ATOM      7  C   UNL     1      -2.786  52.111   6.878  1.00  0.00     0.093 A 
ATOM      8  C   UNL     1      -2.597  50.800   7.322  1.00  0.00     0.123 A 
ATOM      9  C   UNL     1      -2.587  50.526   8.688  1.00  0.00     0.094 A 
ATOM     10  C   UNL     1      -2.793  51.550   9.617  1.00  0.00     0.146 A 
ATOM     11  O   UNL     1      -2.787  51.243  10.909  1.00  0.00    -0.452 OA
ENDROOT
BRANCH   1  12
ATOM     12  C   UNL     1      -2.933  51.667  13.278  1.00  0.00     0.021 A 
ATOM     13  C   UNL     1      -4.104  51.400  14.012  1.00  0.00     0.016 A 
ATOM     14  C   UNL     1      -4.022  50.985  15.345  1.00  0.00     0.047 A 
ATOM     15  C   UNL     1      -2.776  50.843  15.964  1.00  0.00     0.115 A 
ATOM     16  C   UNL     1      -1.687  51.542  13.913  1.00  0.00     0.016 A 
ATOM     17  C   UNL     1      -1.608  51.125  15.245  1.00  0.00     0.047 A 
BRANCH  15  18
ATOM     18  O   UNL     1      -2.711  50.427  17.291  1.00  0.00    -0.508 OA
ATOM     19  H   UNL     1      -3.523  50.055  17.770  1.00  0.00     0.293 HD
ENDBRANCH  15  18
ENDBRANCH   1  12
BRANCH   2  20
ATOM     20  O   UNL     1      -3.599  54.390  12.541  1.00  0.00    -0.502 OA
ATOM     21  H   UNL     1      -4.295  54.207  13.253  1.00  0.00     0.293 HD
ENDBRANCH   2  20
BRANCH   6  22
ATOM     22  O   UNL     1      -3.043  54.449   7.244  1.00  0.00    -0.507 OA
ATOM     23  H   UNL     1      -3.878  55.015   7.235  1.00  0.00     0.293 HD
ENDBRANCH   6  22
BRANCH   8  24
ATOM     24  O   UNL     1      -2.411  49.762   6.412  1.00  0.00    -0.508 OA
ATOM     25  H   UNL     1      -2.019  48.872   6.696  1.00  0.00     0.293 HD
ENDBRANCH   8  24
TORSDOF 5
ENDMDL
MODEL 4
REMARK VINA RESULT:    -6.002      1.020      1.020
REMARK INTER + INTRA:          -7.317
REMARK INTER:                  -7.113
REMARK INTRA:                  -0.204
REMARK UNBOUND:                -0.263
REMARK SMILES O=c1c(O)c(-c2ccc(O)cc2)oc2cc(O)cc(O)c12
REMARK SMILES IDX 5 1 3 2 2 3 1 4 21 5 19 6 18 7 16 8 15 9 14 10 13 11 6 12
REMARK SMILES IDX 7 13 8 14 9 15 12 16 11 17 10 18 4 20 20 22 17 24
REMARK H PARENT 10 19 4 21 20 23 17 25
REMARK Flexibility Score: inf
ROOT
ATOM      1  C   UNL     1      -2.521  51.487  10.776  1.00  0.00     0.180 A 
ATOM      2  C   UNL     1      -1.257  52.012  11.099  1.00  0.00     0.208 A 
ATOM      3  C   UNL     1      -0.945  52.257  12.446  1.00  0.00     0.238 A 
ATOM      4  O   UNL     1       0.207  52.675  12.733  1.00  0.00    -0.285 OA
ATOM      5  C   UNL     1      -1.905  51.988  13.452  1.00  0.00     0.111 A 
ATOM      6  C   UNL     1      -1.709  52.235  14.844  1.00  0.00     0.134 A 
ATOM      7  C   UNL     1      -2.677  51.809  15.763  1.00  0.00     0.093 A 
ATOM      8  C   UNL     1      -3.861  51.206  15.334  1.00  0.00     0.123 A 
ATOM      9  C   UNL     1      -4.087  51.014  13.972  1.00  0.00     0.094 A 
ATOM     10  C   UNL     1      -3.124  51.395  13.034  1.00  0.00     0.146 A 
ATOM     11  O   UNL     1      -3.374  51.185  11.748  1.00  0.00    -0.452 OA
ENDROOT
BRANCH   1  12
ATOM     12  C   UNL     1      -2.933  51.227   9.378  1.00  0.00     0.021 A 
ATOM     13  C   UNL     1      -2.392  50.157   8.642  1.00  0.00     0.016 A 
ATOM     14  C   UNL     1      -2.778  49.946   7.315  1.00  0.00     0.047 A 
ATOM     15  C   UNL     1      -3.697  50.804   6.703  1.00  0.00     0.115 A 
ATOM     16  C   UNL     1      -3.839  52.097   8.750  1.00  0.00     0.016 A 
ATOM     17  C   UNL     1      -4.225  51.882   7.424  1.00  0.00     0.047 A 
BRANCH  15  18
ATOM     18  O   UNL     1      -4.073  50.580   5.381  1.00  0.00    -0.508 OA
ATOM     19  H   UNL     1      -4.893  50.031   5.150  1.00  0.00     0.293 HD
ENDBRANCH  15  18
ENDBRANCH   1  12
BRANCH   2  20
ATOM     20  O   UNL     1      -0.317  52.249  10.093  1.00  0.00    -0.502 OA
ATOM     21  H   UNL     1       0.669  52.054  10.213  1.00  0.00     0.293 HD
ENDBRANCH   2  20
BRANCH   6  22
ATOM     22  O   UNL     1      -0.605  52.913  15.370  1.00  0.00    -0.507 OA
ATOM     23  H   UNL     1       0.105  52.492  15.950  1.00  0.00     0.293 HD
ENDBRANCH   6  22
BRANCH   8  24
ATOM     24  O   UNL     1      -4.825  50.799  16.254  1.00  0.00    -0.508 OA
ATOM     25  H   UNL     1      -5.347  51.469  16.806  1.00  0.00     0.293 HD
ENDBRANCH   8  24
TORSDOF 5
ENDMDL
MODEL 5
REMARK VINA RESULT:    -5.890      2.551      6.661
REMARK INTER + INTRA:          -7.185
REMARK INTER:                  -7.206
REMARK INTRA:                   0.021
REMARK UNBOUND:                -0.263
REMARK SMILES O=c1c(O)c(-c2ccc(O)cc2)oc2cc(O)cc(O)c12
REMARK SMILES IDX 5 1 3 2 2 3 1 4 21 5 19 6 18 7 16 8 15 9 14 10 13 11 6 12
REMARK SMILES IDX 7 13 8 14 9 15 12 16 11 17 10 18 4 20 20 22 17 24
REMARK H PARENT 10 19 4 21 20 23 17 25
REMARK Flexibility Score: inf
ROOT
ATOM      1  C   UNL     1      -1.986  51.799  10.181  1.00  0.00     0.180 A 
ATOM      2  C   UNL     1      -1.974  50.863   9.132  1.00  0.00     0.208 A 
ATOM      3  C   UNL     1      -2.802  51.076   8.018  1.00  0.00     0.238 A 
ATOM      4  O   UNL     1      -2.746  50.263   7.059  1.00  0.00    -0.285 OA
ATOM      5  C   UNL     1      -3.643  52.215   7.974  1.00  0.00     0.111 A 
ATOM      6  C   UNL     1      -4.551  52.509   6.913  1.00  0.00     0.134 A 
ATOM      7  C   UNL     1      -5.238  53.730   6.911  1.00  0.00     0.093 A 
ATOM      8  C   UNL     1      -5.100  54.636   7.965  1.00  0.00     0.123 A 
ATOM      9  C   UNL     1      -4.260  54.331   9.034  1.00  0.00     0.094 A 
ATOM     10  C   UNL     1      -3.534  53.137   9.046  1.00  0.00     0.146 A 
ATOM     11  O   UNL     1      -2.737  52.890  10.079  1.00  0.00    -0.452 OA
ENDROOT
BRANCH   1  12
ATOM     12  C   UNL     1      -1.161  51.630  11.399  1.00  0.00     0.021 A 
ATOM     13  C   UNL     1       0.224  51.395  11.318  1.00  0.00     0.016 A 
ATOM     14  C   UNL     1       0.978  51.214  12.481  1.00  0.00     0.047 A 
ATOM     15  C   UNL     1       0.360  51.253  13.735  1.00  0.00     0.115 A 
ATOM     16  C   UNL     1      -1.778  51.647  12.660  1.00  0.00     0.016 A 
ATOM     17  C   UNL     1      -1.021  51.467  13.822  1.00  0.00     0.047 A 
BRANCH  15  18
ATOM     18  O   UNL     1       1.125  51.073  14.885  1.00  0.00    -0.508 OA
ATOM     19  H   UNL     1       1.068  50.220  15.431  1.00  0.00     0.293 HD
ENDBRANCH  15  18
ENDBRANCH   1  12
BRANCH   2  20
ATOM     20  O   UNL     1      -1.120  49.758   9.187  1.00  0.00    -0.502 OA
ATOM     21  H   UNL     1      -1.327  48.886   8.715  1.00  0.00     0.293 HD
ENDBRANCH   2  20
BRANCH   6  22
ATOM     22  O   UNL     1      -4.833  51.633   5.860  1.00  0.00    -0.507 OA
ATOM     23  H   UNL     1      -5.505  50.882   5.901  1.00  0.00     0.293 HD
ENDBRANCH   6  22
BRANCH   8  24
ATOM     24  O   UNL     1      -5.799  55.841   7.963  1.00  0.00    -0.508 OA
ATOM     25  H   UNL     1      -6.638  55.967   8.514  1.00  0.00     0.293 HD
ENDBRANCH   8  24
TORSDOF 5
ENDMDL
MODEL 6
REMARK VINA RESULT:    -5.745      2.993      6.705
REMARK INTER + INTRA:          -7.016
REMARK INTER:                  -6.724
REMARK INTRA:                  -0.292
REMARK UNBOUND:                -0.263
REMARK SMILES O=c1c(O)c(-c2ccc(O)cc2)oc2cc(O)cc(O)c12
REMARK SMILES IDX 5 1 3 2 2 3 1 4 21 5 19 6 18 7 16 8 15 9 14 10 13 11 6 12
REMARK SMILES IDX 7 13 8 14 9 15 12 16 11 17 10 18 4 20 20 22 17 24
REMARK H PARENT 10 19 4 21 20 23 17 25
REMARK Flexibility Score: inf
ROOT
ATOM      1  C   UNL     1      -4.642  51.546  15.100  1.00  0.00     0.180 A 
ATOM      2  C   UNL     1      -3.607  51.354  16.033  1.00  0.00     0.208 A 
ATOM      3  C   UNL     1      -2.279  51.317  15.579  1.00  0.00     0.238 A 
ATOM      4  O   UNL     1      -1.354  51.200  16.425  1.00  0.00    -0.285 OA
ATOM      5  C   UNL     1      -2.003  51.457  14.197  1.00  0.00     0.111 A 
ATOM      6  C   UNL     1      -0.698  51.395  13.622  1.00  0.00     0.134 A 
ATOM      7  C   UNL     1      -0.529  51.678  12.261  1.00  0.00     0.093 A 
ATOM      8  C   UNL     1      -1.626  51.953  11.441  1.00  0.00     0.123 A 
ATOM      9  C   UNL     1      -2.911  51.958  11.982  1.00  0.00     0.094 A 
ATOM     10  C   UNL     1      -3.106  51.715  13.344  1.00  0.00     0.146 A 
ATOM     11  O   UNL     1      -4.345  51.740  13.820  1.00  0.00    -0.452 OA
ENDROOT
BRANCH   1  12
ATOM     12  C   UNL     1      -6.068  51.571  15.498  1.00  0.00     0.021 A 
ATOM     13  C   UNL     1      -6.858  50.407  15.465  1.00  0.00     0.016 A 
ATOM     14  C   UNL     1      -8.209  50.461  15.822  1.00  0.00     0.047 A 
ATOM     15  C   UNL     1      -8.790  51.674  16.203  1.00  0.00     0.115 A 
ATOM     16  C   UNL     1      -6.664  52.790  15.862  1.00  0.00     0.016 A 
ATOM     17  C   UNL     1      -8.014  52.839  16.220  1.00  0.00     0.047 A 
BRANCH  15  18
ATOM     18  O   UNL     1     -10.136  51.711  16.557  1.00  0.00    -0.508 OA
ATOM     19  H   UNL     1     -10.807  51.064  16.158  1.00  0.00     0.293 HD
ENDBRANCH  15  18
ENDBRANCH   1  12
BRANCH   2  20
ATOM     20  O   UNL     1      -3.901  51.240  17.394  1.00  0.00    -0.502 OA
ATOM     21  H   UNL     1      -3.213  50.944  18.076  1.00  0.00     0.293 HD
ENDBRANCH   2  20
BRANCH   6  22
ATOM     22  O   UNL     1       0.452  51.038  14.333  1.00  0.00    -0.507 OA
ATOM     23  H   UNL     1       1.366  51.440  14.186  1.00  0.00     0.293 HD
ENDBRANCH   6  22
BRANCH   8  24
ATOM     24  O   UNL     1      -1.451  52.218  10.085  1.00  0.00    -0.508 OA
ATOM     25  H   UNL     1      -1.100  51.513   9.448  1.00  0.00     0.293 HD
ENDBRANCH   8  24
TORSDOF 5
ENDMDL
MODEL 7
REMARK VINA RESULT:    -5.570      2.423      6.563
REMARK INTER + INTRA:          -6.810
REMARK INTER:                  -6.669
REMARK INTRA:                  -0.141
REMARK UNBOUND:                -0.263
REMARK SMILES O=c1c(O)c(-c2ccc(O)cc2)oc2cc(O)cc(O)c12
REMARK SMILES IDX 5 1 3 2 2 3 1 4 21 5 19 6 18 7 16 8 15 9 14 10 13 11 6 12
REMARK SMILES IDX 7 13 8 14 9 15 12 16 11 17 10 18 4 20 20 22 17 24
REMARK H PARENT 10 19 4 21 20 23 17 25
REMARK Flexibility Score: inf
ROOT
ATOM      1  C   UNL     1      -1.707  52.017  11.935  1.00  0.00     0.180 A 
ATOM      2  C   UNL     1      -2.431  53.220  11.863  1.00  0.00     0.208 A 
ATOM      3  C   UNL     1      -3.096  53.544  10.669  1.00  0.00     0.238 A 
ATOM      4  O   UNL     1      -3.788  54.595  10.629  1.00  0.00    -0.285 OA
ATOM      5  C   UNL     1      -3.015  52.670   9.558  1.00  0.00     0.111 A 
ATOM      6  C   UNL     1      -3.616  52.918   8.288  1.00  0.00     0.134 A 
ATOM      7  C   UNL     1      -3.582  51.924   7.302  1.00  0.00     0.093 A 
ATOM      8  C   UNL     1      -2.911  50.718   7.518  1.00  0.00     0.123 A 
ATOM      9  C   UNL     1      -2.271  50.490   8.735  1.00  0.00     0.094 A 
ATOM     10  C   UNL     1      -2.319  51.449   9.751  1.00  0.00     0.146 A 
ATOM     11  O   UNL     1      -1.705  51.188  10.898  1.00  0.00    -0.452 OA
ENDROOT
BRANCH   1  12
ATOM     12  C   UNL     1      -0.959  51.618  13.150  1.00  0.00     0.021 A 
ATOM     13  C   UNL     1       0.443  51.506  13.143  1.00  0.00     0.016 A 
ATOM     14  C   UNL     1       1.125  51.104  14.295  1.00  0.00     0.047 A 
ATOM     15  C   UNL     1       0.418  50.797  15.462  1.00  0.00     0.115 A 
ATOM     16  C   UNL     1      -1.664  51.288  14.319  1.00  0.00     0.016 A 
ATOM     17  C   UNL     1      -0.979  50.888  15.470  1.00  0.00     0.047 A 
BRANCH  15  18
ATOM     18  O   UNL     1       1.111  50.399  16.602  1.00  0.00    -0.508 OA
ATOM     19  H   UNL     1       1.110  49.434  16.913  1.00  0.00     0.293 HD
ENDBRANCH  15  18
ENDBRANCH   1  12
BRANCH   2  20
ATOM     20  O   UNL     1      -2.516  54.057  12.979  1.00  0.00    -0.502 OA
ATOM     21  H   UNL     1      -2.586  53.700  13.923  1.00  0.00     0.293 HD
ENDBRANCH   2  20
BRANCH   6  22
ATOM     22  O   UNL     1      -4.230  54.124   7.937  1.00  0.00    -0.507 OA
ATOM     23  H   UNL     1      -5.226  54.286   7.946  1.00  0.00     0.293 HD
ENDBRANCH   6  22
BRANCH   8  24
ATOM     24  O   UNL     1      -2.869  49.740   6.527  1.00  0.00    -0.508 OA
ATOM     25  H   UNL     1      -3.292  49.888   5.619  1.00  0.00     0.293 HD
ENDBRANCH   8  24
TORSDOF 5
ENDMDL
MODEL 8
REMARK VINA RESULT:    -5.290      2.072      6.457
REMARK INTER + INTRA:          -6.481
REMARK INTER:                  -6.189
REMARK INTRA:                  -0.292
REMARK UNBOUND:                -0.263
REMARK SMILES O=c1c(O)c(-c2ccc(O)cc2)oc2cc(O)cc(O)c12
REMARK SMILES IDX 5 1 3 2 2 3 1 4 21 5 19 6 18 7 16 8 15 9 14 10 13 11 6 12
REMARK SMILES IDX 7 13 8 14 9 15 12 16 11 17 10 18 4 20 20 22 17 24
REMARK H PARENT 10 19 4 21 20 23 17 25
REMARK Flexibility Score: inf
ROOT
ATOM      1  C   UNL     1      -3.223  51.992  13.195  1.00  0.00     0.180 A 
ATOM      2  C   UNL     1      -1.825  52.006  13.348  1.00  0.00     0.208 A 
ATOM      3  C   UNL     1      -1.017  51.602  12.273  1.00  0.00     0.238 A 
ATOM      4  O   UNL     1       0.233  51.668  12.398  1.00  0.00    -0.285 OA
ATOM      5  C   UNL     1      -1.617  51.175  11.063  1.00  0.00     0.111 A 
ATOM      6  C   UNL     1      -0.896  50.707   9.924  1.00  0.00     0.134 A 
ATOM      7  C   UNL     1      -1.586  50.434   8.735  1.00  0.00     0.093 A 
ATOM      8  C   UNL     1      -2.976  50.549   8.667  1.00  0.00     0.123 A 
ATOM      9  C   UNL     1      -3.694  50.949   9.792  1.00  0.00     0.094 A 
ATOM     10  C   UNL     1      -3.031  51.262  10.981  1.00  0.00     0.146 A 
ATOM     11  O   UNL     1      -3.752  51.649  12.026  1.00  0.00    -0.452 OA
ENDROOT
BRANCH   1  12
ATOM     12  C   UNL     1      -4.140  52.379  14.291  1.00  0.00     0.021 A 
ATOM     13  C   UNL     1      -4.671  51.421  15.174  1.00  0.00     0.016 A 
ATOM     14  C   UNL     1      -5.555  51.808  16.186  1.00  0.00     0.047 A 
ATOM     15  C   UNL     1      -5.930  53.148  16.321  1.00  0.00     0.115 A 
ATOM     16  C   UNL     1      -4.538  53.720  14.419  1.00  0.00     0.016 A 
ATOM     17  C   UNL     1      -5.421  54.103  15.433  1.00  0.00     0.047 A 
BRANCH  15  18
ATOM     18  O   UNL     1      -6.810  53.517  17.335  1.00  0.00    -0.508 OA
ATOM     19  H   UNL     1      -7.815  53.470  17.208  1.00  0.00     0.293 HD
ENDBRANCH  15  18
ENDBRANCH   1  12
BRANCH   2  20
ATOM     20  O   UNL     1      -1.254  52.452  14.543  1.00  0.00    -0.502 OA
ATOM     21  H   UNL     1      -0.735  53.319  14.608  1.00  0.00     0.293 HD
ENDBRANCH   2  20
BRANCH   6  22
ATOM     22  O   UNL     1       0.481  50.469   9.914  1.00  0.00    -0.507 OA
ATOM     23  H   UNL     1       0.999  50.059  10.677  1.00  0.00     0.293 HD
ENDBRANCH   6  22
BRANCH   8  24
ATOM     24  O   UNL     1      -3.656  50.261   7.485  1.00  0.00    -0.508 OA
ATOM     25  H   UNL     1      -4.331  49.508   7.432  1.00  0.00     0.293 HD
ENDBRANCH   8  24
TORSDOF 5
ENDMDL
MODEL 9
REMARK VINA RESULT:    -5.090      2.628      3.468
REMARK INTER + INTRA:          -6.246
REMARK INTER:                  -6.246
REMARK INTRA:                  -0.000
REMARK UNBOUND:                -0.263
REMARK SMILES O=c1c(O)c(-c2ccc(O)cc2)oc2cc(O)cc(O)c12
REMARK SMILES IDX 5 1 3 2 2 3 1 4 21 5 19 6 18 7 16 8 15 9 14 10 13 11 6 12
REMARK SMILES IDX 7 13 8 14 9 15 12 16 11 17 10 18 4 20 20 22 17 24
REMARK H PARENT 10 19 4 21 20 23 17 25
REMARK Flexibility Score: inf
ROOT
ATOM      1  C   UNL     1      -2.646  52.880   9.798  1.00  0.00     0.180 A 
ATOM      2  C   UNL     1      -1.674  51.970   9.348  1.00  0.00     0.208 A 
ATOM      3  C   UNL     1      -0.792  51.398  10.279  1.00  0.00     0.238 A 
ATOM      4  O   UNL     1       0.040  50.543   9.878  1.00  0.00    -0.285 OA
ATOM      5  C   UNL     1      -0.883  51.756  11.646  1.00  0.00     0.111 A 
ATOM      6  C   UNL     1      -0.015  51.270  12.669  1.00  0.00     0.134 A 
ATOM      7  C   UNL     1      -0.278  51.589  14.008  1.00  0.00     0.093 A 
ATOM      8  C   UNL     1      -1.338  52.431  14.352  1.00  0.00     0.123 A 
ATOM      9  C   UNL     1      -2.155  52.959  13.354  1.00  0.00     0.094 A 
ATOM     10  C   UNL     1      -1.939  52.629  12.013  1.00  0.00     0.146 A 
ATOM     11  O   UNL     1      -2.747  53.145  11.096  1.00  0.00    -0.452 OA
ENDROOT
BRANCH   1  12
ATOM     12  C   UNL     1      -3.594  53.543   8.874  1.00  0.00     0.021 A 
ATOM     13  C   UNL     1      -4.401  52.798   7.994  1.00  0.00     0.016 A 
ATOM     14  C   UNL     1      -5.271  53.448   7.113  1.00  0.00     0.047 A 
ATOM     15  C   UNL     1      -5.338  54.844   7.089  1.00  0.00     0.115 A 
ATOM     16  C   UNL     1      -3.651  54.946   8.830  1.00  0.00     0.016 A 
ATOM     17  C   UNL     1      -4.524  55.592   7.949  1.00  0.00     0.047 A 
BRANCH  15  18
ATOM     18  O   UNL     1      -6.211  55.477   6.207  1.00  0.00    -0.508 OA
ATOM     19  H   UNL     1      -7.215  55.363   6.283  1.00  0.00     0.293 HD
ENDBRANCH  15  18
ENDBRANCH   1  12
BRANCH   2  20
ATOM     20  O   UNL     1      -1.617  51.614   7.997  1.00  0.00    -0.502 OA
ATOM     21  H   UNL     1      -0.928  51.998   7.362  1.00  0.00     0.293 HD
ENDBRANCH   2  20
BRANCH   6  22
ATOM     22  O   UNL     1       1.125  50.498  12.425  1.00  0.00    -0.507 OA
ATOM     23  H   UNL     1       1.374  50.108  11.528  1.00  0.00     0.293 HD
ENDBRANCH   6  22
BRANCH   8  24
ATOM     24  O   UNL     1      -1.584  52.756  15.684  1.00  0.00    -0.508 OA
ATOM     25  H   UNL     1      -1.772  52.043  16.377  1.00  0.00     0.293 HD
ENDBRANCH   8  24
TORSDOF 5
ENDMDL
