MODEL 1
REMARK VINA RESULT:    -3.863      0.000      0.000
REMARK INTER + INTRA:          -4.105
REMARK INTER:                  -4.088
REMARK INTRA:                  -0.016
REMARK UNBOUND:                -0.016
REMARK SMILES O=C([O-])c1cccnc1
REMARK SMILES IDX 4 1 5 2 9 3 6 4 8 5 7 6 2 7 1 8 3 9
REMARK H PARENT
REMARK Flexibility Score: inf
ROOT
ATOM      1  C   UNL     1     -13.134 -28.616  -6.108  1.00  0.00     0.016 A 
ATOM      2  C   UNL     1     -12.188 -27.991  -6.937  1.00  0.00     0.013 A 
ATOM      3  C   UNL     1     -12.812 -28.806  -4.752  1.00  0.00     0.120 A 
ATOM      4  C   UNL     1     -10.962 -27.575  -6.413  1.00  0.00     0.021 A 
ATOM      5  N   UNL     1     -11.611 -28.392  -4.267  1.00  0.00    -0.264 NA
ATOM      6  C   UNL     1     -10.690 -27.786  -5.061  1.00  0.00     0.111 A 
ENDROOT
BRANCH   1   7
ATOM      7  C   UNL     1     -14.435 -29.061  -6.651  1.00  0.00     0.073 C 
ATOM      8  O   UNL     1     -14.593 -30.247  -7.046  1.00  0.00    -0.545 OA
ATOM      9  O   UNL     1     -15.504 -28.176  -6.731  1.00  0.00    -0.545 OA
ENDBRANCH   1   7
TORSDOF 1
ENDMDL
MODEL 2
REMARK VINA RESULT:    -3.747      1.427      2.458
REMARK INTER + INTRA:          -3.982
REMARK INTER:                  -3.965
REMARK INTRA:                  -0.017
REMARK UNBOUND:                -0.016
REMARK SMILES O=C([O-])c1cccnc1
REMARK SMILES IDX 4 1 5 2 9 3 6 4 8 5 7 6 2 7 1 8 3 9
REMARK H PARENT
REMARK Flexibility Score: inf
ROOT
ATOM      1  C   UNL     1     -14.428 -29.038  -5.970  1.00  0.00     0.016 A 
ATOM      2  C   UNL     1     -14.748 -28.943  -4.606  1.00  0.00     0.013 A 
ATOM      3  C   UNL     1     -13.077 -28.936  -6.349  1.00  0.00     0.120 A 
ATOM      4  C   UNL     1     -13.738 -28.752  -3.661  1.00  0.00     0.021 A 
ATOM      5  N   UNL     1     -12.114 -28.749  -5.409  1.00  0.00    -0.264 NA
ATOM      6  C   UNL     1     -12.412 -28.657  -4.087  1.00  0.00     0.111 A 
ENDROOT
BRANCH   1   7
ATOM      7  C   UNL     1     -15.489 -29.240  -6.981  1.00  0.00     0.073 C 
ATOM      8  O   UNL     1     -16.364 -28.356  -7.177  1.00  0.00    -0.545 OA
ATOM      9  O   UNL     1     -15.532 -30.410  -7.730  1.00  0.00    -0.545 OA
ENDBRANCH   1   7
TORSDOF 1
ENDMDL
MODEL 3
REMARK VINA RESULT:    -3.717      2.957      4.483
REMARK INTER + INTRA:          -3.950
REMARK INTER:                  -3.934
REMARK INTRA:                  -0.016
REMARK UNBOUND:                -0.016
REMARK SMILES O=C([O-])c1cccnc1
REMARK SMILES IDX 4 1 5 2 9 3 6 4 8 5 7 6 2 7 1 8 3 9
REMARK H PARENT
REMARK Flexibility Score: inf
ROOT
ATOM      1  C   UNL     1     -14.789 -29.201  -6.721  1.00  0.00     0.016 A 
ATOM      2  C   UNL     1     -15.845 -28.315  -6.991  1.00  0.00     0.013 A 
ATOM      3  C   UNL     1     -14.941 -30.552  -7.081  1.00  0.00     0.120 A 
ATOM      4  C   UNL     1     -17.011 -28.780  -7.602  1.00  0.00     0.021 A 
ATOM      5  N   UNL     1     -16.088 -30.979  -7.675  1.00  0.00    -0.264 NA
ATOM      6  C   UNL     1     -17.115 -30.130  -7.941  1.00  0.00     0.111 A 
ENDROOT
BRANCH   1   7
ATOM      7  C   UNL     1     -13.549 -28.721  -6.073  1.00  0.00     0.073 C 
ATOM      8  O   UNL     1     -12.600 -28.265  -6.764  1.00  0.00    -0.545 OA
ATOM      9  O   UNL     1     -13.415 -28.767  -4.691  1.00  0.00    -0.545 OA
ENDBRANCH   1   7
TORSDOF 1
ENDMDL
MODEL 4
REMARK VINA RESULT:    -3.551      1.623      1.862
REMARK INTER + INTRA:          -3.774
REMARK INTER:                  -3.756
REMARK INTRA:                  -0.019
REMARK UNBOUND:                -0.016
REMARK SMILES O=C([O-])c1cccnc1
REMARK SMILES IDX 4 1 5 2 9 3 6 4 8 5 7 6 2 7 1 8 3 9
REMARK H PARENT
REMARK Flexibility Score: inf
ROOT
ATOM      1  C   UNL     1     -13.388 -28.729  -5.047  1.00  0.00     0.016 A 
ATOM      2  C   UNL     1     -13.308 -28.624  -6.445  1.00  0.00     0.013 A 
ATOM      3  C   UNL     1     -12.208 -28.575  -4.296  1.00  0.00     0.120 A 
ATOM      4  C   UNL     1     -12.080 -28.372  -7.060  1.00  0.00     0.021 A 
ATOM      5  N   UNL     1     -11.025 -28.331  -4.920  1.00  0.00    -0.264 NA
ATOM      6  C   UNL     1     -10.937 -28.226  -6.272  1.00  0.00     0.111 A 
ENDROOT
BRANCH   1   7
ATOM      7  C   UNL     1     -14.682 -28.996  -4.383  1.00  0.00     0.073 C 
ATOM      8  O   UNL     1     -15.379 -29.992  -4.714  1.00  0.00    -0.545 OA
ATOM      9  O   UNL     1     -15.147 -28.151  -3.383  1.00  0.00    -0.545 OA
ENDBRANCH   1   7
TORSDOF 1
ENDMDL
MODEL 5
REMARK VINA RESULT:    -3.544     15.095     16.203
REMARK INTER + INTRA:          -3.768
REMARK INTER:                  -3.747
REMARK INTRA:                  -0.021
REMARK UNBOUND:                -0.016
REMARK SMILES O=C([O-])c1cccnc1
REMARK SMILES IDX 4 1 5 2 9 3 6 4 8 5 7 6 2 7 1 8 3 9
REMARK H PARENT
REMARK Flexibility Score: inf
ROOT
ATOM      1  C   UNL     1      -2.765 -17.769 -11.448  1.00  0.00     0.016 A 
ATOM      2  C   UNL     1      -1.792 -16.829 -11.072  1.00  0.00     0.013 A 
ATOM      3  C   UNL     1      -2.913 -18.068 -12.815  1.00  0.00     0.120 A 
ATOM      4  C   UNL     1      -0.998 -16.216 -12.042  1.00  0.00     0.021 A 
ATOM      5  N   UNL     1      -2.127 -17.455 -13.739  1.00  0.00    -0.264 NA
ATOM      6  C   UNL     1      -1.182 -16.545 -13.386  1.00  0.00     0.111 A 
ENDROOT
BRANCH   1   7
ATOM      7  C   UNL     1      -3.613 -18.426 -10.429  1.00  0.00     0.073 C 
ATOM      8  O   UNL     1      -4.022 -17.785  -9.425  1.00  0.00    -0.545 OA
ATOM      9  O   UNL     1      -3.972 -19.761 -10.569  1.00  0.00    -0.545 OA
ENDBRANCH   1   7
TORSDOF 1
ENDMDL
MODEL 6
REMARK VINA RESULT:    -3.538      3.928      5.646
REMARK INTER + INTRA:          -3.761
REMARK INTER:                  -3.744
REMARK INTRA:                  -0.017
REMARK UNBOUND:                -0.016
REMARK SMILES O=C([O-])c1cccnc1
REMARK SMILES IDX 4 1 5 2 9 3 6 4 8 5 7 6 2 7 1 8 3 9
REMARK H PARENT
REMARK Flexibility Score: inf
ROOT
ATOM      1  C   UNL     1     -16.587 -30.229  -6.935  1.00  0.00     0.016 A 
ATOM      2  C   UNL     1     -17.484 -30.254  -8.015  1.00  0.00     0.013 A 
ATOM      3  C   UNL     1     -16.773 -31.153  -5.890  1.00  0.00     0.120 A 
ATOM      4  C   UNL     1     -18.530 -31.178  -8.037  1.00  0.00     0.021 A 
ATOM      5  N   UNL     1     -17.800 -32.042  -5.936  1.00  0.00    -0.264 NA
ATOM      6  C   UNL     1     -18.673 -32.074  -6.976  1.00  0.00     0.111 A 
ENDROOT
BRANCH   1   7
ATOM      7  C   UNL     1     -15.475 -29.255  -6.900  1.00  0.00     0.073 C 
ATOM      8  O   UNL     1     -14.279 -29.645  -6.960  1.00  0.00    -0.545 OA
ATOM      9  O   UNL     1     -15.737 -27.893  -6.803  1.00  0.00    -0.545 OA
ENDBRANCH   1   7
TORSDOF 1
ENDMDL
MODEL 7
REMARK VINA RESULT:    -3.524      3.009      4.114
REMARK INTER + INTRA:          -3.746
REMARK INTER:                  -3.728
REMARK INTRA:                  -0.018
REMARK UNBOUND:                -0.016
REMARK SMILES O=C([O-])c1cccnc1
REMARK SMILES IDX 4 1 5 2 9 3 6 4 8 5 7 6 2 7 1 8 3 9
REMARK H PARENT
REMARK Flexibility Score: inf
ROOT
ATOM      1  C   UNL     1     -12.374 -28.716  -4.826  1.00  0.00     0.016 A 
ATOM      2  C   UNL     1     -13.394 -28.723  -3.861  1.00  0.00     0.013 A 
ATOM      3  C   UNL     1     -12.740 -28.664  -6.184  1.00  0.00     0.120 A 
ATOM      4  C   UNL     1     -14.733 -28.680  -4.254  1.00  0.00     0.021 A 
ATOM      5  N   UNL     1     -14.052 -28.624  -6.540  1.00  0.00    -0.264 NA
ATOM      6  C   UNL     1     -15.045 -28.630  -5.613  1.00  0.00     0.111 A 
ENDROOT
BRANCH   1   7
ATOM      7  C   UNL     1     -10.952 -28.761  -4.423  1.00  0.00     0.073 C 
ATOM      8  O   UNL     1     -10.161 -27.840  -4.758  1.00  0.00    -0.545 OA
ATOM      9  O   UNL     1     -10.471 -29.822  -3.665  1.00  0.00    -0.545 OA
ENDBRANCH   1   7
TORSDOF 1
ENDMDL
MODEL 8
REMARK VINA RESULT:    -3.499      2.581      3.651
REMARK INTER + INTRA:          -3.720
REMARK INTER:                  -3.704
REMARK INTRA:                  -0.016
REMARK UNBOUND:                -0.016
REMARK SMILES O=C([O-])c1cccnc1
REMARK SMILES IDX 4 1 5 2 9 3 6 4 8 5 7 6 2 7 1 8 3 9
REMARK H PARENT
REMARK Flexibility Score: inf
ROOT
ATOM      1  C   UNL     1     -12.709 -28.577  -5.798  1.00  0.00     0.016 A 
ATOM      2  C   UNL     1     -12.684 -28.617  -4.395  1.00  0.00     0.013 A 
ATOM      3  C   UNL     1     -13.947 -28.727  -6.449  1.00  0.00     0.120 A 
ATOM      4  C   UNL     1     -13.868 -28.802  -3.677  1.00  0.00     0.021 A 
ATOM      5  N   UNL     1     -15.085 -28.907  -5.727  1.00  0.00    -0.264 NA
ATOM      6  C   UNL     1     -15.071 -28.946  -4.369  1.00  0.00     0.111 A 
ENDROOT
BRANCH   1   7
ATOM      7  C   UNL     1     -11.462 -28.382  -6.569  1.00  0.00     0.073 C 
ATOM      8  O   UNL     1     -10.998 -27.226  -6.755  1.00  0.00    -0.545 OA
ATOM      9  O   UNL     1     -10.786 -29.474  -7.099  1.00  0.00    -0.545 OA
ENDBRANCH   1   7
TORSDOF 1
ENDMDL
MODEL 9
REMARK VINA RESULT:    -3.484      3.538      4.568
REMARK INTER + INTRA:          -3.703
REMARK INTER:                  -3.685
REMARK INTRA:                  -0.018
REMARK UNBOUND:                -0.016
REMARK SMILES O=C([O-])c1cccnc1
REMARK SMILES IDX 4 1 5 2 9 3 6 4 8 5 7 6 2 7 1 8 3 9
REMARK H PARENT
REMARK Flexibility Score: inf
ROOT
ATOM      1  C   UNL     1     -17.041 -30.056  -6.893  1.00  0.00     0.016 A 
ATOM      2  C   UNL     1     -16.167 -30.608  -5.942  1.00  0.00     0.013 A 
ATOM      3  C   UNL     1     -16.738 -28.788  -7.421  1.00  0.00     0.120 A 
ATOM      4  C   UNL     1     -15.030 -29.904  -5.542  1.00  0.00     0.021 A 
ATOM      5  N   UNL     1     -15.624 -28.123  -7.013  1.00  0.00    -0.264 NA
ATOM      6  C   UNL     1     -14.772 -28.649  -6.095  1.00  0.00     0.111 A 
ENDROOT
BRANCH   1   7
ATOM      7  C   UNL     1     -18.248 -30.791  -7.325  1.00  0.00     0.073 C 
ATOM      8  O   UNL     1     -18.459 -31.017  -8.546  1.00  0.00    -0.545 OA
ATOM      9  O   UNL     1     -19.168 -31.245  -6.387  1.00  0.00    -0.545 OA
ENDBRANCH   1   7
TORSDOF 1
ENDMDL
