MODEL 1
REMARK VINA RESULT:    -9.120      0.000      0.000
REMARK INTER + INTRA:         -10.508
REMARK INTER:                 -10.453
REMARK INTRA:                  -0.055
REMARK UNBOUND:                -0.055
REMARK SMILES CC1(C)CC[C@@]23CO[C@]4(C=C[C@H]5[C@@]6(C)CC[C@@H](O)[C@](C)(CO)[C@@H]6CC[C@@]5(C)[C@]4(C)C[C@H]2O)[C@@H]3C1
REMARK SMILES IDX 1 1 2 2 4 3 5 4 6 5 7 6 8 7 9 8 33 9 34 10 10 11 11 12 12 13
REMARK SMILES IDX 13 14 15 15 16 16 17 17 19 18 23 19 24 20 25 21 26 22 28 23
REMARK SMILES IDX 30 24 31 25 29 26 27 27 20 28 14 29 3 30 32 31 21 33 22 34
REMARK SMILES IDX 18 36
REMARK H PARENT 32 32 22 35 18 37
REMARK Flexibility Score: inf
ROOT
ATOM      1  C   UNL     1     -20.505   5.137 -12.658  1.00  0.00     0.011 C 
ATOM      2  C   UNL     1     -21.856   5.636 -12.095  1.00  0.00    -0.035 C 
ATOM      3  C   UNL     1     -21.730   6.036 -10.608  1.00  0.00     0.007 C 
ATOM      4  C   UNL     1     -20.845   7.273 -10.396  1.00  0.00     0.013 C 
ATOM      5  C   UNL     1     -21.196   8.487 -11.308  1.00  0.00     0.026 C 
ATOM      6  C   UNL     1     -22.534   9.151 -10.922  1.00  0.00     0.171 C 
ATOM      7  O   UNL     1     -23.105   9.715 -12.084  1.00  0.00    -0.369 OA
ATOM      8  C   UNL     1     -22.223   9.440 -13.160  1.00  0.00     0.096 C 
ATOM      9  C   UNL     1     -21.492   8.123 -12.756  1.00  0.00     0.037 C 
ATOM     10  C   UNL     1     -22.378   6.847 -12.901  1.00  0.00     0.014 C 
ATOM     11  C   UNL     1     -23.050   9.196 -14.378  1.00  0.00     0.005 C 
ATOM     12  C   UNL     1     -22.505   9.192 -15.587  1.00  0.00    -0.024 C 
ATOM     13  C   UNL     1     -21.097   9.744 -15.851  1.00  0.00     0.024 C 
ATOM     14  C   UNL     1     -20.879   9.961 -17.423  1.00  0.00    -0.022 C 
ATOM     15  C   UNL     1     -21.143   8.624 -18.203  1.00  0.00     0.010 C 
ATOM     16  C   UNL     1     -21.207   8.792 -19.733  1.00  0.00     0.033 C 
ATOM     17  C   UNL     1     -22.199   9.882 -20.194  1.00  0.00     0.123 C 
ATOM     18  C   UNL     1     -22.032  11.275 -19.475  1.00  0.00     0.020 C 
ATOM     19  C   UNL     1     -21.899  11.064 -17.908  1.00  0.00     0.006 C 
ATOM     20  C   UNL     1     -21.799  12.363 -17.061  1.00  0.00     0.005 C 
ATOM     21  C   UNL     1     -21.934  12.110 -15.535  1.00  0.00     0.008 C 
ATOM     22  C   UNL     1     -20.928  11.048 -14.949  1.00  0.00    -0.017 C 
ATOM     23  C   UNL     1     -21.216  10.683 -13.366  1.00  0.00     0.009 C 
ATOM     24  C   UNL     1     -19.873  10.339 -12.601  1.00  0.00     0.043 C 
ATOM     25  C   UNL     1     -20.015   9.525 -11.283  1.00  0.00     0.124 C 
ATOM     26  C   UNL     1     -21.788  11.947 -12.648  1.00  0.00     0.015 C 
ATOM     27  C   UNL     1     -19.510  11.714 -15.040  1.00  0.00     0.013 C 
ATOM     28  C   UNL     1     -23.323  12.104 -19.762  1.00  0.00     0.017 C 
ATOM     29  C   UNL     1     -19.385  10.326 -17.705  1.00  0.00     0.012 C 
ATOM     30  C   UNL     1     -22.877   4.484 -12.211  1.00  0.00     0.011 C 
ENDROOT
BRANCH  25  31
ATOM     31  O   UNL     1     -20.117  10.384 -10.174  1.00  0.00    -0.392 OA
ATOM     32  H   UNL     1     -20.935  10.123  -9.673  1.00  0.00     0.210 HD
ENDBRANCH  25  31
BRANCH  18  33
ATOM     33  C   UNL     1     -20.868  12.101 -20.120  1.00  0.00     0.165 C 
BRANCH  33  34
ATOM     34  O   UNL     1     -21.301  12.965 -21.130  1.00  0.00    -0.396 OA
ATOM     35  H   UNL     1     -22.268  12.785 -21.258  1.00  0.00     0.210 HD
ENDBRANCH  33  34
ENDBRANCH  18  33
BRANCH  17  36
ATOM     36  O   UNL     1     -23.518   9.390 -20.109  1.00  0.00    -0.392 OA
ATOM     37  H   UNL     1     -24.061   9.836 -20.807  1.00  0.00     0.210 HD
ENDBRANCH  17  36
TORSDOF 4
ENDMDL
MODEL 2
REMARK VINA RESULT:    -9.022      8.190     12.122
REMARK INTER + INTRA:         -10.396
REMARK INTER:                 -10.313
REMARK INTRA:                  -0.083
REMARK UNBOUND:                -0.055
REMARK SMILES CC1(C)CC[C@@]23CO[C@]4(C=C[C@H]5[C@@]6(C)CC[C@@H](O)[C@](C)(CO)[C@@H]6CC[C@@]5(C)[C@]4(C)C[C@H]2O)[C@@H]3C1
REMARK SMILES IDX 1 1 2 2 4 3 5 4 6 5 7 6 8 7 9 8 33 9 34 10 10 11 11 12 12 13
REMARK SMILES IDX 13 14 15 15 16 16 17 17 19 18 23 19 24 20 25 21 26 22 28 23
REMARK SMILES IDX 30 24 31 25 29 26 27 27 20 28 14 29 3 30 32 31 21 33 22 34
REMARK SMILES IDX 18 36
REMARK H PARENT 32 32 22 35 18 37
REMARK Flexibility Score: inf
ROOT
ATOM      1  C   UNL     1     -28.238  10.632 -17.391  1.00  0.00     0.011 C 
ATOM      2  C   UNL     1     -26.943  11.233 -17.983  1.00  0.00    -0.035 C 
ATOM      3  C   UNL     1     -26.472  10.441 -19.223  1.00  0.00     0.007 C 
ATOM      4  C   UNL     1     -27.431  10.574 -20.415  1.00  0.00     0.013 C 
ATOM      5  C   UNL     1     -27.834  12.038 -20.765  1.00  0.00     0.026 C 
ATOM      6  C   UNL     1     -26.669  12.843 -21.378  1.00  0.00     0.171 C 
ATOM      7  O   UNL     1     -26.841  14.204 -21.043  1.00  0.00    -0.369 OA
ATOM      8  C   UNL     1     -28.019  14.297 -20.261  1.00  0.00     0.096 C 
ATOM      9  C   UNL     1     -28.149  12.911 -19.559  1.00  0.00     0.037 C 
ATOM     10  C   UNL     1     -27.149  12.713 -18.378  1.00  0.00     0.014 C 
ATOM     11  C   UNL     1     -27.804  15.357 -19.234  1.00  0.00     0.005 C 
ATOM     12  C   UNL     1     -28.820  15.861 -18.545  1.00  0.00    -0.024 C 
ATOM     13  C   UNL     1     -30.280  15.644 -18.965  1.00  0.00     0.024 C 
ATOM     14  C   UNL     1     -31.232  16.674 -18.191  1.00  0.00    -0.022 C 
ATOM     15  C   UNL     1     -31.040  16.539 -16.639  1.00  0.00     0.010 C 
ATOM     16  C   UNL     1     -31.718  17.655 -15.823  1.00  0.00     0.033 C 
ATOM     17  C   UNL     1     -31.336  19.078 -16.285  1.00  0.00     0.123 C 
ATOM     18  C   UNL     1     -31.487  19.334 -17.834  1.00  0.00     0.020 C 
ATOM     19  C   UNL     1     -30.840  18.134 -18.646  1.00  0.00     0.006 C 
ATOM     20  C   UNL     1     -30.852  18.287 -20.193  1.00  0.00     0.005 C 
ATOM     21  C   UNL     1     -29.984  17.224 -20.919  1.00  0.00     0.008 C 
ATOM     22  C   UNL     1     -30.327  15.729 -20.557  1.00  0.00    -0.017 C 
ATOM     23  C   UNL     1     -29.275  14.641 -21.213  1.00  0.00     0.009 C 
ATOM     24  C   UNL     1     -29.999  13.276 -21.559  1.00  0.00     0.043 C 
ATOM     25  C   UNL     1     -29.084  12.027 -21.718  1.00  0.00     0.124 C 
ATOM     26  C   UNL     1     -28.760  15.193 -22.582  1.00  0.00     0.015 C 
ATOM     27  C   UNL     1     -31.746  15.460 -21.173  1.00  0.00     0.013 C 
ATOM     28  C   UNL     1     -30.707  20.644 -18.167  1.00  0.00     0.017 C 
ATOM     29  C   UNL     1     -32.730  16.318 -18.464  1.00  0.00     0.012 C 
ATOM     30  C   UNL     1     -25.843  11.157 -16.902  1.00  0.00     0.011 C 
ENDROOT
BRANCH  25  31
ATOM     31  O   UNL     1     -28.699  11.858 -23.061  1.00  0.00    -0.392 OA
ATOM     32  H   UNL     1     -27.722  12.035 -23.111  1.00  0.00     0.210 HD
ENDBRANCH  25  31
BRANCH  18  33
ATOM     33  C   UNL     1     -32.976  19.642 -18.208  1.00  0.00     0.165 C 
BRANCH  33  34
ATOM     34  O   UNL     1     -33.124  20.814 -18.955  1.00  0.00    -0.396 OA
ATOM     35  H   UNL     1     -32.215  21.069 -19.261  1.00  0.00     0.210 HD
ENDBRANCH  33  34
ENDBRANCH  18  33
BRANCH  17  36
ATOM     36  O   UNL     1     -30.048  19.402 -15.812  1.00  0.00    -0.392 OA
ATOM     37  H   UNL     1     -29.568  18.557 -15.619  1.00  0.00     0.210 HD
ENDBRANCH  17  36
TORSDOF 4
ENDMDL
MODEL 3
REMARK VINA RESULT:    -8.887      2.647      8.760
REMARK INTER + INTRA:         -10.240
REMARK INTER:                 -10.213
REMARK INTRA:                  -0.027
REMARK UNBOUND:                -0.055
REMARK SMILES CC1(C)CC[C@@]23CO[C@]4(C=C[C@H]5[C@@]6(C)CC[C@@H](O)[C@](C)(CO)[C@@H]6CC[C@@]5(C)[C@]4(C)C[C@H]2O)[C@@H]3C1
REMARK SMILES IDX 1 1 2 2 4 3 5 4 6 5 7 6 8 7 9 8 33 9 34 10 10 11 11 12 12 13
REMARK SMILES IDX 13 14 15 15 16 16 17 17 19 18 23 19 24 20 25 21 26 22 28 23
REMARK SMILES IDX 30 24 31 25 29 26 27 27 20 28 14 29 3 30 32 31 21 33 22 34
REMARK SMILES IDX 18 36
REMARK H PARENT 32 32 22 35 18 37
REMARK Flexibility Score: inf
ROOT
ATOM      1  C   UNL     1     -20.501  17.760 -18.217  1.00  0.00     0.011 C 
ATOM      2  C   UNL     1     -21.760  17.294 -18.984  1.00  0.00    -0.035 C 
ATOM      3  C   UNL     1     -21.459  17.091 -20.486  1.00  0.00     0.007 C 
ATOM      4  C   UNL     1     -20.502  15.919 -20.749  1.00  0.00     0.013 C 
ATOM      5  C   UNL     1     -20.892  14.589 -20.038  1.00  0.00     0.026 C 
ATOM      6  C   UNL     1     -22.150  13.937 -20.650  1.00  0.00     0.171 C 
ATOM      7  O   UNL     1     -22.815  13.212 -19.637  1.00  0.00    -0.369 OA
ATOM      8  C   UNL     1     -22.066  13.376 -18.444  1.00  0.00     0.096 C 
ATOM      9  C   UNL     1     -21.357  14.755 -18.598  1.00  0.00     0.037 C 
ATOM     10  C   UNL     1     -22.310  15.974 -18.397  1.00  0.00     0.014 C 
ATOM     11  C   UNL     1     -23.028  13.435 -17.305  1.00  0.00     0.005 C 
ATOM     12  C   UNL     1     -22.615  13.303 -16.051  1.00  0.00    -0.024 C 
ATOM     13  C   UNL     1     -21.220  12.766 -15.703  1.00  0.00     0.024 C 
ATOM     14  C   UNL     1     -21.160  12.358 -14.155  1.00  0.00    -0.022 C 
ATOM     15  C   UNL     1     -21.566  13.575 -13.250  1.00  0.00     0.010 C 
ATOM     16  C   UNL     1     -21.786  13.211 -11.770  1.00  0.00     0.033 C 
ATOM     17  C   UNL     1     -22.771  12.041 -11.559  1.00  0.00     0.123 C 
ATOM     18  C   UNL     1     -22.465  10.757 -12.422  1.00  0.00     0.020 C 
ATOM     19  C   UNL     1     -22.175  11.170 -13.927  1.00  0.00     0.006 C 
ATOM     20  C   UNL     1     -21.927   9.993 -14.910  1.00  0.00     0.005 C 
ATOM     21  C   UNL     1     -21.910  10.434 -16.399  1.00  0.00     0.008 C 
ATOM     22  C   UNL     1     -20.897  11.593 -16.734  1.00  0.00    -0.017 C 
ATOM     23  C   UNL     1     -21.031  12.149 -18.282  1.00  0.00     0.009 C 
ATOM     24  C   UNL     1     -19.631  12.630 -18.845  1.00  0.00     0.043 C 
ATOM     25  C   UNL     1     -19.669  13.601 -20.060  1.00  0.00     0.124 C 
ATOM     26  C   UNL     1     -21.465  10.969 -19.210  1.00  0.00     0.015 C 
ATOM     27  C   UNL     1     -19.468  10.967 -16.568  1.00  0.00     0.013 C 
ATOM     28  C   UNL     1     -23.740   9.857 -12.384  1.00  0.00     0.017 C 
ATOM     29  C   UNL     1     -19.691  12.007 -13.756  1.00  0.00     0.012 C 
ATOM     30  C   UNL     1     -22.840  18.388 -18.841  1.00  0.00     0.011 C 
ENDROOT
BRANCH  25  31
ATOM     31  O   UNL     1     -19.614  12.887 -21.271  1.00  0.00    -0.392 OA
ATOM     32  H   UNL     1     -20.360  13.213 -21.840  1.00  0.00     0.210 HD
ENDBRANCH  25  31
BRANCH  18  33
ATOM     33  C   UNL     1     -21.339   9.892 -11.759  1.00  0.00     0.165 C 
BRANCH  33  34
ATOM     34  O   UNL     1     -21.057  10.274 -10.443  1.00  0.00    -0.396 OA
ATOM     35  H   UNL     1     -20.069  10.265 -10.354  1.00  0.00     0.210 HD
ENDBRANCH  33  34
ENDBRANCH  18  33
BRANCH  17  36
ATOM     36  O   UNL     1     -24.094  12.497 -11.730  1.00  0.00    -0.392 OA
ATOM     37  H   UNL     1     -24.272  13.193 -11.047  1.00  0.00     0.210 HD
ENDBRANCH  17  36
TORSDOF 4
ENDMDL
MODEL 4
REMARK VINA RESULT:    -8.716      7.355     10.325
REMARK INTER + INTRA:         -10.045
REMARK INTER:                 -10.325
REMARK INTRA:                   0.280
REMARK UNBOUND:                -0.055
REMARK SMILES CC1(C)CC[C@@]23CO[C@]4(C=C[C@H]5[C@@]6(C)CC[C@@H](O)[C@](C)(CO)[C@@H]6CC[C@@]5(C)[C@]4(C)C[C@H]2O)[C@@H]3C1
REMARK SMILES IDX 1 1 2 2 4 3 5 4 6 5 7 6 8 7 9 8 33 9 34 10 10 11 11 12 12 13
REMARK SMILES IDX 13 14 15 15 16 16 17 17 19 18 23 19 24 20 25 21 26 22 28 23
REMARK SMILES IDX 30 24 31 25 29 26 27 27 20 28 14 29 3 30 32 31 21 33 22 34
REMARK SMILES IDX 18 36
REMARK H PARENT 32 32 22 35 18 37
REMARK Flexibility Score: inf
ROOT
ATOM      1  C   UNL     1     -28.913  11.210 -15.804  1.00  0.00     0.011 C 
ATOM      2  C   UNL     1     -27.605  10.911 -15.035  1.00  0.00    -0.035 C 
ATOM      3  C   UNL     1     -27.513  11.748 -13.739  1.00  0.00     0.007 C 
ATOM      4  C   UNL     1     -28.566  11.349 -12.696  1.00  0.00     0.013 C 
ATOM      5  C   UNL     1     -28.651   9.820 -12.410  1.00  0.00     0.026 C 
ATOM      6  C   UNL     1     -27.423   9.292 -11.639  1.00  0.00     0.171 C 
ATOM      7  O   UNL     1     -27.217   7.942 -11.998  1.00  0.00    -0.369 OA
ATOM      8  C   UNL     1     -28.220   7.600 -12.939  1.00  0.00     0.096 C 
ATOM      9  C   UNL     1     -28.580   8.940 -13.650  1.00  0.00     0.037 C 
ATOM     10  C   UNL     1     -27.504   9.411 -14.677  1.00  0.00     0.014 C 
ATOM     11  C   UNL     1     -27.618   6.659 -13.928  1.00  0.00     0.005 C 
ATOM     12  C   UNL     1     -28.380   5.954 -14.754  1.00  0.00    -0.024 C 
ATOM     13  C   UNL     1     -29.893   5.804 -14.545  1.00  0.00     0.024 C 
ATOM     14  C   UNL     1     -30.456   4.607 -15.448  1.00  0.00    -0.022 C 
ATOM     15  C   UNL     1     -30.090   4.839 -16.957  1.00  0.00     0.010 C 
ATOM     16  C   UNL     1     -30.363   3.623 -17.863  1.00  0.00     0.033 C 
ATOM     17  C   UNL     1     -29.719   2.315 -17.355  1.00  0.00     0.123 C 
ATOM     18  C   UNL     1     -30.015   1.977 -15.844  1.00  0.00     0.020 C 
ATOM     19  C   UNL     1     -29.792   3.266 -14.945  1.00  0.00     0.006 C 
ATOM     20  C   UNL     1     -29.979   3.059 -13.416  1.00  0.00     0.005 C 
ATOM     21  C   UNL     1     -29.499   4.270 -12.572  1.00  0.00     0.008 C 
ATOM     22  C   UNL     1     -30.137   5.653 -12.976  1.00  0.00    -0.017 C 
ATOM     23  C   UNL     1     -29.476   6.935 -12.175  1.00  0.00     0.009 C 
ATOM     24  C   UNL     1     -30.545   8.077 -11.933  1.00  0.00     0.043 C 
ATOM     25  C   UNL     1     -29.987   9.500 -11.644  1.00  0.00     0.124 C 
ATOM     26  C   UNL     1     -29.037   6.472 -10.749  1.00  0.00     0.015 C 
ATOM     27  C   UNL     1     -31.649   5.557 -12.568  1.00  0.00     0.013 C 
ATOM     28  C   UNL     1     -28.998   0.876 -15.406  1.00  0.00     0.017 C 
ATOM     29  C   UNL     1     -32.018   4.589 -15.390  1.00  0.00     0.012 C 
ATOM     30  C   UNL     1     -26.418  11.284 -15.949  1.00  0.00     0.011 C 
ENDROOT
BRANCH  25  31
ATOM     31  O   UNL     1     -29.841   9.707 -10.259  1.00  0.00    -0.392 OA
ATOM     32  H   UNL     1     -30.669   9.373  -9.824  1.00  0.00     0.210 HD
ENDBRANCH  25  31
BRANCH  18  33
ATOM     33  C   UNL     1     -31.425   1.312 -15.686  1.00  0.00     0.165 C 
BRANCH  33  34
ATOM     34  O   UNL     1     -32.311   1.653 -16.711  1.00  0.00    -0.396 OA
ATOM     35  H   UNL     1     -32.182   2.622 -16.884  1.00  0.00     0.210 HD
ENDBRANCH  33  34
ENDBRANCH  18  33
BRANCH  17  36
ATOM     36  O   UNL     1     -28.339   2.323 -17.641  1.00  0.00    -0.392 OA
ATOM     37  H   UNL     1     -28.199   1.870 -18.511  1.00  0.00     0.210 HD
ENDBRANCH  17  36
TORSDOF 4
ENDMDL
MODEL 5
REMARK VINA RESULT:    -8.588      2.541      6.730
REMARK INTER + INTRA:          -9.899
REMARK INTER:                  -9.819
REMARK INTRA:                  -0.080
REMARK UNBOUND:                -0.055
REMARK SMILES CC1(C)CC[C@@]23CO[C@]4(C=C[C@H]5[C@@]6(C)CC[C@@H](O)[C@](C)(CO)[C@@H]6CC[C@@]5(C)[C@]4(C)C[C@H]2O)[C@@H]3C1
REMARK SMILES IDX 1 1 2 2 4 3 5 4 6 5 7 6 8 7 9 8 33 9 34 10 10 11 11 12 12 13
REMARK SMILES IDX 13 14 15 15 16 16 17 17 19 18 23 19 24 20 25 21 26 22 28 23
REMARK SMILES IDX 30 24 31 25 29 26 27 27 20 28 14 29 3 30 32 31 21 33 22 34
REMARK SMILES IDX 18 36
REMARK H PARENT 32 32 22 35 18 37
REMARK Flexibility Score: inf
ROOT
ATOM      1  C   UNL     1     -26.170   6.683 -17.113  1.00  0.00     0.011 C 
ATOM      2  C   UNL     1     -24.937   5.758 -17.239  1.00  0.00    -0.035 C 
ATOM      3  C   UNL     1     -24.679   5.365 -18.711  1.00  0.00     0.007 C 
ATOM      4  C   UNL     1     -24.246   6.555 -19.579  1.00  0.00     0.013 C 
ATOM      5  C   UNL     1     -23.087   7.408 -18.982  1.00  0.00     0.026 C 
ATOM      6  C   UNL     1     -21.734   6.666 -19.003  1.00  0.00     0.171 C 
ATOM      7  O   UNL     1     -20.955   7.128 -17.920  1.00  0.00    -0.369 OA
ATOM      8  C   UNL     1     -21.729   8.092 -17.227  1.00  0.00     0.096 C 
ATOM      9  C   UNL     1     -23.211   7.685 -17.491  1.00  0.00     0.037 C 
ATOM     10  C   UNL     1     -23.672   6.441 -16.670  1.00  0.00     0.014 C 
ATOM     11  C   UNL     1     -21.428   7.960 -15.772  1.00  0.00     0.005 C 
ATOM     12  C   UNL     1     -21.784   8.904 -14.910  1.00  0.00    -0.024 C 
ATOM     13  C   UNL     1     -22.220  10.304 -15.364  1.00  0.00     0.024 C 
ATOM     14  C   UNL     1     -22.206  11.314 -14.121  1.00  0.00    -0.022 C 
ATOM     15  C   UNL     1     -23.107  10.765 -12.958  1.00  0.00     0.010 C 
ATOM     16  C   UNL     1     -22.955  11.532 -11.631  1.00  0.00     0.033 C 
ATOM     17  C   UNL     1     -21.492  11.662 -11.154  1.00  0.00     0.123 C 
ATOM     18  C   UNL     1     -20.488  12.203 -12.243  1.00  0.00     0.020 C 
ATOM     19  C   UNL     1     -20.715  11.442 -13.617  1.00  0.00     0.006 C 
ATOM     20  C   UNL     1     -19.741  11.825 -14.766  1.00  0.00     0.005 C 
ATOM     21  C   UNL     1     -19.836  10.875 -15.990  1.00  0.00     0.008 C 
ATOM     22  C   UNL     1     -21.284  10.712 -16.590  1.00  0.00    -0.017 C 
ATOM     23  C   UNL     1     -21.373   9.567 -17.775  1.00  0.00     0.009 C 
ATOM     24  C   UNL     1     -22.461   9.947 -18.861  1.00  0.00     0.043 C 
ATOM     25  C   UNL     1     -22.997   8.781 -19.742  1.00  0.00     0.124 C 
ATOM     26  C   UNL     1     -20.016   9.527 -18.547  1.00  0.00     0.015 C 
ATOM     27  C   UNL     1     -21.635  12.100 -17.232  1.00  0.00     0.013 C 
ATOM     28  C   UNL     1     -19.044  11.902 -11.734  1.00  0.00     0.017 C 
ATOM     29  C   UNL     1     -22.841  12.679 -14.539  1.00  0.00     0.012 C 
ATOM     30  C   UNL     1     -25.216   4.476 -16.427  1.00  0.00     0.011 C 
ENDROOT
BRANCH  25  31
ATOM     31  O   UNL     1     -22.241   8.661 -20.923  1.00  0.00    -0.392 OA
ATOM     32  H   UNL     1     -21.855   9.555 -21.118  1.00  0.00     0.210 HD
ENDBRANCH  25  31
BRANCH  18  33
ATOM     33  C   UNL     1     -20.563  13.764 -12.346  1.00  0.00     0.165 C 
BRANCH  33  34
ATOM     34  O   UNL     1     -20.583  14.397 -11.099  1.00  0.00    -0.396 OA
ATOM     35  H   UNL     1     -20.418  15.360 -11.270  1.00  0.00     0.210 HD
ENDBRANCH  33  34
ENDBRANCH  18  33
BRANCH  17  36
ATOM     36  O   UNL     1     -21.066  10.441 -10.593  1.00  0.00    -0.392 OA
ATOM     37  H   UNL     1     -21.732  10.161  -9.916  1.00  0.00     0.210 HD
ENDBRANCH  17  36
TORSDOF 4
ENDMDL
MODEL 6
REMARK VINA RESULT:    -8.536      4.357      8.977
REMARK INTER + INTRA:          -9.838
REMARK INTER:                  -9.755
REMARK INTRA:                  -0.083
REMARK UNBOUND:                -0.055
REMARK SMILES CC1(C)CC[C@@]23CO[C@]4(C=C[C@H]5[C@@]6(C)CC[C@@H](O)[C@](C)(CO)[C@@H]6CC[C@@]5(C)[C@]4(C)C[C@H]2O)[C@@H]3C1
REMARK SMILES IDX 1 1 2 2 4 3 5 4 6 5 7 6 8 7 9 8 33 9 34 10 10 11 11 12 12 13
REMARK SMILES IDX 13 14 15 15 16 16 17 17 19 18 23 19 24 20 25 21 26 22 28 23
REMARK SMILES IDX 30 24 31 25 29 26 27 27 20 28 14 29 3 30 32 31 21 33 22 34
REMARK SMILES IDX 18 36
REMARK H PARENT 32 32 22 35 18 37
REMARK Flexibility Score: inf
ROOT
ATOM      1  C   UNL     1     -22.560  18.649 -15.219  1.00  0.00     0.011 C 
ATOM      2  C   UNL     1     -23.911  18.475 -15.951  1.00  0.00    -0.035 C 
ATOM      3  C   UNL     1     -24.197  19.667 -16.893  1.00  0.00     0.007 C 
ATOM      4  C   UNL     1     -23.224  19.735 -18.078  1.00  0.00     0.013 C 
ATOM      5  C   UNL     1     -23.050  18.396 -18.854  1.00  0.00     0.026 C 
ATOM      6  C   UNL     1     -24.303  18.015 -19.669  1.00  0.00     0.171 C 
ATOM      7  O   UNL     1     -24.367  16.607 -19.759  1.00  0.00    -0.369 OA
ATOM      8  C   UNL     1     -23.252  16.091 -19.052  1.00  0.00     0.096 C 
ATOM      9  C   UNL     1     -22.928  17.164 -17.969  1.00  0.00     0.037 C 
ATOM     10  C   UNL     1     -23.931  17.166 -16.773  1.00  0.00     0.014 C 
ATOM     11  C   UNL     1     -23.678  14.825 -18.388  1.00  0.00     0.005 C 
ATOM     12  C   UNL     1     -22.786  13.978 -17.891  1.00  0.00    -0.024 C 
ATOM     13  C   UNL     1     -21.294  14.064 -18.241  1.00  0.00     0.024 C 
ATOM     14  C   UNL     1     -20.552  12.707 -17.821  1.00  0.00    -0.022 C 
ATOM     15  C   UNL     1     -20.784  12.405 -16.297  1.00  0.00     0.010 C 
ATOM     16  C   UNL     1     -20.328  11.000 -15.860  1.00  0.00     0.033 C 
ATOM     17  C   UNL     1     -20.916   9.863 -16.723  1.00  0.00     0.123 C 
ATOM     18  C   UNL     1     -20.746  10.057 -18.278  1.00  0.00     0.020 C 
ATOM     19  C   UNL     1     -21.157  11.535 -18.688  1.00  0.00     0.006 C 
ATOM     20  C   UNL     1     -21.107  11.848 -20.209  1.00  0.00     0.005 C 
ATOM     21  C   UNL     1     -21.761  13.207 -20.575  1.00  0.00     0.008 C 
ATOM     22  C   UNL     1     -21.196  14.448 -19.786  1.00  0.00    -0.017 C 
ATOM     23  C   UNL     1     -22.031  15.841 -20.076  1.00  0.00     0.009 C 
ATOM     24  C   UNL     1     -21.082  17.107 -20.004  1.00  0.00     0.043 C 
ATOM     25  C   UNL     1     -21.776  18.480 -19.773  1.00  0.00     0.124 C 
ATOM     26  C   UNL     1     -22.572  15.814 -21.542  1.00  0.00     0.015 C 
ATOM     27  C   UNL     1     -19.729  14.648 -20.306  1.00  0.00     0.013 C 
ATOM     28  C   UNL     1     -21.713   9.054 -18.981  1.00  0.00     0.017 C 
ATOM     29  C   UNL     1     -19.008  12.874 -17.989  1.00  0.00     0.012 C 
ATOM     30  C   UNL     1     -25.027  18.409 -14.886  1.00  0.00     0.011 C 
ENDROOT
BRANCH  25  31
ATOM     31  O   UNL     1     -22.074  19.102 -21.000  1.00  0.00    -0.392 OA
ATOM     32  H   UNL     1     -22.786  19.772 -20.825  1.00  0.00     0.210 HD
ENDBRANCH  25  31
BRANCH  18  33
ATOM     33  C   UNL     1     -19.312   9.631 -18.742  1.00  0.00     0.165 C 
BRANCH  33  34
ATOM     34  O   UNL     1     -19.325   8.736 -19.816  1.00  0.00    -0.396 OA
ATOM     35  H   UNL     1     -20.187   8.247 -19.765  1.00  0.00     0.210 HD
ENDBRANCH  33  34
ENDBRANCH  18  33
BRANCH  17  36
ATOM     36  O   UNL     1     -22.258   9.633 -16.356  1.00  0.00    -0.392 OA
ATOM     37  H   UNL     1     -22.556   8.790 -16.782  1.00  0.00     0.210 HD
ENDBRANCH  17  36
TORSDOF 4
ENDMDL
MODEL 7
REMARK VINA RESULT:    -8.519      2.986      5.201
REMARK INTER + INTRA:          -9.819
REMARK INTER:                  -9.744
REMARK INTRA:                  -0.075
REMARK UNBOUND:                -0.055
REMARK SMILES CC1(C)CC[C@@]23CO[C@]4(C=C[C@H]5[C@@]6(C)CC[C@@H](O)[C@](C)(CO)[C@@H]6CC[C@@]5(C)[C@]4(C)C[C@H]2O)[C@@H]3C1
REMARK SMILES IDX 1 1 2 2 4 3 5 4 6 5 7 6 8 7 9 8 33 9 34 10 10 11 11 12 12 13
REMARK SMILES IDX 13 14 15 15 16 16 17 17 19 18 23 19 24 20 25 21 26 22 28 23
REMARK SMILES IDX 30 24 31 25 29 26 27 27 20 28 14 29 3 30 32 31 21 33 22 34
REMARK SMILES IDX 18 36
REMARK H PARENT 32 32 22 35 18 37
REMARK Flexibility Score: inf
ROOT
ATOM      1  C   UNL     1     -21.009   4.202 -16.171  1.00  0.00     0.011 C 
ATOM      2  C   UNL     1     -22.481   4.083 -15.712  1.00  0.00    -0.035 C 
ATOM      3  C   UNL     1     -22.689   2.848 -14.808  1.00  0.00     0.007 C 
ATOM      4  C   UNL     1     -21.967   2.969 -13.458  1.00  0.00     0.013 C 
ATOM      5  C   UNL     1     -22.224   4.307 -12.702  1.00  0.00     0.026 C 
ATOM      6  C   UNL     1     -23.661   4.410 -12.150  1.00  0.00     0.171 C 
ATOM      7  O   UNL     1     -24.030   5.772 -12.115  1.00  0.00    -0.369 OA
ATOM      8  C   UNL     1     -22.931   6.517 -12.613  1.00  0.00     0.096 C 
ATOM      9  C   UNL     1     -22.193   5.547 -13.584  1.00  0.00     0.037 C 
ATOM     10  C   UNL     1     -22.926   5.350 -14.947  1.00  0.00     0.014 C 
ATOM     11  C   UNL     1     -23.474   7.674 -13.382  1.00  0.00     0.005 C 
ATOM     12  C   UNL     1     -22.698   8.694 -13.725  1.00  0.00    -0.024 C 
ATOM     13  C   UNL     1     -21.315   8.916 -13.097  1.00  0.00     0.024 C 
ATOM     14  C   UNL     1     -20.803  10.402 -13.409  1.00  0.00    -0.022 C 
ATOM     15  C   UNL     1     -20.797  10.666 -14.957  1.00  0.00     0.010 C 
ATOM     16  C   UNL     1     -20.566  12.140 -15.341  1.00  0.00     0.033 C 
ATOM     17  C   UNL     1     -21.530  13.121 -14.638  1.00  0.00     0.123 C 
ATOM     18  C   UNL     1     -21.623  12.948 -13.073  1.00  0.00     0.020 C 
ATOM     19  C   UNL     1     -21.791  11.413 -12.706  1.00  0.00     0.006 C 
ATOM     20  C   UNL     1     -21.968  11.100 -11.194  1.00  0.00     0.005 C 
ATOM     21  C   UNL     1     -22.386   9.630 -10.919  1.00  0.00     0.008 C 
ATOM     22  C   UNL     1     -21.437   8.543 -11.551  1.00  0.00    -0.017 C 
ATOM     23  C   UNL     1     -22.006   7.004 -11.384  1.00  0.00     0.009 C 
ATOM     24  C   UNL     1     -20.821   5.964 -11.239  1.00  0.00     0.043 C 
ATOM     25  C   UNL     1     -21.159   4.479 -11.558  1.00  0.00     0.124 C 
ATOM     26  C   UNL     1     -22.811   6.901 -10.048  1.00  0.00     0.015 C 
ATOM     27  C   UNL     1     -20.087   8.647 -10.758  1.00  0.00     0.013 C 
ATOM     28  C   UNL     1     -22.892  13.721 -12.595  1.00  0.00     0.017 C 
ATOM     29  C   UNL     1     -19.319  10.558 -12.948  1.00  0.00     0.012 C 
ATOM     30  C   UNL     1     -23.362   3.928 -16.970  1.00  0.00     0.011 C 
ENDROOT
BRANCH  25  31
ATOM     31  O   UNL     1     -21.551   3.795 -10.392  1.00  0.00    -0.392 OA
ATOM     32  H   UNL     1     -20.875   3.086 -10.226  1.00  0.00     0.210 HD
ENDBRANCH  25  31
BRANCH  18  33
ATOM     33  C   UNL     1     -20.423  13.658 -12.359  1.00  0.00     0.165 C 
BRANCH  33  34
ATOM     34  O   UNL     1     -20.813  14.412 -11.248  1.00  0.00    -0.396 OA
ATOM     35  H   UNL     1     -21.396  15.138 -11.590  1.00  0.00     0.210 HD
ENDBRANCH  33  34
ENDBRANCH  18  33
BRANCH  17  36
ATOM     36  O   UNL     1     -22.795  13.071 -15.258  1.00  0.00    -0.392 OA
ATOM     37  H   UNL     1     -23.398  13.698 -14.784  1.00  0.00     0.210 HD
ENDBRANCH  17  36
TORSDOF 4
ENDMDL
MODEL 8
REMARK VINA RESULT:    -8.473      6.962      9.542
REMARK INTER + INTRA:          -9.766
REMARK INTER:                  -9.697
REMARK INTRA:                  -0.070
REMARK UNBOUND:                -0.055
REMARK SMILES CC1(C)CC[C@@]23CO[C@]4(C=C[C@H]5[C@@]6(C)CC[C@@H](O)[C@](C)(CO)[C@@H]6CC[C@@]5(C)[C@]4(C)C[C@H]2O)[C@@H]3C1
REMARK SMILES IDX 1 1 2 2 4 3 5 4 6 5 7 6 8 7 9 8 33 9 34 10 10 11 11 12 12 13
REMARK SMILES IDX 13 14 15 15 16 16 17 17 19 18 23 19 24 20 25 21 26 22 28 23
REMARK SMILES IDX 30 24 31 25 29 26 27 27 20 28 14 29 3 30 32 31 21 33 22 34
REMARK SMILES IDX 18 36
REMARK H PARENT 32 32 22 35 18 37
REMARK Flexibility Score: inf
ROOT
ATOM      1  C   UNL     1     -29.257   2.722 -17.224  1.00  0.00     0.011 C 
ATOM      2  C   UNL     1     -30.530   2.560 -16.360  1.00  0.00    -0.035 C 
ATOM      3  C   UNL     1     -30.507   1.230 -15.573  1.00  0.00     0.007 C 
ATOM      4  C   UNL     1     -29.413   1.193 -14.497  1.00  0.00     0.013 C 
ATOM      5  C   UNL     1     -29.381   2.437 -13.560  1.00  0.00     0.026 C 
ATOM      6  C   UNL     1     -30.583   2.483 -12.594  1.00  0.00     0.171 C 
ATOM      7  O   UNL     1     -30.871   3.834 -12.303  1.00  0.00    -0.369 OA
ATOM      8  C   UNL     1     -29.942   4.625 -13.025  1.00  0.00     0.096 C 
ATOM      9  C   UNL     1     -29.565   3.769 -14.272  1.00  0.00     0.037 C 
ATOM     10  C   UNL     1     -30.677   3.733 -15.365  1.00  0.00     0.014 C 
ATOM     11  C   UNL     1     -30.644   5.865 -13.467  1.00  0.00     0.005 C 
ATOM     12  C   UNL     1     -29.965   6.914 -13.915  1.00  0.00    -0.024 C 
ATOM     13  C   UNL     1     -28.451   7.056 -13.711  1.00  0.00     0.024 C 
ATOM     14  C   UNL     1     -27.997   8.565 -14.000  1.00  0.00    -0.022 C 
ATOM     15  C   UNL     1     -28.441   9.005 -15.441  1.00  0.00     0.010 C 
ATOM     16  C   UNL     1     -28.278  10.511 -15.715  1.00  0.00     0.033 C 
ATOM     17  C   UNL     1     -28.949  11.410 -14.654  1.00  0.00     0.123 C 
ATOM     18  C   UNL     1     -28.579  11.060 -13.162  1.00  0.00     0.020 C 
ATOM     19  C   UNL     1     -28.690   9.494 -12.928  1.00  0.00     0.006 C 
ATOM     20  C   UNL     1     -28.422   9.011 -11.476  1.00  0.00     0.005 C 
ATOM     21  C   UNL     1     -28.796   7.521 -11.248  1.00  0.00     0.008 C 
ATOM     22  C   UNL     1     -28.121   6.509 -12.249  1.00  0.00    -0.017 C 
ATOM     23  C   UNL     1     -28.675   4.964 -12.085  1.00  0.00     0.009 C 
ATOM     24  C   UNL     1     -27.542   3.908 -12.415  1.00  0.00     0.043 C 
ATOM     25  C   UNL     1     -28.018   2.471 -12.776  1.00  0.00     0.124 C 
ATOM     26  C   UNL     1     -29.049   4.713 -10.589  1.00  0.00     0.015 C 
ATOM     27  C   UNL     1     -26.594   6.514 -11.891  1.00  0.00     0.013 C 
ATOM     28  C   UNL     1     -29.617  11.780 -12.245  1.00  0.00     0.017 C 
ATOM     29  C   UNL     1     -26.437   8.660 -13.991  1.00  0.00     0.012 C 
ATOM     30  C   UNL     1     -31.751   2.554 -17.305  1.00  0.00     0.011 C 
ENDROOT
BRANCH  25  31
ATOM     31  O   UNL     1     -28.071   1.660 -11.627  1.00  0.00    -0.392 OA
ATOM     32  H   UNL     1     -28.733   0.941 -11.805  1.00  0.00     0.210 HD
ENDBRANCH  25  31
BRANCH  18  33
ATOM     33  C   UNL     1     -27.195  11.678 -12.769  1.00  0.00     0.165 C 
BRANCH  33  34
ATOM     34  O   UNL     1     -27.119  13.053 -13.008  1.00  0.00    -0.396 OA
ATOM     35  H   UNL     1     -27.440  13.196 -13.936  1.00  0.00     0.210 HD
ENDBRANCH  33  34
ENDBRANCH  18  33
BRANCH  17  36
ATOM     36  O   UNL     1     -30.342  11.438 -14.868  1.00  0.00    -0.392 OA
ATOM     37  H   UNL     1     -30.772  10.857 -14.189  1.00  0.00     0.210 HD
ENDBRANCH  17  36
TORSDOF 4
ENDMDL
MODEL 9
REMARK VINA RESULT:    -8.410      4.174      7.676
REMARK INTER + INTRA:          -9.694
REMARK INTER:                  -9.630
REMARK INTRA:                  -0.064
REMARK UNBOUND:                -0.055
REMARK SMILES CC1(C)CC[C@@]23CO[C@]4(C=C[C@H]5[C@@]6(C)CC[C@@H](O)[C@](C)(CO)[C@@H]6CC[C@@]5(C)[C@]4(C)C[C@H]2O)[C@@H]3C1
REMARK SMILES IDX 1 1 2 2 4 3 5 4 6 5 7 6 8 7 9 8 33 9 34 10 10 11 11 12 12 13
REMARK SMILES IDX 13 14 15 15 16 16 17 17 19 18 23 19 24 20 25 21 26 22 28 23
REMARK SMILES IDX 30 24 31 25 29 26 27 27 20 28 14 29 3 30 32 31 21 33 22 34
REMARK SMILES IDX 18 36
REMARK H PARENT 32 32 22 35 18 37
REMARK Flexibility Score: inf
ROOT
ATOM      1  C   UNL     1     -22.869  14.546 -11.147  1.00  0.00     0.011 C 
ATOM      2  C   UNL     1     -22.248  14.151 -12.507  1.00  0.00    -0.035 C 
ATOM      3  C   UNL     1     -20.740  13.848 -12.368  1.00  0.00     0.007 C 
ATOM      4  C   UNL     1     -20.459  12.588 -11.537  1.00  0.00     0.013 C 
ATOM      5  C   UNL     1     -21.278  11.333 -11.963  1.00  0.00     0.026 C 
ATOM      6  C   UNL     1     -20.823  10.760 -13.321  1.00  0.00     0.171 C 
ATOM      7  O   UNL     1     -21.933  10.146 -13.941  1.00  0.00    -0.369 OA
ATOM      8  C   UNL     1     -23.041  10.305 -13.071  1.00  0.00     0.096 C 
ATOM      9  C   UNL     1     -22.742  11.610 -12.272  1.00  0.00     0.037 C 
ATOM     10  C   UNL     1     -22.959  12.914 -13.101  1.00  0.00     0.014 C 
ATOM     11  C   UNL     1     -24.257  10.504 -13.911  1.00  0.00     0.005 C 
ATOM     12  C   UNL     1     -25.474  10.400 -13.392  1.00  0.00    -0.024 C 
ATOM     13  C   UNL     1     -25.724   9.765 -12.017  1.00  0.00     0.024 C 
ATOM     14  C   UNL     1     -27.281   9.431 -11.842  1.00  0.00    -0.022 C 
ATOM     15  C   UNL     1     -28.147  10.723 -12.061  1.00  0.00     0.010 C 
ATOM     16  C   UNL     1     -29.660  10.453 -12.165  1.00  0.00     0.033 C 
ATOM     17  C   UNL     1     -30.027   9.383 -13.216  1.00  0.00     0.123 C 
ATOM     18  C   UNL     1     -29.216   8.036 -13.098  1.00  0.00     0.020 C 
ATOM     19  C   UNL     1     -27.670   8.347 -12.921  1.00  0.00     0.006 C 
ATOM     20  C   UNL     1     -26.737   7.105 -12.864  1.00  0.00     0.005 C 
ATOM     21  C   UNL     1     -25.230   7.468 -12.955  1.00  0.00     0.008 C 
ATOM     22  C   UNL     1     -24.737   8.519 -11.889  1.00  0.00    -0.017 C 
ATOM     23  C   UNL     1     -23.179   9.005 -12.127  1.00  0.00     0.009 C 
ATOM     24  C   UNL     1     -22.463   9.336 -10.753  1.00  0.00     0.043 C 
ATOM     25  C   UNL     1     -21.202  10.244 -10.830  1.00  0.00     0.124 C 
ATOM     26  C   UNL     1     -22.364   7.821 -12.741  1.00  0.00     0.015 C 
ATOM     27  C   UNL     1     -24.807   7.783 -10.505  1.00  0.00     0.013 C 
ATOM     28  C   UNL     1     -29.422   7.251 -14.431  1.00  0.00     0.017 C 
ATOM     29  C   UNL     1     -27.564   8.977 -10.373  1.00  0.00     0.012 C 
ATOM     30  C   UNL     1     -22.426  15.339 -13.476  1.00  0.00     0.011 C 
ENDROOT
BRANCH  25  31
ATOM     31  O   UNL     1     -20.034   9.468 -10.948  1.00  0.00    -0.392 OA
ATOM     32  H   UNL     1     -19.846   9.366 -11.918  1.00  0.00     0.210 HD
ENDBRANCH  25  31
BRANCH  18  33
ATOM     33  C   UNL     1     -29.823   7.114 -11.986  1.00  0.00     0.165 C 
BRANCH  33  34
ATOM     34  O   UNL     1     -31.160   6.780 -12.219  1.00  0.00    -0.396 OA
ATOM     35  H   UNL     1     -31.643   7.634 -12.363  1.00  0.00     0.210 HD
ENDBRANCH  33  34
ENDBRANCH  18  33
BRANCH  17  36
ATOM     36  O   UNL     1     -29.952   9.941 -14.508  1.00  0.00    -0.392 OA
ATOM     37  H   UNL     1     -30.258  10.882 -14.458  1.00  0.00     0.210 HD
ENDBRANCH  17  36
TORSDOF 4
ENDMDL
