MODEL 1
REMARK VINA RESULT:    -6.060      0.000      0.000
REMARK INTER + INTRA:          -6.238
REMARK INTER:                  -6.238
REMARK INTRA:                   0.000
REMARK UNBOUND:                 0.000
REMARK SMILES O=c1ccc2ccc(O)cc2o1
REMARK SMILES IDX 6 1 7 2 8 3 10 4 11 5 5 6 4 7 3 8 2 9 1 10 12 11 9 12
REMARK H PARENT 9 13
REMARK Flexibility Score: inf
ROOT
ATOM      1  C   UNL     1      11.924  10.480  13.345  1.00  0.00     0.016 A 
ATOM      2  C   UNL     1      12.608  11.367  14.182  1.00  0.00     0.047 A 
ATOM      3  C   UNL     1      11.950  11.966  15.267  1.00  0.00     0.119 A 
ATOM      4  C   UNL     1      10.602  11.676  15.513  1.00  0.00     0.094 A 
ATOM      5  C   UNL     1       9.909  10.791  14.680  1.00  0.00     0.142 A 
ATOM      6  C   UNL     1      10.574  10.188  13.588  1.00  0.00     0.018 A 
ATOM      7  C   UNL     1       9.856   9.308  12.774  1.00  0.00     0.019 A 
ATOM      8  C   UNL     1       8.516   9.051  13.059  1.00  0.00     0.094 A 
ATOM      9  C   UNL     1       7.923   9.683  14.158  1.00  0.00     0.336 A 
ATOM     10  O   UNL     1       6.713   9.465  14.432  1.00  0.00    -0.246 OA
ATOM     11  O   UNL     1       8.629  10.517  14.917  1.00  0.00    -0.423 OA
ENDROOT
BRANCH   3  12
ATOM     12  O   UNL     1      12.626  12.849  16.106  1.00  0.00    -0.508 OA
ATOM     13  H   UNL     1      12.491  12.833  17.109  1.00  0.00     0.293 HD
ENDBRANCH   3  12
TORSDOF 1
ENDMDL
MODEL 2
REMARK VINA RESULT:    -5.889      0.806      4.218
REMARK INTER + INTRA:          -6.061
REMARK INTER:                  -6.061
REMARK INTRA:                   0.000
REMARK UNBOUND:                 0.000
REMARK SMILES O=c1ccc2ccc(O)cc2o1
REMARK SMILES IDX 6 1 7 2 8 3 10 4 11 5 5 6 4 7 3 8 2 9 1 10 12 11 9 12
REMARK H PARENT 9 13
REMARK Flexibility Score: inf
ROOT
ATOM      1  C   UNL     1       9.768   9.268  12.830  1.00  0.00     0.016 A 
ATOM      2  C   UNL     1       8.436   9.019  13.176  1.00  0.00     0.047 A 
ATOM      3  C   UNL     1       7.853   9.677  14.269  1.00  0.00     0.119 A 
ATOM      4  C   UNL     1       8.608  10.587  15.021  1.00  0.00     0.094 A 
ATOM      5  C   UNL     1       9.941  10.842  14.683  1.00  0.00     0.142 A 
ATOM      6  C   UNL     1      10.526  10.178  13.581  1.00  0.00     0.018 A 
ATOM      7  C   UNL     1      11.860  10.454  13.269  1.00  0.00     0.019 A 
ATOM      8  C   UNL     1      12.570  11.367  14.046  1.00  0.00     0.094 A 
ATOM      9  C   UNL     1      11.926  11.987  15.123  1.00  0.00     0.336 A 
ATOM     10  O   UNL     1      12.551  12.815  15.838  1.00  0.00    -0.246 OA
ATOM     11  O   UNL     1      10.655  11.707  15.399  1.00  0.00    -0.423 OA
ENDROOT
BRANCH   3  12
ATOM     12  O   UNL     1       6.526   9.434  14.618  1.00  0.00    -0.508 OA
ATOM     13  H   UNL     1       6.122   8.508  14.548  1.00  0.00     0.293 HD
ENDBRANCH   3  12
TORSDOF 1
ENDMDL
MODEL 3
REMARK VINA RESULT:    -5.584      1.306      4.262
REMARK INTER + INTRA:          -5.747
REMARK INTER:                  -5.747
REMARK INTRA:                   0.000
REMARK UNBOUND:                 0.000
REMARK SMILES O=c1ccc2ccc(O)cc2o1
REMARK SMILES IDX 6 1 7 2 8 3 10 4 11 5 5 6 4 7 3 8 2 9 1 10 12 11 9 12
REMARK H PARENT 9 13
REMARK Flexibility Score: inf
ROOT
ATOM      1  C   UNL     1       9.323   9.102  12.296  1.00  0.00     0.016 A 
ATOM      2  C   UNL     1       8.044   9.051  12.859  1.00  0.00     0.047 A 
ATOM      3  C   UNL     1       7.831   9.493  14.173  1.00  0.00     0.119 A 
ATOM      4  C   UNL     1       8.904   9.987  14.927  1.00  0.00     0.094 A 
ATOM      5  C   UNL     1      10.187  10.040  14.372  1.00  0.00     0.142 A 
ATOM      6  C   UNL     1      10.399   9.595  13.048  1.00  0.00     0.018 A 
ATOM      7  C   UNL     1      11.692   9.661  12.521  1.00  0.00     0.019 A 
ATOM      8  C   UNL     1      12.727  10.159  13.310  1.00  0.00     0.094 A 
ATOM      9  C   UNL     1      12.444  10.583  14.613  1.00  0.00     0.336 A 
ATOM     10  O   UNL     1      13.366  11.037  15.342  1.00  0.00    -0.246 OA
ATOM     11  O   UNL     1      11.204  10.510  15.090  1.00  0.00    -0.423 OA
ENDROOT
BRANCH   3  12
ATOM     12  O   UNL     1       6.559   9.447  14.740  1.00  0.00    -0.508 OA
ATOM     13  H   UNL     1       6.039  10.292  14.941  1.00  0.00     0.293 HD
ENDBRANCH   3  12
TORSDOF 1
ENDMDL
MODEL 4
REMARK VINA RESULT:    -5.561      1.936      4.833
REMARK INTER + INTRA:          -5.724
REMARK INTER:                  -5.724
REMARK INTRA:                   0.000
REMARK UNBOUND:                 0.000
REMARK SMILES O=c1ccc2ccc(O)cc2o1
REMARK SMILES IDX 6 1 7 2 8 3 10 4 11 5 5 6 4 7 3 8 2 9 1 10 12 11 9 12
REMARK H PARENT 9 13
REMARK Flexibility Score: inf
ROOT
ATOM      1  C   UNL     1       8.897   9.972  14.874  1.00  0.00     0.016 A 
ATOM      2  C   UNL     1       8.041   9.403  13.926  1.00  0.00     0.047 A 
ATOM      3  C   UNL     1       8.533   9.012  12.671  1.00  0.00     0.119 A 
ATOM      4  C   UNL     1       9.887   9.193  12.365  1.00  0.00     0.094 A 
ATOM      5  C   UNL     1      10.752   9.763  13.306  1.00  0.00     0.142 A 
ATOM      6  C   UNL     1      10.254  10.156  14.569  1.00  0.00     0.018 A 
ATOM      7  C   UNL     1      11.142  10.721  15.489  1.00  0.00     0.019 A 
ATOM      8  C   UNL     1      12.481  10.882  15.137  1.00  0.00     0.094 A 
ATOM      9  C   UNL     1      12.903  10.470  13.868  1.00  0.00     0.336 A 
ATOM     10  O   UNL     1      14.109  10.606  13.532  1.00  0.00    -0.246 OA
ATOM     11  O   UNL     1      12.038   9.934  13.012  1.00  0.00    -0.423 OA
ENDROOT
BRANCH   3  12
ATOM     12  O   UNL     1       7.685   8.443  11.723  1.00  0.00    -0.508 OA
ATOM     13  H   UNL     1       7.985   7.669  11.143  1.00  0.00     0.293 HD
ENDBRANCH   3  12
TORSDOF 1
ENDMDL
MODEL 5
REMARK VINA RESULT:    -5.556      1.807      2.425
REMARK INTER + INTRA:          -5.718
REMARK INTER:                  -5.718
REMARK INTRA:                   0.000
REMARK UNBOUND:                 0.000
REMARK SMILES O=c1ccc2ccc(O)cc2o1
REMARK SMILES IDX 6 1 7 2 8 3 10 4 11 5 5 6 4 7 3 8 2 9 1 10 12 11 9 12
REMARK H PARENT 9 13
REMARK Flexibility Score: inf
ROOT
ATOM      1  C   UNL     1      10.718  10.922  15.587  1.00  0.00     0.016 A 
ATOM      2  C   UNL     1      12.110  11.052  15.561  1.00  0.00     0.047 A 
ATOM      3  C   UNL     1      12.853  10.499  14.507  1.00  0.00     0.119 A 
ATOM      4  C   UNL     1      12.198   9.813  13.476  1.00  0.00     0.094 A 
ATOM      5  C   UNL     1      10.806   9.677  13.494  1.00  0.00     0.142 A 
ATOM      6  C   UNL     1      10.060  10.235  14.557  1.00  0.00     0.018 A 
ATOM      7  C   UNL     1       8.671  10.084  14.547  1.00  0.00     0.019 A 
ATOM      8  C   UNL     1       8.065   9.392  13.499  1.00  0.00     0.094 A 
ATOM      9  C   UNL     1       8.867   8.867  12.480  1.00  0.00     0.336 A 
ATOM     10  O   UNL     1       8.339   8.239  11.525  1.00  0.00    -0.246 OA
ATOM     11  O   UNL     1      10.187   9.025  12.513  1.00  0.00    -0.423 OA
ENDROOT
BRANCH   3  12
ATOM     12  O   UNL     1      14.240  10.626  14.474  1.00  0.00    -0.508 OA
ATOM     13  H   UNL     1      14.820  10.288  15.232  1.00  0.00     0.293 HD
ENDBRANCH   3  12
TORSDOF 1
ENDMDL
MODEL 6
REMARK VINA RESULT:    -5.510      2.149      3.817
REMARK INTER + INTRA:          -5.671
REMARK INTER:                  -5.671
REMARK INTRA:                   0.000
REMARK UNBOUND:                 0.000
REMARK SMILES O=c1ccc2ccc(O)cc2o1
REMARK SMILES IDX 6 1 7 2 8 3 10 4 11 5 5 6 4 7 3 8 2 9 1 10 12 11 9 12
REMARK H PARENT 9 13
REMARK Flexibility Score: inf
ROOT
ATOM      1  C   UNL     1       9.414   9.009  14.000  1.00  0.00     0.016 A 
ATOM      2  C   UNL     1       9.247   9.020  15.388  1.00  0.00     0.047 A 
ATOM      3  C   UNL     1      10.102   9.783  16.198  1.00  0.00     0.119 A 
ATOM      4  C   UNL     1      11.127  10.538  15.615  1.00  0.00     0.094 A 
ATOM      5  C   UNL     1      11.303  10.533  14.227  1.00  0.00     0.142 A 
ATOM      6  C   UNL     1      10.441   9.763  13.413  1.00  0.00     0.018 A 
ATOM      7  C   UNL     1      10.641   9.779  12.030  1.00  0.00     0.019 A 
ATOM      8  C   UNL     1      11.676  10.545  11.496  1.00  0.00     0.094 A 
ATOM      9  C   UNL     1      12.489  11.283  12.363  1.00  0.00     0.336 A 
ATOM     10  O   UNL     1      13.430  11.982  11.900  1.00  0.00    -0.246 OA
ATOM     11  O   UNL     1      12.278  11.251  13.676  1.00  0.00    -0.423 OA
ENDROOT
BRANCH   3  12
ATOM     12  O   UNL     1       9.940   9.800  17.581  1.00  0.00    -0.508 OA
ATOM     13  H   UNL     1       9.887  10.670  18.097  1.00  0.00     0.293 HD
ENDBRANCH   3  12
TORSDOF 1
ENDMDL
MODEL 7
REMARK VINA RESULT:    -5.281      2.407      4.387
REMARK INTER + INTRA:          -5.436
REMARK INTER:                  -5.436
REMARK INTRA:                   0.000
REMARK UNBOUND:                 0.000
REMARK SMILES O=c1ccc2ccc(O)cc2o1
REMARK SMILES IDX 6 1 7 2 8 3 10 4 11 5 5 6 4 7 3 8 2 9 1 10 12 11 9 12
REMARK H PARENT 9 13
REMARK Flexibility Score: inf
ROOT
ATOM      1  C   UNL     1      10.442  11.818  15.036  1.00  0.00     0.016 A 
ATOM      2  C   UNL     1       9.378  11.009  15.448  1.00  0.00     0.047 A 
ATOM      3  C   UNL     1       9.078   9.826  14.755  1.00  0.00     0.119 A 
ATOM      4  C   UNL     1       9.847   9.452  13.646  1.00  0.00     0.094 A 
ATOM      5  C   UNL     1      10.912  10.256  13.225  1.00  0.00     0.142 A 
ATOM      6  C   UNL     1      11.212  11.447  13.924  1.00  0.00     0.018 A 
ATOM      7  C   UNL     1      12.283  12.228  13.481  1.00  0.00     0.019 A 
ATOM      8  C   UNL     1      13.018  11.815  12.371  1.00  0.00     0.094 A 
ATOM      9  C   UNL     1      12.664  10.623  11.728  1.00  0.00     0.336 A 
ATOM     10  O   UNL     1      13.316  10.233  10.724  1.00  0.00    -0.246 OA
ATOM     11  O   UNL     1      11.641   9.898  12.171  1.00  0.00    -0.423 OA
ENDROOT
BRANCH   3  12
ATOM     12  O   UNL     1       8.021   9.015  15.162  1.00  0.00    -0.508 OA
ATOM     13  H   UNL     1       7.639   8.300  14.555  1.00  0.00     0.293 HD
ENDBRANCH   3  12
TORSDOF 1
ENDMDL
MODEL 8
REMARK VINA RESULT:    -5.150      2.265      2.980
REMARK INTER + INTRA:          -5.300
REMARK INTER:                  -5.300
REMARK INTRA:                   0.000
REMARK UNBOUND:                 0.000
REMARK SMILES O=c1ccc2ccc(O)cc2o1
REMARK SMILES IDX 6 1 7 2 8 3 10 4 11 5 5 6 4 7 3 8 2 9 1 10 12 11 9 12
REMARK H PARENT 9 13
REMARK Flexibility Score: inf
ROOT
ATOM      1  C   UNL     1      12.593   9.693  14.040  1.00  0.00     0.016 A 
ATOM      2  C   UNL     1      13.185   9.817  12.779  1.00  0.00     0.047 A 
ATOM      3  C   UNL     1      12.389   9.893  11.627  1.00  0.00     0.119 A 
ATOM      4  C   UNL     1      10.993   9.845  11.738  1.00  0.00     0.094 A 
ATOM      5  C   UNL     1      10.391   9.721  12.995  1.00  0.00     0.142 A 
ATOM      6  C   UNL     1      11.196   9.644  14.154  1.00  0.00     0.018 A 
ATOM      7  C   UNL     1      10.566   9.520  15.395  1.00  0.00     0.019 A 
ATOM      8  C   UNL     1       9.174   9.476  15.455  1.00  0.00     0.094 A 
ATOM      9  C   UNL     1       8.441   9.558  14.266  1.00  0.00     0.336 A 
ATOM     10  O   UNL     1       7.182   9.519  14.298  1.00  0.00    -0.246 OA
ATOM     11  O   UNL     1       9.065   9.675  13.097  1.00  0.00    -0.423 OA
ENDROOT
BRANCH   3  12
ATOM     12  O   UNL     1      12.973  10.019  10.368  1.00  0.00    -0.508 OA
ATOM     13  H   UNL     1      13.860   9.581  10.151  1.00  0.00     0.293 HD
ENDBRANCH   3  12
TORSDOF 1
ENDMDL
MODEL 9
REMARK VINA RESULT:    -5.011      2.289      2.982
REMARK INTER + INTRA:          -5.157
REMARK INTER:                  -5.157
REMARK INTRA:                   0.000
REMARK UNBOUND:                 0.000
REMARK SMILES O=c1ccc2ccc(O)cc2o1
REMARK SMILES IDX 6 1 7 2 8 3 10 4 11 5 5 6 4 7 3 8 2 9 1 10 12 11 9 12
REMARK H PARENT 9 13
REMARK Flexibility Score: inf
ROOT
ATOM      1  C   UNL     1      11.501   9.890  11.135  1.00  0.00     0.016 A 
ATOM      2  C   UNL     1      12.829  10.291  10.953  1.00  0.00     0.047 A 
ATOM      3  C   UNL     1      13.657  10.523  12.061  1.00  0.00     0.119 A 
ATOM      4  C   UNL     1      13.153  10.354  13.357  1.00  0.00     0.094 A 
ATOM      5  C   UNL     1      11.827   9.954  13.550  1.00  0.00     0.142 A 
ATOM      6  C   UNL     1      10.994   9.721  12.432  1.00  0.00     0.018 A 
ATOM      7  C   UNL     1       9.674   9.322  12.656  1.00  0.00     0.019 A 
ATOM      8  C   UNL     1       9.218   9.168  13.964  1.00  0.00     0.094 A 
ATOM      9  C   UNL     1      10.099   9.416  15.023  1.00  0.00     0.336 A 
ATOM     10  O   UNL     1       9.707   9.282  16.212  1.00  0.00    -0.246 OA
ATOM     11  O   UNL     1      11.351   9.794  14.782  1.00  0.00    -0.423 OA
ENDROOT
BRANCH   3  12
ATOM     12  O   UNL     1      14.981  10.921  11.886  1.00  0.00    -0.508 OA
ATOM     13  H   UNL     1      15.563  10.515  11.163  1.00  0.00     0.293 HD
ENDBRANCH   3  12
TORSDOF 1
ENDMDL
