MODEL 1
REMARK VINA RESULT:    -4.195      0.000      0.000
REMARK INTER + INTRA:          -5.104
REMARK INTER:                  -4.930
REMARK INTRA:                  -0.174
REMARK UNBOUND:                -0.174
REMARK SMILES O=c1c(O)c(-c2ccc(O)c(O)c2)oc2cc(O)ccc12
REMARK SMILES IDX 5 1 3 2 2 3 1 4 21 5 15 6 14 7 16 8 17 9 19 10 20 11 6 12
REMARK SMILES IDX 7 13 8 14 9 15 13 16 11 17 10 18 12 20 4 22 18 24
REMARK H PARENT 10 19 12 21 4 23 18 25
REMARK Flexibility Score: inf
ROOT
ATOM      1  C   UNL     1      23.406  25.011   5.089  1.00  0.00     0.180 A 
ATOM      2  C   UNL     1      24.672  24.721   5.639  1.00  0.00     0.208 A 
ATOM      3  C   UNL     1      25.450  25.776   6.138  1.00  0.00     0.235 A 
ATOM      4  O   UNL     1      26.590  25.544   6.626  1.00  0.00    -0.285 OA
ATOM      5  C   UNL     1      24.947  27.086   6.096  1.00  0.00     0.069 A 
ATOM      6  C   UNL     1      23.660  27.291   5.551  1.00  0.00     0.142 A 
ATOM      7  O   UNL     1      22.959  26.265   5.081  1.00  0.00    -0.452 OA
ATOM      8  C   UNL     1      23.119  28.580   5.500  1.00  0.00     0.094 A 
ATOM      9  C   UNL     1      23.847  29.671   5.986  1.00  0.00     0.119 A 
ATOM     10  C   UNL     1      25.125  29.472   6.526  1.00  0.00     0.047 A 
ATOM     11  C   UNL     1      25.674  28.188   6.583  1.00  0.00     0.020 A 
ENDROOT
BRANCH   1  12
ATOM     12  C   UNL     1      22.533  23.956   4.526  1.00  0.00     0.025 A 
ATOM     13  C   UNL     1      22.922  23.205   3.403  1.00  0.00     0.016 A 
ATOM     14  C   UNL     1      22.071  22.230   2.875  1.00  0.00     0.051 A 
ATOM     15  C   UNL     1      20.815  22.002   3.452  1.00  0.00     0.157 A 
ATOM     16  C   UNL     1      21.264  23.738   5.087  1.00  0.00     0.062 A 
ATOM     17  C   UNL     1      20.409  22.759   4.558  1.00  0.00     0.158 A 
BRANCH  15  18
ATOM     18  O   UNL     1      19.965  21.030   2.929  1.00  0.00    -0.504 OA
ATOM     19  H   UNL     1      20.258  20.065   2.832  1.00  0.00     0.293 HD
ENDBRANCH  15  18
BRANCH  17  20
ATOM     20  O   UNL     1      19.157  22.536   5.125  1.00  0.00    -0.504 OA
ATOM     21  H   UNL     1      18.304  22.827   4.661  1.00  0.00     0.293 HD
ENDBRANCH  17  20
ENDBRANCH   1  12
BRANCH   2  22
ATOM     22  O   UNL     1      25.126  23.402   5.713  1.00  0.00    -0.502 OA
ATOM     23  H   UNL     1      25.173  22.799   4.901  1.00  0.00     0.293 HD
ENDBRANCH   2  22
BRANCH   9  24
ATOM     24  O   UNL     1      23.293  30.947   5.927  1.00  0.00    -0.508 OA
ATOM     25  H   UNL     1      22.659  31.283   6.642  1.00  0.00     0.293 HD
ENDBRANCH   9  24
TORSDOF 5
ENDMDL
MODEL 2
REMARK VINA RESULT:    -4.167      1.711      2.148
REMARK INTER + INTRA:          -5.072
REMARK INTER:                  -4.755
REMARK INTRA:                  -0.317
REMARK UNBOUND:                -0.174
REMARK SMILES O=c1c(O)c(-c2ccc(O)c(O)c2)oc2cc(O)ccc12
REMARK SMILES IDX 5 1 3 2 2 3 1 4 21 5 15 6 14 7 16 8 17 9 19 10 20 11 6 12
REMARK SMILES IDX 7 13 8 14 9 15 13 16 11 17 10 18 12 20 4 22 18 24
REMARK H PARENT 10 19 12 21 4 23 18 25
REMARK Flexibility Score: inf
ROOT
ATOM      1  C   UNL     1      22.722  26.448   4.722  1.00  0.00     0.180 A 
ATOM      2  C   UNL     1      23.583  26.641   5.823  1.00  0.00     0.208 A 
ATOM      3  C   UNL     1      24.027  27.939   6.114  1.00  0.00     0.235 A 
ATOM      4  O   UNL     1      24.806  28.136   7.087  1.00  0.00    -0.285 OA
ATOM      5  C   UNL     1      23.592  29.013   5.321  1.00  0.00     0.069 A 
ATOM      6  C   UNL     1      22.711  28.741   4.252  1.00  0.00     0.142 A 
ATOM      7  O   UNL     1      22.321  27.495   4.004  1.00  0.00    -0.452 OA
ATOM      8  C   UNL     1      22.247  29.784   3.444  1.00  0.00     0.094 A 
ATOM      9  C   UNL     1      22.653  31.100   3.689  1.00  0.00     0.119 A 
ATOM     10  C   UNL     1      23.528  31.374   4.749  1.00  0.00     0.047 A 
ATOM     11  C   UNL     1      23.996  30.339   5.562  1.00  0.00     0.020 A 
ENDROOT
BRANCH   1  12
ATOM     12  C   UNL     1      22.224  25.107   4.339  1.00  0.00     0.025 A 
ATOM     13  C   UNL     1      22.993  24.241   3.541  1.00  0.00     0.016 A 
ATOM     14  C   UNL     1      22.492  22.989   3.173  1.00  0.00     0.051 A 
ATOM     15  C   UNL     1      21.213  22.592   3.582  1.00  0.00     0.157 A 
ATOM     16  C   UNL     1      20.934  24.712   4.728  1.00  0.00     0.062 A 
ATOM     17  C   UNL     1      20.430  23.456   4.359  1.00  0.00     0.158 A 
BRANCH  15  18
ATOM     18  O   UNL     1      20.711  21.345   3.217  1.00  0.00    -0.504 OA
ATOM     19  H   UNL     1      19.761  21.234   2.879  1.00  0.00     0.293 HD
ENDBRANCH  15  18
BRANCH  17  20
ATOM     20  O   UNL     1      19.156  23.062   4.758  1.00  0.00    -0.504 OA
ATOM     21  H   UNL     1      19.012  22.473   5.570  1.00  0.00     0.293 HD
ENDBRANCH  17  20
ENDBRANCH   1  12
BRANCH   2  22
ATOM     22  O   UNL     1      23.960  25.561   6.624  1.00  0.00    -0.502 OA
ATOM     23  H   UNL     1      23.409  24.713   6.685  1.00  0.00     0.293 HD
ENDBRANCH   2  22
BRANCH   9  24
ATOM     24  O   UNL     1      22.181  32.127   2.875  1.00  0.00    -0.508 OA
ATOM     25  H   UNL     1      21.396  31.989   2.250  1.00  0.00     0.293 HD
ENDBRANCH   9  24
TORSDOF 5
ENDMDL
MODEL 3
REMARK VINA RESULT:    -4.113      2.036      6.858
REMARK INTER + INTRA:          -5.008
REMARK INTER:                  -4.684
REMARK INTRA:                  -0.324
REMARK UNBOUND:                -0.174
REMARK SMILES O=c1c(O)c(-c2ccc(O)c(O)c2)oc2cc(O)ccc12
REMARK SMILES IDX 5 1 3 2 2 3 1 4 21 5 15 6 14 7 16 8 17 9 19 10 20 11 6 12
REMARK SMILES IDX 7 13 8 14 9 15 13 16 11 17 10 18 12 20 4 22 18 24
REMARK H PARENT 10 19 12 21 4 23 18 25
REMARK Flexibility Score: inf
ROOT
ATOM      1  C   UNL     1      22.968  24.868   4.497  1.00  0.00     0.180 A 
ATOM      2  C   UNL     1      21.705  24.277   4.715  1.00  0.00     0.208 A 
ATOM      3  C   UNL     1      21.555  22.900   4.492  1.00  0.00     0.235 A 
ATOM      4  O   UNL     1      20.434  22.351   4.670  1.00  0.00    -0.285 OA
ATOM      5  C   UNL     1      22.663  22.143   4.080  1.00  0.00     0.069 A 
ATOM      6  C   UNL     1      23.899  22.803   3.907  1.00  0.00     0.142 A 
ATOM      7  O   UNL     1      23.996  24.111   4.120  1.00  0.00    -0.452 OA
ATOM      8  C   UNL     1      25.028  22.082   3.507  1.00  0.00     0.094 A 
ATOM      9  C   UNL     1      24.941  20.706   3.274  1.00  0.00     0.119 A 
ATOM     10  C   UNL     1      23.715  20.046   3.443  1.00  0.00     0.047 A 
ATOM     11  C   UNL     1      22.581  20.758   3.844  1.00  0.00     0.020 A 
ENDROOT
BRANCH   1  12
ATOM     12  C   UNL     1      23.202  26.316   4.692  1.00  0.00     0.025 A 
ATOM     13  C   UNL     1      23.021  27.236   3.644  1.00  0.00     0.016 A 
ATOM     14  C   UNL     1      23.271  28.596   3.845  1.00  0.00     0.051 A 
ATOM     15  C   UNL     1      23.719  29.054   5.090  1.00  0.00     0.157 A 
ATOM     16  C   UNL     1      23.673  26.779   5.932  1.00  0.00     0.062 A 
ATOM     17  C   UNL     1      23.924  28.144   6.136  1.00  0.00     0.158 A 
BRANCH  15  18
ATOM     18  O   UNL     1      23.969  30.409   5.296  1.00  0.00    -0.504 OA
ATOM     19  H   UNL     1      24.894  30.804   5.166  1.00  0.00     0.293 HD
ENDBRANCH  15  18
BRANCH  17  20
ATOM     20  O   UNL     1      24.377  28.601   7.371  1.00  0.00    -0.504 OA
ATOM     21  H   UNL     1      24.882  29.476   7.460  1.00  0.00     0.293 HD
ENDBRANCH  17  20
ENDBRANCH   1  12
BRANCH   2  22
ATOM     22  O   UNL     1      20.633  25.047   5.173  1.00  0.00    -0.502 OA
ATOM     23  H   UNL     1      20.596  26.052   5.049  1.00  0.00     0.293 HD
ENDBRANCH   2  22
BRANCH   9  24
ATOM     24  O   UNL     1      26.075  20.003   2.875  1.00  0.00    -0.508 OA
ATOM     25  H   UNL     1      26.986  20.198   3.273  1.00  0.00     0.293 HD
ENDBRANCH   9  24
TORSDOF 5
ENDMDL
MODEL 4
REMARK VINA RESULT:    -4.074      1.735      2.052
REMARK INTER + INTRA:          -4.962
REMARK INTER:                  -4.679
REMARK INTRA:                  -0.283
REMARK UNBOUND:                -0.174
REMARK SMILES O=c1c(O)c(-c2ccc(O)c(O)c2)oc2cc(O)ccc12
REMARK SMILES IDX 5 1 3 2 2 3 1 4 21 5 15 6 14 7 16 8 17 9 19 10 20 11 6 12
REMARK SMILES IDX 7 13 8 14 9 15 13 16 11 17 10 18 12 20 4 22 18 24
REMARK H PARENT 10 19 12 21 4 23 18 25
REMARK Flexibility Score: inf
ROOT
ATOM      1  C   UNL     1      23.501  25.383   4.806  1.00  0.00     0.180 A 
ATOM      2  C   UNL     1      24.684  24.694   4.463  1.00  0.00     0.208 A 
ATOM      3  C   UNL     1      25.912  25.188   4.926  1.00  0.00     0.235 A 
ATOM      4  O   UNL     1      26.984  24.596   4.624  1.00  0.00    -0.285 OA
ATOM      5  C   UNL     1      25.935  26.338   5.731  1.00  0.00     0.069 A 
ATOM      6  C   UNL     1      24.706  26.956   6.050  1.00  0.00     0.142 A 
ATOM      7  O   UNL     1      23.565  26.461   5.584  1.00  0.00    -0.452 OA
ATOM      8  C   UNL     1      24.686  28.098   6.857  1.00  0.00     0.094 A 
ATOM      9  C   UNL     1      25.879  28.634   7.352  1.00  0.00     0.119 A 
ATOM     10  C   UNL     1      27.101  28.024   7.037  1.00  0.00     0.047 A 
ATOM     11  C   UNL     1      27.132  26.882   6.231  1.00  0.00     0.020 A 
ENDROOT
BRANCH   1  12
ATOM     12  C   UNL     1      22.168  24.935   4.342  1.00  0.00     0.025 A 
ATOM     13  C   UNL     1      21.507  25.579   3.280  1.00  0.00     0.016 A 
ATOM     14  C   UNL     1      20.239  25.153   2.875  1.00  0.00     0.051 A 
ATOM     15  C   UNL     1      19.608  24.090   3.533  1.00  0.00     0.157 A 
ATOM     16  C   UNL     1      21.521  23.884   5.012  1.00  0.00     0.062 A 
ATOM     17  C   UNL     1      20.248  23.456   4.606  1.00  0.00     0.158 A 
BRANCH  15  18
ATOM     18  O   UNL     1      18.344  23.663   3.132  1.00  0.00    -0.504 OA
ATOM     19  H   UNL     1      18.178  23.296   2.201  1.00  0.00     0.293 HD
ENDBRANCH  15  18
BRANCH  17  20
ATOM     20  O   UNL     1      19.615  22.404   5.263  1.00  0.00    -0.504 OA
ATOM     21  H   UNL     1      18.947  22.568   6.007  1.00  0.00     0.293 HD
ENDBRANCH  17  20
ENDBRANCH   1  12
BRANCH   2  22
ATOM     22  O   UNL     1      24.626  23.524   3.702  1.00  0.00    -0.502 OA
ATOM     23  H   UNL     1      24.631  22.603   4.122  1.00  0.00     0.293 HD
ENDBRANCH   2  22
BRANCH   9  24
ATOM     24  O   UNL     1      25.841  29.772   8.155  1.00  0.00    -0.508 OA
ATOM     25  H   UNL     1      25.318  30.595   7.881  1.00  0.00     0.293 HD
ENDBRANCH   9  24
TORSDOF 5
ENDMDL
MODEL 5
REMARK VINA RESULT:    -4.031      2.140      6.916
REMARK INTER + INTRA:          -4.912
REMARK INTER:                  -4.924
REMARK INTRA:                   0.012
REMARK UNBOUND:                -0.174
REMARK SMILES O=c1c(O)c(-c2ccc(O)c(O)c2)oc2cc(O)ccc12
REMARK SMILES IDX 5 1 3 2 2 3 1 4 21 5 15 6 14 7 16 8 17 9 19 10 20 11 6 12
REMARK SMILES IDX 7 13 8 14 9 15 13 16 11 17 10 18 12 20 4 22 18 24
REMARK H PARENT 10 19 12 21 4 23 18 25
REMARK Flexibility Score: inf
ROOT
ATOM      1  C   UNL     1      22.831  26.827   4.865  1.00  0.00     0.180 A 
ATOM      2  C   UNL     1      22.086  27.783   4.142  1.00  0.00     0.208 A 
ATOM      3  C   UNL     1      20.880  27.388   3.543  1.00  0.00     0.235 A 
ATOM      4  O   UNL     1      20.202  28.222   2.882  1.00  0.00    -0.285 OA
ATOM      5  C   UNL     1      20.436  26.065   3.690  1.00  0.00     0.069 A 
ATOM      6  C   UNL     1      21.227  25.174   4.449  1.00  0.00     0.142 A 
ATOM      7  O   UNL     1      22.366  25.586   4.994  1.00  0.00    -0.452 OA
ATOM      8  C   UNL     1      20.814  23.850   4.628  1.00  0.00     0.094 A 
ATOM      9  C   UNL     1      19.619  23.401   4.058  1.00  0.00     0.119 A 
ATOM     10  C   UNL     1      18.832  24.281   3.302  1.00  0.00     0.047 A 
ATOM     11  C   UNL     1      19.235  25.606   3.119  1.00  0.00     0.020 A 
ENDROOT
BRANCH   1  12
ATOM     12  C   UNL     1      24.120  27.161   5.511  1.00  0.00     0.025 A 
ATOM     13  C   UNL     1      25.266  26.370   5.313  1.00  0.00     0.016 A 
ATOM     14  C   UNL     1      26.466  26.691   5.952  1.00  0.00     0.051 A 
ATOM     15  C   UNL     1      26.535  27.796   6.810  1.00  0.00     0.157 A 
ATOM     16  C   UNL     1      24.190  28.255   6.389  1.00  0.00     0.062 A 
ATOM     17  C   UNL     1      25.395  28.579   7.031  1.00  0.00     0.158 A 
BRANCH  15  18
ATOM     18  O   UNL     1      27.730  28.120   7.449  1.00  0.00    -0.504 OA
ATOM     19  H   UNL     1      27.834  28.034   8.454  1.00  0.00     0.293 HD
ENDBRANCH  15  18
BRANCH  17  20
ATOM     20  O   UNL     1      25.464  29.673   7.890  1.00  0.00    -0.504 OA
ATOM     21  H   UNL     1      26.352  30.061   8.184  1.00  0.00     0.293 HD
ENDBRANCH  17  20
ENDBRANCH   1  12
BRANCH   2  22
ATOM     22  O   UNL     1      22.528  29.105   4.053  1.00  0.00    -0.502 OA
ATOM     23  H   UNL     1      22.435  29.652   3.206  1.00  0.00     0.293 HD
ENDBRANCH   2  22
BRANCH   9  24
ATOM     24  O   UNL     1      19.222  22.078   4.246  1.00  0.00    -0.508 OA
ATOM     25  H   UNL     1      18.268  21.841   4.489  1.00  0.00     0.293 HD
ENDBRANCH   9  24
TORSDOF 5
ENDMDL
MODEL 6
REMARK VINA RESULT:    -4.008      1.615      2.884
REMARK INTER + INTRA:          -4.885
REMARK INTER:                  -4.569
REMARK INTRA:                  -0.316
REMARK UNBOUND:                -0.174
REMARK SMILES O=c1c(O)c(-c2ccc(O)c(O)c2)oc2cc(O)ccc12
REMARK SMILES IDX 5 1 3 2 2 3 1 4 21 5 15 6 14 7 16 8 17 9 19 10 20 11 6 12
REMARK SMILES IDX 7 13 8 14 9 15 13 16 11 17 10 18 12 20 4 22 18 24
REMARK H PARENT 10 19 12 21 4 23 18 25
REMARK Flexibility Score: inf
ROOT
ATOM      1  C   UNL     1      22.613  26.310   4.590  1.00  0.00     0.180 A 
ATOM      2  C   UNL     1      22.082  27.432   3.918  1.00  0.00     0.208 A 
ATOM      3  C   UNL     1      22.512  28.712   4.296  1.00  0.00     0.235 A 
ATOM      4  O   UNL     1      22.044  29.731   3.718  1.00  0.00    -0.285 OA
ATOM      5  C   UNL     1      23.469  28.847   5.314  1.00  0.00     0.069 A 
ATOM      6  C   UNL     1      23.970  27.675   5.921  1.00  0.00     0.142 A 
ATOM      7  O   UNL     1      23.530  26.481   5.539  1.00  0.00    -0.452 OA
ATOM      8  C   UNL     1      24.932  27.767   6.932  1.00  0.00     0.094 A 
ATOM      9  C   UNL     1      25.402  29.016   7.348  1.00  0.00     0.119 A 
ATOM     10  C   UNL     1      24.906  30.183   6.749  1.00  0.00     0.047 A 
ATOM     11  C   UNL     1      23.946  30.102   5.737  1.00  0.00     0.020 A 
ENDROOT
BRANCH   1  12
ATOM     12  C   UNL     1      22.197  24.928   4.261  1.00  0.00     0.025 A 
ATOM     13  C   UNL     1      22.878  24.168   3.293  1.00  0.00     0.016 A 
ATOM     14  C   UNL     1      22.452  22.874   2.982  1.00  0.00     0.051 A 
ATOM     15  C   UNL     1      21.333  22.326   3.622  1.00  0.00     0.157 A 
ATOM     16  C   UNL     1      21.063  24.381   4.884  1.00  0.00     0.062 A 
ATOM     17  C   UNL     1      20.634  23.082   4.573  1.00  0.00     0.158 A 
BRANCH  15  18
ATOM     18  O   UNL     1      20.906  21.036   3.316  1.00  0.00    -0.504 OA
ATOM     19  H   UNL     1      21.410  20.452   2.658  1.00  0.00     0.293 HD
ENDBRANCH  15  18
BRANCH  17  20
ATOM     20  O   UNL     1      19.517  22.538   5.202  1.00  0.00    -0.504 OA
ATOM     21  H   UNL     1      18.576  22.774   4.910  1.00  0.00     0.293 HD
ENDBRANCH  17  20
ENDBRANCH   1  12
BRANCH   2  22
ATOM     22  O   UNL     1      21.168  27.264   2.875  1.00  0.00    -0.502 OA
ATOM     23  H   UNL     1      21.438  27.333   1.901  1.00  0.00     0.293 HD
ENDBRANCH   2  22
BRANCH   9  24
ATOM     24  O   UNL     1      26.360  29.089   8.357  1.00  0.00    -0.508 OA
ATOM     25  H   UNL     1      27.282  29.473   8.185  1.00  0.00     0.293 HD
ENDBRANCH   9  24
TORSDOF 5
ENDMDL
MODEL 7
REMARK VINA RESULT:    -3.907      1.870      6.535
REMARK INTER + INTRA:          -4.766
REMARK INTER:                  -4.550
REMARK INTRA:                  -0.216
REMARK UNBOUND:                -0.174
REMARK SMILES O=c1c(O)c(-c2ccc(O)c(O)c2)oc2cc(O)ccc12
REMARK SMILES IDX 5 1 3 2 2 3 1 4 21 5 15 6 14 7 16 8 17 9 19 10 20 11 6 12
REMARK SMILES IDX 7 13 8 14 9 15 13 16 11 17 10 18 12 20 4 22 18 24
REMARK H PARENT 10 19 12 21 4 23 18 25
REMARK Flexibility Score: inf
ROOT
ATOM      1  C   UNL     1      24.658  24.902   4.957  1.00  0.00     0.180 A 
ATOM      2  C   UNL     1      25.795  24.228   5.449  1.00  0.00     0.208 A 
ATOM      3  C   UNL     1      25.831  22.827   5.384  1.00  0.00     0.235 A 
ATOM      4  O   UNL     1      26.833  22.200   5.827  1.00  0.00    -0.285 OA
ATOM      5  C   UNL     1      24.750  22.133   4.818  1.00  0.00     0.069 A 
ATOM      6  C   UNL     1      23.658  22.882   4.326  1.00  0.00     0.142 A 
ATOM      7  O   UNL     1      23.660  24.207   4.414  1.00  0.00    -0.452 OA
ATOM      8  C   UNL     1      22.566  22.229   3.746  1.00  0.00     0.094 A 
ATOM      9  C   UNL     1      22.548  20.834   3.650  1.00  0.00     0.119 A 
ATOM     10  C   UNL     1      23.629  20.087   4.138  1.00  0.00     0.047 A 
ATOM     11  C   UNL     1      24.725  20.730   4.719  1.00  0.00     0.020 A 
ENDROOT
BRANCH   1  12
ATOM     12  C   UNL     1      24.537  26.377   5.006  1.00  0.00     0.025 A 
ATOM     13  C   UNL     1      24.640  27.159   3.842  1.00  0.00     0.016 A 
ATOM     14  C   UNL     1      24.546  28.552   3.916  1.00  0.00     0.051 A 
ATOM     15  C   UNL     1      24.364  29.182   5.153  1.00  0.00     0.157 A 
ATOM     16  C   UNL     1      24.375  27.016   6.246  1.00  0.00     0.062 A 
ATOM     17  C   UNL     1      24.281  28.414   6.321  1.00  0.00     0.158 A 
BRANCH  15  18
ATOM     18  O   UNL     1      24.269  30.570   5.230  1.00  0.00    -0.504 OA
ATOM     19  H   UNL     1      24.652  31.169   4.507  1.00  0.00     0.293 HD
ENDBRANCH  15  18
BRANCH  17  20
ATOM     20  O   UNL     1      24.107  29.044   7.551  1.00  0.00    -0.504 OA
ATOM     21  H   UNL     1      24.892  29.418   8.071  1.00  0.00     0.293 HD
ENDBRANCH  17  20
ENDBRANCH   1  12
BRANCH   2  22
ATOM     22  O   UNL     1      26.878  24.947   5.962  1.00  0.00    -0.502 OA
ATOM     23  H   UNL     1      27.305  24.722   6.852  1.00  0.00     0.293 HD
ENDBRANCH   2  22
BRANCH   9  24
ATOM     24  O   UNL     1      21.452  20.200   3.069  1.00  0.00    -0.508 OA
ATOM     25  H   UNL     1      21.492  19.228   2.785  1.00  0.00     0.293 HD
ENDBRANCH   9  24
TORSDOF 5
ENDMDL
MODEL 8
REMARK VINA RESULT:    -3.895      2.345      6.474
REMARK INTER + INTRA:          -4.752
REMARK INTER:                  -4.467
REMARK INTRA:                  -0.285
REMARK UNBOUND:                -0.174
REMARK SMILES O=c1c(O)c(-c2ccc(O)c(O)c2)oc2cc(O)ccc12
REMARK SMILES IDX 5 1 3 2 2 3 1 4 21 5 15 6 14 7 16 8 17 9 19 10 20 11 6 12
REMARK SMILES IDX 7 13 8 14 9 15 13 16 11 17 10 18 12 20 4 22 18 24
REMARK H PARENT 10 19 12 21 4 23 18 25
REMARK Flexibility Score: inf
ROOT
ATOM      1  C   UNL     1      24.783  27.693   5.012  1.00  0.00     0.180 A 
ATOM      2  C   UNL     1      25.906  27.594   5.860  1.00  0.00     0.208 A 
ATOM      3  C   UNL     1      26.372  26.320   6.219  1.00  0.00     0.235 A 
ATOM      4  O   UNL     1      27.367  26.204   6.985  1.00  0.00    -0.285 OA
ATOM      5  C   UNL     1      25.725  25.181   5.714  1.00  0.00     0.069 A 
ATOM      6  C   UNL     1      24.623  25.364   4.851  1.00  0.00     0.142 A 
ATOM      7  O   UNL     1      24.208  26.587   4.542  1.00  0.00    -0.452 OA
ATOM      8  C   UNL     1      23.958  24.254   4.319  1.00  0.00     0.094 A 
ATOM      9  C   UNL     1      24.379  22.959   4.639  1.00  0.00     0.119 A 
ATOM     10  C   UNL     1      25.472  22.773   5.496  1.00  0.00     0.047 A 
ATOM     11  C   UNL     1      26.144  23.875   6.032  1.00  0.00     0.020 A 
ENDROOT
BRANCH   1  12
ATOM     12  C   UNL     1      24.222  29.000   4.602  1.00  0.00     0.025 A 
ATOM     13  C   UNL     1      24.535  29.574   3.357  1.00  0.00     0.016 A 
ATOM     14  C   UNL     1      24.012  30.820   3.001  1.00  0.00     0.051 A 
ATOM     15  C   UNL     1      23.183  31.517   3.889  1.00  0.00     0.157 A 
ATOM     16  C   UNL     1      23.407  29.713   5.496  1.00  0.00     0.062 A 
ATOM     17  C   UNL     1      22.881  30.964   5.140  1.00  0.00     0.158 A 
BRANCH  15  18
ATOM     18  O   UNL     1      22.659  32.759   3.538  1.00  0.00    -0.504 OA
ATOM     19  H   UNL     1      21.921  33.196   4.079  1.00  0.00     0.293 HD
ENDBRANCH  15  18
BRANCH  17  20
ATOM     20  O   UNL     1      22.062  31.663   6.024  1.00  0.00    -0.504 OA
ATOM     21  H   UNL     1      22.176  31.583   7.028  1.00  0.00     0.293 HD
ENDBRANCH  17  20
ENDBRANCH   1  12
BRANCH   2  22
ATOM     22  O   UNL     1      26.560  28.744   6.307  1.00  0.00    -0.502 OA
ATOM     23  H   UNL     1      27.211  28.731   7.083  1.00  0.00     0.293 HD
ENDBRANCH   2  22
BRANCH   9  24
ATOM     24  O   UNL     1      23.705  21.865   4.100  1.00  0.00    -0.508 OA
ATOM     25  H   UNL     1      23.063  21.969   3.324  1.00  0.00     0.293 HD
ENDBRANCH   9  24
TORSDOF 5
ENDMDL
MODEL 9
REMARK VINA RESULT:    -3.854      3.632      5.266
REMARK INTER + INTRA:          -4.704
REMARK INTER:                  -4.517
REMARK INTRA:                  -0.187
REMARK UNBOUND:                -0.174
REMARK SMILES O=c1c(O)c(-c2ccc(O)c(O)c2)oc2cc(O)ccc12
REMARK SMILES IDX 5 1 3 2 2 3 1 4 21 5 15 6 14 7 16 8 17 9 19 10 20 11 6 12
REMARK SMILES IDX 7 13 8 14 9 15 13 16 11 17 10 18 12 20 4 22 18 24
REMARK H PARENT 10 19 12 21 4 23 18 25
REMARK Flexibility Score: inf
ROOT
ATOM      1  C   UNL     1      24.956  28.009   5.704  1.00  0.00     0.180 A 
ATOM      2  C   UNL     1      24.664  28.309   4.357  1.00  0.00     0.208 A 
ATOM      3  C   UNL     1      23.860  29.423   4.071  1.00  0.00     0.235 A 
ATOM      4  O   UNL     1      23.576  29.706   2.875  1.00  0.00    -0.285 OA
ATOM      5  C   UNL     1      23.384  30.220   5.124  1.00  0.00     0.069 A 
ATOM      6  C   UNL     1      23.741  29.867   6.444  1.00  0.00     0.142 A 
ATOM      7  O   UNL     1      24.497  28.799   6.672  1.00  0.00    -0.452 OA
ATOM      8  C   UNL     1      23.295  30.641   7.520  1.00  0.00     0.094 A 
ATOM      9  C   UNL     1      22.495  31.766   7.297  1.00  0.00     0.119 A 
ATOM     10  C   UNL     1      22.137  32.119   5.988  1.00  0.00     0.047 A 
ATOM     11  C   UNL     1      22.579  31.353   4.906  1.00  0.00     0.020 A 
ENDROOT
BRANCH   1  12
ATOM     12  C   UNL     1      25.781  26.841   6.088  1.00  0.00     0.025 A 
ATOM     13  C   UNL     1      27.072  27.000   6.622  1.00  0.00     0.016 A 
ATOM     14  C   UNL     1      27.842  25.883   6.954  1.00  0.00     0.051 A 
ATOM     15  C   UNL     1      27.340  24.592   6.744  1.00  0.00     0.157 A 
ATOM     16  C   UNL     1      25.292  25.545   5.859  1.00  0.00     0.062 A 
ATOM     17  C   UNL     1      26.064  24.422   6.193  1.00  0.00     0.158 A 
BRANCH  15  18
ATOM     18  O   UNL     1      28.105  23.475   7.075  1.00  0.00    -0.504 OA
ATOM     19  H   UNL     1      27.948  22.576   6.635  1.00  0.00     0.293 HD
ENDBRANCH  15  18
BRANCH  17  20
ATOM     20  O   UNL     1      25.570  23.137   5.978  1.00  0.00    -0.504 OA
ATOM     21  H   UNL     1      25.783  22.375   6.610  1.00  0.00     0.293 HD
ENDBRANCH  17  20
ENDBRANCH   1  12
BRANCH   2  22
ATOM     22  O   UNL     1      25.192  27.527   3.327  1.00  0.00    -0.502 OA
ATOM     23  H   UNL     1      26.084  27.054   3.408  1.00  0.00     0.293 HD
ENDBRANCH   2  22
BRANCH   9  24
ATOM     24  O   UNL     1      22.059  32.526   8.380  1.00  0.00    -0.508 OA
ATOM     25  H   UNL     1      22.192  32.213   9.334  1.00  0.00     0.293 HD
ENDBRANCH   9  24
TORSDOF 5
ENDMDL
