MODEL 1
REMARK VINA RESULT:    -4.919      0.000      0.000
REMARK INTER + INTRA:          -7.756
REMARK INTER:                  -7.507
REMARK INTRA:                  -0.249
REMARK UNBOUND:                -0.249
REMARK SMILES CC1=CCC[C@H](C)C(=O)C[C@H](C(C)C)C(=O)C1
REMARK SMILES IDX 8 1 9 2 6 3 7 4 5 5 4 6 3 7 2 8 1 9 10 11 11 12 15 13 16 14
REMARK SMILES IDX 17 15 12 17 13 18 14 19
REMARK H PARENT
REMARK Flexibility Score: 70.00
ROOT
ATOM      1  C   UNL     1      34.458  20.257  24.246  1.00  0.00     0.136 C 
ATOM      2  O   UNL     1      34.991  21.015  25.044  1.00  0.00    -0.299 OA
ENDROOT
BRANCH   1   3
ATOM      3  C   UNL     1      34.395  18.773  24.606  1.00  0.00     0.053 C 
ATOM      4  C   UNL     1      35.763  18.229  25.058  1.00  0.00     0.016 C 
BRANCH   3   5
ATOM      5  C   UNL     1      33.247  18.302  25.541  1.00  0.00     0.015 C 
BRANCH   5   6
ATOM      6  C   UNL     1      31.908  17.843  24.929  1.00  0.00     0.028 C 
BRANCH   6   7
ATOM      7  C   UNL     1      30.680  18.598  25.372  1.00  0.00    -0.028 C 
ATOM      8  C   UNL     1      29.892  19.406  24.615  1.00  0.00    -0.070 CG0
ATOM      9  C   UNL     1      28.633  19.925  25.268  1.00  0.00     0.039 C 
ATOM     10  G   UNL     1      30.247  19.964  23.238  1.00  0.00     0.000 G0
ENDBRANCH   6   7
ENDBRANCH   5   6
ENDBRANCH   3   5
ENDBRANCH   1   3
BRANCH   1  11
ATOM     11  C   UNL     1      34.040  20.830  22.906  1.00  0.00     0.087 C 
BRANCH  11  12
ATOM     12  C   UNL     1      32.704  20.263  22.337  1.00  0.00     0.066 C 
BRANCH  12  13
ATOM     13  C   UNL     1      31.489  20.783  23.098  1.00  0.00     0.140 C 
ATOM     14  O   UNL     1      31.569  21.848  23.692  1.00  0.00    -0.299 OA
BRANCH  13  15
ATOM     15  C   UNL     1      30.222  19.974  23.224  1.00  0.00     0.106 CG0
ATOM     16  G   UNL     1      29.908  19.427  24.616  1.00  0.00     0.000 G0
ENDBRANCH  13  15
ENDBRANCH  12  13
BRANCH  12  17
ATOM     17  C   UNL     1      32.526  20.422  20.790  1.00  0.00    -0.006 C 
ATOM     18  C   UNL     1      32.387  19.049  20.105  1.00  0.00     0.008 C 
ATOM     19  C   UNL     1      33.698  21.179  20.139  1.00  0.00     0.008 C 
ENDBRANCH  12  17
ENDBRANCH  11  12
ENDBRANCH   1  11
TORSDOF 1
ENDMDL
MODEL 2
REMARK VINA RESULT:    -4.612      1.598      4.180
REMARK INTER + INTRA:          -7.288
REMARK INTER:                  -6.968
REMARK INTRA:                  -0.319
REMARK UNBOUND:                -0.249
REMARK SMILES CC1=CCC[C@H](C)C(=O)C[C@H](C(C)C)C(=O)C1
REMARK SMILES IDX 8 1 9 2 6 3 7 4 5 5 4 6 3 7 2 8 1 9 10 11 11 12 15 13 16 14
REMARK SMILES IDX 17 15 12 17 13 18 14 19
REMARK H PARENT
REMARK Flexibility Score: 70.00
ROOT
ATOM      1  C   UNL     1      33.576  18.306  24.741  1.00  0.00     0.136 C 
ATOM      2  O   UNL     1      34.038  17.830  23.714  1.00  0.00    -0.299 OA
ENDROOT
BRANCH   1   3
ATOM      3  C   UNL     1      34.514  19.116  25.635  1.00  0.00     0.053 C 
ATOM      4  C   UNL     1      35.704  18.276  26.138  1.00  0.00     0.016 C 
BRANCH   3   5
ATOM      5  C   UNL     1      34.966  20.515  25.133  1.00  0.00     0.015 C 
BRANCH   5   6
ATOM      6  C   UNL     1      33.967  21.406  24.366  1.00  0.00     0.028 C 
BRANCH   6   7
ATOM      7  C   UNL     1      33.787  21.097  22.902  1.00  0.00    -0.028 C 
ATOM      8  C   UNL     1      32.616  20.946  22.228  1.00  0.00    -0.070 CG0
ATOM      9  C   UNL     1      32.714  20.786  20.730  1.00  0.00     0.039 C 
ATOM     10  G   UNL     1      31.240  20.758  22.863  1.00  0.00     0.000 G0
ENDBRANCH   6   7
ENDBRANCH   5   6
ENDBRANCH   3   5
ENDBRANCH   1   3
BRANCH   1  11
ATOM     11  C   UNL     1      32.157  17.927  25.114  1.00  0.00     0.087 C 
BRANCH  11  12
ATOM     12  C   UNL     1      31.096  19.047  24.888  1.00  0.00     0.066 C 
BRANCH  12  13
ATOM     13  C   UNL     1      30.926  19.387  23.410  1.00  0.00     0.140 C 
ATOM     14  O   UNL     1      30.610  18.502  22.628  1.00  0.00    -0.299 OA
BRANCH  13  15
ATOM     15  C   UNL     1      31.235  20.759  22.868  1.00  0.00     0.106 CG0
ATOM     16  G   UNL     1      32.601  20.932  22.207  1.00  0.00     0.000 G0
ENDBRANCH  13  15
ENDBRANCH  12  13
BRANCH  12  17
ATOM     17  C   UNL     1      29.717  18.799  25.584  1.00  0.00    -0.006 C 
ATOM     18  C   UNL     1      28.962  20.125  25.801  1.00  0.00     0.008 C 
ATOM     19  C   UNL     1      29.864  18.089  26.942  1.00  0.00     0.008 C 
ENDBRANCH  12  17
ENDBRANCH  11  12
ENDBRANCH   1  11
TORSDOF 1
ENDMDL
MODEL 3
REMARK VINA RESULT:    -4.582      1.867      4.578
REMARK INTER + INTRA:          -7.241
REMARK INTER:                  -7.026
REMARK INTRA:                  -0.216
REMARK UNBOUND:                -0.249
REMARK SMILES CC1=CCC[C@H](C)C(=O)C[C@H](C(C)C)C(=O)C1
REMARK SMILES IDX 8 1 9 2 6 3 7 4 5 5 4 6 3 7 2 8 1 9 10 11 11 12 15 13 16 14
REMARK SMILES IDX 17 15 12 17 13 18 14 19
REMARK H PARENT
REMARK Flexibility Score: 70.00
ROOT
ATOM      1  C   UNL     1      32.475  17.980  24.632  1.00  0.00     0.136 C 
ATOM      2  O   UNL     1      32.782  17.505  23.549  1.00  0.00    -0.299 OA
ENDROOT
BRANCH   1   3
ATOM      3  C   UNL     1      30.994  18.005  25.006  1.00  0.00     0.053 C 
ATOM      4  C   UNL     1      30.778  17.881  26.527  1.00  0.00     0.016 C 
BRANCH   3   5
ATOM      5  C   UNL     1      30.108  19.120  24.385  1.00  0.00     0.015 C 
BRANCH   5   6
ATOM      6  C   UNL     1      30.660  20.556  24.276  1.00  0.00     0.028 C 
BRANCH   6   7
ATOM      7  C   UNL     1      31.443  20.876  23.029  1.00  0.00    -0.028 C 
ATOM      8  C   UNL     1      32.788  21.039  22.918  1.00  0.00    -0.070 CG0
ATOM      9  C   UNL     1      33.336  21.207  21.521  1.00  0.00     0.039 C 
ATOM     10  G   UNL     1      33.761  21.234  24.080  1.00  0.00     0.000 G0
ENDBRANCH   6   7
ENDBRANCH   5   6
ENDBRANCH   3   5
ENDBRANCH   1   3
BRANCH   1  11
ATOM     11  C   UNL     1      33.572  18.638  25.445  1.00  0.00     0.087 C 
BRANCH  11  12
ATOM     12  C   UNL     1      34.899  18.898  24.669  1.00  0.00     0.066 C 
BRANCH  12  13
ATOM     13  C   UNL     1      34.974  20.319  24.119  1.00  0.00     0.140 C 
ATOM     14  O   UNL     1      36.057  20.766  23.767  1.00  0.00    -0.299 OA
BRANCH  13  15
ATOM     15  C   UNL     1      33.771  21.227  24.092  1.00  0.00     0.106 CG0
ATOM     16  G   UNL     1      32.797  21.022  22.933  1.00  0.00     0.000 G0
ENDBRANCH  13  15
ENDBRANCH  12  13
BRANCH  12  17
ATOM     17  C   UNL     1      36.203  18.512  25.444  1.00  0.00    -0.006 C 
ATOM     18  C   UNL     1      36.876  17.279  24.812  1.00  0.00     0.008 C 
ATOM     19  C   UNL     1      35.937  18.218  26.932  1.00  0.00     0.008 C 
ENDBRANCH  12  17
ENDBRANCH  11  12
ENDBRANCH   1  11
TORSDOF 1
ENDMDL
MODEL 4
REMARK VINA RESULT:    -4.521      2.055      5.012
REMARK INTER + INTRA:          -7.149
REMARK INTER:                  -6.879
REMARK INTRA:                  -0.270
REMARK UNBOUND:                -0.249
REMARK SMILES CC1=CCC[C@H](C)C(=O)C[C@H](C(C)C)C(=O)C1
REMARK SMILES IDX 8 1 9 2 6 3 7 4 5 5 4 6 3 7 2 8 1 9 10 11 11 12 15 13 16 14
REMARK SMILES IDX 17 15 12 17 13 18 14 19
REMARK H PARENT
REMARK Flexibility Score: 70.00
ROOT
ATOM      1  C   UNL     1      31.205  19.754  22.007  1.00  0.00     0.136 C 
ATOM      2  O   UNL     1      30.617  18.991  21.253  1.00  0.00    -0.299 OA
ENDROOT
BRANCH   1   3
ATOM      3  C   UNL     1      32.600  20.224  21.598  1.00  0.00     0.053 C 
ATOM      4  C   UNL     1      32.796  20.199  20.070  1.00  0.00     0.016 C 
BRANCH   3   5
ATOM      5  C   UNL     1      33.134  21.540  22.228  1.00  0.00     0.015 C 
BRANCH   5   6
ATOM      6  C   UNL     1      33.657  21.531  23.679  1.00  0.00     0.028 C 
BRANCH   6   7
ATOM      7  C   UNL     1      34.632  20.435  24.029  1.00  0.00    -0.028 C 
ATOM      8  C   UNL     1      34.354  19.240  24.614  1.00  0.00    -0.070 CG0
ATOM      9  C   UNL     1      35.495  18.257  24.718  1.00  0.00     0.039 C 
ATOM     10  G   UNL     1      33.048  18.873  25.317  1.00  0.00     0.000 G0
ENDBRANCH   6   7
ENDBRANCH   5   6
ENDBRANCH   3   5
ENDBRANCH   1   3
BRANCH   1  11
ATOM     11  C   UNL     1      30.564  20.047  23.348  1.00  0.00     0.087 C 
BRANCH  11  12
ATOM     12  C   UNL     1      30.578  18.858  24.358  1.00  0.00     0.066 C 
BRANCH  12  13
ATOM     13  C   UNL     1      31.962  18.229  24.484  1.00  0.00     0.140 C 
ATOM     14  O   UNL     1      32.176  17.149  23.953  1.00  0.00    -0.299 OA
BRANCH  13  15
ATOM     15  C   UNL     1      33.045  18.850  25.329  1.00  0.00     0.106 CG0
ATOM     16  G   UNL     1      34.338  19.221  24.604  1.00  0.00     0.000 G0
ENDBRANCH  13  15
ENDBRANCH  12  13
BRANCH  12  17
ATOM     17  C   UNL     1      29.960  19.176  25.760  1.00  0.00    -0.006 C 
ATOM     18  C   UNL     1      29.627  17.880  26.524  1.00  0.00     0.008 C 
ATOM     19  C   UNL     1      28.683  20.030  25.659  1.00  0.00     0.008 C 
ENDBRANCH  12  17
ENDBRANCH  11  12
ENDBRANCH   1  11
TORSDOF 1
ENDMDL
MODEL 5
REMARK VINA RESULT:    -4.408      1.831      3.747
REMARK INTER + INTRA:          -6.976
REMARK INTER:                  -6.953
REMARK INTRA:                  -0.023
REMARK UNBOUND:                -0.249
REMARK SMILES CC1=CCC[C@H](C)C(=O)C[C@H](C(C)C)C(=O)C1
REMARK SMILES IDX 8 1 9 2 6 3 7 4 5 5 4 6 3 7 2 8 1 9 10 11 11 12 15 13 16 14
REMARK SMILES IDX 17 15 12 17 13 18 14 19
REMARK H PARENT
REMARK Flexibility Score: 70.00
ROOT
ATOM      1  C   UNL     1      30.441  19.270  23.619  1.00  0.00     0.136 C 
ATOM      2  O   UNL     1      29.510  20.036  23.415  1.00  0.00    -0.299 OA
ENDROOT
BRANCH   1   3
ATOM      3  C   UNL     1      30.705  18.838  25.061  1.00  0.00     0.053 C 
ATOM      4  C   UNL     1      29.399  18.593  25.841  1.00  0.00     0.016 C 
BRANCH   3   5
ATOM      5  C   UNL     1      31.743  17.707  25.300  1.00  0.00     0.015 C 
BRANCH   5   6
ATOM      6  C   UNL     1      33.167  17.849  24.726  1.00  0.00     0.028 C 
BRANCH   6   7
ATOM      7  C   UNL     1      34.003  18.971  25.286  1.00  0.00    -0.028 C 
ATOM      8  C   UNL     1      34.342  20.134  24.670  1.00  0.00    -0.070 CG0
ATOM      9  C   UNL     1      35.066  21.158  25.511  1.00  0.00     0.039 C 
ATOM     10  G   UNL     1      34.207  20.424  23.176  1.00  0.00     0.000 G0
ENDBRANCH   6   7
ENDBRANCH   5   6
ENDBRANCH   3   5
ENDBRANCH   1   3
BRANCH   1  11
ATOM     11  C   UNL     1      31.343  18.935  22.449  1.00  0.00     0.087 C 
BRANCH  11  12
ATOM     12  C   UNL     1      31.999  20.165  21.751  1.00  0.00     0.066 C 
BRANCH  12  13
ATOM     13  C   UNL     1      32.886  20.961  22.703  1.00  0.00     0.140 C 
ATOM     14  O   UNL     1      32.549  22.090  23.028  1.00  0.00    -0.299 OA
BRANCH  13  15
ATOM     15  C   UNL     1      34.218  20.436  23.177  1.00  0.00     0.106 CG0
ATOM     16  G   UNL     1      34.334  20.141  24.671  1.00  0.00     0.000 G0
ENDBRANCH  13  15
ENDBRANCH  12  13
BRANCH  12  17
ATOM     17  C   UNL     1      32.737  19.846  20.408  1.00  0.00    -0.006 C 
ATOM     18  C   UNL     1      33.266  21.134  19.748  1.00  0.00     0.008 C 
ATOM     19  C   UNL     1      31.833  19.113  19.400  1.00  0.00     0.008 C 
ENDBRANCH  12  17
ENDBRANCH  11  12
ENDBRANCH   1  11
TORSDOF 1
ENDMDL
MODEL 6
REMARK VINA RESULT:    -4.274      5.114      7.980
REMARK INTER + INTRA:          -6.771
REMARK INTER:                  -6.198
REMARK INTRA:                  -0.573
REMARK UNBOUND:                -0.249
REMARK SMILES CC1=CCC[C@H](C)C(=O)C[C@H](C(C)C)C(=O)C1
REMARK SMILES IDX 8 1 9 2 6 3 7 4 5 5 4 6 3 7 2 8 1 9 10 11 11 12 15 13 16 14
REMARK SMILES IDX 17 15 12 17 13 18 14 19
REMARK H PARENT
REMARK Flexibility Score: 70.00
ROOT
ATOM      1  C   UNL     1      37.760  20.990  27.235  1.00  0.00     0.136 C 
ATOM      2  O   UNL     1      37.130  21.927  27.701  1.00  0.00    -0.299 OA
ENDROOT
BRANCH   1   3
ATOM      3  C   UNL     1      39.171  21.267  26.717  1.00  0.00     0.053 C 
ATOM      4  C   UNL     1      39.292  22.669  26.089  1.00  0.00     0.016 C 
BRANCH   3   5
ATOM      5  C   UNL     1      40.365  20.950  27.660  1.00  0.00     0.015 C 
BRANCH   5   6
ATOM      6  C   UNL     1      40.557  19.513  28.187  1.00  0.00     0.028 C 
BRANCH   6   7
ATOM      7  C   UNL     1      41.028  18.493  27.182  1.00  0.00    -0.028 C 
ATOM      8  C   UNL     1      40.266  17.615  26.478  1.00  0.00    -0.070 CG0
ATOM      9  C   UNL     1      40.975  16.801  25.422  1.00  0.00     0.039 C 
ATOM     10  G   UNL     1      38.809  17.265  26.771  1.00  0.00     0.000 G0
ENDBRANCH   6   7
ENDBRANCH   5   6
ENDBRANCH   3   5
ENDBRANCH   1   3
BRANCH   1  11
ATOM     11  C   UNL     1      37.036  19.668  27.073  1.00  0.00     0.087 C 
BRANCH  11  12
ATOM     12  C   UNL     1      37.149  19.025  25.657  1.00  0.00     0.066 C 
BRANCH  12  13
ATOM     13  C   UNL     1      37.791  17.643  25.704  1.00  0.00     0.140 C 
ATOM     14  O   UNL     1      37.426  16.789  24.909  1.00  0.00    -0.299 OA
BRANCH  13  15
ATOM     15  C   UNL     1      38.792  17.264  26.767  1.00  0.00     0.106 CG0
ATOM     16  G   UNL     1      40.251  17.609  26.474  1.00  0.00     0.000 G0
ENDBRANCH  13  15
ENDBRANCH  12  13
BRANCH  12  17
ATOM     17  C   UNL     1      35.820  19.015  24.830  1.00  0.00    -0.006 C 
ATOM     18  C   UNL     1      35.594  20.369  24.131  1.00  0.00     0.008 C 
ATOM     19  C   UNL     1      34.590  18.699  25.699  1.00  0.00     0.008 C 
ENDBRANCH  12  17
ENDBRANCH  11  12
ENDBRANCH   1  11
TORSDOF 1
ENDMDL
MODEL 7
REMARK VINA RESULT:    -4.168      4.856      7.942
REMARK INTER + INTRA:          -6.609
REMARK INTER:                  -6.401
REMARK INTRA:                  -0.208
REMARK UNBOUND:                -0.249
REMARK SMILES CC1=CCC[C@H](C)C(=O)C[C@H](C(C)C)C(=O)C1
REMARK SMILES IDX 8 1 9 2 6 3 7 4 5 5 4 6 3 7 2 8 1 9 10 11 11 12 15 13 16 14
REMARK SMILES IDX 17 15 12 17 13 18 14 19
REMARK H PARENT
REMARK Flexibility Score: 70.00
ROOT
ATOM      1  C   UNL     1      35.985  20.258  24.883  1.00  0.00     0.136 C 
ATOM      2  O   UNL     1      35.237  20.804  24.085  1.00  0.00    -0.299 OA
ENDROOT
BRANCH   1   3
ATOM      3  C   UNL     1      35.588  18.877  25.403  1.00  0.00     0.053 C 
ATOM      4  C   UNL     1      34.068  18.639  25.312  1.00  0.00     0.016 C 
BRANCH   3   5
ATOM      5  C   UNL     1      36.396  17.651  24.896  1.00  0.00     0.015 C 
BRANCH   5   6
ATOM      6  C   UNL     1      37.455  17.006  25.814  1.00  0.00     0.028 C 
BRANCH   6   7
ATOM      7  C   UNL     1      38.892  17.167  25.387  1.00  0.00    -0.028 C 
ATOM      8  C   UNL     1      39.872  17.856  26.030  1.00  0.00    -0.070 CG0
ATOM      9  C   UNL     1      41.266  17.734  25.464  1.00  0.00     0.039 C 
ATOM     10  G   UNL     1      39.660  18.862  27.159  1.00  0.00     0.000 G0
ENDBRANCH   6   7
ENDBRANCH   5   6
ENDBRANCH   3   5
ENDBRANCH   1   3
BRANCH   1  11
ATOM     11  C   UNL     1      37.163  21.058  25.400  1.00  0.00     0.087 C 
BRANCH  11  12
ATOM     12  C   UNL     1      37.697  20.615  26.797  1.00  0.00     0.066 C 
BRANCH  12  13
ATOM     13  C   UNL     1      39.174  20.238  26.754  1.00  0.00     0.140 C 
ATOM     14  O   UNL     1      39.980  21.037  26.300  1.00  0.00    -0.299 OA
BRANCH  13  15
ATOM     15  C   UNL     1      39.659  18.870  27.161  1.00  0.00     0.106 CG0
ATOM     16  G   UNL     1      39.878  17.867  26.030  1.00  0.00     0.000 G0
ENDBRANCH  13  15
ENDBRANCH  12  13
BRANCH  12  17
ATOM     17  C   UNL     1      37.390  21.610  27.966  1.00  0.00    -0.006 C 
ATOM     18  C   UNL     1      37.888  23.029  27.629  1.00  0.00     0.008 C 
ATOM     19  C   UNL     1      38.029  21.168  29.295  1.00  0.00     0.008 C 
ENDBRANCH  12  17
ENDBRANCH  11  12
ENDBRANCH   1  11
TORSDOF 1
ENDMDL
MODEL 8
REMARK VINA RESULT:    -3.968      5.020      7.507
REMARK INTER + INTRA:          -6.305
REMARK INTER:                  -5.964
REMARK INTRA:                  -0.341
REMARK UNBOUND:                -0.249
REMARK SMILES CC1=CCC[C@H](C)C(=O)C[C@H](C(C)C)C(=O)C1
REMARK SMILES IDX 8 1 9 2 6 3 7 4 5 5 4 6 3 7 2 8 1 9 10 11 11 12 15 13 16 14
REMARK SMILES IDX 17 15 12 17 13 18 14 19
REMARK H PARENT
REMARK Flexibility Score: 70.00
ROOT
ATOM      1  C   UNL     1      38.289  17.756  26.064  1.00  0.00     0.136 C 
ATOM      2  O   UNL     1      37.622  17.120  26.867  1.00  0.00    -0.299 OA
ENDROOT
BRANCH   1   3
ATOM      3  C   UNL     1      39.801  17.527  26.054  1.00  0.00     0.053 C 
ATOM      4  C   UNL     1      40.371  17.489  24.623  1.00  0.00     0.016 C 
BRANCH   3   5
ATOM      5  C   UNL     1      40.671  18.399  27.001  1.00  0.00     0.015 C 
BRANCH   5   6
ATOM      6  C   UNL     1      39.986  19.331  28.020  1.00  0.00     0.028 C 
BRANCH   6   7
ATOM      7  C   UNL     1      40.294  20.801  27.890  1.00  0.00    -0.028 C 
ATOM      8  C   UNL     1      39.625  21.722  27.146  1.00  0.00    -0.070 CG0
ATOM      9  C   UNL     1      40.052  23.161  27.309  1.00  0.00     0.039 C 
ATOM     10  G   UNL     1      38.607  21.413  26.050  1.00  0.00     0.000 G0
ENDBRANCH   6   7
ENDBRANCH   5   6
ENDBRANCH   3   5
ENDBRANCH   1   3
BRANCH   1  11
ATOM     11  C   UNL     1      37.582  18.823  25.253  1.00  0.00     0.087 C 
BRANCH  11  12
ATOM     12  C   UNL     1      36.589  19.712  26.062  1.00  0.00     0.066 C 
BRANCH  12  13
ATOM     13  C   UNL     1      37.222  21.030  26.497  1.00  0.00     0.140 C 
ATOM     14  O   UNL     1      36.565  21.814  27.166  1.00  0.00    -0.299 OA
BRANCH  13  15
ATOM     15  C   UNL     1      38.599  21.441  26.041  1.00  0.00     0.106 CG0
ATOM     16  G   UNL     1      39.620  21.718  27.142  1.00  0.00     0.000 G0
ENDBRANCH  13  15
ENDBRANCH  12  13
BRANCH  12  17
ATOM     17  C   UNL     1      35.199  19.940  25.377  1.00  0.00    -0.006 C 
ATOM     18  C   UNL     1      34.371  18.641  25.363  1.00  0.00     0.008 C 
ATOM     19  C   UNL     1      35.334  20.453  23.932  1.00  0.00     0.008 C 
ENDBRANCH  12  17
ENDBRANCH  11  12
ENDBRANCH   1  11
TORSDOF 1
ENDMDL
MODEL 9
REMARK VINA RESULT:    -3.800      6.094      8.882
REMARK INTER + INTRA:          -6.048
REMARK INTER:                  -5.722
REMARK INTRA:                  -0.325
REMARK UNBOUND:                -0.249
REMARK SMILES CC1=CCC[C@H](C)C(=O)C[C@H](C(C)C)C(=O)C1
REMARK SMILES IDX 8 1 9 2 6 3 7 4 5 5 4 6 3 7 2 8 1 9 10 11 11 12 15 13 16 14
REMARK SMILES IDX 17 15 12 17 13 18 14 19
REMARK H PARENT
REMARK Flexibility Score: 70.00
ROOT
ATOM      1  C   UNL     1      40.052  18.208  24.759  1.00  0.00     0.136 C 
ATOM      2  O   UNL     1      39.417  17.163  24.764  1.00  0.00    -0.299 OA
ENDROOT
BRANCH   1   3
ATOM      3  C   UNL     1      41.549  18.130  24.463  1.00  0.00     0.053 C 
ATOM      4  C   UNL     1      41.903  18.750  23.098  1.00  0.00     0.016 C 
BRANCH   3   5
ATOM      5  C   UNL     1      42.533  18.584  25.577  1.00  0.00     0.015 C 
BRANCH   5   6
ATOM      6  C   UNL     1      42.116  18.458  27.057  1.00  0.00     0.028 C 
BRANCH   6   7
ATOM      7  C   UNL     1      41.969  19.750  27.819  1.00  0.00    -0.028 C 
ATOM      8  C   UNL     1      40.911  20.146  28.575  1.00  0.00    -0.070 CG0
ATOM      9  C   UNL     1      41.081  21.427  29.357  1.00  0.00     0.039 C 
ATOM     10  G   UNL     1      39.524  19.507  28.571  1.00  0.00     0.000 G0
ENDBRANCH   6   7
ENDBRANCH   5   6
ENDBRANCH   3   5
ENDBRANCH   1   3
BRANCH   1  11
ATOM     11  C   UNL     1      39.332  19.468  25.194  1.00  0.00     0.087 C 
BRANCH  11  12
ATOM     12  C   UNL     1      38.230  19.256  26.277  1.00  0.00     0.066 C 
BRANCH  12  13
ATOM     13  C   UNL     1      38.530  20.023  27.560  1.00  0.00     0.140 C 
ATOM     14  O   UNL     1      38.026  21.125  27.728  1.00  0.00    -0.299 OA
BRANCH  13  15
ATOM     15  C   UNL     1      39.511  19.511  28.584  1.00  0.00     0.106 CG0
ATOM     16  G   UNL     1      40.900  20.146  28.565  1.00  0.00     0.000 G0
ENDBRANCH  13  15
ENDBRANCH  12  13
BRANCH  12  17
ATOM     17  C   UNL     1      36.765  19.508  25.785  1.00  0.00    -0.006 C 
ATOM     18  C   UNL     1      36.052  18.179  25.471  1.00  0.00     0.008 C 
ATOM     19  C   UNL     1      36.712  20.403  24.533  1.00  0.00     0.008 C 
ENDBRANCH  12  17
ENDBRANCH  11  12
ENDBRANCH   1  11
TORSDOF 1
ENDMDL
