MODEL 1
REMARK VINA RESULT:    -5.193      0.000      0.000
REMARK INTER + INTRA:          -8.639
REMARK INTER:                  -7.925
REMARK INTRA:                  -0.713
REMARK UNBOUND:                -0.713
REMARK SMILES CCCCCCCCCCC(=O)[O-]
REMARK SMILES IDX 7 1 8 2 9 3 10 4 11 5 12 6 13 7 6 8 5 9 4 10 3 11 2 12 1 13
REMARK H PARENT
REMARK Flexibility Score: inf
ROOT
ATOM      1  C   UNL     1      88.173 325.151 193.123  1.00  0.00     0.000 C 
ENDROOT
BRANCH   1   2
ATOM      2  C   UNL     1      86.900 324.598 192.458  1.00  0.00     0.000 C 
BRANCH   2   3
ATOM      3  C   UNL     1      87.196 323.780 191.189  1.00  0.00     0.006 C 
BRANCH   3   4
ATOM      4  C   UNL     1      88.648 323.948 190.719  1.00  0.00     0.053 C 
BRANCH   4   5
ATOM      5  C   UNL     1      88.798 323.651 189.259  1.00  0.00     0.041 C 
ATOM      6  O   UNL     1      89.792 324.088 188.621  1.00  0.00    -0.550 OA
ATOM      7  O   UNL     1      87.855 322.865 188.609  1.00  0.00    -0.550 OA
ENDBRANCH   4   5
ENDBRANCH   3   4
ENDBRANCH   2   3
ENDBRANCH   1   2
BRANCH   1   8
ATOM      8  C   UNL     1      88.061 326.598 193.637  1.00  0.00     0.000 C 
BRANCH   8   9
ATOM      9  C   UNL     1      86.775 326.852 194.443  1.00  0.00    -0.000 C 
BRANCH   9  10
ATOM     10  C   UNL     1      86.897 326.363 195.902  1.00  0.00    -0.000 C 
BRANCH  10  11
ATOM     11  C   UNL     1      88.294 326.578 196.508  1.00  0.00    -0.000 C 
BRANCH  11  12
ATOM     12  C   UNL     1      88.746 325.414 197.399  1.00  0.00    -0.003 C 
ATOM     13  C   UNL     1      88.708 324.092 196.638  1.00  0.00     0.004 C 
ENDBRANCH  11  12
ENDBRANCH  10  11
ENDBRANCH   9  10
ENDBRANCH   8   9
ENDBRANCH   1   8
TORSDOF 9
ENDMDL
MODEL 2
REMARK VINA RESULT:    -5.161      3.383      5.916
REMARK INTER + INTRA:          -8.589
REMARK INTER:                  -7.798
REMARK INTRA:                  -0.791
REMARK UNBOUND:                -0.713
REMARK SMILES CCCCCCCCCCC(=O)[O-]
REMARK SMILES IDX 7 1 8 2 9 3 10 4 11 5 12 6 13 7 6 8 5 9 4 10 3 11 2 12 1 13
REMARK H PARENT
REMARK Flexibility Score: inf
ROOT
ATOM      1  C   UNL     1      86.797 326.556 194.274  1.00  0.00     0.000 C 
ENDROOT
BRANCH   1   2
ATOM      2  C   UNL     1      86.589 326.609 195.799  1.00  0.00     0.000 C 
BRANCH   2   3
ATOM      3  C   UNL     1      87.911 326.558 196.584  1.00  0.00     0.006 C 
BRANCH   3   4
ATOM      4  C   UNL     1      88.828 325.427 196.099  1.00  0.00     0.053 C 
BRANCH   4   5
ATOM      5  C   UNL     1      88.446 324.106 196.694  1.00  0.00     0.041 C 
ATOM      6  O   UNL     1      88.455 323.946 197.943  1.00  0.00    -0.550 OA
ATOM      7  O   UNL     1      88.052 323.060 195.869  1.00  0.00    -0.550 OA
ENDBRANCH   4   5
ENDBRANCH   3   4
ENDBRANCH   2   3
ENDBRANCH   1   2
BRANCH   1   8
ATOM      8  C   UNL     1      85.878 325.572 193.528  1.00  0.00     0.000 C 
BRANCH   8   9
ATOM      9  C   UNL     1      86.648 324.421 192.857  1.00  0.00    -0.000 C 
BRANCH   9  10
ATOM     10  C   UNL     1      88.149 324.742 192.694  1.00  0.00    -0.000 C 
BRANCH  10  11
ATOM     11  C   UNL     1      88.620 324.753 191.230  1.00  0.00    -0.000 C 
BRANCH  11  12
ATOM     12  C   UNL     1      88.432 323.400 190.532  1.00  0.00    -0.003 C 
ATOM     13  C   UNL     1      88.895 323.462 189.079  1.00  0.00     0.004 C 
ENDBRANCH  11  12
ENDBRANCH  10  11
ENDBRANCH   9  10
ENDBRANCH   8   9
ENDBRANCH   1   8
TORSDOF 9
ENDMDL
MODEL 3
REMARK VINA RESULT:    -5.116     18.868     20.209
REMARK INTER + INTRA:          -8.521
REMARK INTER:                  -7.791
REMARK INTRA:                  -0.730
REMARK UNBOUND:                -0.713
REMARK SMILES CCCCCCCCCCC(=O)[O-]
REMARK SMILES IDX 7 1 8 2 9 3 10 4 11 5 12 6 13 7 6 8 5 9 4 10 3 11 2 12 1 13
REMARK H PARENT
REMARK Flexibility Score: inf
ROOT
ATOM      1  C   UNL     1     104.237 312.986 192.048  1.00  0.00     0.000 C 
ENDROOT
BRANCH   1   2
ATOM      2  C   UNL     1     105.450 313.677 191.400  1.00  0.00     0.000 C 
BRANCH   2   3
ATOM      3  C   UNL     1     105.054 314.650 190.276  1.00  0.00     0.006 C 
BRANCH   3   4
ATOM      4  C   UNL     1     103.557 314.569 189.943  1.00  0.00     0.053 C 
BRANCH   4   5
ATOM      5  C   UNL     1     103.304 314.735 188.476  1.00  0.00     0.041 C 
ATOM      6  O   UNL     1     102.268 314.246 187.952  1.00  0.00    -0.550 OA
ATOM      7  O   UNL     1     104.197 315.456 187.693  1.00  0.00    -0.550 OA
ENDBRANCH   4   5
ENDBRANCH   3   4
ENDBRANCH   2   3
ENDBRANCH   1   2
BRANCH   1   8
ATOM      8  C   UNL     1     104.567 311.713 192.849  1.00  0.00     0.000 C 
BRANCH   8   9
ATOM      9  C   UNL     1     105.932 311.785 193.555  1.00  0.00    -0.000 C 
BRANCH   9  10
ATOM     10  C   UNL     1     105.793 311.805 195.092  1.00  0.00    -0.000 C 
BRANCH  10  11
ATOM     11  C   UNL     1     104.335 311.857 195.577  1.00  0.00    -0.000 C 
BRANCH  11  12
ATOM     12  C   UNL     1     104.015 313.127 196.375  1.00  0.00    -0.003 C 
ATOM     13  C   UNL     1     104.289 314.380 195.548  1.00  0.00     0.004 C 
ENDBRANCH  11  12
ENDBRANCH  10  11
ENDBRANCH   9  10
ENDBRANCH   8   9
ENDBRANCH   1   8
TORSDOF 9
ENDMDL
MODEL 4
REMARK VINA RESULT:    -5.106     18.032     19.533
REMARK INTER + INTRA:          -8.505
REMARK INTER:                  -8.171
REMARK INTRA:                  -0.334
REMARK UNBOUND:                -0.713
REMARK SMILES CCCCCCCCCCC(=O)[O-]
REMARK SMILES IDX 7 1 8 2 9 3 10 4 11 5 12 6 13 7 6 8 5 9 4 10 3 11 2 12 1 13
REMARK H PARENT
REMARK Flexibility Score: inf
ROOT
ATOM      1  C   UNL     1     103.873 313.780 190.445  1.00  0.00     0.000 C 
ENDROOT
BRANCH   1   2
ATOM      2  C   UNL     1     104.259 314.964 189.539  1.00  0.00     0.000 C 
BRANCH   2   3
ATOM      3  C   UNL     1     103.553 314.925 188.173  1.00  0.00     0.006 C 
BRANCH   3   4
ATOM      4  C   UNL     1     102.142 314.327 188.269  1.00  0.00     0.053 C 
BRANCH   4   5
ATOM      5  C   UNL     1     101.107 315.250 187.702  1.00  0.00     0.041 C 
ATOM      6  O   UNL     1      99.883 314.975 187.814  1.00  0.00    -0.550 OA
ATOM      7  O   UNL     1     101.494 316.428 187.076  1.00  0.00    -0.550 OA
ENDBRANCH   4   5
ENDBRANCH   3   4
ENDBRANCH   2   3
ENDBRANCH   1   2
BRANCH   1   8
ATOM      8  C   UNL     1     104.724 313.634 191.720  1.00  0.00     0.000 C 
BRANCH   8   9
ATOM      9  C   UNL     1     104.480 312.305 192.456  1.00  0.00    -0.000 C 
BRANCH   9  10
ATOM     10  C   UNL     1     105.754 311.783 193.154  1.00  0.00    -0.000 C 
BRANCH  10  11
ATOM     11  C   UNL     1     105.716 311.920 194.685  1.00  0.00    -0.000 C 
BRANCH  11  12
ATOM     12  C   UNL     1     104.292 311.870 195.254  1.00  0.00    -0.003 C 
ATOM     13  C   UNL     1     104.309 311.848 196.780  1.00  0.00     0.004 C 
ENDBRANCH  11  12
ENDBRANCH  10  11
ENDBRANCH   9  10
ENDBRANCH   8   9
ENDBRANCH   1   8
TORSDOF 9
ENDMDL
MODEL 5
REMARK VINA RESULT:    -5.081     19.286     21.087
REMARK INTER + INTRA:          -8.467
REMARK INTER:                  -7.858
REMARK INTRA:                  -0.609
REMARK UNBOUND:                -0.713
REMARK SMILES CCCCCCCCCCC(=O)[O-]
REMARK SMILES IDX 7 1 8 2 9 3 10 4 11 5 12 6 13 7 6 8 5 9 4 10 3 11 2 12 1 13
REMARK H PARENT
REMARK Flexibility Score: inf
ROOT
ATOM      1  C   UNL     1     104.764 311.703 192.885  1.00  0.00     0.000 C 
ENDROOT
BRANCH   1   2
ATOM      2  C   UNL     1     106.041 311.890 193.725  1.00  0.00     0.000 C 
BRANCH   2   3
ATOM      3  C   UNL     1     105.815 311.620 195.223  1.00  0.00     0.006 C 
BRANCH   3   4
ATOM      4  C   UNL     1     104.368 311.902 195.649  1.00  0.00     0.053 C 
BRANCH   4   5
ATOM      5  C   UNL     1     104.222 313.263 196.259  1.00  0.00     0.041 C 
ATOM      6  O   UNL     1     104.146 313.393 197.510  1.00  0.00    -0.550 OA
ATOM      7  O   UNL     1     104.200 314.390 195.448  1.00  0.00    -0.550 OA
ENDBRANCH   4   5
ENDBRANCH   3   4
ENDBRANCH   2   3
ENDBRANCH   1   2
BRANCH   1   8
ATOM      8  C   UNL     1     104.244 312.980 192.200  1.00  0.00     0.000 C 
BRANCH   8   9
ATOM      9  C   UNL     1     105.366 313.821 191.566  1.00  0.00    -0.000 C 
BRANCH   9  10
ATOM     10  C   UNL     1     104.908 314.516 190.266  1.00  0.00    -0.000 C 
BRANCH  10  11
ATOM     11  C   UNL     1     103.501 314.098 189.808  1.00  0.00    -0.000 C 
BRANCH  11  12
ATOM     12  C   UNL     1     103.070 314.779 188.503  1.00  0.00    -0.003 C 
ATOM     13  C   UNL     1     104.208 315.607 187.912  1.00  0.00     0.004 C 
ENDBRANCH  11  12
ENDBRANCH  10  11
ENDBRANCH   9  10
ENDBRANCH   8   9
ENDBRANCH   1   8
TORSDOF 9
ENDMDL
MODEL 6
REMARK VINA RESULT:    -5.071      1.554      2.309
REMARK INTER + INTRA:          -8.453
REMARK INTER:                  -7.631
REMARK INTRA:                  -0.822
REMARK UNBOUND:                -0.713
REMARK SMILES CCCCCCCCCCC(=O)[O-]
REMARK SMILES IDX 7 1 8 2 9 3 10 4 11 5 12 6 13 7 6 8 5 9 4 10 3 11 2 12 1 13
REMARK H PARENT
REMARK Flexibility Score: inf
ROOT
ATOM      1  C   UNL     1      88.465 323.729 192.521  1.00  0.00     0.000 C 
ENDROOT
BRANCH   1   2
ATOM      2  C   UNL     1      88.490 324.522 191.202  1.00  0.00     0.000 C 
BRANCH   2   3
ATOM      3  C   UNL     1      88.505 323.614 189.960  1.00  0.00     0.006 C 
BRANCH   3   4
ATOM      4  C   UNL     1      89.642 323.975 188.994  1.00  0.00     0.053 C 
BRANCH   4   5
ATOM      5  C   UNL     1      90.594 322.834 188.803  1.00  0.00     0.041 C 
ATOM      6  O   UNL     1      91.254 322.730 187.735  1.00  0.00    -0.550 OA
ATOM      7  O   UNL     1      90.773 321.901 189.816  1.00  0.00    -0.550 OA
ENDBRANCH   4   5
ENDBRANCH   3   4
ENDBRANCH   2   3
ENDBRANCH   1   2
BRANCH   1   8
ATOM      8  C   UNL     1      87.088 323.654 193.207  1.00  0.00     0.000 C 
BRANCH   8   9
ATOM      9  C   UNL     1      86.238 324.918 192.988  1.00  0.00    -0.000 C 
BRANCH   9  10
ATOM     10  C   UNL     1      86.290 325.872 194.201  1.00  0.00    -0.000 C 
BRANCH  10  11
ATOM     11  C   UNL     1      87.433 326.898 194.128  1.00  0.00    -0.000 C 
BRANCH  11  12
ATOM     12  C   UNL     1      88.558 326.613 195.132  1.00  0.00    -0.003 C 
ATOM     13  C   UNL     1      88.068 325.720 196.267  1.00  0.00     0.004 C 
ENDBRANCH  11  12
ENDBRANCH  10  11
ENDBRANCH   9  10
ENDBRANCH   8   9
ENDBRANCH   1   8
TORSDOF 9
ENDMDL
MODEL 7
REMARK VINA RESULT:    -5.045     19.777     21.524
REMARK INTER + INTRA:          -8.413
REMARK INTER:                  -7.959
REMARK INTRA:                  -0.455
REMARK UNBOUND:                -0.713
REMARK SMILES CCCCCCCCCCC(=O)[O-]
REMARK SMILES IDX 7 1 8 2 9 3 10 4 11 5 12 6 13 7 6 8 5 9 4 10 3 11 2 12 1 13
REMARK H PARENT
REMARK Flexibility Score: inf
ROOT
ATOM      1  C   UNL     1     104.261 312.250 195.523  1.00  0.00     0.000 C 
ENDROOT
BRANCH   1   2
ATOM      2  C   UNL     1     104.146 313.611 196.235  1.00  0.00     0.000 C 
BRANCH   2   3
ATOM      3  C   UNL     1     103.830 313.475 197.734  1.00  0.00     0.006 C 
BRANCH   3   4
ATOM      4  C   UNL     1     103.961 312.027 198.224  1.00  0.00     0.053 C 
BRANCH   4   5
ATOM      5  C   UNL     1     103.472 311.868 199.631  1.00  0.00     0.041 C 
ATOM      6  O   UNL     1     104.288 311.655 200.567  1.00  0.00    -0.550 OA
ATOM      7  O   UNL     1     102.117 311.985 199.913  1.00  0.00    -0.550 OA
ENDBRANCH   4   5
ENDBRANCH   3   4
ENDBRANCH   2   3
ENDBRANCH   1   2
BRANCH   1   8
ATOM      8  C   UNL     1     105.678 311.888 195.043  1.00  0.00     0.000 C 
BRANCH   8   9
ATOM      9  C   UNL     1     105.724 311.478 193.561  1.00  0.00    -0.000 C 
BRANCH   9  10
ATOM     10  C   UNL     1     104.580 312.118 192.745  1.00  0.00    -0.000 C 
BRANCH  10  11
ATOM     11  C   UNL     1     105.024 313.332 191.911  1.00  0.00    -0.000 C 
BRANCH  11  12
ATOM     12  C   UNL     1     103.851 314.218 191.474  1.00  0.00    -0.003 C 
ATOM     13  C   UNL     1     103.619 314.122 189.969  1.00  0.00     0.004 C 
ENDBRANCH  11  12
ENDBRANCH  10  11
ENDBRANCH   9  10
ENDBRANCH   8   9
ENDBRANCH   1   8
TORSDOF 9
ENDMDL
MODEL 8
REMARK VINA RESULT:    -5.029      1.420      2.063
REMARK INTER + INTRA:          -8.389
REMARK INTER:                  -7.811
REMARK INTRA:                  -0.577
REMARK UNBOUND:                -0.713
REMARK SMILES CCCCCCCCCCC(=O)[O-]
REMARK SMILES IDX 7 1 8 2 9 3 10 4 11 5 12 6 13 7 6 8 5 9 4 10 3 11 2 12 1 13
REMARK H PARENT
REMARK Flexibility Score: inf
ROOT
ATOM      1  C   UNL     1      88.604 323.761 192.448  1.00  0.00     0.000 C 
ENDROOT
BRANCH   1   2
ATOM      2  C   UNL     1      88.184 324.293 191.066  1.00  0.00     0.000 C 
BRANCH   2   3
ATOM      3  C   UNL     1      89.114 323.820 189.936  1.00  0.00     0.006 C 
BRANCH   3   4
ATOM      4  C   UNL     1      88.339 323.154 188.791  1.00  0.00     0.053 C 
BRANCH   4   5
ATOM      5  C   UNL     1      87.475 322.033 189.281  1.00  0.00     0.041 C 
ATOM      6  O   UNL     1      87.991 321.036 189.850  1.00  0.00    -0.550 OA
ATOM      7  O   UNL     1      86.095 322.105 189.135  1.00  0.00    -0.550 OA
ENDBRANCH   4   5
ENDBRANCH   3   4
ENDBRANCH   2   3
ENDBRANCH   1   2
BRANCH   1   8
ATOM      8  C   UNL     1      88.083 324.579 193.644  1.00  0.00     0.000 C 
BRANCH   8   9
ATOM      9  C   UNL     1      88.157 326.098 193.411  1.00  0.00    -0.000 C 
BRANCH   9  10
ATOM     10  C   UNL     1      87.180 326.875 194.320  1.00  0.00    -0.000 C 
BRANCH  10  11
ATOM     11  C   UNL     1      86.981 326.229 195.701  1.00  0.00    -0.000 C 
BRANCH  11  12
ATOM     12  C   UNL     1      88.110 326.563 196.685  1.00  0.00    -0.003 C 
ATOM     13  C   UNL     1      88.744 325.294 197.246  1.00  0.00     0.004 C 
ENDBRANCH  11  12
ENDBRANCH  10  11
ENDBRANCH   9  10
ENDBRANCH   8   9
ENDBRANCH   1   8
TORSDOF 9
ENDMDL
MODEL 9
REMARK VINA RESULT:    -5.026      2.961      5.322
REMARK INTER + INTRA:          -8.384
REMARK INTER:                  -7.485
REMARK INTRA:                  -0.899
REMARK UNBOUND:                -0.713
REMARK SMILES CCCCCCCCCCC(=O)[O-]
REMARK SMILES IDX 7 1 8 2 9 3 10 4 11 5 12 6 13 7 6 8 5 9 4 10 3 11 2 12 1 13
REMARK H PARENT
REMARK Flexibility Score: inf
ROOT
ATOM      1  C   UNL     1      86.608 326.577 195.811  1.00  0.00     0.000 C 
ENDROOT
BRANCH   1   2
ATOM      2  C   UNL     1      87.956 326.543 196.553  1.00  0.00     0.000 C 
BRANCH   2   3
ATOM      3  C   UNL     1      88.837 325.352 196.136  1.00  0.00     0.006 C 
BRANCH   3   4
ATOM      4  C   UNL     1      88.498 324.079 196.923  1.00  0.00     0.053 C 
BRANCH   4   5
ATOM      5  C   UNL     1      88.558 322.857 196.058  1.00  0.00     0.041 C 
ATOM      6  O   UNL     1      89.226 322.868 194.990  1.00  0.00    -0.550 OA
ATOM      7  O   UNL     1      87.901 321.697 196.447  1.00  0.00    -0.550 OA
ENDBRANCH   4   5
ENDBRANCH   3   4
ENDBRANCH   2   3
ENDBRANCH   1   2
BRANCH   1   8
ATOM      8  C   UNL     1      86.712 326.695 194.279  1.00  0.00     0.000 C 
BRANCH   8   9
ATOM      9  C   UNL     1      85.895 325.623 193.537  1.00  0.00    -0.000 C 
BRANCH   9  10
ATOM     10  C   UNL     1      86.791 324.509 192.954  1.00  0.00    -0.000 C 
BRANCH  10  11
ATOM     11  C   UNL     1      88.160 325.013 192.467  1.00  0.00    -0.000 C 
BRANCH  11  12
ATOM     12  C   UNL     1      88.550 324.451 191.094  1.00  0.00    -0.003 C 
ATOM     13  C   UNL     1      87.587 323.352 190.655  1.00  0.00     0.004 C 
ENDBRANCH  11  12
ENDBRANCH  10  11
ENDBRANCH   9  10
ENDBRANCH   8   9
ENDBRANCH   1   8
TORSDOF 9
ENDMDL
