MODEL 1
REMARK VINA RESULT:    -4.458      0.000      0.000
REMARK INTER + INTRA:          -5.259
REMARK INTER:                  -5.110
REMARK INTRA:                  -0.149
REMARK UNBOUND:                -0.149
REMARK SMILES CC=Cc1ccc(O)c(OC)c1
REMARK SMILES IDX 4 1 12 2 9 3 7 4 6 5 5 6 3 7 1 8 2 9 10 10 11 11 8 12
REMARK H PARENT 8 13
REMARK Flexibility Score: inf
ROOT
ATOM      1  C   UNL     1      10.129 -32.125  14.148  1.00  0.00    -0.022 A 
ATOM      2  C   UNL     1       9.725 -32.095  15.493  1.00  0.00     0.058 A 
ATOM      3  C   UNL     1       8.367 -32.229  15.844  1.00  0.00     0.161 A 
ATOM      4  C   UNL     1       7.411 -32.403  14.835  1.00  0.00     0.157 A 
ATOM      5  C   UNL     1       7.808 -32.449  13.493  1.00  0.00     0.051 A 
ATOM      6  C   UNL     1       9.154 -32.316  13.150  1.00  0.00     0.012 A 
ENDROOT
BRANCH   1   7
ATOM      7  C   UNL     1      11.573 -31.990  13.836  1.00  0.00     0.003 C 
ATOM      8  C   UNL     1      13.832 -31.031  14.055  1.00  0.00     0.035 C 
ATOM      9  C   UNL     1      12.382 -31.093  14.412  1.00  0.00    -0.030 C 
ENDBRANCH   1   7
BRANCH   3  10
ATOM     10  O   UNL     1       7.931 -32.193  17.178  1.00  0.00    -0.493 OA
ATOM     11  C   UNL     1       8.761 -31.874  18.291  1.00  0.00     0.278 C 
ENDBRANCH   3  10
BRANCH   4  12
ATOM     12  O   UNL     1       6.065 -32.534  15.175  1.00  0.00    -0.504 OA
ATOM     13  H   UNL     1       5.653 -33.440  15.368  1.00  0.00     0.293 HD
ENDBRANCH   4  12
TORSDOF 3
ENDMDL
MODEL 2
REMARK VINA RESULT:    -3.783      1.987      4.228
REMARK INTER + INTRA:          -4.485
REMARK INTER:                  -4.333
REMARK INTRA:                  -0.153
REMARK UNBOUND:                -0.149
REMARK SMILES CC=Cc1ccc(O)c(OC)c1
REMARK SMILES IDX 4 1 12 2 9 3 7 4 6 5 5 6 3 7 1 8 2 9 10 10 11 11 8 12
REMARK H PARENT 8 13
REMARK Flexibility Score: inf
ROOT
ATOM      1  C   UNL     1       8.472 -32.721  14.219  1.00  0.00    -0.022 A 
ATOM      2  C   UNL     1       8.518 -32.267  15.548  1.00  0.00     0.058 A 
ATOM      3  C   UNL     1       9.661 -31.613  16.049  1.00  0.00     0.161 A 
ATOM      4  C   UNL     1      10.759 -31.406  15.205  1.00  0.00     0.157 A 
ATOM      5  C   UNL     1      10.714 -31.843  13.875  1.00  0.00     0.051 A 
ATOM      6  C   UNL     1       9.580 -32.491  13.383  1.00  0.00     0.012 A 
ENDROOT
BRANCH   1   7
ATOM      7  C   UNL     1       7.239 -33.395  13.741  1.00  0.00     0.003 C 
ATOM      8  C   UNL     1       5.887 -35.299  12.956  1.00  0.00     0.035 C 
ATOM      9  C   UNL     1       7.173 -34.691  13.415  1.00  0.00    -0.030 C 
ENDBRANCH   1   7
BRANCH   3  10
ATOM     10  O   UNL     1       9.741 -31.156  17.375  1.00  0.00    -0.493 OA
ATOM     11  C   UNL     1       9.009 -31.707  18.465  1.00  0.00     0.278 C 
ENDBRANCH   3  10
BRANCH   4  12
ATOM     12  O   UNL     1      11.894 -30.761  15.695  1.00  0.00    -0.504 OA
ATOM     13  H   UNL     1      12.417 -30.103  15.127  1.00  0.00     0.293 HD
ENDBRANCH   4  12
TORSDOF 3
ENDMDL
MODEL 3
REMARK VINA RESULT:    -3.623      1.021      2.672
REMARK INTER + INTRA:          -4.302
REMARK INTER:                  -4.267
REMARK INTRA:                  -0.034
REMARK UNBOUND:                -0.149
REMARK SMILES CC=Cc1ccc(O)c(OC)c1
REMARK SMILES IDX 4 1 12 2 9 3 7 4 6 5 5 6 3 7 1 8 2 9 10 10 11 11 8 12
REMARK H PARENT 8 13
REMARK Flexibility Score: inf
ROOT
ATOM      1  C   UNL     1      10.024 -32.061  14.452  1.00  0.00    -0.022 A 
ATOM      2  C   UNL     1       9.017 -32.336  13.512  1.00  0.00     0.058 A 
ATOM      3  C   UNL     1       7.670 -32.451  13.907  1.00  0.00     0.161 A 
ATOM      4  C   UNL     1       7.333 -32.279  15.256  1.00  0.00     0.157 A 
ATOM      5  C   UNL     1       8.329 -31.990  16.197  1.00  0.00     0.051 A 
ATOM      6  C   UNL     1       9.663 -31.876  15.800  1.00  0.00     0.012 A 
ENDROOT
BRANCH   1   7
ATOM      7  C   UNL     1      11.425 -31.940  13.978  1.00  0.00     0.003 C 
ATOM      8  C   UNL     1      13.732 -31.076  14.005  1.00  0.00     0.035 C 
ATOM      9  C   UNL     1      12.334 -31.130  14.532  1.00  0.00    -0.030 C 
ENDBRANCH   1   7
BRANCH   3  10
ATOM     10  O   UNL     1       6.642 -32.735  12.993  1.00  0.00    -0.493 OA
ATOM     11  C   UNL     1       5.993 -33.997  12.875  1.00  0.00     0.278 C 
ENDBRANCH   3  10
BRANCH   4  12
ATOM     12  O   UNL     1       6.002 -32.393  15.655  1.00  0.00    -0.504 OA
ATOM     13  H   UNL     1       5.260 -32.561  14.986  1.00  0.00     0.293 HD
ENDBRANCH   4  12
TORSDOF 3
ENDMDL
MODEL 4
REMARK VINA RESULT:    -3.445      1.260      2.770
REMARK INTER + INTRA:          -4.098
REMARK INTER:                  -3.924
REMARK INTRA:                  -0.174
REMARK UNBOUND:                -0.149
REMARK SMILES CC=Cc1ccc(O)c(OC)c1
REMARK SMILES IDX 4 1 12 2 9 3 7 4 6 5 5 6 3 7 1 8 2 9 10 10 11 11 8 12
REMARK H PARENT 8 13
REMARK Flexibility Score: inf
ROOT
ATOM      1  C   UNL     1      11.068 -31.305  15.316  1.00  0.00    -0.022 A 
ATOM      2  C   UNL     1       9.917 -32.051  15.012  1.00  0.00     0.058 A 
ATOM      3  C   UNL     1       8.873 -32.185  15.948  1.00  0.00     0.161 A 
ATOM      4  C   UNL     1       8.984 -31.555  17.195  1.00  0.00     0.157 A 
ATOM      5  C   UNL     1      10.121 -30.797  17.499  1.00  0.00     0.051 A 
ATOM      6  C   UNL     1      11.153 -30.667  16.568  1.00  0.00     0.012 A 
ENDROOT
BRANCH   1   7
ATOM      7  C   UNL     1      12.132 -31.189  14.288  1.00  0.00     0.003 C 
ATOM      8  C   UNL     1      14.411 -30.750  13.463  1.00  0.00     0.035 C 
ATOM      9  C   UNL     1      13.392 -30.829  14.554  1.00  0.00    -0.030 C 
ENDBRANCH   1   7
BRANCH   3  10
ATOM     10  O   UNL     1       7.715 -32.933  15.678  1.00  0.00    -0.493 OA
ATOM     11  C   UNL     1       6.893 -32.761  14.529  1.00  0.00     0.278 C 
ENDBRANCH   3  10
BRANCH   4  12
ATOM     12  O   UNL     1       7.955 -31.684  18.127  1.00  0.00    -0.504 OA
ATOM     13  H   UNL     1       6.989 -31.791  17.840  1.00  0.00     0.293 HD
ENDBRANCH   4  12
TORSDOF 3
ENDMDL
MODEL 5
REMARK VINA RESULT:    -3.415      2.941      5.290
REMARK INTER + INTRA:          -4.064
REMARK INTER:                  -3.894
REMARK INTRA:                  -0.169
REMARK UNBOUND:                -0.149
REMARK SMILES CC=Cc1ccc(O)c(OC)c1
REMARK SMILES IDX 4 1 12 2 9 3 7 4 6 5 5 6 3 7 1 8 2 9 10 10 11 11 8 12
REMARK H PARENT 8 13
REMARK Flexibility Score: inf
ROOT
ATOM      1  C   UNL     1       7.975 -33.816  15.177  1.00  0.00    -0.022 A 
ATOM      2  C   UNL     1       8.911 -33.950  14.138  1.00  0.00     0.058 A 
ATOM      3  C   UNL     1       9.985 -33.048  14.012  1.00  0.00     0.161 A 
ATOM      4  C   UNL     1      10.124 -32.010  14.942  1.00  0.00     0.157 A 
ATOM      5  C   UNL     1       9.203 -31.879  15.989  1.00  0.00     0.051 A 
ATOM      6  C   UNL     1       8.140 -32.776  16.111  1.00  0.00     0.012 A 
ENDROOT
BRANCH   1   7
ATOM      7  C   UNL     1       6.869 -34.801  15.269  1.00  0.00     0.003 C 
ATOM      8  C   UNL     1       5.875 -37.027  15.625  1.00  0.00     0.035 C 
ATOM      9  C   UNL     1       7.045 -36.100  15.534  1.00  0.00    -0.030 C 
ENDBRANCH   1   7
BRANCH   3  10
ATOM     10  O   UNL     1      10.931 -33.150  12.979  1.00  0.00    -0.493 OA
ATOM     11  C   UNL     1      11.969 -34.124  12.927  1.00  0.00     0.278 C 
ENDBRANCH   3  10
BRANCH   4  12
ATOM     12  O   UNL     1      11.184 -31.113  14.822  1.00  0.00    -0.504 OA
ATOM     13  H   UNL     1      11.056 -30.191  14.421  1.00  0.00     0.293 HD
ENDBRANCH   4  12
TORSDOF 3
ENDMDL
MODEL 6
REMARK VINA RESULT:    -3.413      2.495      4.928
REMARK INTER + INTRA:          -4.061
REMARK INTER:                  -3.899
REMARK INTRA:                  -0.162
REMARK UNBOUND:                -0.149
REMARK SMILES CC=Cc1ccc(O)c(OC)c1
REMARK SMILES IDX 4 1 12 2 9 3 7 4 6 5 5 6 3 7 1 8 2 9 10 10 11 11 8 12
REMARK H PARENT 8 13
REMARK Flexibility Score: inf
ROOT
ATOM      1  C   UNL     1       7.761 -33.867  14.295  1.00  0.00    -0.022 A 
ATOM      2  C   UNL     1       9.018 -33.353  13.933  1.00  0.00     0.058 A 
ATOM      3  C   UNL     1       9.651 -32.370  14.719  1.00  0.00     0.161 A 
ATOM      4  C   UNL     1       9.020 -31.910  15.882  1.00  0.00     0.157 A 
ATOM      5  C   UNL     1       7.775 -32.429  16.258  1.00  0.00     0.051 A 
ATOM      6  C   UNL     1       7.151 -33.403  15.476  1.00  0.00     0.012 A 
ENDROOT
BRANCH   1   7
ATOM      7  C   UNL     1       7.145 -34.908  13.436  1.00  0.00     0.003 C 
ATOM      8  C   UNL     1       5.892 -36.978  12.974  1.00  0.00     0.035 C 
ATOM      9  C   UNL     1       6.500 -35.981  13.907  1.00  0.00    -0.030 C 
ENDBRANCH   1   7
BRANCH   3  10
ATOM     10  O   UNL     1      10.901 -31.829  14.379  1.00  0.00    -0.493 OA
ATOM     11  C   UNL     1      11.888 -32.502  13.604  1.00  0.00     0.278 C 
ENDBRANCH   3  10
BRANCH   4  12
ATOM     12  O   UNL     1       9.640 -30.937  16.665  1.00  0.00    -0.504 OA
ATOM     13  H   UNL     1      10.596 -30.646  16.491  1.00  0.00     0.293 HD
ENDBRANCH   4  12
TORSDOF 3
ENDMDL
MODEL 7
REMARK VINA RESULT:    -3.098      3.242      4.123
REMARK INTER + INTRA:          -3.701
REMARK INTER:                  -3.542
REMARK INTRA:                  -0.159
REMARK UNBOUND:                -0.149
REMARK SMILES CC=Cc1ccc(O)c(OC)c1
REMARK SMILES IDX 4 1 12 2 9 3 7 4 6 5 5 6 3 7 1 8 2 9 10 10 11 11 8 12
REMARK H PARENT 8 13
REMARK Flexibility Score: inf
ROOT
ATOM      1  C   UNL     1       7.943 -32.907  15.750  1.00  0.00    -0.022 A 
ATOM      2  C   UNL     1       7.836 -34.290  15.979  1.00  0.00     0.058 A 
ATOM      3  C   UNL     1       7.174 -35.126  15.060  1.00  0.00     0.161 A 
ATOM      4  C   UNL     1       6.624 -34.570  13.898  1.00  0.00     0.157 A 
ATOM      5  C   UNL     1       6.741 -33.196  13.654  1.00  0.00     0.051 A 
ATOM      6  C   UNL     1       7.398 -32.370  14.568  1.00  0.00     0.012 A 
ENDROOT
BRANCH   1   7
ATOM      7  C   UNL     1       8.661 -32.075  16.747  1.00  0.00     0.003 C 
ATOM      8  C   UNL     1       9.236 -31.287  19.009  1.00  0.00     0.035 C 
ATOM      9  C   UNL     1       8.460 -32.151  18.067  1.00  0.00    -0.030 C 
ENDBRANCH   1   7
BRANCH   3  10
ATOM     10  O   UNL     1       7.041 -36.509  15.266  1.00  0.00    -0.493 OA
ATOM     11  C   UNL     1       6.599 -37.106  16.481  1.00  0.00     0.278 C 
ENDBRANCH   3  10
BRANCH   4  12
ATOM     12  O   UNL     1       5.966 -35.392  12.984  1.00  0.00    -0.504 OA
ATOM     13  H   UNL     1       6.258 -36.350  12.826  1.00  0.00     0.293 HD
ENDBRANCH   4  12
TORSDOF 3
ENDMDL
MODEL 8
REMARK VINA RESULT:    -3.078      1.803      2.521
REMARK INTER + INTRA:          -3.677
REMARK INTER:                  -3.507
REMARK INTRA:                  -0.170
REMARK UNBOUND:                -0.149
REMARK SMILES CC=Cc1ccc(O)c(OC)c1
REMARK SMILES IDX 4 1 12 2 9 3 7 4 6 5 5 6 3 7 1 8 2 9 10 10 11 11 8 12
REMARK H PARENT 8 13
REMARK Flexibility Score: inf
ROOT
ATOM      1  C   UNL     1      11.261 -32.280  13.822  1.00  0.00    -0.022 A 
ATOM      2  C   UNL     1       9.937 -32.142  14.274  1.00  0.00     0.058 A 
ATOM      3  C   UNL     1       8.992 -33.165  14.068  1.00  0.00     0.161 A 
ATOM      4  C   UNL     1       9.384 -34.340  13.412  1.00  0.00     0.157 A 
ATOM      5  C   UNL     1      10.704 -34.492  12.973  1.00  0.00     0.051 A 
ATOM      6  C   UNL     1      11.638 -33.475  13.179  1.00  0.00     0.012 A 
ENDROOT
BRANCH   1   7
ATOM      7  C   UNL     1      12.218 -31.175  14.075  1.00  0.00     0.003 C 
ATOM      8  C   UNL     1      14.434 -30.102  14.143  1.00  0.00     0.035 C 
ATOM      9  C   UNL     1      13.538 -31.268  13.878  1.00  0.00    -0.030 C 
ENDBRANCH   1   7
BRANCH   3  10
ATOM     10  O   UNL     1       7.660 -33.052  14.497  1.00  0.00    -0.493 OA
ATOM     11  C   UNL     1       7.251 -32.408  15.699  1.00  0.00     0.278 C 
ENDBRANCH   3  10
BRANCH   4  12
ATOM     12  O   UNL     1       8.453 -35.357  13.204  1.00  0.00    -0.504 OA
ATOM     13  H   UNL     1       7.653 -35.228  12.594  1.00  0.00     0.293 HD
ENDBRANCH   4  12
TORSDOF 3
ENDMDL
MODEL 9
REMARK VINA RESULT:    -2.957      3.127      4.498
REMARK INTER + INTRA:          -3.538
REMARK INTER:                  -3.377
REMARK INTRA:                  -0.161
REMARK UNBOUND:                -0.149
REMARK SMILES CC=Cc1ccc(O)c(OC)c1
REMARK SMILES IDX 4 1 12 2 9 3 7 4 6 5 5 6 3 7 1 8 2 9 10 10 11 11 8 12
REMARK H PARENT 8 13
REMARK Flexibility Score: inf
ROOT
ATOM      1  C   UNL     1       8.368 -33.251  15.681  1.00  0.00    -0.022 A 
ATOM      2  C   UNL     1       9.392 -33.511  14.754  1.00  0.00     0.058 A 
ATOM      3  C   UNL     1       9.269 -34.553  13.815  1.00  0.00     0.161 A 
ATOM      4  C   UNL     1       8.105 -35.333  13.802  1.00  0.00     0.157 A 
ATOM      5  C   UNL     1       7.074 -35.070  14.712  1.00  0.00     0.051 A 
ATOM      6  C   UNL     1       7.200 -34.036  15.642  1.00  0.00     0.012 A 
ENDROOT
BRANCH   1   7
ATOM      7  C   UNL     1       8.546 -32.134  16.642  1.00  0.00     0.003 C 
ATOM      8  C   UNL     1       8.894 -31.122  18.861  1.00  0.00     0.035 C 
ATOM      9  C   UNL     1       8.704 -32.300  17.960  1.00  0.00    -0.030 C 
ENDBRANCH   1   7
BRANCH   3  10
ATOM     10  O   UNL     1      10.278 -34.844  12.883  1.00  0.00    -0.493 OA
ATOM     11  C   UNL     1      11.644 -35.070  13.215  1.00  0.00     0.278 C 
ENDBRANCH   3  10
BRANCH   4  12
ATOM     12  O   UNL     1       7.977 -36.367  12.875  1.00  0.00    -0.504 OA
ATOM     13  H   UNL     1       8.263 -37.314  13.095  1.00  0.00     0.293 HD
ENDBRANCH   4  12
TORSDOF 3
ENDMDL
