MODEL 1
REMARK VINA RESULT:    -3.822      0.000      0.000
REMARK INTER + INTRA:          -4.459
REMARK INTER:                  -4.381
REMARK INTRA:                  -0.078
REMARK UNBOUND:                -0.078
REMARK SMILES COc1cc(C(=O)[O-])ccc1O
REMARK SMILES IDX 5 1 9 2 4 3 10 4 3 5 11 6 6 7 7 8 8 9 2 10 1 11 12 12
REMARK H PARENT 12 13
REMARK Flexibility Score: inf
ROOT
ATOM      1  C   UNL     1      39.616  10.765   0.586  1.00  0.00     0.001 A 
ATOM      2  C   UNL     1      40.746  10.000   0.249  1.00  0.00     0.014 A 
ATOM      3  C   UNL     1      39.739  12.161   0.682  1.00  0.00     0.060 A 
ATOM      4  C   UNL     1      41.974  10.621   0.014  1.00  0.00     0.051 A 
ATOM      5  C   UNL     1      40.977  12.792   0.445  1.00  0.00     0.161 A 
ATOM      6  C   UNL     1      42.093  12.012   0.111  1.00  0.00     0.157 A 
ENDROOT
BRANCH   1   7
ATOM      7  C   UNL     1      38.312  10.110   0.836  1.00  0.00     0.072 C 
ATOM      8  O   UNL     1      37.627   9.658  -0.121  1.00  0.00    -0.545 OA
ATOM      9  O   UNL     1      37.822   9.985   2.131  1.00  0.00    -0.545 OA
ENDBRANCH   1   7
BRANCH   5  10
ATOM     10  O   UNL     1      41.138  14.184   0.532  1.00  0.00    -0.493 OA
ATOM     11  C   UNL     1      41.464  14.885   1.729  1.00  0.00     0.278 C 
ENDBRANCH   5  10
BRANCH   6  12
ATOM     12  O   UNL     1      43.321  12.630  -0.125  1.00  0.00    -0.504 OA
ATOM     13  H   UNL     1      43.395  13.633  -0.252  1.00  0.00     0.293 HD
ENDBRANCH   6  12
TORSDOF 3
ENDMDL
MODEL 2
REMARK VINA RESULT:    -3.686      1.059      2.658
REMARK INTER + INTRA:          -4.303
REMARK INTER:                  -4.208
REMARK INTRA:                  -0.095
REMARK UNBOUND:                -0.078
REMARK SMILES COc1cc(C(=O)[O-])ccc1O
REMARK SMILES IDX 5 1 9 2 4 3 10 4 3 5 11 6 6 7 7 8 8 9 2 10 1 11 12 12
REMARK H PARENT 12 13
REMARK Flexibility Score: inf
ROOT
ATOM      1  C   UNL     1      39.638  11.163   0.670  1.00  0.00     0.001 A 
ATOM      2  C   UNL     1      39.646  12.561   0.525  1.00  0.00     0.014 A 
ATOM      3  C   UNL     1      40.850  10.458   0.561  1.00  0.00     0.060 A 
ATOM      4  C   UNL     1      40.840  13.239   0.276  1.00  0.00     0.051 A 
ATOM      5  C   UNL     1      42.058  11.139   0.311  1.00  0.00     0.161 A 
ATOM      6  C   UNL     1      42.045  12.533   0.169  1.00  0.00     0.157 A 
ENDROOT
BRANCH   1   7
ATOM      7  C   UNL     1      38.374  10.441   0.933  1.00  0.00     0.072 C 
ATOM      8  O   UNL     1      38.043  10.134   2.110  1.00  0.00    -0.545 OA
ATOM      9  O   UNL     1      37.531  10.088  -0.115  1.00  0.00    -0.545 OA
ENDBRANCH   1   7
BRANCH   5  10
ATOM     10  O   UNL     1      43.286  10.468   0.196  1.00  0.00    -0.493 OA
ATOM     11  C   UNL     1      44.064  10.015   1.299  1.00  0.00     0.278 C 
ENDBRANCH   5  10
BRANCH   6  12
ATOM     12  O   UNL     1      43.237  13.213  -0.079  1.00  0.00    -0.504 OA
ATOM     13  H   UNL     1      43.460  14.082   0.393  1.00  0.00     0.293 HD
ENDBRANCH   6  12
TORSDOF 3
ENDMDL
MODEL 3
REMARK VINA RESULT:    -3.567      1.651      4.665
REMARK INTER + INTRA:          -4.166
REMARK INTER:                  -4.085
REMARK INTRA:                  -0.081
REMARK UNBOUND:                -0.078
REMARK SMILES COc1cc(C(=O)[O-])ccc1O
REMARK SMILES IDX 5 1 9 2 4 3 10 4 3 5 11 6 6 7 7 8 8 9 2 10 1 11 12 12
REMARK H PARENT 12 13
REMARK Flexibility Score: inf
ROOT
ATOM      1  C   UNL     1      41.992  11.762   0.457  1.00  0.00     0.001 A 
ATOM      2  C   UNL     1      41.658  13.082   0.107  1.00  0.00     0.014 A 
ATOM      3  C   UNL     1      40.965  10.815   0.610  1.00  0.00     0.060 A 
ATOM      4  C   UNL     1      40.324  13.446  -0.085  1.00  0.00     0.051 A 
ATOM      5  C   UNL     1      39.617  11.178   0.416  1.00  0.00     0.161 A 
ATOM      6  C   UNL     1      39.304  12.499   0.068  1.00  0.00     0.157 A 
ENDROOT
BRANCH   1   7
ATOM      7  C   UNL     1      43.405  11.373   0.661  1.00  0.00     0.072 C 
ATOM      8  O   UNL     1      44.112  11.957   1.527  1.00  0.00    -0.545 OA
ATOM      9  O   UNL     1      43.976  10.359  -0.100  1.00  0.00    -0.545 OA
ENDBRANCH   1   7
BRANCH   5  10
ATOM     10  O   UNL     1      38.566  10.259   0.561  1.00  0.00    -0.493 OA
ATOM     11  C   UNL     1      38.642   8.882   0.205  1.00  0.00     0.278 C 
ENDBRANCH   5  10
BRANCH   6  12
ATOM     12  O   UNL     1      37.973  12.864  -0.125  1.00  0.00    -0.504 OA
ATOM     13  H   UNL     1      37.356  12.327  -0.724  1.00  0.00     0.293 HD
ENDBRANCH   6  12
TORSDOF 3
ENDMDL
MODEL 4
REMARK VINA RESULT:    -3.214      1.830      3.532
REMARK INTER + INTRA:          -3.761
REMARK INTER:                  -3.679
REMARK INTRA:                  -0.082
REMARK UNBOUND:                -0.078
REMARK SMILES COc1cc(C(=O)[O-])ccc1O
REMARK SMILES IDX 5 1 9 2 4 3 10 4 3 5 11 6 6 7 7 8 8 9 2 10 1 11 12 12
REMARK H PARENT 12 13
REMARK Flexibility Score: inf
ROOT
ATOM      1  C   UNL     1      41.703  10.484   0.591  1.00  0.00     0.001 A 
ATOM      2  C   UNL     1      40.500   9.810   0.319  1.00  0.00     0.014 A 
ATOM      3  C   UNL     1      41.707  11.890   0.621  1.00  0.00     0.060 A 
ATOM      4  C   UNL     1      39.326  10.528   0.081  1.00  0.00     0.051 A 
ATOM      5  C   UNL     1      40.525  12.618   0.383  1.00  0.00     0.161 A 
ATOM      6  C   UNL     1      39.335  11.928   0.113  1.00  0.00     0.157 A 
ENDROOT
BRANCH   1   7
ATOM      7  C   UNL     1      42.949   9.726   0.843  1.00  0.00     0.072 C 
ATOM      8  O   UNL     1      43.123   9.124   1.937  1.00  0.00    -0.545 OA
ATOM      9  O   UNL     1      43.947   9.669  -0.122  1.00  0.00    -0.545 OA
ENDBRANCH   1   7
BRANCH   5  10
ATOM     10  O   UNL     1      40.491  14.021   0.404  1.00  0.00    -0.493 OA
ATOM     11  C   UNL     1      41.149  14.829   1.375  1.00  0.00     0.278 C 
ENDBRANCH   5  10
BRANCH   6  12
ATOM     12  O   UNL     1      38.161  12.642  -0.125  1.00  0.00    -0.504 OA
ATOM     13  H   UNL     1      37.326  12.189  -0.476  1.00  0.00     0.293 HD
ENDBRANCH   6  12
TORSDOF 3
ENDMDL
MODEL 5
REMARK VINA RESULT:    -3.186      2.079      2.855
REMARK INTER + INTRA:          -3.729
REMARK INTER:                  -3.629
REMARK INTRA:                  -0.100
REMARK UNBOUND:                -0.078
REMARK SMILES COc1cc(C(=O)[O-])ccc1O
REMARK SMILES IDX 5 1 9 2 4 3 10 4 3 5 11 6 6 7 7 8 8 9 2 10 1 11 12 12
REMARK H PARENT 12 13
REMARK Flexibility Score: inf
ROOT
ATOM      1  C   UNL     1      39.617  10.161   0.912  1.00  0.00     0.001 A 
ATOM      2  C   UNL     1      39.640   9.250   1.983  1.00  0.00     0.014 A 
ATOM      3  C   UNL     1      40.831  10.687   0.436  1.00  0.00     0.060 A 
ATOM      4  C   UNL     1      40.853   8.875   2.565  1.00  0.00     0.051 A 
ATOM      5  C   UNL     1      42.057  10.311   1.021  1.00  0.00     0.161 A 
ATOM      6  C   UNL     1      42.059   9.402   2.088  1.00  0.00     0.157 A 
ENDROOT
BRANCH   1   7
ATOM      7  C   UNL     1      38.334  10.561   0.293  1.00  0.00     0.072 C 
ATOM      8  O   UNL     1      37.409   9.719   0.133  1.00  0.00    -0.545 OA
ATOM      9  O   UNL     1      38.130  11.871  -0.125  1.00  0.00    -0.545 OA
ENDBRANCH   1   7
BRANCH   5  10
ATOM     10  O   UNL     1      43.287  10.817   0.573  1.00  0.00    -0.493 OA
ATOM     11  C   UNL     1      43.794  12.109   0.894  1.00  0.00     0.278 C 
ENDBRANCH   5  10
BRANCH   6  12
ATOM     12  O   UNL     1      43.268   9.026   2.671  1.00  0.00    -0.504 OA
ATOM     13  H   UNL     1      43.524   9.327   3.604  1.00  0.00     0.293 HD
ENDBRANCH   6  12
TORSDOF 3
ENDMDL
MODEL 6
REMARK VINA RESULT:    -3.186      1.430      4.708
REMARK INTER + INTRA:          -3.729
REMARK INTER:                  -3.647
REMARK INTRA:                  -0.082
REMARK UNBOUND:                -0.078
REMARK SMILES COc1cc(C(=O)[O-])ccc1O
REMARK SMILES IDX 5 1 9 2 4 3 10 4 3 5 11 6 6 7 7 8 8 9 2 10 1 11 12 12
REMARK H PARENT 12 13
REMARK Flexibility Score: inf
ROOT
ATOM      1  C   UNL     1      40.730  12.887   0.696  1.00  0.00     0.001 A 
ATOM      2  C   UNL     1      39.338  13.079   0.652  1.00  0.00     0.014 A 
ATOM      3  C   UNL     1      41.250  11.602   0.461  1.00  0.00     0.060 A 
ATOM      4  C   UNL     1      38.485  12.008   0.380  1.00  0.00     0.051 A 
ATOM      5  C   UNL     1      40.392  10.518   0.185  1.00  0.00     0.161 A 
ATOM      6  C   UNL     1      39.008  10.730   0.147  1.00  0.00     0.157 A 
ENDROOT
BRANCH   1   7
ATOM      7  C   UNL     1      41.637  14.020   0.984  1.00  0.00     0.072 C 
ATOM      8  O   UNL     1      41.173  15.164   1.239  1.00  0.00    -0.545 OA
ATOM      9  O   UNL     1      43.016  13.840   0.977  1.00  0.00    -0.545 OA
ENDBRANCH   1   7
BRANCH   5  10
ATOM     10  O   UNL     1      40.876   9.222  -0.053  1.00  0.00    -0.493 OA
ATOM     11  C   UNL     1      42.256   8.876  -0.122  1.00  0.00     0.278 C 
ENDBRANCH   5  10
BRANCH   6  12
ATOM     12  O   UNL     1      38.154   9.662  -0.125  1.00  0.00    -0.504 OA
ATOM     13  H   UNL     1      37.146   9.776  -0.133  1.00  0.00     0.293 HD
ENDBRANCH   6  12
TORSDOF 3
ENDMDL
MODEL 7
REMARK VINA RESULT:    -2.969      2.272      4.221
REMARK INTER + INTRA:          -3.481
REMARK INTER:                  -3.403
REMARK INTRA:                  -0.078
REMARK UNBOUND:                -0.078
REMARK SMILES COc1cc(C(=O)[O-])ccc1O
REMARK SMILES IDX 5 1 9 2 4 3 10 4 3 5 11 6 6 7 7 8 8 9 2 10 1 11 12 12
REMARK H PARENT 12 13
REMARK Flexibility Score: inf
ROOT
ATOM      1  C   UNL     1      41.938  12.710   0.498  1.00  0.00     0.001 A 
ATOM      2  C   UNL     1      43.341  12.711   0.578  1.00  0.00     0.014 A 
ATOM      3  C   UNL     1      41.267  11.495   0.277  1.00  0.00     0.060 A 
ATOM      4  C   UNL     1      44.057  11.520   0.440  1.00  0.00     0.051 A 
ATOM      5  C   UNL     1      41.985  10.291   0.137  1.00  0.00     0.161 A 
ATOM      6  C   UNL     1      43.384  10.312   0.220  1.00  0.00     0.157 A 
ENDROOT
BRANCH   1   7
ATOM      7  C   UNL     1      41.176  13.970   0.644  1.00  0.00     0.072 C 
ATOM      8  O   UNL     1      40.203  14.223  -0.117  1.00  0.00    -0.545 OA
ATOM      9  O   UNL     1      41.523  14.896   1.622  1.00  0.00    -0.545 OA
ENDBRANCH   1   7
BRANCH   5  10
ATOM     10  O   UNL     1      41.349   9.060  -0.085  1.00  0.00    -0.493 OA
ATOM     11  C   UNL     1      39.937   8.875  -0.116  1.00  0.00     0.278 C 
ENDBRANCH   5  10
BRANCH   6  12
ATOM     12  O   UNL     1      44.102   9.125   0.083  1.00  0.00    -0.504 OA
ATOM     13  H   UNL     1      44.568   8.691   0.871  1.00  0.00     0.293 HD
ENDBRANCH   6  12
TORSDOF 3
ENDMDL
MODEL 8
REMARK VINA RESULT:    -1.775      1.553      4.424
REMARK INTER + INTRA:          -2.113
REMARK INTER:                  -2.267
REMARK INTRA:                   0.155
REMARK UNBOUND:                -0.078
REMARK SMILES COc1cc(C(=O)[O-])ccc1O
REMARK SMILES IDX 5 1 9 2 4 3 10 4 3 5 11 6 6 7 7 8 8 9 2 10 1 11 12 12
REMARK H PARENT 12 13
REMARK Flexibility Score: inf
ROOT
ATOM      1  C   UNL     1      42.068  12.726   1.010  1.00  0.00     0.001 A 
ATOM      2  C   UNL     1      42.960  11.640   1.016  1.00  0.00     0.014 A 
ATOM      3  C   UNL     1      40.732  12.511   0.631  1.00  0.00     0.060 A 
ATOM      4  C   UNL     1      42.524  10.365   0.649  1.00  0.00     0.051 A 
ATOM      5  C   UNL     1      40.287  11.226   0.261  1.00  0.00     0.161 A 
ATOM      6  C   UNL     1      41.192  10.156   0.272  1.00  0.00     0.157 A 
ENDROOT
BRANCH   1   7
ATOM      7  C   UNL     1      42.527  14.078   1.398  1.00  0.00     0.072 C 
ATOM      8  O   UNL     1      43.756  14.358   1.417  1.00  0.00    -0.545 OA
ATOM      9  O   UNL     1      41.609  15.062   1.749  1.00  0.00    -0.545 OA
ENDBRANCH   1   7
BRANCH   5  10
ATOM     10  O   UNL     1      38.961  10.973  -0.124  1.00  0.00    -0.493 OA
ATOM     11  C   UNL     1      38.053  10.150   0.601  1.00  0.00     0.278 C 
ENDBRANCH   5  10
BRANCH   6  12
ATOM     12  O   UNL     1      40.759   8.882  -0.093  1.00  0.00    -0.504 OA
ATOM     13  H   UNL     1      40.227   8.299   0.543  1.00  0.00     0.293 HD
ENDBRANCH   6  12
TORSDOF 3
ENDMDL
