MODEL 1
REMARK VINA RESULT:    -5.170      0.000      0.000
REMARK INTER + INTRA:          -6.298
REMARK INTER:                  -6.077
REMARK INTRA:                  -0.221
REMARK UNBOUND:                -0.221
REMARK SMILES O=c1c(O)c(-c2ccc(O)c(O)c2)oc2cc(O)ccc12
REMARK SMILES IDX 5 1 3 2 2 3 1 4 21 5 15 6 14 7 16 8 17 9 19 10 20 11 6 12
REMARK SMILES IDX 7 13 8 14 9 15 13 16 11 17 10 18 12 20 4 22 18 24
REMARK H PARENT 10 19 12 21 4 23 18 25
REMARK Flexibility Score: inf
ROOT
ATOM      1  C   UNL     1       0.317  12.407   9.499  1.00  0.00     0.180 A 
ATOM      2  C   UNL     1       1.596  11.905   9.819  1.00  0.00     0.208 A 
ATOM      3  C   UNL     1       1.983  11.848  11.167  1.00  0.00     0.235 A 
ATOM      4  O   UNL     1       3.125  11.413  11.477  1.00  0.00    -0.285 OA
ATOM      5  C   UNL     1       1.086  12.269  12.160  1.00  0.00     0.069 A 
ATOM      6  C   UNL     1      -0.185  12.736  11.760  1.00  0.00     0.142 A 
ATOM      7  O   UNL     1      -0.509  12.783  10.473  1.00  0.00    -0.452 OA
ATOM      8  C   UNL     1      -1.111  13.156  12.722  1.00  0.00     0.094 A 
ATOM      9  C   UNL     1      -0.782  13.117  14.083  1.00  0.00     0.119 A 
ATOM     10  C   UNL     1       0.477  12.655  14.482  1.00  0.00     0.047 A 
ATOM     11  C   UNL     1       1.409  12.232  13.529  1.00  0.00     0.020 A 
ENDROOT
BRANCH   1  12
ATOM     12  C   UNL     1      -0.156  12.517   8.101  1.00  0.00     0.025 A 
ATOM     13  C   UNL     1       0.415  13.477   7.251  1.00  0.00     0.016 A 
ATOM     14  C   UNL     1      -0.001  13.585   5.922  1.00  0.00     0.051 A 
ATOM     15  C   UNL     1      -0.982  12.726   5.417  1.00  0.00     0.157 A 
ATOM     16  C   UNL     1      -1.127  11.639   7.585  1.00  0.00     0.062 A 
ATOM     17  C   UNL     1      -1.546  11.744   6.250  1.00  0.00     0.158 A 
BRANCH  15  18
ATOM     18  O   UNL     1      -1.379  12.858   4.087  1.00  0.00    -0.504 OA
ATOM     19  H   UNL     1      -0.742  12.696   3.316  1.00  0.00     0.293 HD
ENDBRANCH  15  18
BRANCH  17  20
ATOM     20  O   UNL     1      -2.514  10.876   5.749  1.00  0.00    -0.504 OA
ATOM     21  H   UNL     1      -3.468  11.179   5.588  1.00  0.00     0.293 HD
ENDBRANCH  17  20
ENDBRANCH   1  12
BRANCH   2  22
ATOM     22  O   UNL     1       2.449  11.446   8.811  1.00  0.00    -0.502 OA
ATOM     23  H   UNL     1       2.401  11.793   7.862  1.00  0.00     0.293 HD
ENDBRANCH   2  22
BRANCH   9  24
ATOM     24  O   UNL     1      -1.697  13.534  15.047  1.00  0.00    -0.508 OA
ATOM     25  H   UNL     1      -2.548  13.014  15.228  1.00  0.00     0.293 HD
ENDBRANCH   9  24
TORSDOF 5
ENDMDL
MODEL 2
REMARK VINA RESULT:    -4.999     21.258     22.480
REMARK INTER + INTRA:          -6.096
REMARK INTER:                  -5.773
REMARK INTRA:                  -0.323
REMARK UNBOUND:                -0.221
REMARK SMILES O=c1c(O)c(-c2ccc(O)c(O)c2)oc2cc(O)ccc12
REMARK SMILES IDX 5 1 3 2 2 3 1 4 21 5 15 6 14 7 16 8 17 9 19 10 20 11 6 12
REMARK SMILES IDX 7 13 8 14 9 15 13 16 11 17 10 18 12 20 4 22 18 24
REMARK H PARENT 10 19 12 21 4 23 18 25
REMARK Flexibility Score: inf
ROOT
ATOM      1  C   UNL     1     -14.178  29.967   9.134  1.00  0.00     0.180 A 
ATOM      2  C   UNL     1     -14.767  30.477  10.310  1.00  0.00     0.208 A 
ATOM      3  C   UNL     1     -13.958  30.679  11.439  1.00  0.00     0.235 A 
ATOM      4  O   UNL     1     -14.464  31.124  12.505  1.00  0.00    -0.285 OA
ATOM      5  C   UNL     1     -12.587  30.391  11.365  1.00  0.00     0.069 A 
ATOM      6  C   UNL     1     -12.069  29.907  10.144  1.00  0.00     0.142 A 
ATOM      7  O   UNL     1     -12.870  29.720   9.102  1.00  0.00    -0.452 OA
ATOM      8  C   UNL     1     -10.705  29.617  10.030  1.00  0.00     0.094 A 
ATOM      9  C   UNL     1      -9.848  29.804  11.122  1.00  0.00     0.119 A 
ATOM     10  C   UNL     1     -10.359  30.283  12.334  1.00  0.00     0.047 A 
ATOM     11  C   UNL     1     -11.720  30.577  12.458  1.00  0.00     0.020 A 
ENDROOT
BRANCH   1  12
ATOM     12  C   UNL     1     -14.967  29.709   7.908  1.00  0.00     0.025 A 
ATOM     13  C   UNL     1     -15.083  30.715   6.936  1.00  0.00     0.016 A 
ATOM     14  C   UNL     1     -15.805  30.487   5.763  1.00  0.00     0.051 A 
ATOM     15  C   UNL     1     -16.408  29.247   5.534  1.00  0.00     0.157 A 
ATOM     16  C   UNL     1     -15.556  28.455   7.667  1.00  0.00     0.062 A 
ATOM     17  C   UNL     1     -16.281  28.222   6.488  1.00  0.00     0.158 A 
BRANCH  15  18
ATOM     18  O   UNL     1     -17.125  29.049   4.354  1.00  0.00    -0.504 OA
ATOM     19  H   UNL     1     -17.281  29.796   3.687  1.00  0.00     0.293 HD
ENDBRANCH  15  18
BRANCH  17  20
ATOM     20  O   UNL     1     -16.868  26.979   6.260  1.00  0.00    -0.504 OA
ATOM     21  H   UNL     1     -17.754  26.725   6.681  1.00  0.00     0.293 HD
ENDBRANCH  17  20
ENDBRANCH   1  12
BRANCH   2  22
ATOM     22  O   UNL     1     -16.126  30.802  10.338  1.00  0.00    -0.502 OA
ATOM     23  H   UNL     1     -16.851  30.103  10.245  1.00  0.00     0.293 HD
ENDBRANCH   2  22
BRANCH   9  24
ATOM     24  O   UNL     1      -8.489  29.518  11.016  1.00  0.00    -0.508 OA
ATOM     25  H   UNL     1      -7.989  29.642  10.144  1.00  0.00     0.293 HD
ENDBRANCH   9  24
TORSDOF 5
ENDMDL
MODEL 3
REMARK VINA RESULT:    -4.807      1.565      6.699
REMARK INTER + INTRA:          -5.871
REMARK INTER:                  -5.672
REMARK INTRA:                  -0.199
REMARK UNBOUND:                -0.221
REMARK SMILES O=c1c(O)c(-c2ccc(O)c(O)c2)oc2cc(O)ccc12
REMARK SMILES IDX 5 1 3 2 2 3 1 4 21 5 15 6 14 7 16 8 17 9 19 10 20 11 6 12
REMARK SMILES IDX 7 13 8 14 9 15 13 16 11 17 10 18 12 20 4 22 18 24
REMARK H PARENT 10 19 12 21 4 23 18 25
REMARK Flexibility Score: inf
ROOT
ATOM      1  C   UNL     1      -0.052  11.944   9.338  1.00  0.00     0.180 A 
ATOM      2  C   UNL     1       1.072  12.344   8.585  1.00  0.00     0.208 A 
ATOM      3  C   UNL     1       0.982  12.348   7.185  1.00  0.00     0.235 A 
ATOM      4  O   UNL     1       1.977  12.691   6.490  1.00  0.00    -0.285 OA
ATOM      5  C   UNL     1      -0.224  11.978   6.570  1.00  0.00     0.069 A 
ATOM      6  C   UNL     1      -1.311  11.614   7.393  1.00  0.00     0.142 A 
ATOM      7  O   UNL     1      -1.182  11.614   8.715  1.00  0.00    -0.452 OA
ATOM      8  C   UNL     1      -2.533  11.248   6.817  1.00  0.00     0.094 A 
ATOM      9  C   UNL     1      -2.683  11.239   5.425  1.00  0.00     0.119 A 
ATOM     10  C   UNL     1      -1.606  11.598   4.606  1.00  0.00     0.047 A 
ATOM     11  C   UNL     1      -0.382  11.967   5.172  1.00  0.00     0.020 A 
ENDROOT
BRANCH   1  12
ATOM     12  C   UNL     1      -0.030  11.894  10.817  1.00  0.00     0.025 A 
ATOM     13  C   UNL     1       0.767  10.936  11.464  1.00  0.00     0.016 A 
ATOM     14  C   UNL     1       0.819  10.884  12.859  1.00  0.00     0.051 A 
ATOM     15  C   UNL     1       0.090  11.796  13.628  1.00  0.00     0.157 A 
ATOM     16  C   UNL     1      -0.745  12.824  11.592  1.00  0.00     0.062 A 
ATOM     17  C   UNL     1      -0.693  12.775  12.993  1.00  0.00     0.158 A 
BRANCH  15  18
ATOM     18  O   UNL     1       0.161  11.719  15.019  1.00  0.00    -0.504 OA
ATOM     19  H   UNL     1       0.508  12.485  15.584  1.00  0.00     0.293 HD
ENDBRANCH  15  18
BRANCH  17  20
ATOM     20  O   UNL     1      -1.411  13.696  13.754  1.00  0.00    -0.504 OA
ATOM     21  H   UNL     1      -1.834  13.440  14.639  1.00  0.00     0.293 HD
ENDBRANCH  17  20
ENDBRANCH   1  12
BRANCH   2  22
ATOM     22  O   UNL     1       2.243  12.755   9.227  1.00  0.00    -0.502 OA
ATOM     23  H   UNL     1       2.283  12.928  10.223  1.00  0.00     0.293 HD
ENDBRANCH   2  22
BRANCH   9  24
ATOM     24  O   UNL     1      -3.895  10.875   4.843  1.00  0.00    -0.508 OA
ATOM     25  H   UNL     1      -4.633  10.441   5.386  1.00  0.00     0.293 HD
ENDBRANCH   9  24
TORSDOF 5
ENDMDL
MODEL 4
REMARK VINA RESULT:    -4.639     19.872     21.704
REMARK INTER + INTRA:          -5.673
REMARK INTER:                  -5.556
REMARK INTRA:                  -0.116
REMARK UNBOUND:                -0.221
REMARK SMILES O=c1c(O)c(-c2ccc(O)c(O)c2)oc2cc(O)ccc12
REMARK SMILES IDX 5 1 3 2 2 3 1 4 21 5 15 6 14 7 16 8 17 9 19 10 20 11 6 12
REMARK SMILES IDX 7 13 8 14 9 15 13 16 11 17 10 18 12 20 4 22 18 24
REMARK H PARENT 10 19 12 21 4 23 18 25
REMARK Flexibility Score: inf
ROOT
ATOM      1  C   UNL     1     -10.444  30.196  10.468  1.00  0.00     0.180 A 
ATOM      2  C   UNL     1      -9.932  30.298   9.157  1.00  0.00     0.208 A 
ATOM      3  C   UNL     1     -10.833  30.390   8.085  1.00  0.00     0.235 A 
ATOM      4  O   UNL     1     -10.400  30.471   6.904  1.00  0.00    -0.285 OA
ATOM      5  C   UNL     1     -12.213  30.401   8.342  1.00  0.00     0.069 A 
ATOM      6  C   UNL     1     -12.645  30.321   9.684  1.00  0.00     0.142 A 
ATOM      7  O   UNL     1     -11.760  30.225  10.669  1.00  0.00    -0.452 OA
ATOM      8  C   UNL     1     -14.012  30.339   9.980  1.00  0.00     0.094 A 
ATOM      9  C   UNL     1     -14.957  30.435   8.950  1.00  0.00     0.119 A 
ATOM     10  C   UNL     1     -14.532  30.514   7.620  1.00  0.00     0.047 A 
ATOM     11  C   UNL     1     -13.168  30.498   7.313  1.00  0.00     0.020 A 
ENDROOT
BRANCH   1  12
ATOM     12  C   UNL     1      -9.560  30.076  11.650  1.00  0.00     0.025 A 
ATOM     13  C   UNL     1      -8.679  31.123  11.962  1.00  0.00     0.016 A 
ATOM     14  C   UNL     1      -7.850  31.041  13.084  1.00  0.00     0.051 A 
ATOM     15  C   UNL     1      -7.900  29.920  13.918  1.00  0.00     0.157 A 
ATOM     16  C   UNL     1      -9.624  28.960  12.503  1.00  0.00     0.062 A 
ATOM     17  C   UNL     1      -8.794  28.875  13.631  1.00  0.00     0.158 A 
BRANCH  15  18
ATOM     18  O   UNL     1      -7.059  29.865  15.030  1.00  0.00    -0.504 OA
ATOM     19  H   UNL     1      -6.140  29.440  14.989  1.00  0.00     0.293 HD
ENDBRANCH  15  18
BRANCH  17  20
ATOM     20  O   UNL     1      -8.859  27.762  14.467  1.00  0.00    -0.504 OA
ATOM     21  H   UNL     1      -8.036  27.402  14.936  1.00  0.00     0.293 HD
ENDBRANCH  17  20
ENDBRANCH   1  12
BRANCH   2  22
ATOM     22  O   UNL     1      -8.553  30.334   8.937  1.00  0.00    -0.502 OA
ATOM     23  H   UNL     1      -7.894  29.881   9.557  1.00  0.00     0.293 HD
ENDBRANCH   2  22
BRANCH   9  24
ATOM     24  O   UNL     1     -16.320  30.453   9.237  1.00  0.00    -0.508 OA
ATOM     25  H   UNL     1     -16.740  31.211   9.762  1.00  0.00     0.293 HD
ENDBRANCH   9  24
TORSDOF 5
ENDMDL
MODEL 5
REMARK VINA RESULT:    -4.393     21.169     23.055
REMARK INTER + INTRA:          -5.384
REMARK INTER:                  -5.172
REMARK INTRA:                  -0.212
REMARK UNBOUND:                -0.221
REMARK SMILES O=c1c(O)c(-c2ccc(O)c(O)c2)oc2cc(O)ccc12
REMARK SMILES IDX 5 1 3 2 2 3 1 4 21 5 15 6 14 7 16 8 17 9 19 10 20 11 6 12
REMARK SMILES IDX 7 13 8 14 9 15 13 16 11 17 10 18 12 20 4 22 18 24
REMARK H PARENT 10 19 12 21 4 23 18 25
REMARK Flexibility Score: inf
ROOT
ATOM      1  C   UNL     1     -13.124  30.158   8.442  1.00  0.00     0.180 A 
ATOM      2  C   UNL     1     -14.337  30.343   9.138  1.00  0.00     0.208 A 
ATOM      3  C   UNL     1     -15.529  30.449   8.405  1.00  0.00     0.235 A 
ATOM      4  O   UNL     1     -16.624  30.625   9.005  1.00  0.00    -0.285 OA
ATOM      5  C   UNL     1     -15.490  30.348   7.006  1.00  0.00     0.069 A 
ATOM      6  C   UNL     1     -14.239  30.137   6.385  1.00  0.00     0.142 A 
ATOM      7  O   UNL     1     -13.133  30.052   7.114  1.00  0.00    -0.452 OA
ATOM      8  C   UNL     1     -14.161  30.021   4.993  1.00  0.00     0.094 A 
ATOM      9  C   UNL     1     -15.319  30.114   4.210  1.00  0.00     0.119 A 
ATOM     10  C   UNL     1     -16.559  30.323   4.823  1.00  0.00     0.047 A 
ATOM     11  C   UNL     1     -16.649  30.439   6.213  1.00  0.00     0.020 A 
ENDROOT
BRANCH   1  12
ATOM     12  C   UNL     1     -11.824  30.056   9.141  1.00  0.00     0.025 A 
ATOM     13  C   UNL     1     -10.916  31.124   9.070  1.00  0.00     0.016 A 
ATOM     14  C   UNL     1      -9.691  31.058   9.739  1.00  0.00     0.051 A 
ATOM     15  C   UNL     1      -9.362  29.934  10.502  1.00  0.00     0.157 A 
ATOM     16  C   UNL     1     -11.500  28.935   9.927  1.00  0.00     0.062 A 
ATOM     17  C   UNL     1     -10.272  28.868  10.602  1.00  0.00     0.158 A 
BRANCH  15  18
ATOM     18  O   UNL     1      -8.132  29.896  11.157  1.00  0.00    -0.504 OA
ATOM     19  H   UNL     1      -7.320  30.394  10.809  1.00  0.00     0.293 HD
ENDBRANCH  15  18
BRANCH  17  20
ATOM     20  O   UNL     1      -9.956  27.750  11.372  1.00  0.00    -0.504 OA
ATOM     21  H   UNL     1      -9.024  27.608  11.744  1.00  0.00     0.293 HD
ENDBRANCH  17  20
ENDBRANCH   1  12
BRANCH   2  22
ATOM     22  O   UNL     1     -14.351  30.390  10.535  1.00  0.00    -0.502 OA
ATOM     23  H   UNL     1     -14.389  31.263  11.046  1.00  0.00     0.293 HD
ENDBRANCH   2  22
BRANCH   9  24
ATOM     24  O   UNL     1     -15.250  30.000   2.823  1.00  0.00    -0.508 OA
ATOM     25  H   UNL     1     -14.839  29.188   2.379  1.00  0.00     0.293 HD
ENDBRANCH   9  24
TORSDOF 5
ENDMDL
MODEL 6
REMARK VINA RESULT:    -4.077     20.833     22.761
REMARK INTER + INTRA:          -5.012
REMARK INTER:                  -4.934
REMARK INTRA:                  -0.078
REMARK UNBOUND:                -0.221
REMARK SMILES O=c1c(O)c(-c2ccc(O)c(O)c2)oc2cc(O)ccc12
REMARK SMILES IDX 5 1 3 2 2 3 1 4 21 5 15 6 14 7 16 8 17 9 19 10 20 11 6 12
REMARK SMILES IDX 7 13 8 14 9 15 13 16 11 17 10 18 12 20 4 22 18 24
REMARK H PARENT 10 19 12 21 4 23 18 25
REMARK Flexibility Score: inf
ROOT
ATOM      1  C   UNL     1     -12.634  30.215  10.346  1.00  0.00     0.180 A 
ATOM      2  C   UNL     1     -13.729  30.577  11.158  1.00  0.00     0.208 A 
ATOM      3  C   UNL     1     -14.979  30.785  10.554  1.00  0.00     0.235 A 
ATOM      4  O   UNL     1     -15.971  31.119  11.257  1.00  0.00    -0.285 OA
ATOM      5  C   UNL     1     -15.113  30.609   9.168  1.00  0.00     0.069 A 
ATOM      6  C   UNL     1     -13.975  30.221   8.429  1.00  0.00     0.142 A 
ATOM      7  O   UNL     1     -12.808  30.044   9.037  1.00  0.00    -0.452 OA
ATOM      8  C   UNL     1     -14.071  30.026   7.046  1.00  0.00     0.094 A 
ATOM      9  C   UNL     1     -15.295  30.214   6.390  1.00  0.00     0.119 A 
ATOM     10  C   UNL     1     -16.425  30.599   7.120  1.00  0.00     0.047 A 
ATOM     11  C   UNL     1     -16.339  30.795   8.502  1.00  0.00     0.020 A 
ENDROOT
BRANCH   1  12
ATOM     12  C   UNL     1     -11.280  29.997  10.904  1.00  0.00     0.025 A 
ATOM     13  C   UNL     1     -10.214  30.797  10.463  1.00  0.00     0.016 A 
ATOM     14  C   UNL     1      -8.932  30.623  10.992  1.00  0.00     0.051 A 
ATOM     15  C   UNL     1      -8.700  29.660  11.978  1.00  0.00     0.157 A 
ATOM     16  C   UNL     1     -11.048  29.044  11.913  1.00  0.00     0.062 A 
ATOM     17  C   UNL     1      -9.763  28.869  12.446  1.00  0.00     0.158 A 
BRANCH  15  18
ATOM     18  O   UNL     1      -7.410  29.507  12.486  1.00  0.00    -0.504 OA
ATOM     19  H   UNL     1      -6.586  29.738  11.942  1.00  0.00     0.293 HD
ENDBRANCH  15  18
BRANCH  17  20
ATOM     20  O   UNL     1      -9.540  27.917  13.440  1.00  0.00    -0.504 OA
ATOM     21  H   UNL     1      -9.015  28.137  14.278  1.00  0.00     0.293 HD
ENDBRANCH  17  20
ENDBRANCH   1  12
BRANCH   2  22
ATOM     22  O   UNL     1     -13.576  30.697  12.541  1.00  0.00    -0.502 OA
ATOM     23  H   UNL     1     -13.352  29.906  13.132  1.00  0.00     0.293 HD
ENDBRANCH   2  22
BRANCH   9  24
ATOM     24  O   UNL     1     -15.399  30.023   5.014  1.00  0.00    -0.508 OA
ATOM     25  H   UNL     1     -15.111  29.155   4.578  1.00  0.00     0.293 HD
ENDBRANCH   9  24
TORSDOF 5
ENDMDL
MODEL 7
REMARK VINA RESULT:    -3.892     20.853     21.908
REMARK INTER + INTRA:          -4.795
REMARK INTER:                  -5.060
REMARK INTRA:                   0.265
REMARK UNBOUND:                -0.221
REMARK SMILES O=c1c(O)c(-c2ccc(O)c(O)c2)oc2cc(O)ccc12
REMARK SMILES IDX 5 1 3 2 2 3 1 4 21 5 15 6 14 7 16 8 17 9 19 10 20 11 6 12
REMARK SMILES IDX 7 13 8 14 9 15 13 16 11 17 10 18 12 20 4 22 18 24
REMARK H PARENT 10 19 12 21 4 23 18 25
REMARK Flexibility Score: inf
ROOT
ATOM      1  C   UNL     1     -12.160  30.385   8.933  1.00  0.00     0.180 A 
ATOM      2  C   UNL     1     -10.784  30.404   8.622  1.00  0.00     0.208 A 
ATOM      3  C   UNL     1      -9.857  30.545   9.666  1.00  0.00     0.235 A 
ATOM      4  O   UNL     1      -8.622  30.575   9.412  1.00  0.00    -0.285 OA
ATOM      5  C   UNL     1     -10.316  30.642  10.988  1.00  0.00     0.069 A 
ATOM      6  C   UNL     1     -11.708  30.590  11.219  1.00  0.00     0.142 A 
ATOM      7  O   UNL     1     -12.553  30.465  10.203  1.00  0.00    -0.452 OA
ATOM      8  C   UNL     1     -12.203  30.674  12.525  1.00  0.00     0.094 A 
ATOM      9  C   UNL     1     -11.324  30.811  13.607  1.00  0.00     0.119 A 
ATOM     10  C   UNL     1      -9.944  30.863  13.381  1.00  0.00     0.047 A 
ATOM     11  C   UNL     1      -9.439  30.779  12.080  1.00  0.00     0.020 A 
ENDROOT
BRANCH   1  12
ATOM     12  C   UNL     1     -13.200  30.258   7.888  1.00  0.00     0.025 A 
ATOM     13  C   UNL     1     -14.448  29.705   8.218  1.00  0.00     0.016 A 
ATOM     14  C   UNL     1     -15.452  29.595   7.252  1.00  0.00     0.051 A 
ATOM     15  C   UNL     1     -15.231  30.049   5.949  1.00  0.00     0.157 A 
ATOM     16  C   UNL     1     -12.989  30.735   6.582  1.00  0.00     0.062 A 
ATOM     17  C   UNL     1     -13.995  30.627   5.611  1.00  0.00     0.158 A 
BRANCH  15  18
ATOM     18  O   UNL     1     -16.251  29.924   5.006  1.00  0.00    -0.504 OA
ATOM     19  H   UNL     1     -17.180  29.606   5.256  1.00  0.00     0.293 HD
ENDBRANCH  15  18
BRANCH  17  20
ATOM     20  O   UNL     1     -13.775  31.095   4.317  1.00  0.00    -0.504 OA
ATOM     21  H   UNL     1     -12.840  31.279   3.971  1.00  0.00     0.293 HD
ENDBRANCH  17  20
ENDBRANCH   1  12
BRANCH   2  22
ATOM     22  O   UNL     1     -10.355  30.255   7.300  1.00  0.00    -0.502 OA
ATOM     23  H   UNL     1     -10.932  29.824   6.589  1.00  0.00     0.293 HD
ENDBRANCH   2  22
BRANCH   9  24
ATOM     24  O   UNL     1     -11.809  30.895  14.910  1.00  0.00    -0.508 OA
ATOM     25  H   UNL     1     -12.164  30.081  15.397  1.00  0.00     0.293 HD
ENDBRANCH   9  24
TORSDOF 5
ENDMDL
