MODEL 1
REMARK VINA RESULT:    -5.189      0.000      0.000
REMARK INTER + INTRA:          -8.413
REMARK INTER:                  -7.919
REMARK INTRA:                  -0.494
REMARK UNBOUND:                -0.494
REMARK SMILES O=C([O-])CCCCCCCCC(=O)[O-]
REMARK SMILES IDX 7 1 6 2 5 3 4 4 2 5 1 6 3 7 8 8 9 9 10 10 11 11 12 12 13 13
REMARK SMILES IDX 14 14
REMARK H PARENT
REMARK Flexibility Score: inf
ROOT
ATOM      1  C   UNL     1      27.255   3.780   3.859  1.00  0.00     0.000 C 
ENDROOT
BRANCH   1   2
ATOM      2  C   UNL     1      27.426   4.830   4.971  1.00  0.00     0.000 C 
BRANCH   2   3
ATOM      3  C   UNL     1      28.517   5.889   4.710  1.00  0.00     0.006 C 
BRANCH   3   4
ATOM      4  C   UNL     1      29.500   6.093   5.874  1.00  0.00     0.053 C 
BRANCH   4   5
ATOM      5  C   UNL     1      29.626   4.866   6.723  1.00  0.00     0.041 C 
ATOM      6  O   UNL     1      29.126   4.842   7.878  1.00  0.00    -0.550 OA
ATOM      7  O   UNL     1      30.325   3.761   6.253  1.00  0.00    -0.550 OA
ENDBRANCH   4   5
ENDBRANCH   3   4
ENDBRANCH   2   3
ENDBRANCH   1   2
BRANCH   1   8
ATOM      8  C   UNL     1      28.212   2.587   4.008  1.00  0.00     0.000 C 
BRANCH   8   9
ATOM      9  C   UNL     1      27.683   1.586   5.047  1.00  0.00     0.000 C 
BRANCH   9  10
ATOM     10  C   UNL     1      28.772   0.623   5.554  1.00  0.00     0.006 C 
BRANCH  10  11
ATOM     11  C   UNL     1      28.610  -0.828   5.074  1.00  0.00     0.053 C 
BRANCH  11  12
ATOM     12  C   UNL     1      28.627  -0.930   3.580  1.00  0.00     0.041 C 
ATOM     13  O   UNL     1      27.601  -1.318   2.959  1.00  0.00    -0.550 OA
ATOM     14  O   UNL     1      29.785  -0.631   2.875  1.00  0.00    -0.550 OA
ENDBRANCH  11  12
ENDBRANCH  10  11
ENDBRANCH   9  10
ENDBRANCH   8   9
ENDBRANCH   1   8
TORSDOF 9
ENDMDL
MODEL 2
REMARK VINA RESULT:    -5.167      0.131      5.763
REMARK INTER + INTRA:          -8.380
REMARK INTER:                  -7.834
REMARK INTRA:                  -0.546
REMARK UNBOUND:                -0.494
REMARK SMILES O=C([O-])CCCCCCCCC(=O)[O-]
REMARK SMILES IDX 7 1 6 2 5 3 4 4 2 5 1 6 3 7 8 8 9 9 10 10 11 11 12 12 13 13
REMARK SMILES IDX 14 14
REMARK H PARENT
REMARK Flexibility Score: inf
ROOT
ATOM      1  C   UNL     1      28.257   2.668   3.967  1.00  0.00     0.000 C 
ENDROOT
BRANCH   1   2
ATOM      2  C   UNL     1      27.822   1.731   5.108  1.00  0.00     0.000 C 
BRANCH   2   3
ATOM      3  C   UNL     1      28.866   0.672   5.521  1.00  0.00     0.006 C 
BRANCH   3   4
ATOM      4  C   UNL     1      28.530  -0.760   5.079  1.00  0.00     0.053 C 
BRANCH   4   5
ATOM      5  C   UNL     1      28.566  -0.910   3.589  1.00  0.00     0.041 C 
ATOM      6  O   UNL     1      27.584  -1.410   2.980  1.00  0.00    -0.550 OA
ATOM      7  O   UNL     1      29.696  -0.529   2.877  1.00  0.00    -0.550 OA
ENDBRANCH   4   5
ENDBRANCH   3   4
ENDBRANCH   2   3
ENDBRANCH   1   2
BRANCH   1   8
ATOM      8  C   UNL     1      27.324   3.876   3.795  1.00  0.00     0.000 C 
BRANCH   8   9
ATOM      9  C   UNL     1      27.491   4.867   4.957  1.00  0.00     0.000 C 
BRANCH   9  10
ATOM     10  C   UNL     1      28.620   5.887   4.714  1.00  0.00     0.006 C 
BRANCH  10  11
ATOM     11  C   UNL     1      29.534   6.120   5.927  1.00  0.00     0.053 C 
BRANCH  11  12
ATOM     12  C   UNL     1      29.582   4.928   6.833  1.00  0.00     0.041 C 
ATOM     13  O   UNL     1      29.018   4.965   7.959  1.00  0.00    -0.550 OA
ATOM     14  O   UNL     1      30.278   3.789   6.448  1.00  0.00    -0.550 OA
ENDBRANCH  11  12
ENDBRANCH  10  11
ENDBRANCH   9  10
ENDBRANCH   8   9
ENDBRANCH   1   8
TORSDOF 9
ENDMDL
MODEL 3
REMARK VINA RESULT:    -5.152      0.137      1.232
REMARK INTER + INTRA:          -8.358
REMARK INTER:                  -7.987
REMARK INTRA:                  -0.370
REMARK UNBOUND:                -0.494
REMARK SMILES O=C([O-])CCCCCCCCC(=O)[O-]
REMARK SMILES IDX 7 1 6 2 5 3 4 4 2 5 1 6 3 7 8 8 9 9 10 10 11 11 12 12 13 13
REMARK SMILES IDX 14 14
REMARK H PARENT
REMARK Flexibility Score: inf
ROOT
ATOM      1  C   UNL     1      27.253   3.752   3.886  1.00  0.00     0.000 C 
ENDROOT
BRANCH   1   2
ATOM      2  C   UNL     1      27.478   4.743   5.041  1.00  0.00     0.000 C 
BRANCH   2   3
ATOM      3  C   UNL     1      28.477   5.881   4.744  1.00  0.00     0.006 C 
BRANCH   3   4
ATOM      4  C   UNL     1      29.635   5.991   5.748  1.00  0.00     0.053 C 
BRANCH   4   5
ATOM      5  C   UNL     1      29.727   4.786   6.633  1.00  0.00     0.041 C 
ATOM      6  O   UNL     1      30.320   3.750   6.233  1.00  0.00    -0.550 OA
ATOM      7  O   UNL     1      29.128   4.795   7.887  1.00  0.00    -0.550 OA
ENDBRANCH   4   5
ENDBRANCH   3   4
ENDBRANCH   2   3
ENDBRANCH   1   2
BRANCH   1   8
ATOM      8  C   UNL     1      28.139   2.500   3.990  1.00  0.00     0.000 C 
BRANCH   8   9
ATOM      9  C   UNL     1      27.684   1.601   5.149  1.00  0.00     0.000 C 
BRANCH   9  10
ATOM     10  C   UNL     1      28.765   0.593   5.582  1.00  0.00     0.006 C 
BRANCH  10  11
ATOM     11  C   UNL     1      28.559  -0.830   5.041  1.00  0.00     0.053 C 
BRANCH  11  12
ATOM     12  C   UNL     1      28.535  -0.865   3.544  1.00  0.00     0.041 C 
ATOM     13  O   UNL     1      29.555  -0.529   2.886  1.00  0.00    -0.550 OA
ATOM     14  O   UNL     1      27.375  -1.235   2.876  1.00  0.00    -0.550 OA
ENDBRANCH  11  12
ENDBRANCH  10  11
ENDBRANCH   9  10
ENDBRANCH   8   9
ENDBRANCH   1   8
TORSDOF 9
ENDMDL
MODEL 4
REMARK VINA RESULT:    -4.423      1.491      1.857
REMARK INTER + INTRA:          -7.244
REMARK INTER:                  -6.749
REMARK INTRA:                  -0.494
REMARK UNBOUND:                -0.494
REMARK SMILES O=C([O-])CCCCCCCCC(=O)[O-]
REMARK SMILES IDX 7 1 6 2 5 3 4 4 2 5 1 6 3 7 8 8 9 9 10 10 11 11 12 12 13 13
REMARK SMILES IDX 14 14
REMARK H PARENT
REMARK Flexibility Score: inf
ROOT
ATOM      1  C   UNL     1      27.640   3.751   4.037  1.00  0.00     0.000 C 
ENDROOT
BRANCH   1   2
ATOM      2  C   UNL     1      27.588   4.801   5.161  1.00  0.00     0.000 C 
BRANCH   2   3
ATOM      3  C   UNL     1      28.412   4.455   6.419  1.00  0.00     0.006 C 
BRANCH   3   4
ATOM      4  C   UNL     1      29.631   5.361   6.652  1.00  0.00     0.053 C 
BRANCH   4   5
ATOM      5  C   UNL     1      30.424   5.569   5.399  1.00  0.00     0.041 C 
ATOM      6  O   UNL     1      30.278   6.623   4.725  1.00  0.00    -0.550 OA
ATOM      7  O   UNL     1      31.298   4.585   4.955  1.00  0.00    -0.550 OA
ENDBRANCH   4   5
ENDBRANCH   3   4
ENDBRANCH   2   3
ENDBRANCH   1   2
BRANCH   1   8
ATOM      8  C   UNL     1      28.544   2.555   4.375  1.00  0.00     0.000 C 
BRANCH   8   9
ATOM      9  C   UNL     1      27.709   1.343   4.813  1.00  0.00     0.000 C 
BRANCH   9  10
ATOM     10  C   UNL     1      27.165   0.531   3.622  1.00  0.00     0.006 C 
BRANCH  10  11
ATOM     11  C   UNL     1      27.643  -0.929   3.579  1.00  0.00     0.053 C 
BRANCH  11  12
ATOM     12  C   UNL     1      29.121  -1.043   3.797  1.00  0.00     0.041 C 
ATOM     13  O   UNL     1      29.922  -0.736   2.875  1.00  0.00    -0.550 OA
ATOM     14  O   UNL     1      29.611  -1.522   5.005  1.00  0.00    -0.550 OA
ENDBRANCH  11  12
ENDBRANCH  10  11
ENDBRANCH   9  10
ENDBRANCH   8   9
ENDBRANCH   1   8
TORSDOF 9
ENDMDL
MODEL 5
REMARK VINA RESULT:    -4.383      1.681      5.487
REMARK INTER + INTRA:          -7.183
REMARK INTER:                  -6.682
REMARK INTRA:                  -0.501
REMARK UNBOUND:                -0.494
REMARK SMILES O=C([O-])CCCCCCCCC(=O)[O-]
REMARK SMILES IDX 7 1 6 2 5 3 4 4 2 5 1 6 3 7 8 8 9 9 10 10 11 11 12 12 13 13
REMARK SMILES IDX 14 14
REMARK H PARENT
REMARK Flexibility Score: inf
ROOT
ATOM      1  C   UNL     1      27.683   2.574   4.399  1.00  0.00     0.000 C 
ENDROOT
BRANCH   1   2
ATOM      2  C   UNL     1      28.965   2.034   3.741  1.00  0.00     0.000 C 
BRANCH   2   3
ATOM      3  C   UNL     1      28.802   0.699   2.985  1.00  0.00     0.006 C 
BRANCH   3   4
ATOM      4  C   UNL     1      28.058  -0.392   3.770  1.00  0.00     0.053 C 
BRANCH   4   5
ATOM      5  C   UNL     1      28.775  -0.763   5.031  1.00  0.00     0.041 C 
ATOM      6  O   UNL     1      29.701  -1.615   5.005  1.00  0.00    -0.550 OA
ATOM      7  O   UNL     1      28.398  -0.193   6.241  1.00  0.00    -0.550 OA
ENDBRANCH   4   5
ENDBRANCH   3   4
ENDBRANCH   2   3
ENDBRANCH   1   2
BRANCH   1   8
ATOM      8  C   UNL     1      27.335   4.002   3.952  1.00  0.00     0.000 C 
BRANCH   8   9
ATOM      9  C   UNL     1      27.437   4.986   5.128  1.00  0.00     0.000 C 
BRANCH   9  10
ATOM     10  C   UNL     1      28.190   4.396   6.334  1.00  0.00     0.006 C 
BRANCH  10  11
ATOM     11  C   UNL     1      29.454   5.174   6.734  1.00  0.00     0.053 C 
BRANCH  11  12
ATOM     12  C   UNL     1      30.324   5.479   5.554  1.00  0.00     0.041 C 
ATOM     13  O   UNL     1      30.347   6.640   5.067  1.00  0.00    -0.550 OA
ATOM     14  O   UNL     1      31.083   4.472   4.971  1.00  0.00    -0.550 OA
ENDBRANCH  11  12
ENDBRANCH  10  11
ENDBRANCH   9  10
ENDBRANCH   8   9
ENDBRANCH   1   8
TORSDOF 9
ENDMDL
MODEL 6
REMARK VINA RESULT:    -3.764      1.601      2.144
REMARK INTER + INTRA:          -6.238
REMARK INTER:                  -6.088
REMARK INTRA:                  -0.151
REMARK UNBOUND:                -0.494
REMARK SMILES O=C([O-])CCCCCCCCC(=O)[O-]
REMARK SMILES IDX 7 1 6 2 5 3 4 4 2 5 1 6 3 7 8 8 9 9 10 10 11 11 12 12 13 13
REMARK SMILES IDX 14 14
REMARK H PARENT
REMARK Flexibility Score: inf
ROOT
ATOM      1  C   UNL     1      29.556   2.521   5.811  1.00  0.00     0.000 C 
ENDROOT
BRANCH   1   2
ATOM      2  C   UNL     1      29.846   3.523   4.680  1.00  0.00     0.000 C 
BRANCH   2   3
ATOM      3  C   UNL     1      31.001   4.508   4.955  1.00  0.00     0.006 C 
BRANCH   3   4
ATOM      4  C   UNL     1      30.552   5.930   5.326  1.00  0.00     0.053 C 
BRANCH   4   5
ATOM      5  C   UNL     1      29.225   5.937   6.020  1.00  0.00     0.041 C 
ATOM      6  O   UNL     1      28.184   6.265   5.392  1.00  0.00    -0.550 OA
ATOM      7  O   UNL     1      29.141   5.614   7.368  1.00  0.00    -0.550 OA
ENDBRANCH   4   5
ENDBRANCH   3   4
ENDBRANCH   2   3
ENDBRANCH   1   2
BRANCH   1   8
ATOM      8  C   UNL     1      28.069   2.460   6.191  1.00  0.00     0.000 C 
BRANCH   8   9
ATOM      9  C   UNL     1      27.411   1.191   5.627  1.00  0.00     0.000 C 
BRANCH   9  10
ATOM     10  C   UNL     1      27.321   1.200   4.089  1.00  0.00     0.006 C 
BRANCH  10  11
ATOM     11  C   UNL     1      28.453   0.437   3.384  1.00  0.00     0.053 C 
BRANCH  11  12
ATOM     12  C   UNL     1      28.417  -1.029   3.688  1.00  0.00     0.041 C 
ATOM     13  O   UNL     1      27.693  -1.801   3.005  1.00  0.00    -0.550 OA
ATOM     14  O   UNL     1      29.157  -1.538   4.748  1.00  0.00    -0.550 OA
ENDBRANCH  11  12
ENDBRANCH  10  11
ENDBRANCH   9  10
ENDBRANCH   8   9
ENDBRANCH   1   8
TORSDOF 9
ENDMDL
MODEL 7
REMARK VINA RESULT:    -3.625     17.345     18.744
REMARK INTER + INTRA:          -6.026
REMARK INTER:                  -5.387
REMARK INTRA:                  -0.640
REMARK UNBOUND:                -0.494
REMARK SMILES O=C([O-])CCCCCCCCC(=O)[O-]
REMARK SMILES IDX 7 1 6 2 5 3 4 4 2 5 1 6 3 7 8 8 9 9 10 10 11 11 12 12 13 13
REMARK SMILES IDX 14 14
REMARK H PARENT
REMARK Flexibility Score: inf
ROOT
ATOM      1  C   UNL     1      29.459  13.155  21.010  1.00  0.00     0.000 C 
ENDROOT
BRANCH   1   2
ATOM      2  C   UNL     1      28.461  12.582  19.987  1.00  0.00     0.000 C 
BRANCH   2   3
ATOM      3  C   UNL     1      27.481  11.530  20.545  1.00  0.00     0.006 C 
BRANCH   3   4
ATOM      4  C   UNL     1      27.798  11.056  21.972  1.00  0.00     0.053 C 
BRANCH   4   5
ATOM      5  C   UNL     1      28.461   9.713  21.984  1.00  0.00     0.041 C 
ATOM      6  O   UNL     1      29.713   9.624  21.890  1.00  0.00    -0.550 OA
ATOM      7  O   UNL     1      27.694   8.557  22.064  1.00  0.00    -0.550 OA
ENDBRANCH   4   5
ENDBRANCH   3   4
ENDBRANCH   2   3
ENDBRANCH   1   2
BRANCH   1   8
ATOM      8  C   UNL     1      30.886  12.616  20.822  1.00  0.00     0.000 C 
BRANCH   8   9
ATOM      9  C   UNL     1      31.627  13.398  19.726  1.00  0.00     0.000 C 
BRANCH   9  10
ATOM     10  C   UNL     1      31.140  14.854  19.600  1.00  0.00     0.006 C 
BRANCH  10  11
ATOM     11  C   UNL     1      31.151  15.404  18.166  1.00  0.00     0.053 C 
BRANCH  11  12
ATOM     12  C   UNL     1      30.170  14.694  17.284  1.00  0.00     0.041 C 
ATOM     13  O   UNL     1      30.575  13.875  16.417  1.00  0.00    -0.550 OA
ATOM     14  O   UNL     1      28.812  14.962  17.396  1.00  0.00    -0.550 OA
ENDBRANCH  11  12
ENDBRANCH  10  11
ENDBRANCH   9  10
ENDBRANCH   8   9
ENDBRANCH   1   8
TORSDOF 9
ENDMDL
MODEL 8
REMARK VINA RESULT:    -3.534     17.235     18.522
REMARK INTER + INTRA:          -5.888
REMARK INTER:                  -5.136
REMARK INTRA:                  -0.752
REMARK UNBOUND:                -0.494
REMARK SMILES O=C([O-])CCCCCCCCC(=O)[O-]
REMARK SMILES IDX 7 1 6 2 5 3 4 4 2 5 1 6 3 7 8 8 9 9 10 10 11 11 12 12 13 13
REMARK SMILES IDX 14 14
REMARK H PARENT
REMARK Flexibility Score: inf
ROOT
ATOM      1  C   UNL     1      30.992  12.941  20.657  1.00  0.00     0.000 C 
ENDROOT
BRANCH   1   2
ATOM      2  C   UNL     1      31.780  14.194  20.234  1.00  0.00     0.000 C 
BRANCH   2   3
ATOM      3  C   UNL     1      30.949  15.279  19.518  1.00  0.00     0.006 C 
BRANCH   3   4
ATOM      4  C   UNL     1      31.162  15.346  17.997  1.00  0.00     0.053 C 
BRANCH   4   5
ATOM      5  C   UNL     1      30.112  14.584  17.250  1.00  0.00     0.041 C 
ATOM      6  O   UNL     1      30.428  13.576  16.566  1.00  0.00    -0.550 OA
ATOM      7  O   UNL     1      28.789  15.007  17.280  1.00  0.00    -0.550 OA
ENDBRANCH   4   5
ENDBRANCH   3   4
ENDBRANCH   2   3
ENDBRANCH   1   2
BRANCH   1   8
ATOM      8  C   UNL     1      29.507  13.229  20.926  1.00  0.00     0.000 C 
BRANCH   8   9
ATOM      9  C   UNL     1      28.613  12.463  19.939  1.00  0.00     0.000 C 
BRANCH   9  10
ATOM     10  C   UNL     1      27.473  11.699  20.637  1.00  0.00     0.006 C 
BRANCH  10  11
ATOM     11  C   UNL     1      27.824  11.178  22.039  1.00  0.00     0.053 C 
BRANCH  11  12
ATOM     12  C   UNL     1      28.498   9.842  21.991  1.00  0.00     0.041 C 
ATOM     13  O   UNL     1      29.752   9.768  21.885  1.00  0.00    -0.550 OA
ATOM     14  O   UNL     1      27.741   8.679  22.028  1.00  0.00    -0.550 OA
ENDBRANCH  11  12
ENDBRANCH  10  11
ENDBRANCH   9  10
ENDBRANCH   8   9
ENDBRANCH   1   8
TORSDOF 9
ENDMDL
