MODEL 1
REMARK VINA RESULT:    -4.677      0.000      0.000
REMARK INTER + INTRA:          -7.720
REMARK INTER:                  -7.137
REMARK INTRA:                  -0.582
REMARK UNBOUND:                -0.582
REMARK SMILES CCCCCCCCCCC(=O)[O-]
REMARK SMILES IDX 7 1 8 2 9 3 10 4 11 5 12 6 13 7 6 8 5 9 4 10 3 11 2 12 1 13
REMARK H PARENT
REMARK Flexibility Score: inf
ROOT
ATOM      1  C   UNL     1      97.579 123.871 125.980  1.00  0.00     0.000 C 
ENDROOT
BRANCH   1   2
ATOM      2  C   UNL     1      97.263 124.901 124.884  1.00  0.00     0.000 C 
BRANCH   2   3
ATOM      3  C   UNL     1      95.982 124.562 124.104  1.00  0.00     0.006 C 
BRANCH   3   4
ATOM      4  C   UNL     1      95.943 123.100 123.639  1.00  0.00     0.053 C 
BRANCH   4   5
ATOM      5  C   UNL     1      94.529 122.626 123.529  1.00  0.00     0.041 C 
ATOM      6  O   UNL     1      94.085 122.207 122.428  1.00  0.00    -0.550 OA
ATOM      7  O   UNL     1      93.685 122.693 124.630  1.00  0.00    -0.550 OA
ENDBRANCH   4   5
ENDBRANCH   3   4
ENDBRANCH   2   3
ENDBRANCH   1   2
BRANCH   1   8
ATOM      8  C   UNL     1      99.044 123.971 126.421  1.00  0.00     0.000 C 
BRANCH   8   9
ATOM      9  C   UNL     1      99.720 122.595 126.398  1.00  0.00    -0.000 C 
BRANCH   9  10
ATOM     10  C   UNL     1      98.724 121.497 126.002  1.00  0.00    -0.000 C 
BRANCH  10  11
ATOM     11  C   UNL     1      99.383 120.111 126.057  1.00  0.00    -0.000 C 
BRANCH  11  12
ATOM     12  C   UNL     1     100.828 120.165 126.576  1.00  0.00    -0.003 C 
ATOM     13  C   UNL     1     101.860 119.874 125.486  1.00  0.00     0.004 C 
ENDBRANCH  11  12
ENDBRANCH  10  11
ENDBRANCH   9  10
ENDBRANCH   8   9
ENDBRANCH   1   8
TORSDOF 9
ENDMDL
MODEL 2
REMARK VINA RESULT:    -4.601     10.903     13.162
REMARK INTER + INTRA:          -7.604
REMARK INTER:                  -6.983
REMARK INTRA:                  -0.621
REMARK UNBOUND:                -0.582
REMARK SMILES CCCCCCCCCCC(=O)[O-]
REMARK SMILES IDX 7 1 8 2 9 3 10 4 11 5 12 6 13 7 6 8 5 9 4 10 3 11 2 12 1 13
REMARK H PARENT
REMARK Flexibility Score: inf
ROOT
ATOM      1  C   UNL     1      85.672 124.136 130.319  1.00  0.00     0.000 C 
ENDROOT
BRANCH   1   2
ATOM      2  C   UNL     1      86.730 124.520 131.365  1.00  0.00     0.000 C 
BRANCH   2   3
ATOM      3  C   UNL     1      88.070 123.800 131.143  1.00  0.00     0.006 C 
BRANCH   3   4
ATOM      4  C   UNL     1      88.076 122.941 129.872  1.00  0.00     0.053 C 
BRANCH   4   5
ATOM      5  C   UNL     1      88.521 121.548 130.186  1.00  0.00     0.041 C 
ATOM      6  O   UNL     1      88.117 120.580 129.488  1.00  0.00    -0.550 OA
ATOM      7  O   UNL     1      89.342 121.310 131.280  1.00  0.00    -0.550 OA
ENDBRANCH   4   5
ENDBRANCH   3   4
ENDBRANCH   2   3
ENDBRANCH   1   2
BRANCH   1   8
ATOM      8  C   UNL     1      84.976 125.382 129.759  1.00  0.00     0.000 C 
BRANCH   8   9
ATOM      9  C   UNL     1      85.373 125.624 128.298  1.00  0.00    -0.000 C 
BRANCH   9  10
ATOM     10  C   UNL     1      85.315 124.323 127.488  1.00  0.00    -0.000 C 
BRANCH  10  11
ATOM     11  C   UNL     1      83.953 124.165 126.797  1.00  0.00    -0.000 C 
BRANCH  11  12
ATOM     12  C   UNL     1      84.082 123.957 125.280  1.00  0.00    -0.003 C 
ATOM     13  C   UNL     1      84.199 122.482 124.893  1.00  0.00     0.004 C 
ENDBRANCH  11  12
ENDBRANCH  10  11
ENDBRANCH   9  10
ENDBRANCH   8   9
ENDBRANCH   1   8
TORSDOF 9
ENDMDL
MODEL 3
REMARK VINA RESULT:    -4.593     10.988     13.107
REMARK INTER + INTRA:          -7.592
REMARK INTER:                  -7.118
REMARK INTRA:                  -0.474
REMARK UNBOUND:                -0.582
REMARK SMILES CCCCCCCCCCC(=O)[O-]
REMARK SMILES IDX 7 1 8 2 9 3 10 4 11 5 12 6 13 7 6 8 5 9 4 10 3 11 2 12 1 13
REMARK H PARENT
REMARK Flexibility Score: inf
ROOT
ATOM      1  C   UNL     1      86.703 125.268 128.605  1.00  0.00     0.000 C 
ENDROOT
BRANCH   1   2
ATOM      2  C   UNL     1      87.105 123.857 129.059  1.00  0.00     0.000 C 
BRANCH   2   3
ATOM      3  C   UNL     1      87.893 123.862 130.379  1.00  0.00     0.006 C 
BRANCH   3   4
ATOM      4  C   UNL     1      87.708 122.567 131.181  1.00  0.00     0.053 C 
BRANCH   4   5
ATOM      5  C   UNL     1      88.704 121.538 130.747  1.00  0.00     0.041 C 
ATOM      6  O   UNL     1      88.476 120.822 129.737  1.00  0.00    -0.550 OA
ATOM      7  O   UNL     1      89.861 121.335 131.487  1.00  0.00    -0.550 OA
ENDBRANCH   4   5
ENDBRANCH   3   4
ENDBRANCH   2   3
ENDBRANCH   1   2
BRANCH   1   8
ATOM      8  C   UNL     1      85.240 125.301 128.146  1.00  0.00     0.000 C 
BRANCH   8   9
ATOM      9  C   UNL     1      84.749 123.898 127.770  1.00  0.00    -0.000 C 
BRANCH   9  10
ATOM     10  C   UNL     1      83.576 123.970 126.785  1.00  0.00    -0.000 C 
BRANCH  10  11
ATOM     11  C   UNL     1      84.077 124.157 125.345  1.00  0.00    -0.000 C 
BRANCH  11  12
ATOM     12  C   UNL     1      84.716 122.882 124.773  1.00  0.00    -0.003 C 
ATOM     13  C   UNL     1      83.706 121.980 124.064  1.00  0.00     0.004 C 
ENDBRANCH  11  12
ENDBRANCH  10  11
ENDBRANCH   9  10
ENDBRANCH   8   9
ENDBRANCH   1   8
TORSDOF 9
ENDMDL
MODEL 4
REMARK VINA RESULT:    -4.565      3.040      5.897
REMARK INTER + INTRA:          -7.549
REMARK INTER:                  -7.067
REMARK INTRA:                  -0.482
REMARK UNBOUND:                -0.582
REMARK SMILES CCCCCCCCCCC(=O)[O-]
REMARK SMILES IDX 7 1 8 2 9 3 10 4 11 5 12 6 13 7 6 8 5 9 4 10 3 11 2 12 1 13
REMARK H PARENT
REMARK Flexibility Score: inf
ROOT
ATOM      1  C   UNL     1      97.197 124.035 125.893  1.00  0.00     0.000 C 
ENDROOT
BRANCH   1   2
ATOM      2  C   UNL     1      98.645 124.376 126.274  1.00  0.00     0.000 C 
BRANCH   2   3
ATOM      3  C   UNL     1      99.565 123.143 126.266  1.00  0.00     0.006 C 
BRANCH   3   4
ATOM      4  C   UNL     1      98.785 121.825 126.191  1.00  0.00     0.053 C 
BRANCH   4   5
ATOM      5  C   UNL     1      99.722 120.660 126.249  1.00  0.00     0.041 C 
ATOM      6  O   UNL     1      99.883 119.924 125.240  1.00  0.00    -0.550 OA
ATOM      7  O   UNL     1     100.381 120.357 127.433  1.00  0.00    -0.550 OA
ENDBRANCH   4   5
ENDBRANCH   3   4
ENDBRANCH   2   3
ENDBRANCH   1   2
BRANCH   1   8
ATOM      8  C   UNL     1      96.828 124.646 124.536  1.00  0.00     0.000 C 
BRANCH   8   9
ATOM      9  C   UNL     1      96.160 123.608 123.627  1.00  0.00    -0.000 C 
BRANCH   9  10
ATOM     10  C   UNL     1      94.698 123.381 124.031  1.00  0.00    -0.000 C 
BRANCH  10  11
ATOM     11  C   UNL     1      94.132 122.119 123.363  1.00  0.00    -0.000 C 
BRANCH  11  12
ATOM     12  C   UNL     1      93.167 122.444 122.212  1.00  0.00    -0.003 C 
ATOM     13  C   UNL     1      93.608 121.837 120.880  1.00  0.00     0.004 C 
ENDBRANCH  11  12
ENDBRANCH  10  11
ENDBRANCH   9  10
ENDBRANCH   8   9
ENDBRANCH   1   8
TORSDOF 9
ENDMDL
MODEL 5
REMARK VINA RESULT:    -4.488     10.829     13.000
REMARK INTER + INTRA:          -7.432
REMARK INTER:                  -6.199
REMARK INTRA:                  -1.233
REMARK UNBOUND:                -0.582
REMARK SMILES CCCCCCCCCCC(=O)[O-]
REMARK SMILES IDX 7 1 8 2 9 3 10 4 11 5 12 6 13 7 6 8 5 9 4 10 3 11 2 12 1 13
REMARK H PARENT
REMARK Flexibility Score: inf
ROOT
ATOM      1  C   UNL     1      86.714 124.997 128.882  1.00  0.00     0.000 C 
ENDROOT
BRANCH   1   2
ATOM      2  C   UNL     1      86.518 124.726 130.381  1.00  0.00     0.000 C 
BRANCH   2   3
ATOM      3  C   UNL     1      87.509 123.686 130.929  1.00  0.00     0.006 C 
BRANCH   3   4
ATOM      4  C   UNL     1      88.262 122.945 129.817  1.00  0.00     0.053 C 
BRANCH   4   5
ATOM      5  C   UNL     1      88.594 121.552 130.251  1.00  0.00     0.041 C 
ATOM      6  O   UNL     1      89.364 121.358 131.228  1.00  0.00    -0.550 OA
ATOM      7  O   UNL     1      88.092 120.466 129.545  1.00  0.00    -0.550 OA
ENDBRANCH   4   5
ENDBRANCH   3   4
ENDBRANCH   2   3
ENDBRANCH   1   2
BRANCH   1   8
ATOM      8  C   UNL     1      85.512 125.749 128.298  1.00  0.00     0.000 C 
BRANCH   8   9
ATOM      9  C   UNL     1      84.764 124.883 127.278  1.00  0.00    -0.000 C 
BRANCH   9  10
ATOM     10  C   UNL     1      83.811 123.905 127.978  1.00  0.00    -0.000 C 
BRANCH  10  11
ATOM     11  C   UNL     1      84.013 122.473 127.459  1.00  0.00    -0.000 C 
BRANCH  11  12
ATOM     12  C   UNL     1      85.069 121.699 128.264  1.00  0.00    -0.003 C 
ATOM     13  C   UNL     1      84.675 121.509 129.729  1.00  0.00     0.004 C 
ENDBRANCH  11  12
ENDBRANCH  10  11
ENDBRANCH   9  10
ENDBRANCH   8   9
ENDBRANCH   1   8
TORSDOF 9
ENDMDL
MODEL 6
REMARK VINA RESULT:    -4.318     11.423     12.513
REMARK INTER + INTRA:          -7.172
REMARK INTER:                  -5.919
REMARK INTRA:                  -1.253
REMARK UNBOUND:                -0.582
REMARK SMILES CCCCCCCCCCC(=O)[O-]
REMARK SMILES IDX 7 1 8 2 9 3 10 4 11 5 12 6 13 7 6 8 5 9 4 10 3 11 2 12 1 13
REMARK H PARENT
REMARK Flexibility Score: inf
ROOT
ATOM      1  C   UNL     1      87.115 123.416 131.878  1.00  0.00     0.000 C 
ENDROOT
BRANCH   1   2
ATOM      2  C   UNL     1      86.366 124.390 130.956  1.00  0.00     0.000 C 
BRANCH   2   3
ATOM      3  C   UNL     1      87.081 124.604 129.612  1.00  0.00     0.006 C 
BRANCH   3   4
ATOM      4  C   UNL     1      86.312 123.999 128.431  1.00  0.00     0.053 C 
BRANCH   4   5
ATOM      5  C   UNL     1      85.352 124.999 127.868  1.00  0.00     0.041 C 
ATOM      6  O   UNL     1      85.643 126.224 127.862  1.00  0.00    -0.550 OA
ATOM      7  O   UNL     1      84.114 124.585 127.395  1.00  0.00    -0.550 OA
ENDBRANCH   4   5
ENDBRANCH   3   4
ENDBRANCH   2   3
ENDBRANCH   1   2
BRANCH   1   8
ATOM      8  C   UNL     1      88.464 123.014 131.270  1.00  0.00     0.000 C 
BRANCH   8   9
ATOM      9  C   UNL     1      88.599 121.489 131.189  1.00  0.00    -0.000 C 
BRANCH   9  10
ATOM     10  C   UNL     1      87.316 120.796 131.664  1.00  0.00    -0.000 C 
BRANCH  10  11
ATOM     11  C   UNL     1      86.786 119.828 130.596  1.00  0.00    -0.000 C 
BRANCH  11  12
ATOM     12  C   UNL     1      85.870 120.520 129.576  1.00  0.00    -0.003 C 
ATOM     13  C   UNL     1      84.608 121.104 130.213  1.00  0.00     0.004 C 
ENDBRANCH  11  12
ENDBRANCH  10  11
ENDBRANCH   9  10
ENDBRANCH   8   9
ENDBRANCH   1   8
TORSDOF 9
ENDMDL
MODEL 7
REMARK VINA RESULT:    -4.275     11.145     12.156
REMARK INTER + INTRA:          -7.106
REMARK INTER:                  -6.412
REMARK INTRA:                  -0.694
REMARK UNBOUND:                -0.582
REMARK SMILES CCCCCCCCCCC(=O)[O-]
REMARK SMILES IDX 7 1 8 2 9 3 10 4 11 5 12 6 13 7 6 8 5 9 4 10 3 11 2 12 1 13
REMARK H PARENT
REMARK Flexibility Score: inf
ROOT
ATOM      1  C   UNL     1      86.583 124.744 129.211  1.00  0.00     0.000 C 
ENDROOT
BRANCH   1   2
ATOM      2  C   UNL     1      85.733 125.694 128.354  1.00  0.00     0.000 C 
BRANCH   2   3
ATOM      3  C   UNL     1      84.694 124.950 127.499  1.00  0.00     0.006 C 
BRANCH   3   4
ATOM      4  C   UNL     1      85.175 123.561 127.061  1.00  0.00     0.053 C 
BRANCH   4   5
ATOM      5  C   UNL     1      84.737 123.275 125.659  1.00  0.00     0.041 C 
ATOM      6  O   UNL     1      83.652 123.744 125.226  1.00  0.00    -0.550 OA
ATOM      7  O   UNL     1      85.502 122.450 124.846  1.00  0.00    -0.550 OA
ENDBRANCH   4   5
ENDBRANCH   3   4
ENDBRANCH   2   3
ENDBRANCH   1   2
BRANCH   1   8
ATOM      8  C   UNL     1      86.079 124.712 130.658  1.00  0.00     0.000 C 
BRANCH   8   9
ATOM      9  C   UNL     1      87.129 124.100 131.593  1.00  0.00    -0.000 C 
BRANCH   9  10
ATOM     10  C   UNL     1      88.338 123.583 130.802  1.00  0.00    -0.000 C 
BRANCH  10  11
ATOM     11  C   UNL     1      88.615 122.107 131.124  1.00  0.00    -0.000 C 
BRANCH  11  12
ATOM     12  C   UNL     1      87.941 121.150 130.130  1.00  0.00    -0.003 C 
ATOM     13  C   UNL     1      86.812 120.336 130.765  1.00  0.00     0.004 C 
ENDBRANCH  11  12
ENDBRANCH  10  11
ENDBRANCH   9  10
ENDBRANCH   8   9
ENDBRANCH   1   8
TORSDOF 9
ENDMDL
MODEL 8
REMARK VINA RESULT:    -4.258     11.096     12.797
REMARK INTER + INTRA:          -7.080
REMARK INTER:                  -6.400
REMARK INTRA:                  -0.680
REMARK UNBOUND:                -0.582
REMARK SMILES CCCCCCCCCCC(=O)[O-]
REMARK SMILES IDX 7 1 8 2 9 3 10 4 11 5 12 6 13 7 6 8 5 9 4 10 3 11 2 12 1 13
REMARK H PARENT
REMARK Flexibility Score: inf
ROOT
ATOM      1  C   UNL     1      88.239 122.755 130.159  1.00  0.00     0.000 C 
ENDROOT
BRANCH   1   2
ATOM      2  C   UNL     1      88.391 121.669 131.235  1.00  0.00     0.000 C 
BRANCH   2   3
ATOM      3  C   UNL     1      87.293 120.597 131.153  1.00  0.00     0.006 C 
BRANCH   3   4
ATOM      4  C   UNL     1      86.397 120.761 129.918  1.00  0.00     0.053 C 
BRANCH   4   5
ATOM      5  C   UNL     1      86.688 119.688 128.917  1.00  0.00     0.041 C 
ATOM      6  O   UNL     1      87.877 119.364 128.661  1.00  0.00    -0.550 OA
ATOM      7  O   UNL     1      85.646 119.080 128.228  1.00  0.00    -0.550 OA
ENDBRANCH   4   5
ENDBRANCH   3   4
ENDBRANCH   2   3
ENDBRANCH   1   2
BRANCH   1   8
ATOM      8  C   UNL     1      87.889 124.108 130.790  1.00  0.00     0.000 C 
BRANCH   8   9
ATOM      9  C   UNL     1      86.649 124.720 130.129  1.00  0.00    -0.000 C 
BRANCH   9  10
ATOM     10  C   UNL     1      86.585 124.361 128.639  1.00  0.00    -0.000 C 
BRANCH  10  11
ATOM     11  C   UNL     1      85.388 125.044 127.959  1.00  0.00    -0.000 C 
BRANCH  11  12
ATOM     12  C   UNL     1      84.378 124.035 127.391  1.00  0.00    -0.003 C 
ATOM     13  C   UNL     1      84.076 124.269 125.911  1.00  0.00     0.004 C 
ENDBRANCH  11  12
ENDBRANCH  10  11
ENDBRANCH   9  10
ENDBRANCH   8   9
ENDBRANCH   1   8
TORSDOF 9
ENDMDL
MODEL 9
REMARK VINA RESULT:    -4.197     11.229     12.582
REMARK INTER + INTRA:          -6.988
REMARK INTER:                  -5.940
REMARK INTRA:                  -1.047
REMARK UNBOUND:                -0.582
REMARK SMILES CCCCCCCCCCC(=O)[O-]
REMARK SMILES IDX 7 1 8 2 9 3 10 4 11 5 12 6 13 7 6 8 5 9 4 10 3 11 2 12 1 13
REMARK H PARENT
REMARK Flexibility Score: inf
ROOT
ATOM      1  C   UNL     1      86.615 120.373 129.125  1.00  0.00     0.000 C 
ENDROOT
BRANCH   1   2
ATOM      2  C   UNL     1      85.395 121.306 129.098  1.00  0.00     0.000 C 
BRANCH   2   3
ATOM      3  C   UNL     1      85.462 122.336 127.958  1.00  0.00     0.006 C 
BRANCH   3   4
ATOM      4  C   UNL     1      84.300 123.337 127.998  1.00  0.00     0.053 C 
BRANCH   4   5
ATOM      5  C   UNL     1      84.567 124.482 127.072  1.00  0.00     0.041 C 
ATOM      6  O   UNL     1      84.174 124.436 125.877  1.00  0.00    -0.550 OA
ATOM      7  O   UNL     1      85.294 125.579 127.515  1.00  0.00    -0.550 OA
ENDBRANCH   4   5
ENDBRANCH   3   4
ENDBRANCH   2   3
ENDBRANCH   1   2
BRANCH   1   8
ATOM      8  C   UNL     1      86.853 119.822 130.535  1.00  0.00     0.000 C 
BRANCH   8   9
ATOM      9  C   UNL     1      87.274 120.938 131.499  1.00  0.00    -0.000 C 
BRANCH   9  10
ATOM     10  C   UNL     1      88.635 121.525 131.102  1.00  0.00    -0.000 C 
BRANCH  10  11
ATOM     11  C   UNL     1      88.492 122.985 130.646  1.00  0.00    -0.000 C 
BRANCH  11  12
ATOM     12  C   UNL     1      87.522 123.786 131.528  1.00  0.00    -0.003 C 
ATOM     13  C   UNL     1      86.532 124.618 130.713  1.00  0.00     0.004 C 
ENDBRANCH  11  12
ENDBRANCH  10  11
ENDBRANCH   9  10
ENDBRANCH   8   9
ENDBRANCH   1   8
TORSDOF 9
ENDMDL
