MODEL 1
REMARK VINA RESULT:    -4.229      0.000      0.000
REMARK INTER + INTRA:          -9.642
REMARK INTER:                  -7.938
REMARK INTRA:                  -1.704
REMARK UNBOUND:                -1.704
REMARK SMILES O=C([O-])CCCCCCCCCCCCCCC(=O)[O-]
REMARK SMILES IDX 10 1 9 2 8 3 7 4 6 5 5 6 4 7 2 8 1 9 3 10 11 11 12 12 13 13
REMARK SMILES IDX 14 14 15 15 16 16 17 17 18 18 19 19 20 20
REMARK H PARENT
REMARK Flexibility Score: inf
ROOT
ATOM      1  C   UNL     1      10.691  16.516  24.731  1.00  0.00     0.000 C 
ENDROOT
BRANCH   1   2
ATOM      2  C   UNL     1      10.110  17.277  23.530  1.00  0.00     0.000 C 
BRANCH   2   3
ATOM      3  C   UNL     1      11.170  18.097  22.771  1.00  0.00     0.000 C 
BRANCH   3   4
ATOM      4  C   UNL     1      11.124  19.620  23.016  1.00  0.00     0.000 C 
BRANCH   4   5
ATOM      5  C   UNL     1       9.744  20.271  22.807  1.00  0.00     0.000 C 
BRANCH   5   6
ATOM      6  C   UNL     1       9.131  20.801  24.115  1.00  0.00     0.006 C 
BRANCH   6   7
ATOM      7  C   UNL     1      10.201  21.103  25.174  1.00  0.00     0.053 C 
BRANCH   7   8
ATOM      8  C   UNL     1      10.151  20.125  26.307  1.00  0.00     0.041 C 
ATOM      9  O   UNL     1       9.179  19.333  26.419  1.00  0.00    -0.550 OA
ATOM     10  O   UNL     1      11.198  20.062  27.217  1.00  0.00    -0.550 OA
ENDBRANCH   7   8
ENDBRANCH   6   7
ENDBRANCH   5   6
ENDBRANCH   4   5
ENDBRANCH   3   4
ENDBRANCH   2   3
ENDBRANCH   1   2
BRANCH   1  11
ATOM     11  C   UNL     1       9.702  15.455  25.237  1.00  0.00     0.000 C 
BRANCH  11  12
ATOM     12  C   UNL     1       8.539  15.213  24.263  1.00  0.00     0.000 C 
BRANCH  12  13
ATOM     13  C   UNL     1       8.569  13.805  23.643  1.00  0.00     0.000 C 
BRANCH  13  14
ATOM     14  C   UNL     1       9.847  13.029  24.007  1.00  0.00     0.000 C 
BRANCH  14  15
ATOM     15  C   UNL     1      10.899  13.068  22.885  1.00  0.00     0.000 C 
BRANCH  15  16
ATOM     16  C   UNL     1      10.311  13.528  21.541  1.00  0.00     0.006 C 
BRANCH  16  17
ATOM     17  C   UNL     1      10.893  14.866  21.065  1.00  0.00     0.053 C 
BRANCH  17  18
ATOM     18  C   UNL     1      10.289  15.261  19.754  1.00  0.00     0.041 C 
ATOM     19  O   UNL     1       9.101  15.678  19.703  1.00  0.00    -0.550 OA
ATOM     20  O   UNL     1      11.022  15.121  18.582  1.00  0.00    -0.550 OA
ENDBRANCH  17  18
ENDBRANCH  16  17
ENDBRANCH  15  16
ENDBRANCH  14  15
ENDBRANCH  13  14
ENDBRANCH  12  13
ENDBRANCH  11  12
ENDBRANCH   1  11
TORSDOF 15
ENDMDL
MODEL 2
REMARK VINA RESULT:    -3.943      5.419      7.826
REMARK INTER + INTRA:          -9.105
REMARK INTER:                  -8.080
REMARK INTRA:                  -1.024
REMARK UNBOUND:                -1.704
REMARK SMILES O=C([O-])CCCCCCCCCCCCCCC(=O)[O-]
REMARK SMILES IDX 10 1 9 2 8 3 7 4 6 5 5 6 4 7 2 8 1 9 3 10 11 11 12 12 13 13
REMARK SMILES IDX 14 14 15 15 16 16 17 17 18 18 19 19 20 20
REMARK H PARENT
REMARK Flexibility Score: inf
ROOT
ATOM      1  C   UNL     1       8.982  13.277  23.683  1.00  0.00     0.000 C 
ENDROOT
BRANCH   1   2
ATOM      2  C   UNL     1       9.274  14.201  24.874  1.00  0.00     0.000 C 
BRANCH   2   3
ATOM      3  C   UNL     1      10.329  15.277  24.553  1.00  0.00     0.000 C 
BRANCH   3   4
ATOM      4  C   UNL     1       9.772  16.588  23.959  1.00  0.00     0.000 C 
BRANCH   4   5
ATOM      5  C   UNL     1      10.346  16.976  22.584  1.00  0.00     0.000 C 
BRANCH   5   6
ATOM      6  C   UNL     1      10.847  15.762  21.783  1.00  0.00     0.006 C 
BRANCH   6   7
ATOM      7  C   UNL     1       9.794  15.250  20.790  1.00  0.00     0.053 C 
BRANCH   7   8
ATOM      8  C   UNL     1      10.301  14.087  19.993  1.00  0.00     0.041 C 
ATOM      9  O   UNL     1      10.146  12.913  20.419  1.00  0.00    -0.550 OA
ATOM     10  O   UNL     1      10.908  14.299  18.763  1.00  0.00    -0.550 OA
ENDBRANCH   7   8
ENDBRANCH   6   7
ENDBRANCH   5   6
ENDBRANCH   4   5
ENDBRANCH   3   4
ENDBRANCH   2   3
ENDBRANCH   1   2
BRANCH   1  11
ATOM     11  C   UNL     1       8.721  11.839  24.157  1.00  0.00     0.000 C 
BRANCH  11  12
ATOM     12  C   UNL     1       9.361  11.538  25.522  1.00  0.00     0.000 C 
BRANCH  12  13
ATOM     13  C   UNL     1       8.346  10.999  26.545  1.00  0.00     0.000 C 
BRANCH  13  14
ATOM     14  C   UNL     1       8.721  11.360  27.993  1.00  0.00     0.000 C 
BRANCH  14  15
ATOM     15  C   UNL     1       9.001  10.116  28.855  1.00  0.00     0.000 C 
BRANCH  15  16
ATOM     16  C   UNL     1       8.293   8.859  28.324  1.00  0.00     0.006 C 
BRANCH  16  17
ATOM     17  C   UNL     1       8.723   7.580  29.055  1.00  0.00     0.053 C 
BRANCH  17  18
ATOM     18  C   UNL     1       8.203   6.371  28.344  1.00  0.00     0.041 C 
ATOM     19  O   UNL     1       8.100   5.272  28.954  1.00  0.00    -0.550 OA
ATOM     20  O   UNL     1       7.879   6.444  26.996  1.00  0.00    -0.550 OA
ENDBRANCH  17  18
ENDBRANCH  16  17
ENDBRANCH  15  16
ENDBRANCH  14  15
ENDBRANCH  13  14
ENDBRANCH  12  13
ENDBRANCH  11  12
ENDBRANCH   1  11
TORSDOF 15
ENDMDL
MODEL 3
REMARK VINA RESULT:    -3.815     16.161     18.136
REMARK INTER + INTRA:          -8.865
REMARK INTER:                  -6.561
REMARK INTRA:                  -2.304
REMARK UNBOUND:                -1.704
REMARK SMILES O=C([O-])CCCCCCCCCCCCCCC(=O)[O-]
REMARK SMILES IDX 10 1 9 2 8 3 7 4 6 5 5 6 4 7 2 8 1 9 3 10 11 11 12 12 13 13
REMARK SMILES IDX 14 14 15 15 16 16 17 17 18 18 19 19 20 20
REMARK H PARENT
REMARK Flexibility Score: inf
ROOT
ATOM      1  C   UNL     1      23.261   5.378  27.857  1.00  0.00     0.000 C 
ENDROOT
BRANCH   1   2
ATOM      2  C   UNL     1      23.269   6.124  26.515  1.00  0.00     0.000 C 
BRANCH   2   3
ATOM      3  C   UNL     1      23.666   7.605  26.655  1.00  0.00     0.000 C 
BRANCH   3   4
ATOM      4  C   UNL     1      24.936   7.869  27.491  1.00  0.00     0.000 C 
BRANCH   4   5
ATOM      5  C   UNL     1      24.716   8.708  28.764  1.00  0.00     0.000 C 
BRANCH   5   6
ATOM      6  C   UNL     1      23.283   9.255  28.876  1.00  0.00     0.006 C 
BRANCH   6   7
ATOM      7  C   UNL     1      23.260  10.763  29.164  1.00  0.00     0.053 C 
BRANCH   7   8
ATOM      8  C   UNL     1      22.832  11.551  27.963  1.00  0.00     0.041 C 
ATOM      9  O   UNL     1      22.090  11.025  27.093  1.00  0.00    -0.550 OA
ATOM     10  O   UNL     1      23.221  12.876  27.827  1.00  0.00    -0.550 OA
ENDBRANCH   7   8
ENDBRANCH   6   7
ENDBRANCH   5   6
ENDBRANCH   4   5
ENDBRANCH   3   4
ENDBRANCH   2   3
ENDBRANCH   1   2
BRANCH   1  11
ATOM     11  C   UNL     1      24.016   4.044  27.746  1.00  0.00     0.000 C 
BRANCH  11  12
ATOM     12  C   UNL     1      24.866   3.736  28.989  1.00  0.00     0.000 C 
BRANCH  12  13
ATOM     13  C   UNL     1      25.566   4.986  29.550  1.00  0.00     0.000 C 
BRANCH  13  14
ATOM     14  C   UNL     1      25.461   5.083  31.082  1.00  0.00     0.000 C 
BRANCH  14  15
ATOM     15  C   UNL     1      24.735   6.359  31.542  1.00  0.00     0.000 C 
BRANCH  15  16
ATOM     16  C   UNL     1      23.205   6.222  31.478  1.00  0.00     0.006 C 
BRANCH  16  17
ATOM     17  C   UNL     1      22.718   4.814  31.844  1.00  0.00     0.053 C 
BRANCH  17  18
ATOM     18  C   UNL     1      21.576   4.410  30.965  1.00  0.00     0.041 C 
ATOM     19  O   UNL     1      20.639   5.220  30.732  1.00  0.00    -0.550 OA
ATOM     20  O   UNL     1      21.522   3.124  30.445  1.00  0.00    -0.550 OA
ENDBRANCH  17  18
ENDBRANCH  16  17
ENDBRANCH  15  16
ENDBRANCH  14  15
ENDBRANCH  13  14
ENDBRANCH  12  13
ENDBRANCH  11  12
ENDBRANCH   1  11
TORSDOF 15
ENDMDL
MODEL 4
REMARK VINA RESULT:    -3.814     17.280     19.720
REMARK INTER + INTRA:          -8.862
REMARK INTER:                  -6.864
REMARK INTRA:                  -1.998
REMARK UNBOUND:                -1.704
REMARK SMILES O=C([O-])CCCCCCCCCCCCCCC(=O)[O-]
REMARK SMILES IDX 10 1 9 2 8 3 7 4 6 5 5 6 4 7 2 8 1 9 3 10 11 11 12 12 13 13
REMARK SMILES IDX 14 14 15 15 16 16 17 17 18 18 19 19 20 20
REMARK H PARENT
REMARK Flexibility Score: inf
ROOT
ATOM      1  C   UNL     1      24.416   3.282  28.156  1.00  0.00     0.000 C 
ENDROOT
BRANCH   1   2
ATOM      2  C   UNL     1      25.781   3.555  28.804  1.00  0.00     0.000 C 
BRANCH   2   3
ATOM      3  C   UNL     1      25.933   5.007  29.293  1.00  0.00     0.000 C 
BRANCH   3   4
ATOM      4  C   UNL     1      24.694   5.595  30.001  1.00  0.00     0.000 C 
BRANCH   4   5
ATOM      5  C   UNL     1      23.989   6.735  29.242  1.00  0.00     0.000 C 
BRANCH   5   6
ATOM      6  C   UNL     1      24.815   7.260  28.055  1.00  0.00     0.006 C 
BRANCH   6   7
ATOM      7  C   UNL     1      23.927   7.815  26.934  1.00  0.00     0.053 C 
BRANCH   7   8
ATOM      8  C   UNL     1      23.373   6.722  26.072  1.00  0.00     0.041 C 
ATOM      9  O   UNL     1      22.169   6.373  26.189  1.00  0.00    -0.550 OA
ATOM     10  O   UNL     1      24.175   6.118  25.114  1.00  0.00    -0.550 OA
ENDBRANCH   7   8
ENDBRANCH   6   7
ENDBRANCH   5   6
ENDBRANCH   4   5
ENDBRANCH   3   4
ENDBRANCH   2   3
ENDBRANCH   1   2
BRANCH   1  11
ATOM     11  C   UNL     1      23.771   2.021  28.749  1.00  0.00     0.000 C 
BRANCH  11  12
ATOM     12  C   UNL     1      24.758   1.179  29.573  1.00  0.00     0.000 C 
BRANCH  12  13
ATOM     13  C   UNL     1      24.388   1.127  31.066  1.00  0.00     0.000 C 
BRANCH  13  14
ATOM     14  C   UNL     1      23.120   1.937  31.387  1.00  0.00     0.000 C 
BRANCH  14  15
ATOM     15  C   UNL     1      23.420   3.186  32.235  1.00  0.00     0.000 C 
BRANCH  15  16
ATOM     16  C   UNL     1      22.165   4.033  32.502  1.00  0.00     0.006 C 
BRANCH  16  17
ATOM     17  C   UNL     1      21.428   4.425  31.214  1.00  0.00     0.053 C 
BRANCH  17  18
ATOM     18  C   UNL     1      19.966   4.600  31.481  1.00  0.00     0.041 C 
ATOM     19  O   UNL     1      19.142   4.596  30.526  1.00  0.00    -0.550 OA
ATOM     20  O   UNL     1      19.518   4.818  32.778  1.00  0.00    -0.550 OA
ENDBRANCH  17  18
ENDBRANCH  16  17
ENDBRANCH  15  16
ENDBRANCH  14  15
ENDBRANCH  13  14
ENDBRANCH  12  13
ENDBRANCH  11  12
ENDBRANCH   1  11
TORSDOF 15
ENDMDL
MODEL 5
REMARK VINA RESULT:    -3.797      4.261      7.302
REMARK INTER + INTRA:          -8.830
REMARK INTER:                  -7.710
REMARK INTRA:                  -1.120
REMARK UNBOUND:                -1.704
REMARK SMILES O=C([O-])CCCCCCCCCCCCCCC(=O)[O-]
REMARK SMILES IDX 10 1 9 2 8 3 7 4 6 5 5 6 4 7 2 8 1 9 3 10 11 11 12 12 13 13
REMARK SMILES IDX 14 14 15 15 16 16 17 17 18 18 19 19 20 20
REMARK H PARENT
REMARK Flexibility Score: inf
ROOT
ATOM      1  C   UNL     1       8.633  14.127  25.072  1.00  0.00     0.000 C 
ENDROOT
BRANCH   1   2
ATOM      2  C   UNL     1       8.946  13.797  23.605  1.00  0.00     0.000 C 
BRANCH   2   3
ATOM      3  C   UNL     1       9.875  12.578  23.451  1.00  0.00     0.000 C 
BRANCH   3   4
ATOM      4  C   UNL     1       9.303  11.244  23.974  1.00  0.00     0.000 C 
BRANCH   4   5
ATOM      5  C   UNL     1       9.780  10.837  25.380  1.00  0.00     0.000 C 
BRANCH   5   6
ATOM      6  C   UNL     1       8.673  10.170  26.215  1.00  0.00     0.006 C 
BRANCH   6   7
ATOM      7  C   UNL     1       8.472   8.696  25.835  1.00  0.00     0.053 C 
BRANCH   7   8
ATOM      8  C   UNL     1       8.642   7.791  27.016  1.00  0.00     0.041 C 
ATOM      9  O   UNL     1       9.333   8.159  28.002  1.00  0.00    -0.550 OA
ATOM     10  O   UNL     1       8.005   6.557  27.045  1.00  0.00    -0.550 OA
ENDBRANCH   7   8
ENDBRANCH   6   7
ENDBRANCH   5   6
ENDBRANCH   4   5
ENDBRANCH   3   4
ENDBRANCH   2   3
ENDBRANCH   1   2
BRANCH   1  11
ATOM     11  C   UNL     1       8.639  15.646  25.304  1.00  0.00     0.000 C 
BRANCH  11  12
ATOM     12  C   UNL     1       9.939  16.315  24.832  1.00  0.00     0.000 C 
BRANCH  12  13
ATOM     13  C   UNL     1       9.833  17.849  24.788  1.00  0.00     0.000 C 
BRANCH  13  14
ATOM     14  C   UNL     1      10.426  18.444  23.499  1.00  0.00     0.000 C 
BRANCH  14  15
ATOM     15  C   UNL     1       9.965  17.691  22.238  1.00  0.00     0.000 C 
BRANCH  15  16
ATOM     16  C   UNL     1      11.135  17.044  21.477  1.00  0.00     0.006 C 
BRANCH  16  17
ATOM     17  C   UNL     1      10.930  15.542  21.238  1.00  0.00     0.053 C 
BRANCH  17  18
ATOM     18  C   UNL     1      10.287  15.308  19.908  1.00  0.00     0.041 C 
ATOM     19  O   UNL     1       9.051  15.510  19.757  1.00  0.00    -0.550 OA
ATOM     20  O   UNL     1      11.040  14.818  18.849  1.00  0.00    -0.550 OA
ENDBRANCH  17  18
ENDBRANCH  16  17
ENDBRANCH  15  16
ENDBRANCH  14  15
ENDBRANCH  13  14
ENDBRANCH  12  13
ENDBRANCH  11  12
ENDBRANCH   1  11
TORSDOF 15
ENDMDL
MODEL 6
REMARK VINA RESULT:    -3.792     12.098     13.839
REMARK INTER + INTRA:          -8.822
REMARK INTER:                  -7.432
REMARK INTRA:                  -1.390
REMARK UNBOUND:                -1.704
REMARK SMILES O=C([O-])CCCCCCCCCCCCCCC(=O)[O-]
REMARK SMILES IDX 10 1 9 2 8 3 7 4 6 5 5 6 4 7 2 8 1 9 3 10 11 11 12 12 13 13
REMARK SMILES IDX 14 14 15 15 16 16 17 17 18 18 19 19 20 20
REMARK H PARENT
REMARK Flexibility Score: inf
ROOT
ATOM      1  C   UNL     1      23.631  16.406  28.508  1.00  0.00     0.000 C 
ENDROOT
BRANCH   1   2
ATOM      2  C   UNL     1      25.164  16.437  28.426  1.00  0.00     0.000 C 
BRANCH   2   3
ATOM      3  C   UNL     1      25.707  17.765  27.863  1.00  0.00     0.000 C 
BRANCH   3   4
ATOM      4  C   UNL     1      26.766  17.623  26.750  1.00  0.00     0.000 C 
BRANCH   4   5
ATOM      5  C   UNL     1      26.724  18.718  25.668  1.00  0.00     0.000 C 
BRANCH   5   6
ATOM      6  C   UNL     1      25.294  19.045  25.206  1.00  0.00     0.006 C 
BRANCH   6   7
ATOM      7  C   UNL     1      25.276  19.776  23.856  1.00  0.00     0.053 C 
BRANCH   7   8
ATOM      8  C   UNL     1      23.933  19.692  23.198  1.00  0.00     0.041 C 
ATOM      9  O   UNL     1      23.475  18.577  22.835  1.00  0.00    -0.550 OA
ATOM     10  O   UNL     1      23.172  20.839  23.021  1.00  0.00    -0.550 OA
ENDBRANCH   7   8
ENDBRANCH   6   7
ENDBRANCH   5   6
ENDBRANCH   4   5
ENDBRANCH   3   4
ENDBRANCH   2   3
ENDBRANCH   1   2
BRANCH   1  11
ATOM     11  C   UNL     1      23.026  17.697  27.937  1.00  0.00     0.000 C 
BRANCH  11  12
ATOM     12  C   UNL     1      21.761  17.442  27.102  1.00  0.00     0.000 C 
BRANCH  12  13
ATOM     13  C   UNL     1      21.650  18.388  25.894  1.00  0.00     0.000 C 
BRANCH  13  14
ATOM     14  C   UNL     1      20.827  19.650  26.207  1.00  0.00     0.000 C 
BRANCH  14  15
ATOM     15  C   UNL     1      19.911  19.466  27.430  1.00  0.00     0.000 C 
BRANCH  15  16
ATOM     16  C   UNL     1      18.444  19.227  27.037  1.00  0.00     0.006 C 
BRANCH  16  17
ATOM     17  C   UNL     1      17.971  17.799  27.342  1.00  0.00     0.053 C 
BRANCH  17  18
ATOM     18  C   UNL     1      16.874  17.818  28.359  1.00  0.00     0.041 C 
ATOM     19  O   UNL     1      15.746  18.300  28.066  1.00  0.00    -0.550 OA
ATOM     20  O   UNL     1      17.111  17.350  29.644  1.00  0.00    -0.550 OA
ENDBRANCH  17  18
ENDBRANCH  16  17
ENDBRANCH  15  16
ENDBRANCH  14  15
ENDBRANCH  13  14
ENDBRANCH  12  13
ENDBRANCH  11  12
ENDBRANCH   1  11
TORSDOF 15
ENDMDL
MODEL 7
REMARK VINA RESULT:    -3.786      1.877      2.644
REMARK INTER + INTRA:          -8.810
REMARK INTER:                  -7.286
REMARK INTRA:                  -1.525
REMARK UNBOUND:                -1.704
REMARK SMILES O=C([O-])CCCCCCCCCCCCCCC(=O)[O-]
REMARK SMILES IDX 10 1 9 2 8 3 7 4 6 5 5 6 4 7 2 8 1 9 3 10 11 11 12 12 13 13
REMARK SMILES IDX 14 14 15 15 16 16 17 17 18 18 19 19 20 20
REMARK H PARENT
REMARK Flexibility Score: inf
ROOT
ATOM      1  C   UNL     1       9.483  16.758  26.077  1.00  0.00     0.000 C 
ENDROOT
BRANCH   1   2
ATOM      2  C   UNL     1       8.582  17.823  25.436  1.00  0.00     0.000 C 
BRANCH   2   3
ATOM      3  C   UNL     1       8.798  19.228  26.032  1.00  0.00     0.000 C 
BRANCH   3   4
ATOM      4  C   UNL     1      10.036  19.982  25.503  1.00  0.00     0.000 C 
BRANCH   4   5
ATOM      5  C   UNL     1       9.743  21.032  24.415  1.00  0.00     0.000 C 
BRANCH   5   6
ATOM      6  C   UNL     1       9.993  20.502  22.993  1.00  0.00     0.006 C 
BRANCH   6   7
ATOM      7  C   UNL     1      11.114  19.454  22.955  1.00  0.00     0.053 C 
BRANCH   7   8
ATOM      8  C   UNL     1      10.608  18.116  22.511  1.00  0.00     0.041 C 
ATOM      9  O   UNL     1      11.167  17.062  22.914  1.00  0.00    -0.550 OA
ATOM     10  O   UNL     1       9.496  18.033  21.685  1.00  0.00    -0.550 OA
ENDBRANCH   7   8
ENDBRANCH   6   7
ENDBRANCH   5   6
ENDBRANCH   4   5
ENDBRANCH   3   4
ENDBRANCH   2   3
ENDBRANCH   1   2
BRANCH   1  11
ATOM     11  C   UNL     1       8.804  15.380  26.052  1.00  0.00     0.000 C 
BRANCH  11  12
ATOM     12  C   UNL     1       8.963  14.664  24.701  1.00  0.00     0.000 C 
BRANCH  12  13
ATOM     13  C   UNL     1       9.012  13.133  24.846  1.00  0.00     0.000 C 
BRANCH  13  14
ATOM     14  C   UNL     1      10.163  12.502  24.043  1.00  0.00     0.000 C 
BRANCH  14  15
ATOM     15  C   UNL     1      10.755  13.470  23.004  1.00  0.00     0.000 C 
BRANCH  15  16
ATOM     16  C   UNL     1      10.180  13.247  21.596  1.00  0.00     0.006 C 
BRANCH  16  17
ATOM     17  C   UNL     1       9.832  14.560  20.881  1.00  0.00     0.053 C 
BRANCH  17  18
ATOM     18  C   UNL     1      10.811  14.832  19.782  1.00  0.00     0.041 C 
ATOM     19  O   UNL     1      11.473  15.905  19.773  1.00  0.00    -0.550 OA
ATOM     20  O   UNL     1      10.954  13.924  18.741  1.00  0.00    -0.550 OA
ENDBRANCH  17  18
ENDBRANCH  16  17
ENDBRANCH  15  16
ENDBRANCH  14  15
ENDBRANCH  13  14
ENDBRANCH  12  13
ENDBRANCH  11  12
ENDBRANCH   1  11
TORSDOF 15
ENDMDL
MODEL 8
REMARK VINA RESULT:    -3.785     15.721     18.160
REMARK INTER + INTRA:          -8.808
REMARK INTER:                  -6.911
REMARK INTRA:                  -1.897
REMARK UNBOUND:                -1.704
REMARK SMILES O=C([O-])CCCCCCCCCCCCCCC(=O)[O-]
REMARK SMILES IDX 10 1 9 2 8 3 7 4 6 5 5 6 4 7 2 8 1 9 3 10 11 11 12 12 13 13
REMARK SMILES IDX 14 14 15 15 16 16 17 17 18 18 19 19 20 20
REMARK H PARENT
REMARK Flexibility Score: inf
ROOT
ATOM      1  C   UNL     1      22.913   5.750  27.187  1.00  0.00     0.000 C 
ENDROOT
BRANCH   1   2
ATOM      2  C   UNL     1      23.701   4.563  27.759  1.00  0.00     0.000 C 
BRANCH   2   3
ATOM      3  C   UNL     1      23.251   4.176  29.181  1.00  0.00     0.000 C 
BRANCH   3   4
ATOM      4  C   UNL     1      23.740   5.115  30.304  1.00  0.00     0.000 C 
BRANCH   4   5
ATOM      5  C   UNL     1      22.667   5.511  31.335  1.00  0.00     0.000 C 
BRANCH   5   6
ATOM      6  C   UNL     1      21.274   5.691  30.706  1.00  0.00     0.006 C 
BRANCH   6   7
ATOM      7  C   UNL     1      20.273   4.643  31.211  1.00  0.00     0.053 C 
BRANCH   7   8
ATOM      8  C   UNL     1      20.318   4.504  32.702  1.00  0.00     0.041 C 
ATOM      9  O   UNL     1      19.813   5.393  33.436  1.00  0.00    -0.550 OA
ATOM     10  O   UNL     1      20.883   3.375  33.278  1.00  0.00    -0.550 OA
ENDBRANCH   7   8
ENDBRANCH   6   7
ENDBRANCH   5   6
ENDBRANCH   4   5
ENDBRANCH   3   4
ENDBRANCH   2   3
ENDBRANCH   1   2
BRANCH   1  11
ATOM     11  C   UNL     1      23.839   6.696  26.407  1.00  0.00     0.000 C 
BRANCH  11  12
ATOM     12  C   UNL     1      24.107   8.014  27.152  1.00  0.00     0.000 C 
BRANCH  12  13
ATOM     13  C   UNL     1      25.178   7.866  28.247  1.00  0.00     0.000 C 
BRANCH  13  14
ATOM     14  C   UNL     1      24.857   8.698  29.501  1.00  0.00     0.000 C 
BRANCH  14  15
ATOM     15  C   UNL     1      23.356   9.012  29.630  1.00  0.00     0.000 C 
BRANCH  15  16
ATOM     16  C   UNL     1      23.084  10.508  29.853  1.00  0.00     0.006 C 
BRANCH  16  17
ATOM     17  C   UNL     1      22.870  11.276  28.541  1.00  0.00     0.053 C 
BRANCH  17  18
ATOM     18  C   UNL     1      23.832  12.417  28.441  1.00  0.00     0.041 C 
ATOM     19  O   UNL     1      25.044  12.253  28.745  1.00  0.00    -0.550 OA
ATOM     20  O   UNL     1      23.381  13.674  28.060  1.00  0.00    -0.550 OA
ENDBRANCH  17  18
ENDBRANCH  16  17
ENDBRANCH  15  16
ENDBRANCH  14  15
ENDBRANCH  13  14
ENDBRANCH  12  13
ENDBRANCH  11  12
ENDBRANCH   1  11
TORSDOF 15
ENDMDL
MODEL 9
REMARK VINA RESULT:    -3.742      1.004      7.275
REMARK INTER + INTRA:          -8.728
REMARK INTER:                  -7.143
REMARK INTRA:                  -1.585
REMARK UNBOUND:                -1.704
REMARK SMILES O=C([O-])CCCCCCCCCCCCCCC(=O)[O-]
REMARK SMILES IDX 10 1 9 2 8 3 7 4 6 5 5 6 4 7 2 8 1 9 3 10 11 11 12 12 13 13
REMARK SMILES IDX 14 14 15 15 16 16 17 17 18 18 19 19 20 20
REMARK H PARENT
REMARK Flexibility Score: inf
ROOT
ATOM      1  C   UNL     1      11.063  16.798  23.755  1.00  0.00     0.000 C 
ENDROOT
BRANCH   1   2
ATOM      2  C   UNL     1      10.001  16.598  24.846  1.00  0.00     0.000 C 
BRANCH   2   3
ATOM      3  C   UNL     1       9.233  15.271  24.698  1.00  0.00     0.000 C 
BRANCH   3   4
ATOM      4  C   UNL     1      10.021  14.126  24.028  1.00  0.00     0.000 C 
BRANCH   4   5
ATOM      5  C   UNL     1       9.516  13.716  22.633  1.00  0.00     0.000 C 
BRANCH   5   6
ATOM      6  C   UNL     1      10.658  13.495  21.626  1.00  0.00     0.006 C 
BRANCH   6   7
ATOM      7  C   UNL     1      10.158  13.493  20.175  1.00  0.00     0.053 C 
BRANCH   7   8
ATOM      8  C   UNL     1      10.138  14.873  19.593  1.00  0.00     0.041 C 
ATOM      9  O   UNL     1      11.006  15.215  18.747  1.00  0.00    -0.550 OA
ATOM     10  O   UNL     1       9.139  15.766  19.955  1.00  0.00    -0.550 OA
ENDBRANCH   7   8
ENDBRANCH   6   7
ENDBRANCH   5   6
ENDBRANCH   4   5
ENDBRANCH   3   4
ENDBRANCH   2   3
ENDBRANCH   1   2
BRANCH   1  11
ATOM     11  C   UNL     1      10.549  17.743  22.658  1.00  0.00     0.000 C 
BRANCH  11  12
ATOM     12  C   UNL     1      10.969  19.204  22.886  1.00  0.00     0.000 C 
BRANCH  12  13
ATOM     13  C   UNL     1       9.822  20.196  22.630  1.00  0.00     0.000 C 
BRANCH  13  14
ATOM     14  C   UNL     1       8.489  19.727  23.240  1.00  0.00     0.000 C 
BRANCH  14  15
ATOM     15  C   UNL     1       8.087  20.550  24.476  1.00  0.00     0.000 C 
BRANCH  15  16
ATOM     16  C   UNL     1       8.584  19.922  25.789  1.00  0.00     0.006 C 
BRANCH  16  17
ATOM     17  C   UNL     1       9.894  20.547  26.288  1.00  0.00     0.053 C 
BRANCH  17  18
ATOM     18  C   UNL     1      10.436  19.770  27.446  1.00  0.00     0.041 C 
ATOM     19  O   UNL     1      11.653  19.866  27.760  1.00  0.00    -0.550 OA
ATOM     20  O   UNL     1       9.609  18.900  28.146  1.00  0.00    -0.550 OA
ENDBRANCH  17  18
ENDBRANCH  16  17
ENDBRANCH  15  16
ENDBRANCH  14  15
ENDBRANCH  13  14
ENDBRANCH  12  13
ENDBRANCH  11  12
ENDBRANCH   1  11
TORSDOF 15
ENDMDL
