MODEL 1
REMARK VINA RESULT:     0.071      0.000      0.000
REMARK INTER + INTRA:           0.395
REMARK INTER:                   0.096
REMARK INTRA:                   0.299
REMARK UNBOUND:                 0.299
REMARK SMILES CCCCCCC=CC(=O)[O-]
REMARK SMILES IDX 5 1 6 2 7 3 8 4 9 5 10 6 11 7 4 8 3 9 2 10 1 11
REMARK H PARENT
REMARK Flexibility Score: inf
ROOT
ATOM      1  C   UNL     1     -19.775   6.266  -2.997  1.00  0.00     0.004 C 
ENDROOT
BRANCH   1   2
ATOM      2  C   UNL     1     -21.225   6.304  -3.515  1.00  0.00     0.027 C 
BRANCH   2   3
ATOM      3  C   UNL     1     -22.094   5.250  -2.879  1.00  0.00    -0.025 C 
ATOM      4  C   UNL     1     -21.895   3.922  -2.934  1.00  0.00     0.020 C 
BRANCH   4   5
ATOM      5  C   UNL     1     -20.825   3.221  -3.670  1.00  0.00     0.064 C 
ATOM      6  O   UNL     1     -19.716   2.947  -3.141  1.00  0.00    -0.545 OA
ATOM      7  O   UNL     1     -21.036   2.881  -5.000  1.00  0.00    -0.545 OA
ENDBRANCH   4   5
ENDBRANCH   2   3
ENDBRANCH   1   2
BRANCH   1   8
ATOM      8  C   UNL     1     -18.981   7.567  -3.234  1.00  0.00     0.000 C 
BRANCH   8   9
ATOM      9  C   UNL     1     -17.476   7.376  -3.512  1.00  0.00    -0.000 C 
BRANCH   9  10
ATOM     10  C   UNL     1     -16.858   6.111  -2.894  1.00  0.00    -0.003 C 
ATOM     11  C   UNL     1     -17.055   4.867  -3.760  1.00  0.00     0.004 C 
ENDBRANCH   9  10
ENDBRANCH   8   9
ENDBRANCH   1   8
TORSDOF 6
ENDMDL
MODEL 2
REMARK VINA RESULT:     1.307     16.651     17.933
REMARK INTER + INTRA:           2.065
REMARK INTER:                   2.509
REMARK INTRA:                  -0.445
REMARK UNBOUND:                 0.299
REMARK SMILES CCCCCCC=CC(=O)[O-]
REMARK SMILES IDX 5 1 6 2 7 3 8 4 9 5 10 6 11 7 4 8 3 9 2 10 1 11
REMARK H PARENT
REMARK Flexibility Score: inf
ROOT
ATOM      1  C   UNL     1     -12.726  18.107  -9.379  1.00  0.00     0.004 C 
ENDROOT
BRANCH   1   2
ATOM      2  C   UNL     1     -12.713  18.095 -10.919  1.00  0.00     0.027 C 
BRANCH   2   3
ATOM      3  C   UNL     1     -13.267  19.365 -11.513  1.00  0.00    -0.025 C 
ATOM      4  C   UNL     1     -13.051  19.813 -12.761  1.00  0.00     0.020 C 
BRANCH   4   5
ATOM      5  C   UNL     1     -12.187  19.192 -13.785  1.00  0.00     0.064 C 
ATOM      6  O   UNL     1     -10.931  19.225 -13.710  1.00  0.00    -0.545 OA
ATOM      7  O   UNL     1     -12.780  18.581 -14.881  1.00  0.00    -0.545 OA
ENDBRANCH   4   5
ENDBRANCH   2   3
ENDBRANCH   1   2
BRANCH   1   8
ATOM      8  C   UNL     1     -13.481  19.302  -8.760  1.00  0.00     0.000 C 
BRANCH   8   9
ATOM      9  C   UNL     1     -13.145  19.598  -7.284  1.00  0.00    -0.000 C 
BRANCH   9  10
ATOM     10  C   UNL     1     -12.456  20.950  -7.035  1.00  0.00    -0.003 C 
ATOM     11  C   UNL     1     -11.829  21.541  -8.297  1.00  0.00     0.004 C 
ENDBRANCH   9  10
ENDBRANCH   8   9
ENDBRANCH   1   8
TORSDOF 6
ENDMDL
MODEL 3
REMARK VINA RESULT:     1.855     16.481     17.907
REMARK INTER + INTRA:           2.804
REMARK INTER:                   2.973
REMARK INTRA:                  -0.168
REMARK UNBOUND:                 0.299
REMARK SMILES CCCCCCC=CC(=O)[O-]
REMARK SMILES IDX 5 1 6 2 7 3 8 4 9 5 10 6 11 7 4 8 3 9 2 10 1 11
REMARK H PARENT
REMARK Flexibility Score: inf
ROOT
ATOM      1  C   UNL     1     -12.793  17.870 -10.361  1.00  0.00     0.004 C 
ENDROOT
BRANCH   1   2
ATOM      2  C   UNL     1     -12.405  18.158  -8.899  1.00  0.00     0.027 C 
BRANCH   2   3
ATOM      3  C   UNL     1     -13.532  18.777  -8.112  1.00  0.00    -0.025 C 
ATOM      4  C   UNL     1     -13.524  19.995  -7.545  1.00  0.00     0.020 C 
BRANCH   4   5
ATOM      5  C   UNL     1     -12.399  20.951  -7.524  1.00  0.00     0.064 C 
ATOM      6  O   UNL     1     -11.740  21.233  -8.558  1.00  0.00    -0.545 OA
ATOM      7  O   UNL     1     -12.036  21.533  -6.316  1.00  0.00    -0.545 OA
ENDBRANCH   4   5
ENDBRANCH   2   3
ENDBRANCH   1   2
BRANCH   1   8
ATOM      8  C   UNL     1     -13.136  19.127 -11.187  1.00  0.00     0.000 C 
BRANCH   8   9
ATOM      9  C   UNL     1     -13.014  18.963 -12.715  1.00  0.00    -0.000 C 
BRANCH   9  10
ATOM     10  C   UNL     1     -11.896  19.793 -13.368  1.00  0.00    -0.003 C 
ATOM     11  C   UNL     1     -11.503  19.278 -14.753  1.00  0.00     0.004 C 
ENDBRANCH   9  10
ENDBRANCH   8   9
ENDBRANCH   1   8
TORSDOF 6
ENDMDL
MODEL 4
REMARK VINA RESULT:     2.774     20.150     21.814
REMARK INTER + INTRA:           4.047
REMARK INTER:                   3.673
REMARK INTRA:                   0.374
REMARK UNBOUND:                 0.299
REMARK SMILES CCCCCCC=CC(=O)[O-]
REMARK SMILES IDX 5 1 6 2 7 3 8 4 9 5 10 6 11 7 4 8 3 9 2 10 1 11
REMARK H PARENT
REMARK Flexibility Score: inf
ROOT
ATOM      1  C   UNL     1      -7.037   2.908 -20.939  1.00  0.00     0.004 C 
ENDROOT
BRANCH   1   2
ATOM      2  C   UNL     1      -6.728   3.053 -22.440  1.00  0.00     0.027 C 
BRANCH   2   3
ATOM      3  C   UNL     1      -6.616   4.492 -22.872  1.00  0.00    -0.025 C 
ATOM      4  C   UNL     1      -7.641   5.324 -23.125  1.00  0.00     0.020 C 
BRANCH   4   5
ATOM      5  C   UNL     1      -9.078   4.989 -23.089  1.00  0.00     0.064 C 
ATOM      6  O   UNL     1      -9.488   3.799 -23.087  1.00  0.00    -0.545 OA
ATOM      7  O   UNL     1     -10.008   6.020 -23.090  1.00  0.00    -0.545 OA
ENDBRANCH   4   5
ENDBRANCH   2   3
ENDBRANCH   1   2
BRANCH   1   8
ATOM      8  C   UNL     1      -6.923   4.222 -20.138  1.00  0.00     0.000 C 
BRANCH   8   9
ATOM      9  C   UNL     1      -8.266   4.859 -19.727  1.00  0.00    -0.000 C 
BRANCH   9  10
ATOM     10  C   UNL     1      -8.177   5.868 -18.570  1.00  0.00    -0.003 C 
ATOM     11  C   UNL     1      -6.768   5.989 -17.992  1.00  0.00     0.004 C 
ENDBRANCH   9  10
ENDBRANCH   8   9
ENDBRANCH   1   8
TORSDOF 6
ENDMDL
