MODEL 1
REMARK VINA RESULT:    -5.194      0.000      0.000
REMARK INTER + INTRA:          -6.388
REMARK INTER:                  -6.105
REMARK INTRA:                  -0.283
REMARK UNBOUND:                -0.283
REMARK SMILES O=c1c(O)c(-c2ccc(O)cc2)oc2cc(O)cc(O)c12
REMARK SMILES IDX 5 1 3 2 2 3 1 4 21 5 19 6 18 7 16 8 15 9 14 10 13 11 6 12
REMARK SMILES IDX 7 13 8 14 9 15 12 16 11 17 10 18 4 20 20 22 17 24
REMARK H PARENT 10 19 4 21 20 23 17 25
REMARK Flexibility Score: inf
ROOT
ATOM      1  C   UNL     1      93.455  99.561  77.606  1.00  0.00     0.180 A 
ATOM      2  C   UNL     1      94.635  99.350  76.872  1.00  0.00     0.208 A 
ATOM      3  C   UNL     1      95.815  99.022  77.559  1.00  0.00     0.238 A 
ATOM      4  O   UNL     1      96.884  98.909  76.902  1.00  0.00    -0.285 OA
ATOM      5  C   UNL     1      95.789  98.854  78.965  1.00  0.00     0.111 A 
ATOM      6  C   UNL     1      96.916  98.478  79.759  1.00  0.00     0.134 A 
ATOM      7  C   UNL     1      96.796  98.446  81.154  1.00  0.00     0.093 A 
ATOM      8  C   UNL     1      95.579  98.712  81.780  1.00  0.00     0.123 A 
ATOM      9  C   UNL     1      94.459  99.026  81.010  1.00  0.00     0.094 A 
ATOM     10  C   UNL     1      94.555  99.104  79.619  1.00  0.00     0.146 A 
ATOM     11  O   UNL     1      93.469  99.428  78.926  1.00  0.00    -0.452 OA
ENDROOT
BRANCH   1  12
ATOM     12  C   UNL     1      92.176  99.923  76.955  1.00  0.00     0.021 A 
ATOM     13  C   UNL     1      91.888 101.251  76.591  1.00  0.00     0.016 A 
ATOM     14  C   UNL     1      90.662 101.573  76.000  1.00  0.00     0.047 A 
ATOM     15  C   UNL     1      89.705 100.574  75.777  1.00  0.00     0.115 A 
ATOM     16  C   UNL     1      91.202  98.933  76.747  1.00  0.00     0.016 A 
ATOM     17  C   UNL     1      89.978  99.257  76.155  1.00  0.00     0.047 A 
BRANCH  15  18
ATOM     18  O   UNL     1      88.482 100.883  75.188  1.00  0.00    -0.508 OA
ATOM     19  H   UNL     1      87.801 101.471  75.655  1.00  0.00     0.293 HD
ENDBRANCH  15  18
ENDBRANCH   1  12
BRANCH   2  20
ATOM     20  O   UNL     1      94.623  99.445  75.478  1.00  0.00    -0.502 OA
ATOM     21  H   UNL     1      95.362  99.062  74.899  1.00  0.00     0.293 HD
ENDBRANCH   2  20
BRANCH   6  22
ATOM     22  O   UNL     1      98.156  98.106  79.233  1.00  0.00    -0.507 OA
ATOM     23  H   UNL     1      98.559  98.478  78.387  1.00  0.00     0.293 HD
ENDBRANCH   6  22
BRANCH   8  24
ATOM     24  O   UNL     1      95.494  98.653  83.169  1.00  0.00    -0.508 OA
ATOM     25  H   UNL     1      95.443  97.768  83.661  1.00  0.00     0.293 HD
ENDBRANCH   8  24
TORSDOF 5
ENDMDL
MODEL 2
REMARK VINA RESULT:    -4.973     13.941     15.246
REMARK INTER + INTRA:          -6.129
REMARK INTER:                  -5.832
REMARK INTRA:                  -0.297
REMARK UNBOUND:                -0.283
REMARK SMILES O=c1c(O)c(-c2ccc(O)cc2)oc2cc(O)cc(O)c12
REMARK SMILES IDX 5 1 3 2 2 3 1 4 21 5 19 6 18 7 16 8 15 9 14 10 13 11 6 12
REMARK SMILES IDX 7 13 8 14 9 15 12 16 11 17 10 18 4 20 20 22 17 24
REMARK H PARENT 10 19 4 21 20 23 17 25
REMARK Flexibility Score: inf
ROOT
ATOM      1  C   UNL     1      91.553  85.393  78.253  1.00  0.00     0.180 A 
ATOM      2  C   UNL     1      90.489  85.594  77.358  1.00  0.00     0.208 A 
ATOM      3  C   UNL     1      89.233  85.968  77.864  1.00  0.00     0.238 A 
ATOM      4  O   UNL     1      88.267  86.073  77.064  1.00  0.00    -0.285 OA
ATOM      5  C   UNL     1      89.072  86.192  79.253  1.00  0.00     0.111 A 
ATOM      6  C   UNL     1      87.857  86.618  79.871  1.00  0.00     0.134 A 
ATOM      7  C   UNL     1      87.787  86.705  81.268  1.00  0.00     0.093 A 
ATOM      8  C   UNL     1      88.901  86.445  82.064  1.00  0.00     0.123 A 
ATOM      9  C   UNL     1      90.108  86.081  81.466  1.00  0.00     0.094 A 
ATOM     10  C   UNL     1      90.200  85.948  80.079  1.00  0.00     0.146 A 
ATOM     11  O   UNL     1      91.363  85.579  79.553  1.00  0.00    -0.452 OA
ENDROOT
BRANCH   1  12
ATOM     12  C   UNL     1      92.900  84.984  77.797  1.00  0.00     0.021 A 
ATOM     13  C   UNL     1      93.236  83.628  77.622  1.00  0.00     0.016 A 
ATOM     14  C   UNL     1      94.523  83.265  77.214  1.00  0.00     0.047 A 
ATOM     15  C   UNL     1      95.494  84.250  76.989  1.00  0.00     0.115 A 
ATOM     16  C   UNL     1      93.886  85.962  77.590  1.00  0.00     0.016 A 
ATOM     17  C   UNL     1      95.172  85.596  77.181  1.00  0.00     0.047 A 
BRANCH  15  18
ATOM     18  O   UNL     1      96.779  83.900  76.581  1.00  0.00    -0.508 OA
ATOM     19  H   UNL     1      97.430  84.591  76.229  1.00  0.00     0.293 HD
ENDBRANCH  15  18
ENDBRANCH   1  12
BRANCH   2  20
ATOM     20  O   UNL     1      90.688  85.442  75.983  1.00  0.00    -0.502 OA
ATOM     21  H   UNL     1      91.032  86.193  75.396  1.00  0.00     0.293 HD
ENDBRANCH   2  20
BRANCH   6  22
ATOM     22  O   UNL     1      86.708  86.989  79.167  1.00  0.00    -0.507 OA
ATOM     23  H   UNL     1      86.691  87.278  78.201  1.00  0.00     0.293 HD
ENDBRANCH   6  22
BRANCH   8  24
ATOM     24  O   UNL     1      88.798  86.557  83.448  1.00  0.00    -0.508 OA
ATOM     25  H   UNL     1      88.137  87.192  83.881  1.00  0.00     0.293 HD
ENDBRANCH   8  24
TORSDOF 5
ENDMDL
MODEL 3
REMARK VINA RESULT:    -4.972     12.315     13.473
REMARK INTER + INTRA:          -6.127
REMARK INTER:                  -5.883
REMARK INTRA:                  -0.244
REMARK UNBOUND:                -0.283
REMARK SMILES O=c1c(O)c(-c2ccc(O)cc2)oc2cc(O)cc(O)c12
REMARK SMILES IDX 5 1 3 2 2 3 1 4 21 5 19 6 18 7 16 8 15 9 14 10 13 11 6 12
REMARK SMILES IDX 7 13 8 14 9 15 12 16 11 17 10 18 4 20 20 22 17 24
REMARK H PARENT 10 19 4 21 20 23 17 25
REMARK Flexibility Score: inf
ROOT
ATOM      1  C   UNL     1      84.950  90.196  78.441  1.00  0.00     0.180 A 
ATOM      2  C   UNL     1      84.763  90.060  77.055  1.00  0.00     0.208 A 
ATOM      3  C   UNL     1      85.501  89.090  76.360  1.00  0.00     0.238 A 
ATOM      4  O   UNL     1      85.383  89.025  75.108  1.00  0.00    -0.285 OA
ATOM      5  C   UNL     1      86.377  88.229  77.066  1.00  0.00     0.111 A 
ATOM      6  C   UNL     1      87.141  87.180  76.470  1.00  0.00     0.134 A 
ATOM      7  C   UNL     1      88.054  86.462  77.253  1.00  0.00     0.093 A 
ATOM      8  C   UNL     1      88.185  86.708  78.618  1.00  0.00     0.123 A 
ATOM      9  C   UNL     1      87.403  87.694  79.221  1.00  0.00     0.094 A 
ATOM     10  C   UNL     1      86.511  88.454  78.461  1.00  0.00     0.146 A 
ATOM     11  O   UNL     1      85.802  89.397  79.071  1.00  0.00    -0.452 OA
ENDROOT
BRANCH   1  12
ATOM     12  C   UNL     1      84.219  91.205  79.241  1.00  0.00     0.021 A 
ATOM     13  C   UNL     1      82.873  91.017  79.607  1.00  0.00     0.016 A 
ATOM     14  C   UNL     1      82.196  91.996  80.341  1.00  0.00     0.047 A 
ATOM     15  C   UNL     1      82.852  93.180  80.706  1.00  0.00     0.115 A 
ATOM     16  C   UNL     1      84.860  92.404  79.593  1.00  0.00     0.016 A 
ATOM     17  C   UNL     1      84.182  93.381  80.328  1.00  0.00     0.047 A 
BRANCH  15  18
ATOM     18  O   UNL     1      82.188  94.161  81.439  1.00  0.00    -0.508 OA
ATOM     19  H   UNL     1      81.544  93.921  82.184  1.00  0.00     0.293 HD
ENDBRANCH  15  18
ENDBRANCH   1  12
BRANCH   2  20
ATOM     20  O   UNL     1      83.837  90.868  76.388  1.00  0.00    -0.502 OA
ATOM     21  H   UNL     1      83.195  90.502  75.695  1.00  0.00     0.293 HD
ENDBRANCH   2  20
BRANCH   6  22
ATOM     22  O   UNL     1      87.025  86.790  75.133  1.00  0.00    -0.507 OA
ATOM     23  H   UNL     1      86.923  87.421  74.354  1.00  0.00     0.293 HD
ENDBRANCH   6  22
BRANCH   8  24
ATOM     24  O   UNL     1      89.091  85.963  79.367  1.00  0.00    -0.508 OA
ATOM     25  H   UNL     1      90.021  85.754  79.022  1.00  0.00     0.293 HD
ENDBRANCH   8  24
TORSDOF 5
ENDMDL
MODEL 4
REMARK VINA RESULT:    -4.943     13.195     13.637
REMARK INTER + INTRA:          -6.093
REMARK INTER:                  -5.948
REMARK INTRA:                  -0.145
REMARK UNBOUND:                -0.283
REMARK SMILES O=c1c(O)c(-c2ccc(O)cc2)oc2cc(O)cc(O)c12
REMARK SMILES IDX 5 1 3 2 2 3 1 4 21 5 19 6 18 7 16 8 15 9 14 10 13 11 6 12
REMARK SMILES IDX 7 13 8 14 9 15 12 16 11 17 10 18 4 20 20 22 17 24
REMARK H PARENT 10 19 4 21 20 23 17 25
REMARK Flexibility Score: inf
ROOT
ATOM      1  C   UNL     1      86.584  87.984  76.990  1.00  0.00     0.180 A 
ATOM      2  C   UNL     1      87.740  87.828  76.207  1.00  0.00     0.208 A 
ATOM      3  C   UNL     1      88.885  87.260  76.789  1.00  0.00     0.238 A 
ATOM      4  O   UNL     1      89.939  87.193  76.103  1.00  0.00    -0.285 OA
ATOM      5  C   UNL     1      88.843  86.803  78.128  1.00  0.00     0.111 A 
ATOM      6  C   UNL     1      89.931  86.171  78.805  1.00  0.00     0.134 A 
ATOM      7  C   UNL     1      89.807  85.857  80.165  1.00  0.00     0.093 A 
ATOM      8  C   UNL     1      88.620  86.092  80.855  1.00  0.00     0.123 A 
ATOM      9  C   UNL     1      87.533  86.659  80.189  1.00  0.00     0.094 A 
ATOM     10  C   UNL     1      87.637  87.019  78.843  1.00  0.00     0.146 A 
ATOM     11  O   UNL     1      86.585  87.576  78.253  1.00  0.00    -0.452 OA
ENDROOT
BRANCH   1  12
ATOM     12  C   UNL     1      85.343  88.587  76.453  1.00  0.00     0.021 A 
ATOM     13  C   UNL     1      84.604  87.960  75.433  1.00  0.00     0.016 A 
ATOM     14  C   UNL     1      83.449  88.561  74.924  1.00  0.00     0.047 A 
ATOM     15  C   UNL     1      83.025  89.802  75.419  1.00  0.00     0.115 A 
ATOM     16  C   UNL     1      84.922  89.840  76.928  1.00  0.00     0.016 A 
ATOM     17  C   UNL     1      83.766  90.439  76.418  1.00  0.00     0.047 A 
BRANCH  15  18
ATOM     18  O   UNL     1      81.875  90.409  74.921  1.00  0.00    -0.508 OA
ATOM     19  H   UNL     1      81.319  89.975  74.193  1.00  0.00     0.293 HD
ENDBRANCH  15  18
ENDBRANCH   1  12
BRANCH   2  20
ATOM     20  O   UNL     1      87.737  88.215  74.864  1.00  0.00    -0.502 OA
ATOM     21  H   UNL     1      88.591  88.398  74.349  1.00  0.00     0.293 HD
ENDBRANCH   2  20
BRANCH   6  22
ATOM     22  O   UNL     1      91.132  85.809  78.190  1.00  0.00    -0.507 OA
ATOM     23  H   UNL     1      91.645  84.962  78.377  1.00  0.00     0.293 HD
ENDBRANCH   6  22
BRANCH   8  24
ATOM     24  O   UNL     1      88.529  85.751  82.202  1.00  0.00    -0.508 OA
ATOM     25  H   UNL     1      89.170  85.090  82.627  1.00  0.00     0.293 HD
ENDBRANCH   8  24
TORSDOF 5
ENDMDL
MODEL 5
REMARK VINA RESULT:    -4.903      1.362      3.182
REMARK INTER + INTRA:          -6.046
REMARK INTER:                  -5.757
REMARK INTRA:                  -0.289
REMARK UNBOUND:                -0.283
REMARK SMILES O=c1c(O)c(-c2ccc(O)cc2)oc2cc(O)cc(O)c12
REMARK SMILES IDX 5 1 3 2 2 3 1 4 21 5 19 6 18 7 16 8 15 9 14 10 13 11 6 12
REMARK SMILES IDX 7 13 8 14 9 15 12 16 11 17 10 18 4 20 20 22 17 24
REMARK H PARENT 10 19 4 21 20 23 17 25
REMARK Flexibility Score: inf
ROOT
ATOM      1  C   UNL     1      92.449  99.279  79.097  1.00  0.00     0.180 A 
ATOM      2  C   UNL     1      92.186  98.989  80.447  1.00  0.00     0.208 A 
ATOM      3  C   UNL     1      93.247  98.600  81.280  1.00  0.00     0.238 A 
ATOM      4  O   UNL     1      92.991  98.270  82.468  1.00  0.00    -0.285 OA
ATOM      5  C   UNL     1      94.567  98.559  80.768  1.00  0.00     0.111 A 
ATOM      6  C   UNL     1      95.724  98.222  81.534  1.00  0.00     0.134 A 
ATOM      7  C   UNL     1      96.966  98.112  80.894  1.00  0.00     0.093 A 
ATOM      8  C   UNL     1      97.105  98.387  79.535  1.00  0.00     0.123 A 
ATOM      9  C   UNL     1      95.989  98.771  78.790  1.00  0.00     0.094 A 
ATOM     10  C   UNL     1      94.730  98.852  79.390  1.00  0.00     0.146 A 
ATOM     11  O   UNL     1      93.692  99.201  78.638  1.00  0.00    -0.452 OA
ENDROOT
BRANCH   1  12
ATOM     12  C   UNL     1      91.381  99.682  78.154  1.00  0.00     0.021 A 
ATOM     13  C   UNL     1      91.011 101.030  77.996  1.00  0.00     0.016 A 
ATOM     14  C   UNL     1      89.983 101.383  77.118  1.00  0.00     0.047 A 
ATOM     15  C   UNL     1      89.302 100.393  76.397  1.00  0.00     0.115 A 
ATOM     16  C   UNL     1      90.679  98.695  77.444  1.00  0.00     0.016 A 
ATOM     17  C   UNL     1      89.651  99.051  76.565  1.00  0.00     0.047 A 
BRANCH  15  18
ATOM     18  O   UNL     1      88.277 100.734  75.518  1.00  0.00    -0.508 OA
ATOM     19  H   UNL     1      88.140 101.689  75.208  1.00  0.00     0.293 HD
ENDBRANCH  15  18
ENDBRANCH   1  12
BRANCH   2  20
ATOM     20  O   UNL     1      90.888  99.109  80.952  1.00  0.00    -0.502 OA
ATOM     21  H   UNL     1      90.647  98.849  81.901  1.00  0.00     0.293 HD
ENDBRANCH   2  20
BRANCH   6  22
ATOM     22  O   UNL     1      95.716  98.013  82.916  1.00  0.00    -0.507 OA
ATOM     23  H   UNL     1      95.548  98.727  83.607  1.00  0.00     0.293 HD
ENDBRANCH   6  22
BRANCH   8  24
ATOM     24  O   UNL     1      98.358  98.283  78.937  1.00  0.00    -0.508 OA
ATOM     25  H   UNL     1      98.694  98.983  78.285  1.00  0.00     0.293 HD
ENDBRANCH   8  24
TORSDOF 5
ENDMDL
MODEL 6
REMARK VINA RESULT:    -4.873      4.125      8.484
REMARK INTER + INTRA:          -6.011
REMARK INTER:                  -5.726
REMARK INTRA:                  -0.284
REMARK UNBOUND:                -0.283
REMARK SMILES O=c1c(O)c(-c2ccc(O)cc2)oc2cc(O)cc(O)c12
REMARK SMILES IDX 5 1 3 2 2 3 1 4 21 5 19 6 18 7 16 8 15 9 14 10 13 11 6 12
REMARK SMILES IDX 7 13 8 14 9 15 12 16 11 17 10 18 4 20 20 22 17 24
REMARK H PARENT 10 19 4 21 20 23 17 25
REMARK Flexibility Score: inf
ROOT
ATOM      1  C   UNL     1      96.138  95.754  82.708  1.00  0.00     0.180 A 
ATOM      2  C   UNL     1      96.999  96.585  81.971  1.00  0.00     0.208 A 
ATOM      3  C   UNL     1      96.453  97.647  81.232  1.00  0.00     0.238 A 
ATOM      4  O   UNL     1      97.222  98.341  80.516  1.00  0.00    -0.285 OA
ATOM      5  C   UNL     1      95.060  97.899  81.283  1.00  0.00     0.111 A 
ATOM      6  C   UNL     1      94.405  98.975  80.610  1.00  0.00     0.134 A 
ATOM      7  C   UNL     1      93.007  99.062  80.648  1.00  0.00     0.093 A 
ATOM      8  C   UNL     1      92.247  98.155  81.384  1.00  0.00     0.123 A 
ATOM      9  C   UNL     1      92.882  97.133  82.090  1.00  0.00     0.094 A 
ATOM     10  C   UNL     1      94.271  96.995  82.041  1.00  0.00     0.146 A 
ATOM     11  O   UNL     1      94.833  95.995  82.710  1.00  0.00    -0.452 OA
ENDROOT
BRANCH   1  12
ATOM     12  C   UNL     1      96.637  94.607  83.499  1.00  0.00     0.021 A 
ATOM     13  C   UNL     1      96.909  93.363  82.899  1.00  0.00     0.016 A 
ATOM     14  C   UNL     1      97.355  92.287  83.672  1.00  0.00     0.047 A 
ATOM     15  C   UNL     1      97.523  92.436  85.055  1.00  0.00     0.115 A 
ATOM     16  C   UNL     1      96.788  94.740  84.889  1.00  0.00     0.016 A 
ATOM     17  C   UNL     1      97.235  93.662  85.660  1.00  0.00     0.047 A 
BRANCH  15  18
ATOM     18  O   UNL     1      97.968  91.371  85.834  1.00  0.00    -0.508 OA
ATOM     19  H   UNL     1      97.908  91.392  86.846  1.00  0.00     0.293 HD
ENDBRANCH  15  18
ENDBRANCH   1  12
BRANCH   2  20
ATOM     20  O   UNL     1      98.379  96.367  81.995  1.00  0.00    -0.502 OA
ATOM     21  H   UNL     1      98.935  96.481  82.835  1.00  0.00     0.293 HD
ENDBRANCH   2  20
BRANCH   6  22
ATOM     22  O   UNL     1      95.072  99.989  79.918  1.00  0.00    -0.507 OA
ATOM     23  H   UNL     1      96.067 100.020  79.756  1.00  0.00     0.293 HD
ENDBRANCH   6  22
BRANCH   8  24
ATOM     24  O   UNL     1      90.861  98.283  81.412  1.00  0.00    -0.508 OA
ATOM     25  H   UNL     1      90.279  97.924  80.663  1.00  0.00     0.293 HD
ENDBRANCH   8  24
TORSDOF 5
ENDMDL
MODEL 7
REMARK VINA RESULT:    -4.751      1.623      3.547
REMARK INTER + INTRA:          -5.868
REMARK INTER:                  -5.669
REMARK INTRA:                  -0.200
REMARK UNBOUND:                -0.283
REMARK SMILES O=c1c(O)c(-c2ccc(O)cc2)oc2cc(O)cc(O)c12
REMARK SMILES IDX 5 1 3 2 2 3 1 4 21 5 19 6 18 7 16 8 15 9 14 10 13 11 6 12
REMARK SMILES IDX 7 13 8 14 9 15 12 16 11 17 10 18 4 20 20 22 17 24
REMARK H PARENT 10 19 4 21 20 23 17 25
REMARK Flexibility Score: inf
ROOT
ATOM      1  C   UNL     1      93.778  99.657  76.813  1.00  0.00     0.180 A 
ATOM      2  C   UNL     1      93.982  99.676  78.203  1.00  0.00     0.208 A 
ATOM      3  C   UNL     1      95.193  99.190  78.721  1.00  0.00     0.238 A 
ATOM      4  O   UNL     1      95.338  99.141  79.971  1.00  0.00    -0.285 OA
ATOM      5  C   UNL     1      96.208  98.744  77.840  1.00  0.00     0.111 A 
ATOM      6  C   UNL     1      97.492  98.273  78.252  1.00  0.00     0.134 A 
ATOM      7  C   UNL     1      98.376  97.757  77.295  1.00  0.00     0.093 A 
ATOM      8  C   UNL     1      98.053  97.753  75.940  1.00  0.00     0.123 A 
ATOM      9  C   UNL     1      96.823  98.262  75.522  1.00  0.00     0.094 A 
ATOM     10  C   UNL     1      95.903  98.748  76.454  1.00  0.00     0.146 A 
ATOM     11  O   UNL     1      94.735  99.203  76.014  1.00  0.00    -0.452 OA
ENDROOT
BRANCH   1  12
ATOM     12  C   UNL     1      92.523 100.139  76.194  1.00  0.00     0.021 A 
ATOM     13  C   UNL     1      91.312  99.438  76.347  1.00  0.00     0.016 A 
ATOM     14  C   UNL     1      90.144  99.899  75.732  1.00  0.00     0.047 A 
ATOM     15  C   UNL     1      90.175 101.058  74.945  1.00  0.00     0.115 A 
ATOM     16  C   UNL     1      92.547 101.287  75.386  1.00  0.00     0.016 A 
ATOM     17  C   UNL     1      91.378 101.747  74.772  1.00  0.00     0.047 A 
BRANCH  15  18
ATOM     18  O   UNL     1      89.017 101.528  74.329  1.00  0.00    -0.508 OA
ATOM     19  H   UNL     1      88.339 102.089  74.831  1.00  0.00     0.293 HD
ENDBRANCH  15  18
ENDBRANCH   1  12
BRANCH   2  20
ATOM     20  O   UNL     1      92.998 100.192  79.051  1.00  0.00    -0.502 OA
ATOM     21  H   UNL     1      92.657  99.685  79.861  1.00  0.00     0.293 HD
ENDBRANCH   2  20
BRANCH   6  22
ATOM     22  O   UNL     1      97.955  98.312  79.570  1.00  0.00    -0.507 OA
ATOM     23  H   UNL     1      98.768  97.823  79.911  1.00  0.00     0.293 HD
ENDBRANCH   6  22
BRANCH   8  24
ATOM     24  O   UNL     1      98.964  97.248  75.017  1.00  0.00    -0.508 OA
ATOM     25  H   UNL     1      99.225  96.268  75.011  1.00  0.00     0.293 HD
ENDBRANCH   8  24
TORSDOF 5
ENDMDL
MODEL 8
REMARK VINA RESULT:    -4.729     13.899     15.019
REMARK INTER + INTRA:          -5.842
REMARK INTER:                  -5.556
REMARK INTRA:                  -0.285
REMARK UNBOUND:                -0.283
REMARK SMILES O=c1c(O)c(-c2ccc(O)cc2)oc2cc(O)cc(O)c12
REMARK SMILES IDX 5 1 3 2 2 3 1 4 21 5 19 6 18 7 16 8 15 9 14 10 13 11 6 12
REMARK SMILES IDX 7 13 8 14 9 15 12 16 11 17 10 18 4 20 20 22 17 24
REMARK H PARENT 10 19 4 21 20 23 17 25
REMARK Flexibility Score: inf
ROOT
ATOM      1  C   UNL     1      91.252  85.437  80.118  1.00  0.00     0.180 A 
ATOM      2  C   UNL     1      92.208  85.968  81.002  1.00  0.00     0.208 A 
ATOM      3  C   UNL     1      91.792  86.871  81.993  1.00  0.00     0.238 A 
ATOM      4  O   UNL     1      92.665  87.399  82.731  1.00  0.00    -0.285 OA
ATOM      5  C   UNL     1      90.419  87.190  82.125  1.00  0.00     0.111 A 
ATOM      6  C   UNL     1      89.879  88.059  83.123  1.00  0.00     0.134 A 
ATOM      7  C   UNL     1      88.517  88.384  83.090  1.00  0.00     0.093 A 
ATOM      8  C   UNL     1      87.664  87.825  82.140  1.00  0.00     0.123 A 
ATOM      9  C   UNL     1      88.171  86.933  81.195  1.00  0.00     0.094 A 
ATOM     10  C   UNL     1      89.532  86.618  81.177  1.00  0.00     0.146 A 
ATOM     11  O   UNL     1      89.976  85.780  80.247  1.00  0.00    -0.452 OA
ENDROOT
BRANCH   1  12
ATOM     12  C   UNL     1      91.615  84.491  79.039  1.00  0.00     0.021 A 
ATOM     13  C   UNL     1      91.704  83.107  79.276  1.00  0.00     0.016 A 
ATOM     14  C   UNL     1      92.073  82.235  78.247  1.00  0.00     0.047 A 
ATOM     15  C   UNL     1      92.371  82.738  76.973  1.00  0.00     0.115 A 
ATOM     16  C   UNL     1      91.936  84.987  77.765  1.00  0.00     0.016 A 
ATOM     17  C   UNL     1      92.303  84.113  76.737  1.00  0.00     0.047 A 
BRANCH  15  18
ATOM     18  O   UNL     1      92.738  81.878  75.940  1.00  0.00    -0.508 OA
ATOM     19  H   UNL     1      93.214  82.217  75.112  1.00  0.00     0.293 HD
ENDBRANCH  15  18
ENDBRANCH   1  12
BRANCH   2  20
ATOM     20  O   UNL     1      93.547  85.581  80.903  1.00  0.00    -0.502 OA
ATOM     21  H   UNL     1      94.078  85.248  81.700  1.00  0.00     0.293 HD
ENDBRANCH   2  20
BRANCH   6  22
ATOM     22  O   UNL     1      90.624  88.604  84.172  1.00  0.00    -0.507 OA
ATOM     23  H   UNL     1      91.630  88.595  84.232  1.00  0.00     0.293 HD
ENDBRANCH   6  22
BRANCH   8  24
ATOM     24  O   UNL     1      86.312  88.159  82.149  1.00  0.00    -0.508 OA
ATOM     25  H   UNL     1      85.841  88.484  81.313  1.00  0.00     0.293 HD
ENDBRANCH   8  24
TORSDOF 5
ENDMDL
MODEL 9
REMARK VINA RESULT:    -4.675     14.220     16.137
REMARK INTER + INTRA:          -5.778
REMARK INTER:                  -5.488
REMARK INTRA:                  -0.290
REMARK UNBOUND:                -0.283
REMARK SMILES O=c1c(O)c(-c2ccc(O)cc2)oc2cc(O)cc(O)c12
REMARK SMILES IDX 5 1 3 2 2 3 1 4 21 5 19 6 18 7 16 8 15 9 14 10 13 11 6 12
REMARK SMILES IDX 7 13 8 14 9 15 12 16 11 17 10 18 4 20 20 22 17 24
REMARK H PARENT 10 19 4 21 20 23 17 25
REMARK Flexibility Score: inf
ROOT
ATOM      1  C   UNL     1      90.820  85.055  79.020  1.00  0.00     0.180 A 
ATOM      2  C   UNL     1      90.013  85.713  79.964  1.00  0.00     0.208 A 
ATOM      3  C   UNL     1      88.878  86.411  79.522  1.00  0.00     0.238 A 
ATOM      4  O   UNL     1      88.203  87.060  80.364  1.00  0.00    -0.285 OA
ATOM      5  C   UNL     1      88.532  86.397  78.148  1.00  0.00     0.111 A 
ATOM      6  C   UNL     1      87.379  87.033  77.595  1.00  0.00     0.134 A 
ATOM      7  C   UNL     1      87.196  87.041  76.206  1.00  0.00     0.093 A 
ATOM      8  C   UNL     1      88.085  86.385  75.357  1.00  0.00     0.123 A 
ATOM      9  C   UNL     1      89.185  85.714  75.893  1.00  0.00     0.094 A 
ATOM     10  C   UNL     1      89.417  85.720  77.270  1.00  0.00     0.146 A 
ATOM     11  O   UNL     1      90.488  85.086  77.735  1.00  0.00    -0.452 OA
ENDROOT
BRANCH   1  12
ATOM     12  C   UNL     1      92.039  84.310  79.407  1.00  0.00     0.021 A 
ATOM     13  C   UNL     1      93.273  84.963  79.582  1.00  0.00     0.016 A 
ATOM     14  C   UNL     1      94.417  84.234  79.923  1.00  0.00     0.047 A 
ATOM     15  C   UNL     1      94.344  82.844  80.081  1.00  0.00     0.115 A 
ATOM     16  C   UNL     1      91.981  82.914  79.546  1.00  0.00     0.016 A 
ATOM     17  C   UNL     1      93.125  82.188  79.888  1.00  0.00     0.047 A 
BRANCH  15  18
ATOM     18  O   UNL     1      95.476  82.108  80.422  1.00  0.00    -0.508 OA
ATOM     19  H   UNL     1      96.270  82.540  80.881  1.00  0.00     0.293 HD
ENDBRANCH  15  18
ENDBRANCH   1  12
BRANCH   2  20
ATOM     20  O   UNL     1      90.329  85.651  81.324  1.00  0.00    -0.502 OA
ATOM     21  H   UNL     1      91.174  85.209  81.667  1.00  0.00     0.293 HD
ENDBRANCH   2  20
BRANCH   6  22
ATOM     22  O   UNL     1      86.379  87.644  78.358  1.00  0.00    -0.507 OA
ATOM     23  H   UNL     1      85.425  87.325  78.420  1.00  0.00     0.293 HD
ENDBRANCH   6  22
BRANCH   8  24
ATOM     24  O   UNL     1      87.862  86.400  73.983  1.00  0.00    -0.508 OA
ATOM     25  H   UNL     1      87.319  85.676  73.526  1.00  0.00     0.293 HD
ENDBRANCH   8  24
TORSDOF 5
ENDMDL
