MODEL 1
REMARK VINA RESULT:    -3.372      0.000      0.000
REMARK INTER + INTRA:          -4.707
REMARK INTER:                  -4.358
REMARK INTRA:                  -0.349
REMARK UNBOUND:                -0.349
REMARK SMILES CCO[C@H]1O[C@H](CO)[C@H](O)[C@H](O)[C@H]1O
REMARK SMILES IDX 4 1 13 2 11 3 9 4 6 5 5 6 3 7 2 8 1 9 14 10 12 12 7 14 8 15
REMARK SMILES IDX 10 17
REMARK H PARENT 14 11 12 13 8 16 10 18
REMARK Flexibility Score: inf
ROOT
ATOM      1  C   UNL     1       4.577   5.762   3.061  1.00  0.00     0.281 C 
ATOM      2  C   UNL     1       5.428   6.868   3.738  1.00  0.00     0.202 C 
ATOM      3  C   UNL     1       4.557   8.077   4.173  1.00  0.00     0.179 C 
ATOM      4  C   UNL     1       3.262   8.156   3.347  1.00  0.00     0.177 C 
ATOM      5  C   UNL     1       2.490   6.807   3.504  1.00  0.00     0.178 C 
ATOM      6  O   UNL     1       3.311   5.653   3.693  1.00  0.00    -0.341 OA
ENDROOT
BRANCH   1   7
ATOM      7  O   UNL     1       5.265   4.527   3.162  1.00  0.00    -0.350 OA
BRANCH   7   8
ATOM      8  C   UNL     1       5.792   4.125   1.911  1.00  0.00     0.160 C 
ATOM      9  C   UNL     1       5.979   2.612   1.875  1.00  0.00     0.035 C 
ENDBRANCH   7   8
ENDBRANCH   1   7
BRANCH   2  10
ATOM     10  O   UNL     1       6.144   6.368   4.841  1.00  0.00    -0.385 OA
ATOM     11  H   UNL     1       5.932   6.942   5.622  1.00  0.00     0.211 HD
ENDBRANCH   2  10
BRANCH   3  12
ATOM     12  O   UNL     1       5.280   9.282   4.115  1.00  0.00    -0.387 OA
ATOM     13  H   UNL     1       5.185   9.653   3.199  1.00  0.00     0.211 HD
ENDBRANCH   3  12
BRANCH   5  14
ATOM     14  C   UNL     1       1.427   6.561   2.419  1.00  0.00     0.191 C 
BRANCH  14  15
ATOM     15  O   UNL     1       0.722   7.734   2.110  1.00  0.00    -0.394 OA
ATOM     16  H   UNL     1       1.180   8.152   1.336  1.00  0.00     0.210 HD
ENDBRANCH  14  15
ENDBRANCH   5  14
BRANCH   4  17
ATOM     17  O   UNL     1       3.572   8.422   2.000  1.00  0.00    -0.387 OA
ATOM     18  H   UNL     1       2.983   7.847   1.445  1.00  0.00     0.211 HD
ENDBRANCH   4  17
TORSDOF 7
ENDMDL
MODEL 2
REMARK VINA RESULT:    -3.164      1.441      3.891
REMARK INTER + INTRA:          -4.438
REMARK INTER:                  -4.152
REMARK INTRA:                  -0.286
REMARK UNBOUND:                -0.349
REMARK SMILES CCO[C@H]1O[C@H](CO)[C@H](O)[C@H](O)[C@H]1O
REMARK SMILES IDX 4 1 13 2 11 3 9 4 6 5 5 6 3 7 2 8 1 9 14 10 12 12 7 14 8 15
REMARK SMILES IDX 10 17
REMARK H PARENT 14 11 12 13 8 16 10 18
REMARK Flexibility Score: inf
ROOT
ATOM      1  C   UNL     1       2.727   7.305   3.791  1.00  0.00     0.281 C 
ATOM      2  C   UNL     1       3.092   8.792   4.046  1.00  0.00     0.202 C 
ATOM      3  C   UNL     1       4.534   9.117   3.575  1.00  0.00     0.179 C 
ATOM      4  C   UNL     1       5.406   7.851   3.534  1.00  0.00     0.177 C 
ATOM      5  C   UNL     1       4.719   6.805   2.599  1.00  0.00     0.178 C 
ATOM      6  O   UNL     1       3.292   6.858   2.569  1.00  0.00    -0.341 OA
ENDROOT
BRANCH   1   7
ATOM      7  O   UNL     1       1.316   7.183   3.734  1.00  0.00    -0.350 OA
BRANCH   7   8
ATOM      8  C   UNL     1       0.927   5.920   3.226  1.00  0.00     0.160 C 
ATOM      9  C   UNL     1       0.441   5.019   4.356  1.00  0.00     0.035 C 
ENDBRANCH   7   8
ENDBRANCH   1   7
BRANCH   2  10
ATOM     10  O   UNL     1       2.174   9.663   3.430  1.00  0.00    -0.385 OA
ATOM     11  H   UNL     1       1.950  10.374   4.084  1.00  0.00     0.211 HD
ENDBRANCH   2  10
BRANCH   3  12
ATOM     12  O   UNL     1       5.121  10.123   4.363  1.00  0.00    -0.387 OA
ATOM     13  H   UNL     1       5.439  10.841   3.757  1.00  0.00     0.211 HD
ENDBRANCH   3  12
BRANCH   5  14
ATOM     14  C   UNL     1       5.218   5.363   2.795  1.00  0.00     0.191 C 
BRANCH  14  15
ATOM     15  O   UNL     1       4.833   4.847   4.042  1.00  0.00    -0.394 OA
ATOM     16  H   UNL     1       3.982   4.359   3.904  1.00  0.00     0.210 HD
ENDBRANCH  14  15
ENDBRANCH   5  14
BRANCH   4  17
ATOM     17  O   UNL     1       5.575   7.347   4.838  1.00  0.00    -0.387 OA
ATOM     18  H   UNL     1       5.450   6.364   4.790  1.00  0.00     0.211 HD
ENDBRANCH   4  17
TORSDOF 7
ENDMDL
MODEL 3
REMARK VINA RESULT:    -2.933      2.154      4.511
REMARK INTER + INTRA:          -4.139
REMARK INTER:                  -3.773
REMARK INTRA:                  -0.366
REMARK UNBOUND:                -0.349
REMARK SMILES CCO[C@H]1O[C@H](CO)[C@H](O)[C@H](O)[C@H]1O
REMARK SMILES IDX 4 1 13 2 11 3 9 4 6 5 5 6 3 7 2 8 1 9 14 10 12 12 7 14 8 15
REMARK SMILES IDX 10 17
REMARK H PARENT 14 11 12 13 8 16 10 18
REMARK Flexibility Score: inf
ROOT
ATOM      1  C   UNL     1       1.594   6.416   3.715  1.00  0.00     0.281 C 
ATOM      2  C   UNL     1       0.754   7.709   3.545  1.00  0.00     0.202 C 
ATOM      3  C   UNL     1       1.647   8.936   3.220  1.00  0.00     0.179 C 
ATOM      4  C   UNL     1       3.089   8.720   3.710  1.00  0.00     0.177 C 
ATOM      5  C   UNL     1       3.646   7.415   3.056  1.00  0.00     0.178 C 
ATOM      6  O   UNL     1       2.674   6.402   2.794  1.00  0.00    -0.341 OA
ENDROOT
BRANCH   1   7
ATOM      7  O   UNL     1       0.760   5.294   3.485  1.00  0.00    -0.350 OA
BRANCH   7   8
ATOM      8  C   UNL     1       0.301   4.733   4.702  1.00  0.00     0.160 C 
ATOM      9  C   UNL     1      -1.124   4.215   4.544  1.00  0.00     0.035 C 
ENDBRANCH   7   8
ENDBRANCH   1   7
BRANCH   2  10
ATOM     10  O   UNL     1      -0.235   7.557   2.555  1.00  0.00    -0.385 OA
ATOM     11  H   UNL     1      -1.056   8.012   2.879  1.00  0.00     0.211 HD
ENDBRANCH   2  10
BRANCH   3  12
ATOM     12  O   UNL     1       1.100  10.125   3.735  1.00  0.00    -0.387 OA
ATOM     13  H   UNL     1       1.709  10.871   3.494  1.00  0.00     0.211 HD
ENDBRANCH   3  12
BRANCH   5  14
ATOM     14  C   UNL     1       4.880   6.833   3.766  1.00  0.00     0.191 C 
BRANCH  14  15
ATOM     15  O   UNL     1       5.636   7.833   4.396  1.00  0.00    -0.394 OA
ATOM     16  H   UNL     1       6.426   8.003   3.823  1.00  0.00     0.210 HD
ENDBRANCH  14  15
ENDBRANCH   5  14
BRANCH   4  17
ATOM     17  O   UNL     1       3.107   8.642   5.116  1.00  0.00    -0.387 OA
ATOM     18  H   UNL     1       2.332   9.166   5.448  1.00  0.00     0.211 HD
ENDBRANCH   4  17
TORSDOF 7
ENDMDL
MODEL 4
REMARK VINA RESULT:    -2.921      2.092      3.421
REMARK INTER + INTRA:          -4.124
REMARK INTER:                  -3.906
REMARK INTRA:                  -0.218
REMARK UNBOUND:                -0.349
REMARK SMILES CCO[C@H]1O[C@H](CO)[C@H](O)[C@H](O)[C@H]1O
REMARK SMILES IDX 4 1 13 2 11 3 9 4 6 5 5 6 3 7 2 8 1 9 14 10 12 12 7 14 8 15
REMARK SMILES IDX 10 17
REMARK H PARENT 14 11 12 13 8 16 10 18
REMARK Flexibility Score: inf
ROOT
ATOM      1  C   UNL     1       2.387   7.195   3.313  1.00  0.00     0.281 C 
ATOM      2  C   UNL     1       3.883   6.788   3.382  1.00  0.00     0.202 C 
ATOM      3  C   UNL     1       4.701   7.762   4.271  1.00  0.00     0.179 C 
ATOM      4  C   UNL     1       4.019   9.136   4.367  1.00  0.00     0.177 C 
ATOM      5  C   UNL     1       2.572   8.934   4.920  1.00  0.00     0.178 C 
ATOM      6  O   UNL     1       1.951   7.698   4.567  1.00  0.00    -0.341 OA
ENDROOT
BRANCH   1   7
ATOM      7  O   UNL     1       1.618   6.057   2.965  1.00  0.00    -0.350 OA
BRANCH   7   8
ATOM      8  C   UNL     1       0.416   5.998   3.711  1.00  0.00     0.160 C 
ATOM      9  C   UNL     1       0.363   4.712   4.530  1.00  0.00     0.035 C 
ENDBRANCH   7   8
ENDBRANCH   1   7
BRANCH   2  10
ATOM     10  O   UNL     1       4.039   5.467   3.842  1.00  0.00    -0.385 OA
ATOM     11  H   UNL     1       5.005   5.246   3.795  1.00  0.00     0.211 HD
ENDBRANCH   2  10
BRANCH   3  12
ATOM     12  O   UNL     1       6.030   7.876   3.824  1.00  0.00    -0.387 OA
ATOM     13  H   UNL     1       6.468   8.599   4.345  1.00  0.00     0.211 HD
ENDBRANCH   3  12
BRANCH   5  14
ATOM     14  C   UNL     1       1.629  10.123   4.664  1.00  0.00     0.191 C 
BRANCH  14  15
ATOM     15  O   UNL     1       0.348   9.890   5.186  1.00  0.00    -0.394 OA
ATOM     16  H   UNL     1      -0.302  10.138   4.480  1.00  0.00     0.210 HD
ENDBRANCH  14  15
ENDBRANCH   5  14
BRANCH   4  17
ATOM     17  O   UNL     1       4.008   9.752   3.101  1.00  0.00    -0.387 OA
ATOM     18  H   UNL     1       3.162   9.486   2.654  1.00  0.00     0.211 HD
ENDBRANCH   4  17
TORSDOF 7
ENDMDL
MODEL 5
REMARK VINA RESULT:    -2.685      1.755      4.250
REMARK INTER + INTRA:          -3.819
REMARK INTER:                  -3.557
REMARK INTRA:                  -0.262
REMARK UNBOUND:                -0.349
REMARK SMILES CCO[C@H]1O[C@H](CO)[C@H](O)[C@H](O)[C@H]1O
REMARK SMILES IDX 4 1 13 2 11 3 9 4 6 5 5 6 3 7 2 8 1 9 14 10 12 12 7 14 8 15
REMARK SMILES IDX 10 17
REMARK H PARENT 14 11 12 13 8 16 10 18
REMARK Flexibility Score: inf
ROOT
ATOM      1  C   UNL     1       3.072   8.350   4.195  1.00  0.00     0.281 C 
ATOM      2  C   UNL     1       4.611   8.269   4.380  1.00  0.00     0.202 C 
ATOM      3  C   UNL     1       5.265   7.332   3.331  1.00  0.00     0.179 C 
ATOM      4  C   UNL     1       4.254   6.308   2.789  1.00  0.00     0.177 C 
ATOM      5  C   UNL     1       3.038   7.083   2.187  1.00  0.00     0.178 C 
ATOM      6  O   UNL     1       2.736   8.329   2.816  1.00  0.00    -0.341 OA
ENDROOT
BRANCH   1   7
ATOM      7  O   UNL     1       2.603   9.553   4.779  1.00  0.00    -0.350 OA
BRANCH   7   8
ATOM      8  C   UNL     1       1.497   9.318   5.631  1.00  0.00     0.160 C 
ATOM      9  C   UNL     1       0.193   9.650   4.914  1.00  0.00     0.035 C 
ENDBRANCH   7   8
ENDBRANCH   1   7
BRANCH   2  10
ATOM     10  O   UNL     1       5.206   9.543   4.327  1.00  0.00    -0.385 OA
ATOM     11  H   UNL     1       6.149   9.422   4.040  1.00  0.00     0.211 HD
ENDBRANCH   2  10
BRANCH   3  12
ATOM     12  O   UNL     1       6.412   6.700   3.846  1.00  0.00    -0.387 OA
ATOM     13  H   UNL     1       6.498   5.814   3.406  1.00  0.00     0.211 HD
ENDBRANCH   3  12
BRANCH   5  14
ATOM     14  C   UNL     1       1.772   6.227   2.011  1.00  0.00     0.191 C 
BRANCH  14  15
ATOM     15  O   UNL     1       1.118   6.012   3.233  1.00  0.00    -0.394 OA
ATOM     16  H   UNL     1       0.584   5.183   3.134  1.00  0.00     0.210 HD
ENDBRANCH  14  15
ENDBRANCH   5  14
BRANCH   4  17
ATOM     17  O   UNL     1       3.853   5.442   3.824  1.00  0.00    -0.387 OA
ATOM     18  H   UNL     1       4.676   5.030   4.196  1.00  0.00     0.211 HD
ENDBRANCH   4  17
TORSDOF 7
ENDMDL
MODEL 6
REMARK VINA RESULT:    -2.634      2.412      4.370
REMARK INTER + INTRA:          -3.753
REMARK INTER:                  -3.335
REMARK INTRA:                  -0.418
REMARK UNBOUND:                -0.349
REMARK SMILES CCO[C@H]1O[C@H](CO)[C@H](O)[C@H](O)[C@H]1O
REMARK SMILES IDX 4 1 13 2 11 3 9 4 6 5 5 6 3 7 2 8 1 9 14 10 12 12 7 14 8 15
REMARK SMILES IDX 10 17
REMARK H PARENT 14 11 12 13 8 16 10 18
REMARK Flexibility Score: inf
ROOT
ATOM      1  C   UNL     1       1.989   6.584   2.676  1.00  0.00     0.281 C 
ATOM      2  C   UNL     1       1.210   7.816   2.143  1.00  0.00     0.202 C 
ATOM      3  C   UNL     1      -0.206   7.916   2.770  1.00  0.00     0.179 C 
ATOM      4  C   UNL     1      -0.694   6.544   3.264  1.00  0.00     0.177 C 
ATOM      5  C   UNL     1       0.347   5.985   4.286  1.00  0.00     0.178 C 
ATOM      6  O   UNL     1       1.702   6.373   4.050  1.00  0.00    -0.341 OA
ENDROOT
BRANCH   1   7
ATOM      7  O   UNL     1       3.377   6.812   2.511  1.00  0.00    -0.350 OA
BRANCH   7   8
ATOM      8  C   UNL     1       4.120   6.282   3.594  1.00  0.00     0.160 C 
ATOM      9  C   UNL     1       5.077   7.332   4.147  1.00  0.00     0.035 C 
ENDBRANCH   7   8
ENDBRANCH   1   7
BRANCH   2  10
ATOM     10  O   UNL     1       1.921   9.011   2.362  1.00  0.00    -0.385 OA
ATOM     11  H   UNL     1       1.259   9.749   2.409  1.00  0.00     0.211 HD
ENDBRANCH   2  10
BRANCH   3  12
ATOM     12  O   UNL     1      -1.125   8.500   1.880  1.00  0.00    -0.387 OA
ATOM     13  H   UNL     1      -0.613   9.035   1.218  1.00  0.00     0.211 HD
ENDBRANCH   3  12
BRANCH   5  14
ATOM     14  C   UNL     1       0.238   4.470   4.530  1.00  0.00     0.191 C 
BRANCH  14  15
ATOM     15  O   UNL     1      -1.087   4.080   4.779  1.00  0.00    -0.394 OA
ATOM     16  H   UNL     1      -1.400   3.590   3.977  1.00  0.00     0.210 HD
ENDBRANCH  14  15
ENDBRANCH   5  14
BRANCH   4  17
ATOM     17  O   UNL     1      -0.862   5.675   2.169  1.00  0.00    -0.387 OA
ATOM     18  H   UNL     1      -0.556   6.162   1.360  1.00  0.00     0.211 HD
ENDBRANCH   4  17
TORSDOF 7
ENDMDL
MODEL 7
REMARK VINA RESULT:    -2.618      1.637      3.287
REMARK INTER + INTRA:          -3.733
REMARK INTER:                  -3.331
REMARK INTRA:                  -0.401
REMARK UNBOUND:                -0.349
REMARK SMILES CCO[C@H]1O[C@H](CO)[C@H](O)[C@H](O)[C@H]1O
REMARK SMILES IDX 4 1 13 2 11 3 9 4 6 5 5 6 3 7 2 8 1 9 14 10 12 12 7 14 8 15
REMARK SMILES IDX 10 17
REMARK H PARENT 14 11 12 13 8 16 10 18
REMARK Flexibility Score: inf
ROOT
ATOM      1  C   UNL     1       4.971   6.374   3.359  1.00  0.00     0.281 C 
ATOM      2  C   UNL     1       3.528   6.879   3.622  1.00  0.00     0.202 C 
ATOM      3  C   UNL     1       3.321   8.325   3.099  1.00  0.00     0.179 C 
ATOM      4  C   UNL     1       4.658   9.079   3.003  1.00  0.00     0.177 C 
ATOM      5  C   UNL     1       5.622   8.267   2.081  1.00  0.00     0.178 C 
ATOM      6  O   UNL     1       5.443   6.850   2.108  1.00  0.00    -0.341 OA
ENDROOT
BRANCH   1   7
ATOM      7  O   UNL     1       4.967   4.957   3.357  1.00  0.00    -0.350 OA
BRANCH   7   8
ATOM      8  C   UNL     1       5.716   4.441   2.271  1.00  0.00     0.160 C 
ATOM      9  C   UNL     1       5.736   2.917   2.317  1.00  0.00     0.035 C 
ENDBRANCH   7   8
ENDBRANCH   1   7
BRANCH   2  10
ATOM     10  O   UNL     1       2.568   6.019   3.057  1.00  0.00    -0.385 OA
ATOM     11  H   UNL     1       2.431   5.266   3.688  1.00  0.00     0.211 HD
ENDBRANCH   2  10
BRANCH   3  12
ATOM     12  O   UNL     1       2.387   9.029   3.879  1.00  0.00    -0.387 OA
ATOM     13  H   UNL     1       2.827   9.852   4.218  1.00  0.00     0.211 HD
ENDBRANCH   3  12
BRANCH   5  14
ATOM     14  C   UNL     1       7.105   8.643   2.234  1.00  0.00     0.191 C 
BRANCH  14  15
ATOM     15  O   UNL     1       7.268  10.011   2.505  1.00  0.00    -0.394 OA
ATOM     16  H   UNL     1       8.076  10.308   2.014  1.00  0.00     0.210 HD
ENDBRANCH  14  15
ENDBRANCH   5  14
BRANCH   4  17
ATOM     17  O   UNL     1       5.199   9.253   4.292  1.00  0.00    -0.387 OA
ATOM     18  H   UNL     1       5.415   8.350   4.643  1.00  0.00     0.211 HD
ENDBRANCH   4  17
TORSDOF 7
ENDMDL
MODEL 8
REMARK VINA RESULT:    -2.357      1.914      4.537
REMARK INTER + INTRA:          -3.395
REMARK INTER:                  -2.946
REMARK INTRA:                  -0.450
REMARK UNBOUND:                -0.349
REMARK SMILES CCO[C@H]1O[C@H](CO)[C@H](O)[C@H](O)[C@H]1O
REMARK SMILES IDX 4 1 13 2 11 3 9 4 6 5 5 6 3 7 2 8 1 9 14 10 12 12 7 14 8 15
REMARK SMILES IDX 10 17
REMARK H PARENT 14 11 12 13 8 16 10 18
REMARK Flexibility Score: inf
ROOT
ATOM      1  C   UNL     1       3.150   7.661   2.307  1.00  0.00     0.281 C 
ATOM      2  C   UNL     1       3.529   6.298   2.945  1.00  0.00     0.202 C 
ATOM      3  C   UNL     1       4.805   6.411   3.821  1.00  0.00     0.179 C 
ATOM      4  C   UNL     1       5.672   7.606   3.392  1.00  0.00     0.177 C 
ATOM      5  C   UNL     1       4.805   8.902   3.473  1.00  0.00     0.178 C 
ATOM      6  O   UNL     1       3.412   8.722   3.211  1.00  0.00    -0.341 OA
ENDROOT
BRANCH   1   7
ATOM      7  O   UNL     1       1.771   7.645   1.980  1.00  0.00    -0.350 OA
BRANCH   7   8
ATOM      8  C   UNL     1       1.090   8.742   2.563  1.00  0.00     0.160 C 
ATOM      9  C   UNL     1      -0.127   8.257   3.344  1.00  0.00     0.035 C 
ENDBRANCH   7   8
ENDBRANCH   1   7
BRANCH   2  10
ATOM     10  O   UNL     1       2.468   5.769   3.703  1.00  0.00    -0.385 OA
ATOM     11  H   UNL     1       1.643   5.840   3.156  1.00  0.00     0.211 HD
ENDBRANCH   2  10
BRANCH   3  12
ATOM     12  O   UNL     1       5.542   5.212   3.818  1.00  0.00    -0.387 OA
ATOM     13  H   UNL     1       6.222   5.269   4.538  1.00  0.00     0.211 HD
ENDBRANCH   3  12
BRANCH   5  14
ATOM     14  C   UNL     1       5.371  10.089   2.674  1.00  0.00     0.191 C 
BRANCH  14  15
ATOM     15  O   UNL     1       6.773  10.125   2.723  1.00  0.00    -0.394 OA
ATOM     16  H   UNL     1       7.103   9.591   1.955  1.00  0.00     0.210 HD
ENDBRANCH  14  15
ENDBRANCH   5  14
BRANCH   4  17
ATOM     17  O   UNL     1       6.165   7.394   2.090  1.00  0.00    -0.387 OA
ATOM     18  H   UNL     1       6.648   8.218   1.822  1.00  0.00     0.211 HD
ENDBRANCH   4  17
TORSDOF 7
ENDMDL
MODEL 9
REMARK VINA RESULT:    -2.322      1.757      3.955
REMARK INTER + INTRA:          -3.350
REMARK INTER:                  -3.148
REMARK INTRA:                  -0.203
REMARK UNBOUND:                -0.349
REMARK SMILES CCO[C@H]1O[C@H](CO)[C@H](O)[C@H](O)[C@H]1O
REMARK SMILES IDX 4 1 13 2 11 3 9 4 6 5 5 6 3 7 2 8 1 9 14 10 12 12 7 14 8 15
REMARK SMILES IDX 10 17
REMARK H PARENT 14 11 12 13 8 16 10 18
REMARK Flexibility Score: inf
ROOT
ATOM      1  C   UNL     1       2.719   7.071   3.612  1.00  0.00     0.281 C 
ATOM      2  C   UNL     1       1.203   6.899   3.328  1.00  0.00     0.202 C 
ATOM      3  C   UNL     1       0.466   8.264   3.302  1.00  0.00     0.179 C 
ATOM      4  C   UNL     1       1.234   9.327   4.104  1.00  0.00     0.177 C 
ATOM      5  C   UNL     1       2.678   9.444   3.521  1.00  0.00     0.178 C 
ATOM      6  O   UNL     1       3.214   8.238   2.974  1.00  0.00    -0.341 OA
ENDROOT
BRANCH   1   7
ATOM      7  O   UNL     1       3.409   5.934   3.121  1.00  0.00    -0.350 OA
BRANCH   7   8
ATOM      8  C   UNL     1       4.784   5.980   3.457  1.00  0.00     0.160 C 
ATOM      9  C   UNL     1       5.511   4.768   2.884  1.00  0.00     0.035 C 
ENDBRANCH   7   8
ENDBRANCH   1   7
BRANCH   2  10
ATOM     10  O   UNL     1       0.978   6.205   2.125  1.00  0.00    -0.385 OA
ATOM     11  H   UNL     1       0.424   5.409   2.337  1.00  0.00     0.211 HD
ENDBRANCH   2  10
BRANCH   3  12
ATOM     12  O   UNL     1      -0.863   8.142   3.745  1.00  0.00    -0.387 OA
ATOM     13  H   UNL     1      -0.863   7.578   4.561  1.00  0.00     0.211 HD
ENDBRANCH   3  12
BRANCH   5  14
ATOM     14  C   UNL     1       3.685  10.121   4.466  1.00  0.00     0.191 C 
BRANCH  14  15
ATOM     15  O   UNL     1       5.007   9.766   4.156  1.00  0.00    -0.394 OA
ATOM     16  H   UNL     1       5.409   9.398   4.984  1.00  0.00     0.210 HD
ENDBRANCH  14  15
ENDBRANCH   5  14
BRANCH   4  17
ATOM     17  O   UNL     1       1.253   8.972   5.467  1.00  0.00    -0.387 OA
ATOM     18  H   UNL     1       1.477   8.007   5.515  1.00  0.00     0.211 HD
ENDBRANCH   4  17
TORSDOF 7
ENDMDL
