MODEL 1
REMARK VINA RESULT:    -4.542      0.000      0.000
REMARK INTER + INTRA:          -5.321
REMARK INTER:                  -5.604
REMARK INTRA:                   0.283
REMARK UNBOUND:                 0.283
REMARK SMILES C=C1CC[C@H]2[C@@H]1[C@H]1[C@H](CC[C@@H]2C)C1(C)C
REMARK SMILES IDX 6 1 5 2 4 3 3 4 2 5 1 6 11 7 12 8 10 9 7 11 8 12 13 13 14 14
REMARK SMILES IDX 15 15 9 16
REMARK H PARENT
REMARK Flexibility Score: 80.00
ROOT
ATOM      1  C   UNL     1      -2.298 -16.092   9.439  1.00  0.00     0.022 C 
ATOM      2  C   UNL     1      -3.272 -16.106   8.212  1.00  0.00    -0.000 C 
ATOM      3  C   UNL     1      -2.735 -15.026   7.241  1.00  0.00     0.009 C 
ATOM      4  C   UNL     1      -1.314 -14.673   7.647  1.00  0.00     0.031 C 
ATOM      5  C   UNL     1      -1.164 -15.215   9.017  1.00  0.00    -0.074 C 
ATOM      6  C   UNL     1      -0.059 -15.010   9.745  1.00  0.00     0.008 C 
ENDROOT
BRANCH   2   7
ATOM      7  C   UNL     1      -4.826 -15.900   8.463  1.00  0.00    -0.011 C 
ATOM      8  C   UNL     1      -5.591 -16.032   7.128  1.00  0.00     0.008 C 
BRANCH   7   9
ATOM      9  C   UNL     1      -5.480 -16.876   9.489  1.00  0.00     0.004 CG0
ATOM     10  G   UNL     1      -5.240 -16.497  10.964  1.00  0.00     0.000 G0
ENDBRANCH   7   9
ENDBRANCH   2   7
BRANCH   1  11
ATOM     11  C   UNL     1      -2.985 -15.546  10.697  1.00  0.00     0.006 C 
ATOM     12  C   UNL     1      -3.781 -16.740  11.277  1.00  0.00    -0.001 C 
ATOM     13  C   UNL     1      -2.841 -15.949  12.169  1.00  0.00    -0.029 C 
ATOM     14  C   UNL     1      -1.576 -16.696  12.603  1.00  0.00     0.012 C 
ATOM     15  C   UNL     1      -3.513 -15.052  13.215  1.00  0.00     0.012 C 
BRANCH  12  16
ATOM     16  C   UNL     1      -5.247 -16.497  10.964  1.00  0.00     0.005 CG0
ATOM     17  G   UNL     1      -5.477 -16.867   9.486  1.00  0.00     0.000 G0
ENDBRANCH  12  16
ENDBRANCH   1  11
TORSDOF 0
ENDMDL
MODEL 2
REMARK VINA RESULT:    -4.503      2.187      3.409
REMARK INTER + INTRA:          -5.273
REMARK INTER:                  -5.547
REMARK INTRA:                   0.273
REMARK UNBOUND:                 0.283
REMARK SMILES C=C1CC[C@H]2[C@@H]1[C@H]1[C@H](CC[C@@H]2C)C1(C)C
REMARK SMILES IDX 6 1 5 2 4 3 3 4 2 5 1 6 11 7 12 8 10 9 7 11 8 12 13 13 14 14
REMARK SMILES IDX 15 15 9 16
REMARK H PARENT
REMARK Flexibility Score: 80.00
ROOT
ATOM      1  C   UNL     1      -3.725 -16.027   9.681  1.00  0.00     0.022 C 
ATOM      2  C   UNL     1      -4.529 -16.287   8.360  1.00  0.00    -0.000 C 
ATOM      3  C   UNL     1      -4.260 -17.767   7.993  1.00  0.00     0.009 C 
ATOM      4  C   UNL     1      -3.680 -18.470   9.210  1.00  0.00     0.031 C 
ATOM      5  C   UNL     1      -3.255 -17.378  10.114  1.00  0.00    -0.074 C 
ATOM      6  C   UNL     1      -2.605 -17.616  11.260  1.00  0.00     0.008 C 
ENDROOT
BRANCH   2   7
ATOM      7  C   UNL     1      -4.268 -15.351   7.106  1.00  0.00    -0.011 C 
ATOM      8  C   UNL     1      -5.219 -15.744   5.955  1.00  0.00     0.008 C 
BRANCH   7   9
ATOM      9  C   UNL     1      -4.431 -13.820   7.360  1.00  0.00     0.004 CG0
ATOM     10  G   UNL     1      -3.216 -13.158   8.040  1.00  0.00     0.000 G0
ENDBRANCH   7   9
ENDBRANCH   2   7
BRANCH   1  11
ATOM     11  C   UNL     1      -2.545 -15.076   9.443  1.00  0.00     0.006 C 
ATOM     12  C   UNL     1      -3.155 -13.655   9.473  1.00  0.00    -0.001 C 
ATOM     13  C   UNL     1      -1.949 -13.982  10.334  1.00  0.00    -0.029 C 
ATOM     14  C   UNL     1      -2.222 -14.035  11.841  1.00  0.00     0.012 C 
ATOM     15  C   UNL     1      -0.622 -13.354   9.889  1.00  0.00     0.012 C 
BRANCH  12  16
ATOM     16  C   UNL     1      -3.210 -13.160   8.038  1.00  0.00     0.005 CG0
ATOM     17  G   UNL     1      -4.424 -13.823   7.360  1.00  0.00     0.000 G0
ENDBRANCH  12  16
ENDBRANCH   1  11
TORSDOF 0
ENDMDL
MODEL 3
REMARK VINA RESULT:    -4.353      2.234      4.795
REMARK INTER + INTRA:          -5.087
REMARK INTER:                  -5.351
REMARK INTRA:                   0.263
REMARK UNBOUND:                 0.283
REMARK SMILES C=C1CC[C@H]2[C@@H]1[C@H]1[C@H](CC[C@@H]2C)C1(C)C
REMARK SMILES IDX 6 1 5 2 4 3 3 4 2 5 1 6 11 7 12 8 10 9 7 11 8 12 13 13 14 14
REMARK SMILES IDX 15 15 9 16
REMARK H PARENT
REMARK Flexibility Score: 80.00
ROOT
ATOM      1  C   UNL     1      -2.712 -16.374   9.295  1.00  0.00     0.022 C 
ATOM      2  C   UNL     1      -2.186 -15.835  10.670  1.00  0.00    -0.000 C 
ATOM      3  C   UNL     1      -2.767 -16.790  11.741  1.00  0.00     0.009 C 
ATOM      4  C   UNL     1      -3.261 -18.050  11.050  1.00  0.00     0.031 C 
ATOM      5  C   UNL     1      -3.338 -17.692   9.616  1.00  0.00    -0.074 C 
ATOM      6  C   UNL     1      -3.830 -18.535   8.698  1.00  0.00     0.008 C 
ENDROOT
BRANCH   2   7
ATOM      7  C   UNL     1      -2.473 -14.324  11.063  1.00  0.00    -0.011 C 
ATOM      8  C   UNL     1      -1.807 -14.003  12.418  1.00  0.00     0.008 C 
BRANCH   7   9
ATOM      9  C   UNL     1      -1.997 -13.255  10.030  1.00  0.00     0.004 CG0
ATOM     10  G   UNL     1      -2.944 -13.073   8.827  1.00  0.00     0.000 G0
ENDBRANCH   7   9
ENDBRANCH   2   7
BRANCH   1  11
ATOM     11  C   UNL     1      -3.728 -15.412   8.666  1.00  0.00     0.006 C 
ATOM     12  C   UNL     1      -2.881 -14.324   7.967  1.00  0.00    -0.001 C 
ATOM     13  C   UNL     1      -3.977 -15.041   7.200  1.00  0.00    -0.029 C 
ATOM     14  C   UNL     1      -3.487 -15.998   6.109  1.00  0.00     0.012 C 
ATOM     15  C   UNL     1      -5.225 -14.207   6.885  1.00  0.00     0.012 C 
BRANCH  12  16
ATOM     16  C   UNL     1      -2.962 -13.072   8.823  1.00  0.00     0.005 CG0
ATOM     17  G   UNL     1      -2.023 -13.268  10.029  1.00  0.00     0.000 G0
ENDBRANCH  12  16
ENDBRANCH   1  11
TORSDOF 0
ENDMDL
MODEL 4
REMARK VINA RESULT:    -4.267      1.912      4.867
REMARK INTER + INTRA:          -4.982
REMARK INTER:                  -5.259
REMARK INTRA:                   0.277
REMARK UNBOUND:                 0.283
REMARK SMILES C=C1CC[C@H]2[C@@H]1[C@H]1[C@H](CC[C@@H]2C)C1(C)C
REMARK SMILES IDX 6 1 5 2 4 3 3 4 2 5 1 6 11 7 12 8 10 9 7 11 8 12 13 13 14 14
REMARK SMILES IDX 15 15 9 16
REMARK H PARENT
REMARK Flexibility Score: 80.00
ROOT
ATOM      1  C   UNL     1      -3.420 -16.278   9.812  1.00  0.00     0.022 C 
ATOM      2  C   UNL     1      -1.958 -15.899  10.231  1.00  0.00    -0.000 C 
ATOM      3  C   UNL     1      -2.070 -15.328  11.665  1.00  0.00     0.009 C 
ATOM      4  C   UNL     1      -3.426 -15.712  12.236  1.00  0.00     0.031 C 
ATOM      5  C   UNL     1      -4.224 -16.137  11.064  1.00  0.00    -0.074 C 
ATOM      6  C   UNL     1      -5.520 -16.461  11.167  1.00  0.00     0.008 C 
ENDROOT
BRANCH   2   7
ATOM      7  C   UNL     1      -1.126 -14.913   9.306  1.00  0.00    -0.011 C 
ATOM      8  C   UNL     1       0.300 -14.746   9.873  1.00  0.00     0.008 C 
BRANCH   7   9
ATOM      9  C   UNL     1      -1.001 -15.334   7.809  1.00  0.00     0.004 CG0
ATOM     10  G   UNL     1      -2.240 -15.004   6.953  1.00  0.00     0.000 G0
ENDBRANCH   7   9
ENDBRANCH   2   7
BRANCH   1  11
ATOM     11  C   UNL     1      -3.946 -15.355   8.705  1.00  0.00     0.006 C 
ATOM     12  C   UNL     1      -3.366 -15.926   7.390  1.00  0.00    -0.001 C 
ATOM     13  C   UNL     1      -4.854 -15.650   7.506  1.00  0.00    -0.029 C 
ATOM     14  C   UNL     1      -5.744 -16.896   7.551  1.00  0.00     0.012 C 
ATOM     15  C   UNL     1      -5.373 -14.451   6.704  1.00  0.00     0.012 C 
BRANCH  12  16
ATOM     16  C   UNL     1      -2.244 -15.000   6.954  1.00  0.00     0.005 CG0
ATOM     17  G   UNL     1      -1.002 -15.338   7.803  1.00  0.00     0.000 G0
ENDBRANCH  12  16
ENDBRANCH   1  11
TORSDOF 0
ENDMDL
MODEL 5
REMARK VINA RESULT:    -4.211      1.416      3.384
REMARK INTER + INTRA:          -4.913
REMARK INTER:                  -5.199
REMARK INTRA:                   0.286
REMARK UNBOUND:                 0.283
REMARK SMILES C=C1CC[C@H]2[C@@H]1[C@H]1[C@H](CC[C@@H]2C)C1(C)C
REMARK SMILES IDX 6 1 5 2 4 3 3 4 2 5 1 6 11 7 12 8 10 9 7 11 8 12 13 13 14 14
REMARK SMILES IDX 15 15 9 16
REMARK H PARENT
REMARK Flexibility Score: 80.00
ROOT
ATOM      1  C   UNL     1      -3.319 -16.062   8.910  1.00  0.00     0.022 C 
ATOM      2  C   UNL     1      -4.536 -16.672   9.686  1.00  0.00    -0.000 C 
ATOM      3  C   UNL     1      -5.756 -16.501   8.748  1.00  0.00     0.009 C 
ATOM      4  C   UNL     1      -5.251 -16.193   7.348  1.00  0.00     0.031 C 
ATOM      5  C   UNL     1      -3.834 -15.806   7.532  1.00  0.00    -0.074 C 
ATOM      6  C   UNL     1      -3.079 -15.370   6.515  1.00  0.00     0.008 C 
ENDROOT
BRANCH   2   7
ATOM      7  C   UNL     1      -4.873 -16.125  11.137  1.00  0.00    -0.011 C 
ATOM      8  C   UNL     1      -6.054 -16.923  11.733  1.00  0.00     0.008 C 
BRANCH   7   9
ATOM      9  C   UNL     1      -3.700 -16.166  12.165  1.00  0.00     0.004 CG0
ATOM     10  G   UNL     1      -2.700 -15.000  12.030  1.00  0.00     0.000 G0
ENDBRANCH   7   9
ENDBRANCH   2   7
BRANCH   1  11
ATOM     11  C   UNL     1      -2.823 -14.768   9.569  1.00  0.00     0.006 C 
ATOM     12  C   UNL     1      -1.927 -15.227  10.744  1.00  0.00    -0.001 C 
ATOM     13  C   UNL     1      -1.404 -14.215   9.741  1.00  0.00    -0.029 C 
ATOM     14  C   UNL     1      -0.300 -14.731   8.813  1.00  0.00     0.012 C 
ATOM     15  C   UNL     1      -1.265 -12.777  10.256  1.00  0.00     0.012 C 
BRANCH  12  16
ATOM     16  C   UNL     1      -2.712 -15.000  12.023  1.00  0.00     0.005 CG0
ATOM     17  G   UNL     1      -3.705 -16.169  12.176  1.00  0.00     0.000 G0
ENDBRANCH  12  16
ENDBRANCH   1  11
TORSDOF 0
ENDMDL
MODEL 6
REMARK VINA RESULT:    -3.978      1.723      3.817
REMARK INTER + INTRA:          -4.625
REMARK INTER:                  -4.915
REMARK INTRA:                   0.290
REMARK UNBOUND:                 0.283
REMARK SMILES C=C1CC[C@H]2[C@@H]1[C@H]1[C@H](CC[C@@H]2C)C1(C)C
REMARK SMILES IDX 6 1 5 2 4 3 3 4 2 5 1 6 11 7 12 8 10 9 7 11 8 12 13 13 14 14
REMARK SMILES IDX 15 15 9 16
REMARK H PARENT
REMARK Flexibility Score: 80.00
ROOT
ATOM      1  C   UNL     1      -3.419 -15.129  10.357  1.00  0.00     0.022 C 
ATOM      2  C   UNL     1      -4.461 -15.958   9.530  1.00  0.00    -0.000 C 
ATOM      3  C   UNL     1      -4.848 -17.158  10.430  1.00  0.00     0.009 C 
ATOM      4  C   UNL     1      -4.398 -16.862  11.852  1.00  0.00     0.031 C 
ATOM      5  C   UNL     1      -3.445 -15.737  11.722  1.00  0.00    -0.074 C 
ATOM      6  C   UNL     1      -2.763 -15.259  12.772  1.00  0.00     0.008 C 
ENDROOT
BRANCH   2   7
ATOM      7  C   UNL     1      -4.064 -16.461   8.079  1.00  0.00    -0.011 C 
ATOM      8  C   UNL     1      -5.266 -17.181   7.429  1.00  0.00     0.008 C 
BRANCH   7   9
ATOM      9  C   UNL     1      -3.575 -15.357   7.091  1.00  0.00     0.004 CG0
ATOM     10  G   UNL     1      -2.098 -14.955   7.271  1.00  0.00     0.000 G0
ENDBRANCH   7   9
ENDBRANCH   2   7
BRANCH   1  11
ATOM     11  C   UNL     1      -2.018 -15.210   9.738  1.00  0.00     0.006 C 
ATOM     12  C   UNL     1      -2.023 -14.181   8.583  1.00  0.00    -0.001 C 
ATOM     13  C   UNL     1      -0.915 -14.152   9.621  1.00  0.00    -0.029 C 
ATOM     14  C   UNL     1      -0.948 -12.952  10.572  1.00  0.00     0.012 C 
ATOM     15  C   UNL     1       0.463 -14.620   9.137  1.00  0.00     0.012 C 
BRANCH  12  16
ATOM     16  C   UNL     1      -2.108 -14.964   7.285  1.00  0.00     0.005 CG0
ATOM     17  G   UNL     1      -3.580 -15.374   7.082  1.00  0.00     0.000 G0
ENDBRANCH  12  16
ENDBRANCH   1  11
TORSDOF 0
ENDMDL
MODEL 7
REMARK VINA RESULT:    -3.875      1.760      4.015
REMARK INTER + INTRA:          -4.498
REMARK INTER:                  -4.774
REMARK INTRA:                   0.276
REMARK UNBOUND:                 0.283
REMARK SMILES C=C1CC[C@H]2[C@@H]1[C@H]1[C@H](CC[C@@H]2C)C1(C)C
REMARK SMILES IDX 6 1 5 2 4 3 3 4 2 5 1 6 11 7 12 8 10 9 7 11 8 12 13 13 14 14
REMARK SMILES IDX 15 15 9 16
REMARK H PARENT
REMARK Flexibility Score: 80.00
ROOT
ATOM      1  C   UNL     1      -3.458 -15.240   9.726  1.00  0.00     0.022 C 
ATOM      2  C   UNL     1      -2.959 -14.990  11.190  1.00  0.00    -0.000 C 
ATOM      3  C   UNL     1      -1.921 -13.846  11.087  1.00  0.00     0.009 C 
ATOM      4  C   UNL     1      -2.078 -13.169   9.735  1.00  0.00     0.031 C 
ATOM      5  C   UNL     1      -2.885 -14.113   8.929  1.00  0.00    -0.074 C 
ATOM      6  C   UNL     1      -3.151 -13.895   7.635  1.00  0.00     0.008 C 
ENDROOT
BRANCH   2   7
ATOM      7  C   UNL     1      -2.360 -16.206  12.016  1.00  0.00    -0.011 C 
ATOM      8  C   UNL     1      -2.015 -15.744  13.448  1.00  0.00     0.008 C 
BRANCH   7   9
ATOM      9  C   UNL     1      -3.276 -17.464  12.126  1.00  0.00     0.004 CG0
ATOM     10  G   UNL     1      -3.253 -18.374  10.882  1.00  0.00     0.000 G0
ENDBRANCH   7   9
ENDBRANCH   2   7
BRANCH   1  11
ATOM     11  C   UNL     1      -2.980 -16.597   9.193  1.00  0.00     0.006 C 
ATOM     12  C   UNL     1      -3.980 -17.632   9.760  1.00  0.00    -0.001 C 
ATOM     13  C   UNL     1      -3.672 -17.609   8.274  1.00  0.00    -0.029 C 
ATOM     14  C   UNL     1      -4.818 -17.123   7.381  1.00  0.00     0.012 C 
ATOM     15  C   UNL     1      -2.830 -18.779   7.750  1.00  0.00     0.012 C 
BRANCH  12  16
ATOM     16  C   UNL     1      -3.273 -18.374  10.881  1.00  0.00     0.005 CG0
ATOM     17  G   UNL     1      -3.277 -17.460  12.122  1.00  0.00     0.000 G0
ENDBRANCH  12  16
ENDBRANCH   1  11
TORSDOF 0
ENDMDL
MODEL 8
REMARK VINA RESULT:    -3.616      1.682      4.055
REMARK INTER + INTRA:          -4.179
REMARK INTER:                  -4.442
REMARK INTRA:                   0.263
REMARK UNBOUND:                 0.283
REMARK SMILES C=C1CC[C@H]2[C@@H]1[C@H]1[C@H](CC[C@@H]2C)C1(C)C
REMARK SMILES IDX 6 1 5 2 4 3 3 4 2 5 1 6 11 7 12 8 10 9 7 11 8 12 13 13 14 14
REMARK SMILES IDX 15 15 9 16
REMARK H PARENT
REMARK Flexibility Score: 80.00
ROOT
ATOM      1  C   UNL     1      -3.499 -14.876   9.697  1.00  0.00     0.022 C 
ATOM      2  C   UNL     1      -2.976 -15.684  10.933  1.00  0.00    -0.000 C 
ATOM      3  C   UNL     1      -1.650 -15.000  11.347  1.00  0.00     0.009 C 
ATOM      4  C   UNL     1      -1.580 -13.635  10.682  1.00  0.00     0.031 C 
ATOM      5  C   UNL     1      -2.610 -13.677   9.620  1.00  0.00    -0.074 C 
ATOM      6  C   UNL     1      -2.777 -12.670   8.753  1.00  0.00     0.008 C 
ENDROOT
BRANCH   2   7
ATOM      7  C   UNL     1      -2.770 -17.251  10.795  1.00  0.00    -0.011 C 
ATOM      8  C   UNL     1      -2.316 -17.839  12.149  1.00  0.00     0.008 C 
BRANCH   7   9
ATOM      9  C   UNL     1      -4.018 -18.057  10.317  1.00  0.00     0.004 CG0
ATOM     10  G   UNL     1      -4.252 -18.017   8.794  1.00  0.00     0.000 G0
ENDBRANCH   7   9
ENDBRANCH   2   7
BRANCH   1  11
ATOM     11  C   UNL     1      -3.425 -15.707   8.409  1.00  0.00     0.006 C 
ATOM     12  C   UNL     1      -4.691 -16.595   8.425  1.00  0.00    -0.001 C 
ATOM     13  C   UNL     1      -4.363 -15.760   7.199  1.00  0.00    -0.029 C 
ATOM     14  C   UNL     1      -5.304 -14.577   6.950  1.00  0.00     0.012 C 
ATOM     15  C   UNL     1      -3.886 -16.542   5.970  1.00  0.00     0.012 C 
BRANCH  12  16
ATOM     16  C   UNL     1      -4.248 -18.003   8.779  1.00  0.00     0.005 CG0
ATOM     17  G   UNL     1      -4.022 -18.053  10.303  1.00  0.00     0.000 G0
ENDBRANCH  12  16
ENDBRANCH   1  11
TORSDOF 0
ENDMDL
MODEL 9
REMARK VINA RESULT:    -3.484      1.824      3.677
REMARK INTER + INTRA:          -4.016
REMARK INTER:                  -4.296
REMARK INTRA:                   0.280
REMARK UNBOUND:                 0.283
REMARK SMILES C=C1CC[C@H]2[C@@H]1[C@H]1[C@H](CC[C@@H]2C)C1(C)C
REMARK SMILES IDX 6 1 5 2 4 3 3 4 2 5 1 6 11 7 12 8 10 9 7 11 8 12 13 13 14 14
REMARK SMILES IDX 15 15 9 16
REMARK H PARENT
REMARK Flexibility Score: 80.00
ROOT
ATOM      1  C   UNL     1      -4.150 -15.613  10.277  1.00  0.00     0.022 C 
ATOM      2  C   UNL     1      -3.754 -15.386   8.778  1.00  0.00    -0.000 C 
ATOM      3  C   UNL     1      -4.623 -16.376   7.963  1.00  0.00     0.009 C 
ATOM      4  C   UNL     1      -5.754 -16.870   8.850  1.00  0.00     0.031 C 
ATOM      5  C   UNL     1      -5.345 -16.508  10.226  1.00  0.00    -0.074 C 
ATOM      6  C   UNL     1      -6.060 -16.872  11.298  1.00  0.00     0.008 C 
ENDROOT
BRANCH   2   7
ATOM      7  C   UNL     1      -2.229 -15.515   8.358  1.00  0.00    -0.011 C 
ATOM      8  C   UNL     1      -2.070 -15.181   6.859  1.00  0.00     0.008 C 
BRANCH   7   9
ATOM      9  C   UNL     1      -1.230 -14.622   9.158  1.00  0.00     0.004 CG0
ATOM     10  G   UNL     1      -0.824 -15.196  10.529  1.00  0.00     0.000 G0
ENDBRANCH   7   9
ENDBRANCH   2   7
BRANCH   1  11
ATOM     11  C   UNL     1      -3.005 -16.257  11.070  1.00  0.00     0.006 C 
ATOM     12  C   UNL     1      -2.053 -15.092  11.429  1.00  0.00    -0.001 C 
ATOM     13  C   UNL     1      -2.542 -16.035  12.514  1.00  0.00    -0.029 C 
ATOM     14  C   UNL     1      -3.527 -15.420  13.513  1.00  0.00     0.012 C 
ATOM     15  C   UNL     1      -1.495 -17.005  13.075  1.00  0.00     0.012 C 
BRANCH  12  16
ATOM     16  C   UNL     1      -0.839 -15.210  10.524  1.00  0.00     0.005 CG0
ATOM     17  G   UNL     1      -1.220 -14.620   9.152  1.00  0.00     0.000 G0
ENDBRANCH  12  16
ENDBRANCH   1  11
TORSDOF 0
ENDMDL
