MODEL 1
REMARK VINA RESULT:    -2.216      0.000      0.000
REMARK INTER + INTRA:          -2.216
REMARK INTER:                  -2.216
REMARK INTRA:                   0.000
REMARK UNBOUND:                 0.000
REMARK SMILES CC(=O)[O-]
REMARK SMILES IDX 1 1 2 2 3 3 4 4
REMARK H PARENT
REMARK Flexibility Score: inf
ROOT
ATOM      1  C   UNL     1     299.317 323.702 647.615  1.00  0.00     0.063 C 
ATOM      2  C   UNL     1     299.230 324.708 646.518  1.00  0.00     0.038 C 
ATOM      3  O   UNL     1     298.875 324.355 645.363  1.00  0.00    -0.550 OA
ATOM      4  O   UNL     1     299.488 326.047 646.780  1.00  0.00    -0.550 OA
ENDROOT
TORSDOF 0
ENDMDL
MODEL 2
REMARK VINA RESULT:    -2.185      1.646      1.897
REMARK INTER + INTRA:          -2.185
REMARK INTER:                  -2.185
REMARK INTRA:                   0.000
REMARK UNBOUND:                 0.000
REMARK SMILES CC(=O)[O-]
REMARK SMILES IDX 1 1 2 2 3 3 4 4
REMARK H PARENT
REMARK Flexibility Score: inf
ROOT
ATOM      1  C   UNL     1     298.932 324.408 645.720  1.00  0.00     0.063 C 
ATOM      2  C   UNL     1     299.330 324.230 647.146  1.00  0.00     0.038 C 
ATOM      3  O   UNL     1     298.891 323.252 647.807  1.00  0.00    -0.550 OA
ATOM      4  O   UNL     1     300.228 325.111 647.733  1.00  0.00    -0.550 OA
ENDROOT
TORSDOF 0
ENDMDL
MODEL 3
REMARK VINA RESULT:    -2.170      0.118      1.618
REMARK INTER + INTRA:          -2.170
REMARK INTER:                  -2.170
REMARK INTRA:                   0.000
REMARK UNBOUND:                 0.000
REMARK SMILES CC(=O)[O-]
REMARK SMILES IDX 1 1 2 2 3 3 4 4
REMARK H PARENT
REMARK Flexibility Score: inf
ROOT
ATOM      1  C   UNL     1     299.316 323.684 647.645  1.00  0.00     0.063 C 
ATOM      2  C   UNL     1     299.255 324.749 646.602  1.00  0.00     0.038 C 
ATOM      3  O   UNL     1     299.594 325.928 646.883  1.00  0.00    -0.550 OA
ATOM      4  O   UNL     1     298.875 324.432 645.305  1.00  0.00    -0.550 OA
ENDROOT
TORSDOF 0
ENDMDL
MODEL 4
REMARK VINA RESULT:    -2.042      1.416      1.856
REMARK INTER + INTRA:          -2.042
REMARK INTER:                  -2.042
REMARK INTRA:                   0.000
REMARK UNBOUND:                 0.000
REMARK SMILES CC(=O)[O-]
REMARK SMILES IDX 1 1 2 2 3 3 4 4
REMARK H PARENT
REMARK Flexibility Score: inf
ROOT
ATOM      1  C   UNL     1     299.274 323.719 647.565  1.00  0.00     0.063 C 
ATOM      2  C   UNL     1     300.120 324.942 647.451  1.00  0.00     0.038 C 
ATOM      3  O   UNL     1     301.346 324.889 647.731  1.00  0.00    -0.550 OA
ATOM      4  O   UNL     1     299.570 326.127 646.982  1.00  0.00    -0.550 OA
ENDROOT
TORSDOF 0
ENDMDL
MODEL 5
REMARK VINA RESULT:    -2.029      1.422      1.887
REMARK INTER + INTRA:          -2.029
REMARK INTER:                  -2.029
REMARK INTRA:                   0.000
REMARK UNBOUND:                 0.000
REMARK SMILES CC(=O)[O-]
REMARK SMILES IDX 1 1 2 2 3 3 4 4
REMARK H PARENT
REMARK Flexibility Score: inf
ROOT
ATOM      1  C   UNL     1     299.251 323.726 647.584  1.00  0.00     0.063 C 
ATOM      2  C   UNL     1     300.119 324.930 647.438  1.00  0.00     0.038 C 
ATOM      3  O   UNL     1     299.622 326.025 647.067  1.00  0.00    -0.550 OA
ATOM      4  O   UNL     1     301.467 324.860 647.764  1.00  0.00    -0.550 OA
ENDROOT
TORSDOF 0
ENDMDL
MODEL 6
REMARK VINA RESULT:    -1.983      8.260      8.627
REMARK INTER + INTRA:          -1.983
REMARK INTER:                  -1.983
REMARK INTRA:                   0.000
REMARK UNBOUND:                 0.000
REMARK SMILES CC(=O)[O-]
REMARK SMILES IDX 1 1 2 2 3 3 4 4
REMARK H PARENT
REMARK Flexibility Score: inf
ROOT
ATOM      1  C   UNL     1     305.977 320.420 651.269  1.00  0.00     0.063 C 
ATOM      2  C   UNL     1     306.052 321.821 650.762  1.00  0.00     0.038 C 
ATOM      3  O   UNL     1     304.997 322.480 650.569  1.00  0.00    -0.550 OA
ATOM      4  O   UNL     1     307.287 322.420 650.554  1.00  0.00    -0.550 OA
ENDROOT
TORSDOF 0
ENDMDL
MODEL 7
REMARK VINA RESULT:    -1.965      8.368      8.721
REMARK INTER + INTRA:          -1.965
REMARK INTER:                  -1.965
REMARK INTRA:                   0.000
REMARK UNBOUND:                 0.000
REMARK SMILES CC(=O)[O-]
REMARK SMILES IDX 1 1 2 2 3 3 4 4
REMARK H PARENT
REMARK Flexibility Score: inf
ROOT
ATOM      1  C   UNL     1     305.285 322.191 650.539  1.00  0.00     0.063 C 
ATOM      2  C   UNL     1     305.496 320.720 650.656  1.00  0.00     0.038 C 
ATOM      3  O   UNL     1     306.000 320.235 651.702  1.00  0.00    -0.550 OA
ATOM      4  O   UNL     1     305.088 319.875 649.632  1.00  0.00    -0.550 OA
ENDROOT
TORSDOF 0
ENDMDL
MODEL 8
REMARK VINA RESULT:    -1.840     10.544     10.993
REMARK INTER + INTRA:          -1.840
REMARK INTER:                  -1.840
REMARK INTRA:                   0.000
REMARK UNBOUND:                 0.000
REMARK SMILES CC(=O)[O-]
REMARK SMILES IDX 1 1 2 2 3 3 4 4
REMARK H PARENT
REMARK Flexibility Score: inf
ROOT
ATOM      1  C   UNL     1     300.389 334.136 644.415  1.00  0.00     0.063 C 
ATOM      2  C   UNL     1     300.384 335.467 645.087  1.00  0.00     0.038 C 
ATOM      3  O   UNL     1     299.366 335.850 645.721  1.00  0.00    -0.550 OA
ATOM      4  O   UNL     1     301.521 336.264 645.062  1.00  0.00    -0.550 OA
ENDROOT
TORSDOF 0
ENDMDL
MODEL 9
REMARK VINA RESULT:    -1.822      7.455      7.843
REMARK INTER + INTRA:          -1.822
REMARK INTER:                  -1.822
REMARK INTRA:                   0.000
REMARK UNBOUND:                 0.000
REMARK SMILES CC(=O)[O-]
REMARK SMILES IDX 1 1 2 2 3 3 4 4
REMARK H PARENT
REMARK Flexibility Score: inf
ROOT
ATOM      1  C   UNL     1     306.034 321.053 651.261  1.00  0.00     0.063 C 
ATOM      2  C   UNL     1     305.191 321.638 650.178  1.00  0.00     0.038 C 
ATOM      3  O   UNL     1     304.821 322.839 650.245  1.00  0.00    -0.550 OA
ATOM      4  O   UNL     1     304.858 320.875 649.067  1.00  0.00    -0.550 OA
ENDROOT
TORSDOF 0
ENDMDL
