MODEL 1
REMARK VINA RESULT:    -6.050      0.000      0.000
REMARK INTER + INTRA:          -7.316
REMARK INTER:                  -7.111
REMARK INTRA:                  -0.205
REMARK UNBOUND:                -0.205
REMARK SMILES O=C([O-])C=Cc1ccc(O)c(O)c1
REMARK SMILES IDX 6 1 13 2 7 3 11 4 8 5 9 6 5 7 4 8 2 9 1 10 3 11 12 12 10 14
REMARK H PARENT 12 13 10 15
REMARK Flexibility Score: inf
ROOT
ATOM      1  C   UNL     1      79.897  60.625  12.226  1.00  0.00    -0.022 A 
ATOM      2  C   UNL     1      79.036  60.135  11.231  1.00  0.00     0.058 A 
ATOM      3  C   UNL     1      79.444  61.628  13.091  1.00  0.00     0.012 A 
ATOM      4  C   UNL     1      77.719  60.600  11.130  1.00  0.00     0.157 A 
ATOM      5  C   UNL     1      78.132  62.096  13.000  1.00  0.00     0.051 A 
ATOM      6  C   UNL     1      77.258  61.589  12.031  1.00  0.00     0.157 A 
ENDROOT
BRANCH   1   7
ATOM      7  C   UNL     1      81.304  60.180  12.308  1.00  0.00     0.010 C 
ATOM      8  C   UNL     1      82.357  60.826  11.784  1.00  0.00     0.025 C 
BRANCH   8   9
ATOM      9  C   UNL     1      82.291  61.995  10.884  1.00  0.00     0.064 C 
ATOM     10  O   UNL     1      81.762  61.919   9.744  1.00  0.00    -0.545 OA
ATOM     11  O   UNL     1      82.887  63.186  11.277  1.00  0.00    -0.545 OA
ENDBRANCH   8   9
ENDBRANCH   1   7
BRANCH   4  12
ATOM     12  O   UNL     1      76.913  60.061  10.125  1.00  0.00    -0.504 OA
ATOM     13  H   UNL     1      76.622  60.568   9.301  1.00  0.00     0.293 HD
ENDBRANCH   4  12
BRANCH   6  14
ATOM     14  O   UNL     1      75.957  62.094  11.998  1.00  0.00    -0.504 OA
ATOM     15  H   UNL     1      75.169  61.654  12.451  1.00  0.00     0.293 HD
ENDBRANCH   6  14
TORSDOF 4
ENDMDL
MODEL 2
REMARK VINA RESULT:    -6.021      0.966      1.911
REMARK INTER + INTRA:          -7.282
REMARK INTER:                  -7.167
REMARK INTRA:                  -0.115
REMARK UNBOUND:                -0.205
REMARK SMILES O=C([O-])C=Cc1ccc(O)c(O)c1
REMARK SMILES IDX 6 1 13 2 7 3 11 4 8 5 9 6 5 7 4 8 2 9 1 10 3 11 12 12 10 14
REMARK H PARENT 12 13 10 15
REMARK Flexibility Score: inf
ROOT
ATOM      1  C   UNL     1      80.151  60.342  11.663  1.00  0.00    -0.022 A 
ATOM      2  C   UNL     1      79.648  61.039  12.773  1.00  0.00     0.058 A 
ATOM      3  C   UNL     1      79.278  59.966  10.636  1.00  0.00     0.012 A 
ATOM      4  C   UNL     1      78.298  61.406  12.837  1.00  0.00     0.157 A 
ATOM      5  C   UNL     1      77.931  60.330  10.690  1.00  0.00     0.051 A 
ATOM      6  C   UNL     1      77.429  61.053  11.777  1.00  0.00     0.157 A 
ENDROOT
BRANCH   1   7
ATOM      7  C   UNL     1      81.562  59.903  11.610  1.00  0.00     0.010 C 
ATOM      8  C   UNL     1      82.606  60.678  11.279  1.00  0.00     0.025 C 
BRANCH   8   9
ATOM      9  C   UNL     1      82.525  62.050  10.739  1.00  0.00     0.064 C 
ATOM     10  O   UNL     1      81.789  62.328   9.755  1.00  0.00    -0.545 OA
ATOM     11  O   UNL     1      83.331  63.041  11.284  1.00  0.00    -0.545 OA
ENDBRANCH   8   9
ENDBRANCH   1   7
BRANCH   4  12
ATOM     12  O   UNL     1      77.866  62.109  13.964  1.00  0.00    -0.504 OA
ATOM     13  H   UNL     1      78.381  62.160  14.831  1.00  0.00     0.293 HD
ENDBRANCH   4  12
BRANCH   6  14
ATOM     14  O   UNL     1      76.074  61.392  11.767  1.00  0.00    -0.504 OA
ATOM     15  H   UNL     1      75.634  61.932  11.035  1.00  0.00     0.293 HD
ENDBRANCH   6  14
TORSDOF 4
ENDMDL
MODEL 3
REMARK VINA RESULT:    -6.013      1.540      4.855
REMARK INTER + INTRA:          -7.273
REMARK INTER:                  -7.059
REMARK INTRA:                  -0.213
REMARK UNBOUND:                -0.205
REMARK SMILES O=C([O-])C=Cc1ccc(O)c(O)c1
REMARK SMILES IDX 6 1 13 2 7 3 11 4 8 5 9 6 5 7 4 8 2 9 1 10 3 11 12 12 10 14
REMARK H PARENT 12 13 10 15
REMARK Flexibility Score: inf
ROOT
ATOM      1  C   UNL     1      80.442  61.137  12.015  1.00  0.00    -0.022 A 
ATOM      2  C   UNL     1      80.463  62.540  12.069  1.00  0.00     0.058 A 
ATOM      3  C   UNL     1      81.551  60.456  11.498  1.00  0.00     0.012 A 
ATOM      4  C   UNL     1      81.595  63.258  11.664  1.00  0.00     0.157 A 
ATOM      5  C   UNL     1      82.685  61.162  11.094  1.00  0.00     0.051 A 
ATOM      6  C   UNL     1      82.725  62.559  11.176  1.00  0.00     0.157 A 
ENDROOT
BRANCH   1   7
ATOM      7  C   UNL     1      79.234  60.374  12.390  1.00  0.00     0.010 C 
ATOM      8  C   UNL     1      78.179  60.145  11.593  1.00  0.00     0.025 C 
BRANCH   8   9
ATOM      9  C   UNL     1      77.950  60.756  10.268  1.00  0.00     0.064 C 
ATOM     10  O   UNL     1      77.591  61.957  10.150  1.00  0.00    -0.545 OA
ATOM     11  O   UNL     1      78.068  59.968   9.131  1.00  0.00    -0.545 OA
ENDBRANCH   8   9
ENDBRANCH   1   7
BRANCH   4  12
ATOM     12  O   UNL     1      81.553  64.651  11.756  1.00  0.00    -0.504 OA
ATOM     13  H   UNL     1      81.789  65.275  10.998  1.00  0.00     0.293 HD
ENDBRANCH   4  12
BRANCH   6  14
ATOM     14  O   UNL     1      83.892  63.204  10.762  1.00  0.00    -0.504 OA
ATOM     15  H   UNL     1      84.255  64.043  11.191  1.00  0.00     0.293 HD
ENDBRANCH   6  14
TORSDOF 4
ENDMDL
MODEL 4
REMARK VINA RESULT:    -5.814      1.998      4.530
REMARK INTER + INTRA:          -7.039
REMARK INTER:                  -7.341
REMARK INTRA:                   0.302
REMARK UNBOUND:                -0.205
REMARK SMILES O=C([O-])C=Cc1ccc(O)c(O)c1
REMARK SMILES IDX 6 1 13 2 7 3 11 4 8 5 9 6 5 7 4 8 2 9 1 10 3 11 12 12 10 14
REMARK H PARENT 12 13 10 15
REMARK Flexibility Score: inf
ROOT
ATOM      1  C   UNL     1      81.366  60.599  11.436  1.00  0.00    -0.022 A 
ATOM      2  C   UNL     1      82.570  61.240  11.102  1.00  0.00     0.058 A 
ATOM      3  C   UNL     1      80.298  61.359  11.926  1.00  0.00     0.012 A 
ATOM      4  C   UNL     1      82.693  62.631  11.202  1.00  0.00     0.157 A 
ATOM      5  C   UNL     1      80.410  62.747  12.028  1.00  0.00     0.051 A 
ATOM      6  C   UNL     1      81.596  63.397  11.665  1.00  0.00     0.157 A 
ENDROOT
BRANCH   1   7
ATOM      7  C   UNL     1      81.243  59.127  11.383  1.00  0.00     0.010 C 
ATOM      8  C   UNL     1      80.169  58.450  10.949  1.00  0.00     0.025 C 
BRANCH   8   9
ATOM      9  C   UNL     1      78.857  59.038  10.614  1.00  0.00     0.064 C 
ATOM     10  O   UNL     1      78.641  59.574   9.495  1.00  0.00    -0.545 OA
ATOM     11  O   UNL     1      77.860  59.061  11.581  1.00  0.00    -0.545 OA
ENDBRANCH   8   9
ENDBRANCH   1   7
BRANCH   4  12
ATOM     12  O   UNL     1      83.913  63.207  10.841  1.00  0.00    -0.504 OA
ATOM     13  H   UNL     1      84.248  64.092  11.194  1.00  0.00     0.293 HD
ENDBRANCH   4  12
BRANCH   6  14
ATOM     14  O   UNL     1      81.640  64.787  11.784  1.00  0.00    -0.504 OA
ATOM     15  H   UNL     1      82.186  65.276  12.479  1.00  0.00     0.293 HD
ENDBRANCH   6  14
TORSDOF 4
ENDMDL
MODEL 5
REMARK VINA RESULT:    -5.626      2.309      5.166
REMARK INTER + INTRA:          -6.817
REMARK INTER:                  -6.579
REMARK INTRA:                  -0.239
REMARK UNBOUND:                -0.205
REMARK SMILES O=C([O-])C=Cc1ccc(O)c(O)c1
REMARK SMILES IDX 6 1 13 2 7 3 11 4 8 5 9 6 5 7 4 8 2 9 1 10 3 11 12 12 10 14
REMARK H PARENT 12 13 10 15
REMARK Flexibility Score: inf
ROOT
ATOM      1  C   UNL     1      79.587  60.180  10.788  1.00  0.00    -0.022 A 
ATOM      2  C   UNL     1      80.732  59.552  10.272  1.00  0.00     0.058 A 
ATOM      3  C   UNL     1      79.631  60.740  12.070  1.00  0.00     0.012 A 
ATOM      4  C   UNL     1      81.927  59.527  11.002  1.00  0.00     0.157 A 
ATOM      5  C   UNL     1      80.818  60.722  12.805  1.00  0.00     0.051 A 
ATOM      6  C   UNL     1      81.973  60.127  12.283  1.00  0.00     0.157 A 
ENDROOT
BRANCH   1   7
ATOM      7  C   UNL     1      78.308  60.165  10.048  1.00  0.00     0.010 C 
ATOM      8  C   UNL     1      77.266  59.361  10.310  1.00  0.00     0.025 C 
BRANCH   8   9
ATOM      9  C   UNL     1      77.266  58.230  11.259  1.00  0.00     0.064 C 
ATOM     10  O   UNL     1      76.666  58.297  12.364  1.00  0.00    -0.545 OA
ATOM     11  O   UNL     1      78.003  57.093  10.955  1.00  0.00    -0.545 OA
ENDBRANCH   8   9
ENDBRANCH   1   7
BRANCH   4  12
ATOM     12  O   UNL     1      83.032  58.897  10.425  1.00  0.00    -0.504 OA
ATOM     13  H   UNL     1      83.193  57.900  10.453  1.00  0.00     0.293 HD
ENDBRANCH   4  12
BRANCH   6  14
ATOM     14  O   UNL     1      83.129  60.149  13.066  1.00  0.00    -0.504 OA
ATOM     15  H   UNL     1      83.140  59.968  14.060  1.00  0.00     0.293 HD
ENDBRANCH   6  14
TORSDOF 4
ENDMDL
MODEL 6
REMARK VINA RESULT:    -5.589      1.897      4.545
REMARK INTER + INTRA:          -6.775
REMARK INTER:                  -6.675
REMARK INTRA:                  -0.100
REMARK UNBOUND:                -0.205
REMARK SMILES O=C([O-])C=Cc1ccc(O)c(O)c1
REMARK SMILES IDX 6 1 13 2 7 3 11 4 8 5 9 6 5 7 4 8 2 9 1 10 3 11 12 12 10 14
REMARK H PARENT 12 13 10 15
REMARK Flexibility Score: inf
ROOT
ATOM      1  C   UNL     1      80.259  61.148  12.289  1.00  0.00    -0.022 A 
ATOM      2  C   UNL     1      80.028  59.809  11.934  1.00  0.00     0.058 A 
ATOM      3  C   UNL     1      81.489  61.737  11.977  1.00  0.00     0.012 A 
ATOM      4  C   UNL     1      80.992  59.078  11.228  1.00  0.00     0.157 A 
ATOM      5  C   UNL     1      82.456  61.017  11.271  1.00  0.00     0.051 A 
ATOM      6  C   UNL     1      82.220  59.693  10.885  1.00  0.00     0.157 A 
ENDROOT
BRANCH   1   7
ATOM      7  C   UNL     1      79.271  61.910  13.081  1.00  0.00     0.010 C 
ATOM      8  C   UNL     1      78.067  62.312  12.644  1.00  0.00     0.025 C 
BRANCH   8   9
ATOM      9  C   UNL     1      77.581  62.226  11.253  1.00  0.00     0.064 C 
ATOM     10  O   UNL     1      77.488  63.249  10.523  1.00  0.00    -0.545 OA
ATOM     11  O   UNL     1      77.153  61.001  10.760  1.00  0.00    -0.545 OA
ENDBRANCH   8   9
ENDBRANCH   1   7
BRANCH   4  12
ATOM     12  O   UNL     1      80.693  57.755  10.895  1.00  0.00    -0.504 OA
ATOM     13  H   UNL     1      81.359  56.997  10.939  1.00  0.00     0.293 HD
ENDBRANCH   4  12
BRANCH   6  14
ATOM     14  O   UNL     1      83.224  59.032  10.174  1.00  0.00    -0.504 OA
ATOM     15  H   UNL     1      84.186  58.978  10.477  1.00  0.00     0.293 HD
ENDBRANCH   6  14
TORSDOF 4
ENDMDL
MODEL 7
REMARK VINA RESULT:    -5.555      1.715      2.555
REMARK INTER + INTRA:          -6.735
REMARK INTER:                  -6.532
REMARK INTRA:                  -0.203
REMARK UNBOUND:                -0.205
REMARK SMILES O=C([O-])C=Cc1ccc(O)c(O)c1
REMARK SMILES IDX 6 1 13 2 7 3 11 4 8 5 9 6 5 7 4 8 2 9 1 10 3 11 12 12 10 14
REMARK H PARENT 12 13 10 15
REMARK Flexibility Score: inf
ROOT
ATOM      1  C   UNL     1      79.107  59.985  11.164  1.00  0.00    -0.022 A 
ATOM      2  C   UNL     1      78.817  60.477  12.447  1.00  0.00     0.058 A 
ATOM      3  C   UNL     1      78.512  60.586  10.049  1.00  0.00     0.012 A 
ATOM      4  C   UNL     1      77.986  61.591  12.617  1.00  0.00     0.157 A 
ATOM      5  C   UNL     1      77.683  61.698  10.208  1.00  0.00     0.051 A 
ATOM      6  C   UNL     1      77.416  62.215  11.481  1.00  0.00     0.157 A 
ENDROOT
BRANCH   1   7
ATOM      7  C   UNL     1      79.940  58.779  10.978  1.00  0.00     0.010 C 
ATOM      8  C   UNL     1      81.257  58.696  11.224  1.00  0.00     0.025 C 
BRANCH   8   9
ATOM      9  C   UNL     1      82.145  59.828  11.552  1.00  0.00     0.064 C 
ATOM     10  O   UNL     1      82.562  60.021  12.724  1.00  0.00    -0.545 OA
ATOM     11  O   UNL     1      82.473  60.741  10.557  1.00  0.00    -0.545 OA
ENDBRANCH   8   9
ENDBRANCH   1   7
BRANCH   4  12
ATOM     12  O   UNL     1      77.749  62.037  13.919  1.00  0.00    -0.504 OA
ATOM     13  H   UNL     1      76.896  61.862  14.430  1.00  0.00     0.293 HD
ENDBRANCH   4  12
BRANCH   6  14
ATOM     14  O   UNL     1      76.585  63.334  11.570  1.00  0.00    -0.504 OA
ATOM     15  H   UNL     1      76.049  63.701  10.797  1.00  0.00     0.293 HD
ENDBRANCH   6  14
TORSDOF 4
ENDMDL
MODEL 8
REMARK VINA RESULT:    -5.491      1.831      5.141
REMARK INTER + INTRA:          -6.660
REMARK INTER:                  -6.390
REMARK INTRA:                  -0.269
REMARK UNBOUND:                -0.205
REMARK SMILES O=C([O-])C=Cc1ccc(O)c(O)c1
REMARK SMILES IDX 6 1 13 2 7 3 11 4 8 5 9 6 5 7 4 8 2 9 1 10 3 11 12 12 10 14
REMARK H PARENT 12 13 10 15
REMARK Flexibility Score: inf
ROOT
ATOM      1  C   UNL     1      79.564  59.943  10.622  1.00  0.00    -0.022 A 
ATOM      2  C   UNL     1      79.938  61.196  11.134  1.00  0.00     0.058 A 
ATOM      3  C   UNL     1      80.369  58.828  10.885  1.00  0.00     0.012 A 
ATOM      4  C   UNL     1      81.072  61.330  11.944  1.00  0.00     0.157 A 
ATOM      5  C   UNL     1      81.500  58.951  11.693  1.00  0.00     0.051 A 
ATOM      6  C   UNL     1      81.860  60.191  12.234  1.00  0.00     0.157 A 
ENDROOT
BRANCH   1   7
ATOM      7  C   UNL     1      78.400  59.800   9.723  1.00  0.00     0.010 C 
ATOM      8  C   UNL     1      77.118  59.733  10.114  1.00  0.00     0.025 C 
BRANCH   8   9
ATOM      9  C   UNL     1      76.647  59.611  11.508  1.00  0.00     0.064 C 
ATOM     10  O   UNL     1      76.648  58.504  12.109  1.00  0.00    -0.545 OA
ATOM     11  O   UNL     1      76.126  60.728  12.147  1.00  0.00    -0.545 OA
ENDBRANCH   8   9
ENDBRANCH   1   7
BRANCH   4  12
ATOM     12  O   UNL     1      81.379  62.603  12.431  1.00  0.00    -0.504 OA
ATOM     13  H   UNL     1      82.015  63.243  11.977  1.00  0.00     0.293 HD
ENDBRANCH   4  12
BRANCH   6  14
ATOM     14  O   UNL     1      82.999  60.245  13.041  1.00  0.00    -0.504 OA
ATOM     15  H   UNL     1      83.262  59.520  13.693  1.00  0.00     0.293 HD
ENDBRANCH   6  14
TORSDOF 4
ENDMDL
MODEL 9
REMARK VINA RESULT:    -5.320      1.677      4.708
REMARK INTER + INTRA:          -6.458
REMARK INTER:                  -6.185
REMARK INTRA:                  -0.273
REMARK UNBOUND:                -0.205
REMARK SMILES O=C([O-])C=Cc1ccc(O)c(O)c1
REMARK SMILES IDX 6 1 13 2 7 3 11 4 8 5 9 6 5 7 4 8 2 9 1 10 3 11 12 12 10 14
REMARK H PARENT 12 13 10 15
REMARK Flexibility Score: inf
ROOT
ATOM      1  C   UNL     1      79.305  61.246  11.878  1.00  0.00    -0.022 A 
ATOM      2  C   UNL     1      80.403  60.528  12.377  1.00  0.00     0.058 A 
ATOM      3  C   UNL     1      79.516  62.504  11.300  1.00  0.00     0.012 A 
ATOM      4  C   UNL     1      81.705  61.030  12.255  1.00  0.00     0.157 A 
ATOM      5  C   UNL     1      80.810  63.012  11.172  1.00  0.00     0.051 A 
ATOM      6  C   UNL     1      81.912  62.286  11.638  1.00  0.00     0.157 A 
ENDROOT
BRANCH   1   7
ATOM      7  C   UNL     1      77.924  60.750  12.049  1.00  0.00     0.010 C 
ATOM      8  C   UNL     1      77.328  59.825  11.280  1.00  0.00     0.025 C 
BRANCH   8   9
ATOM      9  C   UNL     1      77.871  59.267  10.026  1.00  0.00     0.064 C 
ATOM     10  O   UNL     1      77.763  59.880   8.931  1.00  0.00    -0.545 OA
ATOM     11  O   UNL     1      78.453  58.006  10.042  1.00  0.00    -0.545 OA
ENDBRANCH   8   9
ENDBRANCH   1   7
BRANCH   4  12
ATOM     12  O   UNL     1      82.753  60.258  12.762  1.00  0.00    -0.504 OA
ATOM     13  H   UNL     1      82.933  60.127  13.747  1.00  0.00     0.293 HD
ENDBRANCH   4  12
BRANCH   6  14
ATOM     14  O   UNL     1      83.180  62.848  11.472  1.00  0.00    -0.504 OA
ATOM     15  H   UNL     1      83.476  63.336  10.639  1.00  0.00     0.293 HD
ENDBRANCH   6  14
TORSDOF 4
ENDMDL
