MODEL 1
REMARK VINA RESULT:    17.185      0.000      0.000
REMARK INTER + INTRA:          21.296
REMARK INTER:                  21.706
REMARK INTRA:                  -0.410
REMARK UNBOUND:                -0.410
REMARK SMILES Oc1ccc(CCc2cc(O)cc(O)c2)cc1
REMARK SMILES IDX 6 1 5 2 4 3 3 4 2 5 16 6 17 7 1 8 7 10 8 11 15 12 9 13 13 14
REMARK SMILES IDX 10 15 12 16 14 17 11 19
REMARK H PARENT 1 9 14 18 11 20
REMARK Flexibility Score: inf
ROOT
ATOM      1  C   UNL     1       8.766  40.876  23.314  1.00  0.00     0.040 C 
ENDROOT
BRANCH   1   2
ATOM      2  C   UNL     1      10.069  41.577  23.037  1.00  0.00    -0.047 A 
ATOM      3  C   UNL     1      11.282  40.875  23.115  1.00  0.00     0.007 A 
ATOM      4  C   UNL     1      12.489  41.519  22.826  1.00  0.00     0.046 A 
ATOM      5  C   UNL     1      12.493  42.867  22.445  1.00  0.00     0.115 A 
ATOM      6  C   UNL     1      10.077  42.925  22.641  1.00  0.00     0.007 A 
ATOM      7  C   UNL     1      11.286  43.567  22.353  1.00  0.00     0.046 A 
BRANCH   5   8
ATOM      8  O   UNL     1      13.690  43.520  22.155  1.00  0.00    -0.508 OA
ATOM      9  H   UNL     1      13.700  44.441  21.731  1.00  0.00     0.293 HD
ENDBRANCH   5   8
ENDBRANCH   1   2
BRANCH   1  10
ATOM     10  C   UNL     1       8.237  41.250  24.702  1.00  0.00     0.040 C 
BRANCH  10  11
ATOM     11  C   UNL     1       6.973  42.059  24.586  1.00  0.00    -0.040 A 
ATOM     12  C   UNL     1       7.016  43.373  24.089  1.00  0.00     0.050 A 
ATOM     13  C   UNL     1       5.734  41.488  24.918  1.00  0.00     0.050 A 
ATOM     14  C   UNL     1       5.835  44.115  23.949  1.00  0.00     0.119 A 
ATOM     15  C   UNL     1       4.555  42.228  24.779  1.00  0.00     0.119 A 
ATOM     16  C   UNL     1       4.609  43.542  24.297  1.00  0.00     0.092 A 
BRANCH  14  17
ATOM     17  O   UNL     1       5.871  45.421  23.464  1.00  0.00    -0.508 OA
ATOM     18  H   UNL     1       6.172  45.626  22.519  1.00  0.00     0.293 HD
ENDBRANCH  14  17
BRANCH  15  19
ATOM     19  O   UNL     1       3.335  41.646  25.121  1.00  0.00    -0.508 OA
ATOM     20  H   UNL     1       2.516  41.750  24.534  1.00  0.00     0.293 HD
ENDBRANCH  15  19
ENDBRANCH  10  11
ENDBRANCH   1  10
TORSDOF 6
ENDMDL
MODEL 2
REMARK VINA RESULT:    17.600      0.161      2.041
REMARK INTER + INTRA:          21.820
REMARK INTER:                  22.227
REMARK INTRA:                  -0.407
REMARK UNBOUND:                -0.410
REMARK SMILES Oc1ccc(CCc2cc(O)cc(O)c2)cc1
REMARK SMILES IDX 6 1 5 2 4 3 3 4 2 5 16 6 17 7 1 8 7 10 8 11 15 12 9 13 13 14
REMARK SMILES IDX 10 15 12 16 14 17 11 19
REMARK H PARENT 1 9 14 18 11 20
REMARK Flexibility Score: inf
ROOT
ATOM      1  C   UNL     1       8.824  40.875  23.630  1.00  0.00     0.040 C 
ENDROOT
BRANCH   1   2
ATOM      2  C   UNL     1      10.100  41.568  23.233  1.00  0.00    -0.047 A 
ATOM      3  C   UNL     1      11.321  40.875  23.262  1.00  0.00     0.007 A 
ATOM      4  C   UNL     1      12.501  41.509  22.863  1.00  0.00     0.046 A 
ATOM      5  C   UNL     1      12.470  42.838  22.420  1.00  0.00     0.115 A 
ATOM      6  C   UNL     1      10.073  42.895  22.775  1.00  0.00     0.007 A 
ATOM      7  C   UNL     1      11.254  43.528  22.376  1.00  0.00     0.046 A 
BRANCH   5   8
ATOM      8  O   UNL     1      13.640  43.481  22.019  1.00  0.00    -0.508 OA
ATOM      9  H   UNL     1      13.715  44.492  22.022  1.00  0.00     0.293 HD
ENDBRANCH   5   8
ENDBRANCH   1   2
BRANCH   1  10
ATOM     10  C   UNL     1       8.264  41.477  24.923  1.00  0.00     0.040 C 
BRANCH  10  11
ATOM     11  C   UNL     1       6.978  42.211  24.651  1.00  0.00    -0.040 A 
ATOM     12  C   UNL     1       5.744  41.615  24.960  1.00  0.00     0.050 A 
ATOM     13  C   UNL     1       7.004  43.519  24.140  1.00  0.00     0.050 A 
ATOM     14  C   UNL     1       4.548  42.311  24.738  1.00  0.00     0.119 A 
ATOM     15  C   UNL     1       5.810  44.215  23.918  1.00  0.00     0.119 A 
ATOM     16  C   UNL     1       4.583  43.607  24.215  1.00  0.00     0.092 A 
BRANCH  14  17
ATOM     17  O   UNL     1       3.319  41.724  25.035  1.00  0.00    -0.508 OA
ATOM     18  H   UNL     1       2.543  41.763  24.386  1.00  0.00     0.293 HD
ENDBRANCH  14  17
BRANCH  15  19
ATOM     19  O   UNL     1       5.856  45.509  23.404  1.00  0.00    -0.508 OA
ATOM     20  H   UNL     1       5.689  45.695  22.422  1.00  0.00     0.293 HD
ENDBRANCH  15  19
ENDBRANCH  10  11
ENDBRANCH   1  10
TORSDOF 6
ENDMDL
MODEL 3
REMARK VINA RESULT:    17.834      2.013      6.232
REMARK INTER + INTRA:          22.116
REMARK INTER:                  22.261
REMARK INTRA:                  -0.145
REMARK UNBOUND:                -0.410
REMARK SMILES Oc1ccc(CCc2cc(O)cc(O)c2)cc1
REMARK SMILES IDX 6 1 5 2 4 3 3 4 2 5 16 6 17 7 1 8 7 10 8 11 15 12 9 13 13 14
REMARK SMILES IDX 10 15 12 16 14 17 11 19
REMARK H PARENT 1 9 14 18 11 20
REMARK Flexibility Score: inf
ROOT
ATOM      1  C   UNL     1       7.348  42.512  26.037  1.00  0.00     0.040 C 
ENDROOT
BRANCH   1   2
ATOM      2  C   UNL     1       6.196  42.674  25.082  1.00  0.00    -0.047 A 
ATOM      3  C   UNL     1       6.244  43.650  24.074  1.00  0.00     0.007 A 
ATOM      4  C   UNL     1       5.188  43.779  23.166  1.00  0.00     0.046 A 
ATOM      5  C   UNL     1       4.080  42.926  23.251  1.00  0.00     0.115 A 
ATOM      6  C   UNL     1       5.089  41.812  25.154  1.00  0.00     0.007 A 
ATOM      7  C   UNL     1       4.034  41.943  24.246  1.00  0.00     0.046 A 
BRANCH   5   8
ATOM      8  O   UNL     1       3.021  43.044  22.353  1.00  0.00    -0.508 OA
ATOM      9  H   UNL     1       3.161  42.935  21.355  1.00  0.00     0.293 HD
ENDBRANCH   5   8
ENDBRANCH   1   2
BRANCH   1  10
ATOM     10  C   UNL     1       7.967  41.117  25.902  1.00  0.00     0.040 C 
BRANCH  10  11
ATOM     11  C   UNL     1       8.768  41.014  24.632  1.00  0.00    -0.040 A 
ATOM     12  C   UNL     1       8.118  40.980  23.387  1.00  0.00     0.050 A 
ATOM     13  C   UNL     1      10.171  41.011  24.678  1.00  0.00     0.050 A 
ATOM     14  C   UNL     1       8.864  40.917  22.201  1.00  0.00     0.119 A 
ATOM     15  C   UNL     1      10.917  40.949  23.495  1.00  0.00     0.119 A 
ATOM     16  C   UNL     1      10.260  40.899  22.258  1.00  0.00     0.092 A 
BRANCH  14  17
ATOM     17  O   UNL     1       8.226  40.875  20.963  1.00  0.00    -0.508 OA
ATOM     18  H   UNL     1       8.747  40.753  20.103  1.00  0.00     0.293 HD
ENDBRANCH  14  17
BRANCH  15  19
ATOM     19  O   UNL     1      12.309  40.939  23.562  1.00  0.00    -0.508 OA
ATOM     20  H   UNL     1      12.845  41.798  23.557  1.00  0.00     0.293 HD
ENDBRANCH  15  19
ENDBRANCH  10  11
ENDBRANCH   1  10
TORSDOF 6
ENDMDL
MODEL 4
REMARK VINA RESULT:    17.882      1.956      6.191
REMARK INTER + INTRA:          22.176
REMARK INTER:                  22.393
REMARK INTRA:                  -0.217
REMARK UNBOUND:                -0.410
REMARK SMILES Oc1ccc(CCc2cc(O)cc(O)c2)cc1
REMARK SMILES IDX 6 1 5 2 4 3 3 4 2 5 16 6 17 7 1 8 7 10 8 11 15 12 9 13 13 14
REMARK SMILES IDX 10 15 12 16 14 17 11 19
REMARK H PARENT 1 9 14 18 11 20
REMARK Flexibility Score: inf
ROOT
ATOM      1  C   UNL     1       7.478  42.345  26.125  1.00  0.00     0.040 C 
ENDROOT
BRANCH   1   2
ATOM      2  C   UNL     1       6.264  42.501  25.250  1.00  0.00    -0.047 A 
ATOM      3  C   UNL     1       6.185  43.558  24.330  1.00  0.00     0.007 A 
ATOM      4  C   UNL     1       5.071  43.685  23.495  1.00  0.00     0.046 A 
ATOM      5  C   UNL     1       4.030  42.749  23.564  1.00  0.00     0.115 A 
ATOM      6  C   UNL     1       5.224  41.558  25.306  1.00  0.00     0.007 A 
ATOM      7  C   UNL     1       4.111  41.686  24.470  1.00  0.00     0.046 A 
BRANCH   5   8
ATOM      8  O   UNL     1       2.914  42.863  22.737  1.00  0.00    -0.508 OA
ATOM      9  H   UNL     1       2.542  43.769  22.475  1.00  0.00     0.293 HD
ENDBRANCH   5   8
ENDBRANCH   1   2
BRANCH   1  10
ATOM     10  C   UNL     1       8.143  40.985  25.885  1.00  0.00     0.040 C 
BRANCH  10  11
ATOM     11  C   UNL     1       8.879  40.981  24.572  1.00  0.00    -0.040 A 
ATOM     12  C   UNL     1      10.283  40.950  24.547  1.00  0.00     0.050 A 
ATOM     13  C   UNL     1       8.167  40.949  23.362  1.00  0.00     0.050 A 
ATOM     14  C   UNL     1      10.968  40.913  23.325  1.00  0.00     0.119 A 
ATOM     15  C   UNL     1       8.850  40.911  22.141  1.00  0.00     0.119 A 
ATOM     16  C   UNL     1      10.251  40.896  22.126  1.00  0.00     0.092 A 
BRANCH  14  17
ATOM     17  O   UNL     1      12.361  40.889  23.293  1.00  0.00    -0.508 OA
ATOM     18  H   UNL     1      12.886  40.100  23.649  1.00  0.00     0.293 HD
ENDBRANCH  14  17
BRANCH  15  19
ATOM     19  O   UNL     1       8.126  40.887  20.950  1.00  0.00    -0.508 OA
ATOM     20  H   UNL     1       7.145  41.139  20.922  1.00  0.00     0.293 HD
ENDBRANCH  15  19
ENDBRANCH  10  11
ENDBRANCH   1  10
TORSDOF 6
ENDMDL
MODEL 5
REMARK VINA RESULT:    18.040      3.454      6.605
REMARK INTER + INTRA:          22.376
REMARK INTER:                  22.918
REMARK INTRA:                  -0.542
REMARK UNBOUND:                -0.410
REMARK SMILES Oc1ccc(CCc2cc(O)cc(O)c2)cc1
REMARK SMILES IDX 6 1 5 2 4 3 3 4 2 5 16 6 17 7 1 8 7 10 8 11 15 12 9 13 13 14
REMARK SMILES IDX 10 15 12 16 14 17 11 19
REMARK H PARENT 1 9 14 18 11 20
REMARK Flexibility Score: inf
ROOT
ATOM      1  C   UNL     1       6.931  46.150  23.882  1.00  0.00     0.040 C 
ENDROOT
BRANCH   1   2
ATOM      2  C   UNL     1       6.452  47.125  24.923  1.00  0.00    -0.047 A 
ATOM      3  C   UNL     1       6.682  46.877  26.285  1.00  0.00     0.007 A 
ATOM      4  C   UNL     1       6.265  47.800  27.250  1.00  0.00     0.046 A 
ATOM      5  C   UNL     1       5.626  48.984  26.860  1.00  0.00     0.115 A 
ATOM      6  C   UNL     1       5.824  48.321  24.537  1.00  0.00     0.007 A 
ATOM      7  C   UNL     1       5.407  49.242  25.503  1.00  0.00     0.046 A 
BRANCH   5   8
ATOM      8  O   UNL     1       5.206  49.912  27.812  1.00  0.00    -0.508 OA
ATOM      9  H   UNL     1       5.487  49.836  28.783  1.00  0.00     0.293 HD
ENDBRANCH   5   8
ENDBRANCH   1   2
BRANCH   1  10
ATOM     10  C   UNL     1       5.788  45.232  23.438  1.00  0.00     0.040 C 
BRANCH  10  11
ATOM     11  C   UNL     1       6.020  43.825  23.921  1.00  0.00    -0.040 A 
ATOM     12  C   UNL     1       4.945  43.051  24.387  1.00  0.00     0.050 A 
ATOM     13  C   UNL     1       7.302  43.257  23.854  1.00  0.00     0.050 A 
ATOM     14  C   UNL     1       5.155  41.730  24.807  1.00  0.00     0.119 A 
ATOM     15  C   UNL     1       7.513  41.938  24.272  1.00  0.00     0.119 A 
ATOM     16  C   UNL     1       6.438  41.178  24.751  1.00  0.00     0.092 A 
BRANCH  14  17
ATOM     17  O   UNL     1       4.095  40.958  25.278  1.00  0.00    -0.508 OA
ATOM     18  H   UNL     1       3.229  40.875  24.759  1.00  0.00     0.293 HD
ENDBRANCH  14  17
BRANCH  15  19
ATOM     19  O   UNL     1       8.795  41.394  24.205  1.00  0.00    -0.508 OA
ATOM     20  H   UNL     1       9.100  40.679  24.855  1.00  0.00     0.293 HD
ENDBRANCH  15  19
ENDBRANCH  10  11
ENDBRANCH   1  10
TORSDOF 6
ENDMDL
MODEL 6
REMARK VINA RESULT:    18.119      1.686      2.999
REMARK INTER + INTRA:          22.475
REMARK INTER:                  23.083
REMARK INTRA:                  -0.608
REMARK UNBOUND:                -0.410
REMARK SMILES Oc1ccc(CCc2cc(O)cc(O)c2)cc1
REMARK SMILES IDX 6 1 5 2 4 3 3 4 2 5 16 6 17 7 1 8 7 10 8 11 15 12 9 13 13 14
REMARK SMILES IDX 10 15 12 16 14 17 11 19
REMARK H PARENT 1 9 14 18 11 20
REMARK Flexibility Score: inf
ROOT
ATOM      1  C   UNL     1       6.967  40.878  25.393  1.00  0.00     0.040 C 
ENDROOT
BRANCH   1   2
ATOM      2  C   UNL     1       8.294  40.999  24.693  1.00  0.00    -0.047 A 
ATOM      3  C   UNL     1       9.490  40.875  25.417  1.00  0.00     0.007 A 
ATOM      4  C   UNL     1      10.723  40.956  24.761  1.00  0.00     0.046 A 
ATOM      5  C   UNL     1      10.769  41.148  23.374  1.00  0.00     0.115 A 
ATOM      6  C   UNL     1       8.346  41.177  23.301  1.00  0.00     0.007 A 
ATOM      7  C   UNL     1       9.579  41.257  22.647  1.00  0.00     0.046 A 
BRANCH   5   8
ATOM      8  O   UNL     1      11.991  41.229  22.708  1.00  0.00    -0.508 OA
ATOM      9  H   UNL     1      12.798  40.699  23.018  1.00  0.00     0.293 HD
ENDBRANCH   5   8
ENDBRANCH   1   2
BRANCH   1  10
ATOM     10  C   UNL     1       6.467  42.255  25.841  1.00  0.00     0.040 C 
BRANCH  10  11
ATOM     11  C   UNL     1       5.881  43.008  24.677  1.00  0.00    -0.040 A 
ATOM     12  C   UNL     1       4.772  42.493  23.986  1.00  0.00     0.050 A 
ATOM     13  C   UNL     1       6.400  44.260  24.311  1.00  0.00     0.050 A 
ATOM     14  C   UNL     1       4.205  43.210  22.923  1.00  0.00     0.119 A 
ATOM     15  C   UNL     1       5.836  44.978  23.251  1.00  0.00     0.119 A 
ATOM     16  C   UNL     1       4.740  44.448  22.556  1.00  0.00     0.092 A 
BRANCH  14  17
ATOM     17  O   UNL     1       3.111  42.700  22.227  1.00  0.00    -0.508 OA
ATOM     18  H   UNL     1       3.064  41.726  21.954  1.00  0.00     0.293 HD
ENDBRANCH  14  17
BRANCH  15  19
ATOM     19  O   UNL     1       6.370  46.215  22.897  1.00  0.00    -0.508 OA
ATOM     20  H   UNL     1       7.103  46.296  22.202  1.00  0.00     0.293 HD
ENDBRANCH  15  19
ENDBRANCH  10  11
ENDBRANCH   1  10
TORSDOF 6
ENDMDL
MODEL 7
REMARK VINA RESULT:    18.124      3.449      6.387
REMARK INTER + INTRA:          22.481
REMARK INTER:                  23.033
REMARK INTRA:                  -0.551
REMARK UNBOUND:                -0.410
REMARK SMILES Oc1ccc(CCc2cc(O)cc(O)c2)cc1
REMARK SMILES IDX 6 1 5 2 4 3 3 4 2 5 16 6 17 7 1 8 7 10 8 11 15 12 9 13 13 14
REMARK SMILES IDX 10 15 12 16 14 17 11 19
REMARK H PARENT 1 9 14 18 11 20
REMARK Flexibility Score: inf
ROOT
ATOM      1  C   UNL     1       6.959  46.150  23.888  1.00  0.00     0.040 C 
ENDROOT
BRANCH   1   2
ATOM      2  C   UNL     1       6.473  47.112  24.939  1.00  0.00    -0.047 A 
ATOM      3  C   UNL     1       6.714  46.855  26.298  1.00  0.00     0.007 A 
ATOM      4  C   UNL     1       6.291  47.765  27.273  1.00  0.00     0.046 A 
ATOM      5  C   UNL     1       5.634  48.944  26.897  1.00  0.00     0.115 A 
ATOM      6  C   UNL     1       5.827  48.302  24.567  1.00  0.00     0.007 A 
ATOM      7  C   UNL     1       5.405  49.210  25.543  1.00  0.00     0.046 A 
BRANCH   5   8
ATOM      8  O   UNL     1       5.208  49.858  27.859  1.00  0.00    -0.508 OA
ATOM      9  H   UNL     1       5.720  49.993  28.723  1.00  0.00     0.293 HD
ENDBRANCH   5   8
ENDBRANCH   1   2
BRANCH   1  10
ATOM     10  C   UNL     1       5.814  45.252  23.410  1.00  0.00     0.040 C 
BRANCH  10  11
ATOM     11  C   UNL     1       6.030  43.833  23.863  1.00  0.00    -0.040 A 
ATOM     12  C   UNL     1       7.317  43.271  23.840  1.00  0.00     0.050 A 
ATOM     13  C   UNL     1       4.957  43.080  24.367  1.00  0.00     0.050 A 
ATOM     14  C   UNL     1       7.524  41.961  24.293  1.00  0.00     0.119 A 
ATOM     15  C   UNL     1       5.163  41.772  24.820  1.00  0.00     0.119 A 
ATOM     16  C   UNL     1       6.447  41.214  24.779  1.00  0.00     0.092 A 
BRANCH  14  17
ATOM     17  O   UNL     1       8.797  41.393  24.266  1.00  0.00    -0.508 OA
ATOM     18  H   UNL     1       9.621  41.951  24.076  1.00  0.00     0.293 HD
ENDBRANCH  14  17
BRANCH  15  19
ATOM     19  O   UNL     1       4.084  41.038  25.310  1.00  0.00    -0.508 OA
ATOM     20  H   UNL     1       4.205  40.336  26.031  1.00  0.00     0.293 HD
ENDBRANCH  15  19
ENDBRANCH  10  11
ENDBRANCH   1  10
TORSDOF 6
ENDMDL
MODEL 8
REMARK VINA RESULT:    18.926      2.220      3.146
REMARK INTER + INTRA:          23.494
REMARK INTER:                  23.943
REMARK INTRA:                  -0.449
REMARK UNBOUND:                -0.410
REMARK SMILES Oc1ccc(CCc2cc(O)cc(O)c2)cc1
REMARK SMILES IDX 6 1 5 2 4 3 3 4 2 5 16 6 17 7 1 8 7 10 8 11 15 12 9 13 13 14
REMARK SMILES IDX 10 15 12 16 14 17 11 19
REMARK H PARENT 1 9 14 18 11 20
REMARK Flexibility Score: inf
ROOT
ATOM      1  C   UNL     1       6.323  40.945  24.427  1.00  0.00     0.040 C 
ENDROOT
BRANCH   1   2
ATOM      2  C   UNL     1       7.788  40.921  24.083  1.00  0.00    -0.047 A 
ATOM      3  C   UNL     1       8.201  40.917  22.741  1.00  0.00     0.007 A 
ATOM      4  C   UNL     1       9.562  40.927  22.422  1.00  0.00     0.046 A 
ATOM      5  C   UNL     1      10.523  40.952  23.442  1.00  0.00     0.115 A 
ATOM      6  C   UNL     1       8.755  40.961  25.101  1.00  0.00     0.007 A 
ATOM      7  C   UNL     1      10.116  40.970  24.780  1.00  0.00     0.046 A 
BRANCH   5   8
ATOM      8  O   UNL     1      11.883  40.963  23.137  1.00  0.00    -0.508 OA
ATOM      9  H   UNL     1      12.586  40.817  23.852  1.00  0.00     0.293 HD
ENDBRANCH   5   8
ENDBRANCH   1   2
BRANCH   1  10
ATOM     10  C   UNL     1       6.036  42.015  25.485  1.00  0.00     0.040 C 
BRANCH  10  11
ATOM     11  C   UNL     1       6.170  43.393  24.895  1.00  0.00    -0.040 A 
ATOM     12  C   UNL     1       6.018  43.588  23.512  1.00  0.00     0.050 A 
ATOM     13  C   UNL     1       6.390  44.501  25.728  1.00  0.00     0.050 A 
ATOM     14  C   UNL     1       6.109  44.876  22.966  1.00  0.00     0.119 A 
ATOM     15  C   UNL     1       6.482  45.787  25.184  1.00  0.00     0.119 A 
ATOM     16  C   UNL     1       6.344  45.971  23.802  1.00  0.00     0.092 A 
BRANCH  14  17
ATOM     17  O   UNL     1       5.967  45.077  21.594  1.00  0.00    -0.508 OA
ATOM     18  H   UNL     1       6.448  45.830  21.117  1.00  0.00     0.293 HD
ENDBRANCH  14  17
BRANCH  15  19
ATOM     19  O   UNL     1       6.708  46.874  26.027  1.00  0.00    -0.508 OA
ATOM     20  H   UNL     1       7.010  46.747  26.985  1.00  0.00     0.293 HD
ENDBRANCH  15  19
ENDBRANCH  10  11
ENDBRANCH   1  10
TORSDOF 6
ENDMDL
