MODEL 1
REMARK VINA RESULT:    15.513      0.000      0.000
REMARK INTER + INTRA:          25.720
REMARK INTER:                  23.675
REMARK INTRA:                   2.044
REMARK UNBOUND:                 2.044
REMARK SMILES CC1=CCC[C@H](C)C(=O)C[C@@H](C(C)C)C(=O)C1
REMARK SMILES IDX 8 1 9 2 6 3 7 4 5 5 4 6 3 7 2 8 1 9 10 11 11 12 15 13 16 14
REMARK SMILES IDX 17 15 12 17 13 18 14 19
REMARK H PARENT
REMARK Flexibility Score: 70.00
ROOT
ATOM      1  C   UNL     1     -28.904  34.928 -12.172  1.00  0.00     0.136 C 
ATOM      2  O   UNL     1     -28.929  35.951 -12.844  1.00  0.00    -0.299 OA
ENDROOT
BRANCH   1   3
ATOM      3  C   UNL     1     -29.150  33.590 -12.833  1.00  0.00     0.053 C 
ATOM      4  C   UNL     1     -29.755  33.784 -14.230  1.00  0.00     0.016 C 
BRANCH   3   5
ATOM      5  C   UNL     1     -27.832  32.765 -12.890  1.00  0.00     0.015 C 
BRANCH   5   6
ATOM      6  C   UNL     1     -27.017  33.000 -14.184  1.00  0.00     0.028 C 
BRANCH   6   7
ATOM      7  C   UNL     1     -26.020  34.124 -14.032  1.00  0.00    -0.028 C 
ATOM      8  C   UNL     1     -25.448  34.502 -12.866  1.00  0.00    -0.070 CG0
ATOM      9  C   UNL     1     -24.450  35.632 -12.899  1.00  0.00     0.039 C 
ATOM     10  G   UNL     1     -25.769  33.860 -11.523  1.00  0.00     0.000 G0
ENDBRANCH   6   7
ENDBRANCH   5   6
ENDBRANCH   3   5
ENDBRANCH   1   3
BRANCH   1  11
ATOM     11  C   UNL     1     -28.601  35.023 -10.697  1.00  0.00     0.087 C 
BRANCH  11  12
ATOM     12  C   UNL     1     -27.280  35.788 -10.432  1.00  0.00     0.066 C 
BRANCH  12  13
ATOM     13  C   UNL     1     -26.037  34.899 -10.435  1.00  0.00     0.140 C 
ATOM     14  O   UNL     1     -25.278  34.978  -9.478  1.00  0.00    -0.299 OA
BRANCH  13  15
ATOM     15  C   UNL     1     -25.757  33.861 -11.507  1.00  0.00     0.106 CG0
ATOM     16  G   UNL     1     -25.464  34.493 -12.861  1.00  0.00     0.000 G0
ENDBRANCH  13  15
ENDBRANCH  12  13
BRANCH  12  17
ATOM     17  C   UNL     1     -27.378  36.716  -9.183  1.00  0.00    -0.006 C 
ATOM     18  C   UNL     1     -28.780  37.294  -8.927  1.00  0.00     0.008 C 
ATOM     19  C   UNL     1     -26.863  36.013  -7.917  1.00  0.00     0.008 C 
ENDBRANCH  12  17
ENDBRANCH  11  12
ENDBRANCH   1  11
TORSDOF 1
ENDMDL
MODEL 2
REMARK VINA RESULT:    17.392      1.929      5.191
REMARK INTER + INTRA:          28.587
REMARK INTER:                  22.203
REMARK INTRA:                   6.384
REMARK UNBOUND:                 2.044
REMARK SMILES CC1=CCC[C@H](C)C(=O)C[C@@H](C(C)C)C(=O)C1
REMARK SMILES IDX 8 1 9 2 6 3 7 4 5 5 4 6 3 7 2 8 1 9 10 11 11 12 15 13 16 14
REMARK SMILES IDX 17 15 12 17 13 18 14 19
REMARK H PARENT
REMARK Flexibility Score: 70.00
ROOT
ATOM      1  C   UNL     1     -26.149  34.628  -9.349  1.00  0.00     0.136 C 
ATOM      2  O   UNL     1     -27.233  34.082  -9.198  1.00  0.00    -0.299 OA
ENDROOT
BRANCH   1   3
ATOM      3  C   UNL     1     -25.433  35.219  -8.154  1.00  0.00     0.053 C 
ATOM      4  C   UNL     1     -24.616  36.449  -8.571  1.00  0.00     0.016 C 
BRANCH   3   5
ATOM      5  C   UNL     1     -26.452  35.563  -7.029  1.00  0.00     0.015 C 
BRANCH   5   6
ATOM      6  C   UNL     1     -27.767  36.179  -7.562  1.00  0.00     0.028 C 
BRANCH   6   7
ATOM      7  C   UNL     1     -27.519  37.201  -8.645  1.00  0.00    -0.028 C 
ATOM      8  C   UNL     1     -27.955  37.100  -9.922  1.00  0.00    -0.070 CG0
ATOM      9  C   UNL     1     -27.638  38.229 -10.870  1.00  0.00     0.039 C 
ATOM     10  G   UNL     1     -28.731  35.904 -10.455  1.00  0.00     0.000 G0
ENDBRANCH   6   7
ENDBRANCH   5   6
ENDBRANCH   3   5
ENDBRANCH   1   3
BRANCH   1  11
ATOM     11  C   UNL     1     -25.534  34.677 -10.726  1.00  0.00     0.087 C 
BRANCH  11  12
ATOM     12  C   UNL     1     -26.519  35.254 -11.772  1.00  0.00     0.066 C 
BRANCH  12  13
ATOM     13  C   UNL     1     -27.992  35.043 -11.420  1.00  0.00     0.140 C 
ATOM     14  O   UNL     1     -28.556  34.063 -11.890  1.00  0.00    -0.299 OA
BRANCH  13  15
ATOM     15  C   UNL     1     -28.751  35.926 -10.445  1.00  0.00     0.106 CG0
ATOM     16  G   UNL     1     -27.908  37.090  -9.944  1.00  0.00     0.000 G0
ENDBRANCH  13  15
ENDBRANCH  12  13
BRANCH  12  17
ATOM     17  C   UNL     1     -26.159  34.816 -13.225  1.00  0.00    -0.006 C 
ATOM     18  C   UNL     1     -24.829  34.054 -13.349  1.00  0.00     0.008 C 
ATOM     19  C   UNL     1     -27.292  33.998 -13.864  1.00  0.00     0.008 C 
ENDBRANCH  12  17
ENDBRANCH  11  12
ENDBRANCH   1  11
TORSDOF 1
ENDMDL
MODEL 3
REMARK VINA RESULT:    18.309      1.641      3.350
REMARK INTER + INTRA:          29.987
REMARK INTER:                  27.087
REMARK INTRA:                   2.900
REMARK UNBOUND:                 2.044
REMARK SMILES CC1=CCC[C@H](C)C(=O)C[C@@H](C(C)C)C(=O)C1
REMARK SMILES IDX 8 1 9 2 6 3 7 4 5 5 4 6 3 7 2 8 1 9 10 11 11 12 15 13 16 14
REMARK SMILES IDX 17 15 12 17 13 18 14 19
REMARK H PARENT
REMARK Flexibility Score: 70.00
ROOT
ATOM      1  C   UNL     1     -25.268  34.254 -11.513  1.00  0.00     0.136 C 
ATOM      2  O   UNL     1     -25.149  33.038 -11.443  1.00  0.00    -0.299 OA
ENDROOT
BRANCH   1   3
ATOM      3  C   UNL     1     -25.451  34.913 -12.863  1.00  0.00     0.053 C 
ATOM      4  C   UNL     1     -24.172  35.650 -13.279  1.00  0.00     0.016 C 
BRANCH   3   5
ATOM      5  C   UNL     1     -25.876  33.859 -13.926  1.00  0.00     0.015 C 
BRANCH   5   6
ATOM      6  C   UNL     1     -27.308  34.078 -14.468  1.00  0.00     0.028 C 
BRANCH   6   7
ATOM      7  C   UNL     1     -28.362  33.759 -13.435  1.00  0.00    -0.028 C 
ATOM      8  C   UNL     1     -28.632  34.512 -12.343  1.00  0.00    -0.070 CG0
ATOM      9  C   UNL     1     -29.739  34.058 -11.426  1.00  0.00     0.039 C 
ATOM     10  G   UNL     1     -27.868  35.779 -11.984  1.00  0.00     0.000 G0
ENDBRANCH   6   7
ENDBRANCH   5   6
ENDBRANCH   3   5
ENDBRANCH   1   3
BRANCH   1  11
ATOM     11  C   UNL     1     -25.256  35.069 -10.244  1.00  0.00     0.087 C 
BRANCH  11  12
ATOM     12  C   UNL     1     -26.669  35.172  -9.618  1.00  0.00     0.066 C 
BRANCH  12  13
ATOM     13  C   UNL     1     -27.662  35.977 -10.455  1.00  0.00     0.140 C 
ATOM     14  O   UNL     1     -28.281  36.875  -9.900  1.00  0.00    -0.299 OA
BRANCH  13  15
ATOM     15  C   UNL     1     -27.841  35.782 -11.951  1.00  0.00     0.106 CG0
ATOM     16  G   UNL     1     -28.638  34.527 -12.279  1.00  0.00     0.000 G0
ENDBRANCH  13  15
ENDBRANCH  12  13
BRANCH  12  17
ATOM     17  C   UNL     1     -26.618  35.612  -8.122  1.00  0.00    -0.006 C 
ATOM     18  C   UNL     1     -27.978  36.018  -7.531  1.00  0.00     0.008 C 
ATOM     19  C   UNL     1     -25.964  34.536  -7.240  1.00  0.00     0.008 C 
ENDBRANCH  12  17
ENDBRANCH  11  12
ENDBRANCH   1  11
TORSDOF 1
ENDMDL
