MODEL 1
REMARK VINA RESULT:    -3.566      0.000      0.000
REMARK INTER + INTRA:          -3.566
REMARK INTER:                  -3.566
REMARK INTRA:                   0.000
REMARK UNBOUND:                 0.000
REMARK SMILES CC(=O)[O-]
REMARK SMILES IDX 1 1 2 2 3 3 4 4
REMARK H PARENT
REMARK Flexibility Score: inf
ROOT
ATOM      1  C   UNL     1       7.145   8.294  -1.002  1.00  0.00     0.063 C 
ATOM      2  C   UNL     1       7.788   8.041  -2.323  1.00  0.00     0.038 C 
ATOM      3  O   UNL     1       7.151   7.447  -3.231  1.00  0.00    -0.550 OA
ATOM      4  O   UNL     1       9.073   8.507  -2.574  1.00  0.00    -0.550 OA
ENDROOT
TORSDOF 0
ENDMDL
MODEL 2
REMARK VINA RESULT:    -3.434      1.580      1.929
REMARK INTER + INTRA:          -3.434
REMARK INTER:                  -3.434
REMARK INTRA:                   0.000
REMARK UNBOUND:                 0.000
REMARK SMILES CC(=O)[O-]
REMARK SMILES IDX 1 1 2 2 3 3 4 4
REMARK H PARENT
REMARK Flexibility Score: inf
ROOT
ATOM      1  C   UNL     1       8.526   8.673  -1.702  1.00  0.00     0.063 C 
ATOM      2  C   UNL     1       7.165   8.067  -1.768  1.00  0.00     0.038 C 
ATOM      3  O   UNL     1       6.760   7.541  -2.837  1.00  0.00    -0.550 OA
ATOM      4  O   UNL     1       6.361   8.034  -0.636  1.00  0.00    -0.550 OA
ENDROOT
TORSDOF 0
ENDMDL
MODEL 3
REMARK VINA RESULT:    -3.347      1.440      1.998
REMARK INTER + INTRA:          -3.347
REMARK INTER:                  -3.347
REMARK INTRA:                   0.000
REMARK UNBOUND:                 0.000
REMARK SMILES CC(=O)[O-]
REMARK SMILES IDX 1 1 2 2 3 3 4 4
REMARK H PARENT
REMARK Flexibility Score: inf
ROOT
ATOM      1  C   UNL     1       8.637   8.672  -1.786  1.00  0.00     0.063 C 
ATOM      2  C   UNL     1       7.306   8.005  -1.857  1.00  0.00     0.038 C 
ATOM      3  O   UNL     1       6.542   8.013  -0.857  1.00  0.00    -0.550 OA
ATOM      4  O   UNL     1       6.881   7.419  -3.043  1.00  0.00    -0.550 OA
ENDROOT
TORSDOF 0
ENDMDL
MODEL 4
REMARK VINA RESULT:    -2.303     12.558     12.930
REMARK INTER + INTRA:          -2.303
REMARK INTER:                  -2.303
REMARK INTRA:                   0.000
REMARK UNBOUND:                 0.000
REMARK SMILES CC(=O)[O-]
REMARK SMILES IDX 1 1 2 2 3 3 4 4
REMARK H PARENT
REMARK Flexibility Score: inf
ROOT
ATOM      1  C   UNL     1       8.962  -4.348  -2.832  1.00  0.00     0.063 C 
ATOM      2  C   UNL     1       8.976  -4.570  -4.306  1.00  0.00     0.038 C 
ATOM      3  O   UNL     1       8.620  -3.649  -5.087  1.00  0.00    -0.550 OA
ATOM      4  O   UNL     1       9.432  -5.775  -4.825  1.00  0.00    -0.550 OA
ENDROOT
TORSDOF 0
ENDMDL
MODEL 5
REMARK VINA RESULT:    -2.281     11.633     11.928
REMARK INTER + INTRA:          -2.281
REMARK INTER:                  -2.281
REMARK INTRA:                   0.000
REMARK UNBOUND:                 0.000
REMARK SMILES CC(=O)[O-]
REMARK SMILES IDX 1 1 2 2 3 3 4 4
REMARK H PARENT
REMARK Flexibility Score: inf
ROOT
ATOM      1  C   UNL     1       8.898  -4.661  -2.785  1.00  0.00     0.063 C 
ATOM      2  C   UNL     1       9.140  -3.641  -3.844  1.00  0.00     0.038 C 
ATOM      3  O   UNL     1       8.714  -3.831  -5.013  1.00  0.00    -0.550 OA
ATOM      4  O   UNL     1       9.791  -2.454  -3.533  1.00  0.00    -0.550 OA
ENDROOT
TORSDOF 0
ENDMDL
MODEL 6
REMARK VINA RESULT:    -2.145     21.052     21.446
REMARK INTER + INTRA:          -2.145
REMARK INTER:                  -2.145
REMARK INTRA:                   0.000
REMARK UNBOUND:                 0.000
REMARK SMILES CC(=O)[O-]
REMARK SMILES IDX 1 1 2 2 3 3 4 4
REMARK H PARENT
REMARK Flexibility Score: inf
ROOT
ATOM      1  C   UNL     1      -2.026  -7.496   9.268  1.00  0.00     0.063 C 
ATOM      2  C   UNL     1      -0.601  -7.582   9.695  1.00  0.00     0.038 C 
ATOM      3  O   UNL     1       0.015  -8.678   9.621  1.00  0.00    -0.550 OA
ATOM      4  O   UNL     1       0.069  -6.444  10.125  1.00  0.00    -0.550 OA
ENDROOT
TORSDOF 0
ENDMDL
MODEL 7
REMARK VINA RESULT:    -2.136      8.906      9.555
REMARK INTER + INTRA:          -2.136
REMARK INTER:                  -2.136
REMARK INTRA:                   0.000
REMARK UNBOUND:                 0.000
REMARK SMILES CC(=O)[O-]
REMARK SMILES IDX 1 1 2 2 3 3 4 4
REMARK H PARENT
REMARK Flexibility Score: inf
ROOT
ATOM      1  C   UNL     1       0.786   4.711   2.165  1.00  0.00     0.063 C 
ATOM      2  C   UNL     1       0.096   3.739   1.270  1.00  0.00     0.038 C 
ATOM      3  O   UNL     1      -1.064   3.338   1.549  1.00  0.00    -0.550 OA
ATOM      4  O   UNL     1       0.708   3.314   0.098  1.00  0.00    -0.550 OA
ENDROOT
TORSDOF 0
ENDMDL
MODEL 8
REMARK VINA RESULT:    -2.041     22.616     22.860
REMARK INTER + INTRA:          -2.041
REMARK INTER:                  -2.041
REMARK INTRA:                   0.000
REMARK UNBOUND:                 0.000
REMARK SMILES CC(=O)[O-]
REMARK SMILES IDX 1 1 2 2 3 3 4 4
REMARK H PARENT
REMARK Flexibility Score: inf
ROOT
ATOM      1  C   UNL     1      -8.042  -4.075   9.371  1.00  0.00     0.063 C 
ATOM      2  C   UNL     1      -8.788  -2.877   8.893  1.00  0.00     0.038 C 
ATOM      3  O   UNL     1      -9.037  -1.931   9.684  1.00  0.00    -0.550 OA
ATOM      4  O   UNL     1      -9.165  -2.776   7.559  1.00  0.00    -0.550 OA
ENDROOT
TORSDOF 0
ENDMDL
MODEL 9
REMARK VINA RESULT:    -1.988     13.239     13.687
REMARK INTER + INTRA:          -1.988
REMARK INTER:                  -1.988
REMARK INTRA:                   0.000
REMARK UNBOUND:                 0.000
REMARK SMILES CC(=O)[O-]
REMARK SMILES IDX 1 1 2 2 3 3 4 4
REMARK H PARENT
REMARK Flexibility Score: inf
ROOT
ATOM      1  C   UNL     1       9.751  -5.644  -6.460  1.00  0.00     0.063 C 
ATOM      2  C   UNL     1       9.284  -5.057  -5.172  1.00  0.00     0.038 C 
ATOM      3  O   UNL     1       9.468  -5.676  -4.092  1.00  0.00    -0.550 OA
ATOM      4  O   UNL     1       8.692  -3.800  -5.153  1.00  0.00    -0.550 OA
ENDROOT
TORSDOF 0
ENDMDL
