MODEL 1
REMARK VINA RESULT:    -7.645      0.000      0.000
REMARK INTER + INTRA:         -10.223
REMARK INTER:                  -9.656
REMARK INTRA:                  -0.567
REMARK UNBOUND:                -0.567
REMARK SMILES O=C(C=Cc1ccc(O)cc1)c1ccc(O)cc1O
REMARK SMILES IDX 4 1 3 2 5 3 6 4 7 5 8 6 11 7 10 8 9 9 2 11 1 12 12 13 18 14
REMARK SMILES IDX 13 15 17 16 14 17 15 18 19 19 16 21
REMARK H PARENT 9 10 19 20 16 22
REMARK Flexibility Score: inf
ROOT
ATOM      1  C   UNL     1     -33.575  43.959  40.173  1.00  0.00     0.012 C 
ATOM      2  C   UNL     1     -34.276  42.823  40.297  1.00  0.00     0.053 C 
ENDROOT
BRANCH   1   3
ATOM      3  C   UNL     1     -33.528  44.764  38.927  1.00  0.00    -0.025 A 
ATOM      4  C   UNL     1     -32.273  45.123  38.405  1.00  0.00     0.012 A 
ATOM      5  C   UNL     1     -32.180  45.873  37.228  1.00  0.00     0.047 A 
ATOM      6  C   UNL     1     -33.337  46.264  36.551  1.00  0.00     0.115 A 
ATOM      7  C   UNL     1     -34.690  45.150  38.230  1.00  0.00     0.012 A 
ATOM      8  C   UNL     1     -34.592  45.899  37.052  1.00  0.00     0.047 A 
BRANCH   6   9
ATOM      9  O   UNL     1     -33.229  47.011  35.379  1.00  0.00    -0.508 OA
ATOM     10  H   UNL     1     -34.047  47.281  34.846  1.00  0.00     0.293 HD
ENDBRANCH   6   9
ENDBRANCH   1   3
BRANCH   2  11
ATOM     11  C   UNL     1     -34.313  42.054  41.561  1.00  0.00     0.189 C 
ATOM     12  O   UNL     1     -33.241  41.821  42.185  1.00  0.00    -0.289 OA
BRANCH  11  13
ATOM     13  C   UNL     1     -35.596  41.593  42.138  1.00  0.00     0.064 A 
ATOM     14  C   UNL     1     -36.158  42.197  43.285  1.00  0.00     0.130 A 
ATOM     15  C   UNL     1     -36.288  40.542  41.512  1.00  0.00     0.020 A 
ATOM     16  C   UNL     1     -37.370  41.717  43.805  1.00  0.00     0.093 A 
ATOM     17  C   UNL     1     -37.498  40.075  42.034  1.00  0.00     0.047 A 
ATOM     18  C   UNL     1     -38.039  40.659  43.184  1.00  0.00     0.119 A 
BRANCH  14  19
ATOM     19  O   UNL     1     -35.532  43.286  43.892  1.00  0.00    -0.507 OA
ATOM     20  H   UNL     1     -35.067  44.003  43.349  1.00  0.00     0.293 HD
ENDBRANCH  14  19
BRANCH  18  21
ATOM     21  O   UNL     1     -39.242  40.198  43.715  1.00  0.00    -0.508 OA
ATOM     22  H   UNL     1     -39.665  39.335  43.397  1.00  0.00     0.293 HD
ENDBRANCH  18  21
ENDBRANCH  11  13
ENDBRANCH   2  11
TORSDOF 6
ENDMDL
MODEL 2
REMARK VINA RESULT:    -7.541      2.235      4.027
REMARK INTER + INTRA:         -10.092
REMARK INTER:                  -9.689
REMARK INTRA:                  -0.404
REMARK UNBOUND:                -0.567
REMARK SMILES O=C(C=Cc1ccc(O)cc1)c1ccc(O)cc1O
REMARK SMILES IDX 4 1 3 2 5 3 6 4 7 5 8 6 11 7 10 8 9 9 2 11 1 12 12 13 18 14
REMARK SMILES IDX 13 15 17 16 14 17 15 18 19 19 16 21
REMARK H PARENT 9 10 19 20 16 22
REMARK Flexibility Score: inf
ROOT
ATOM      1  C   UNL     1     -33.525  43.769  39.859  1.00  0.00     0.012 C 
ATOM      2  C   UNL     1     -34.440  42.796  39.979  1.00  0.00     0.053 C 
ENDROOT
BRANCH   1   3
ATOM      3  C   UNL     1     -33.451  44.689  38.697  1.00  0.00    -0.025 A 
ATOM      4  C   UNL     1     -32.186  45.107  38.249  1.00  0.00     0.012 A 
ATOM      5  C   UNL     1     -32.067  45.965  37.152  1.00  0.00     0.047 A 
ATOM      6  C   UNL     1     -33.209  46.408  36.479  1.00  0.00     0.115 A 
ATOM      7  C   UNL     1     -34.597  45.128  38.004  1.00  0.00     0.012 A 
ATOM      8  C   UNL     1     -34.474  45.986  36.905  1.00  0.00     0.047 A 
BRANCH   6   9
ATOM      9  O   UNL     1     -33.075  47.263  35.387  1.00  0.00    -0.508 OA
ATOM     10  H   UNL     1     -33.186  46.929  34.437  1.00  0.00     0.293 HD
ENDBRANCH   6   9
ENDBRANCH   1   3
BRANCH   2  11
ATOM     11  C   UNL     1     -34.494  41.907  41.161  1.00  0.00     0.189 C 
ATOM     12  O   UNL     1     -35.601  41.665  41.714  1.00  0.00    -0.289 OA
BRANCH  11  13
ATOM     13  C   UNL     1     -33.271  41.252  41.681  1.00  0.00     0.064 A 
ATOM     14  C   UNL     1     -32.513  40.356  40.894  1.00  0.00     0.130 A 
ATOM     15  C   UNL     1     -32.838  41.550  42.984  1.00  0.00     0.020 A 
ATOM     16  C   UNL     1     -31.370  39.748  41.434  1.00  0.00     0.093 A 
ATOM     17  C   UNL     1     -31.694  40.944  43.511  1.00  0.00     0.047 A 
ATOM     18  C   UNL     1     -30.960  40.038  42.738  1.00  0.00     0.119 A 
BRANCH  14  19
ATOM     19  O   UNL     1     -32.876  40.089  39.574  1.00  0.00    -0.507 OA
ATOM     20  H   UNL     1     -33.828  39.851  39.321  1.00  0.00     0.293 HD
ENDBRANCH  14  19
BRANCH  18  21
ATOM     21  O   UNL     1     -29.821  39.424  43.254  1.00  0.00    -0.508 OA
ATOM     22  H   UNL     1     -29.713  39.255  44.247  1.00  0.00     0.293 HD
ENDBRANCH  18  21
ENDBRANCH  11  13
ENDBRANCH   2  11
TORSDOF 6
ENDMDL
MODEL 3
REMARK VINA RESULT:    -7.403      1.085      2.046
REMARK INTER + INTRA:          -9.918
REMARK INTER:                  -9.361
REMARK INTRA:                  -0.556
REMARK UNBOUND:                -0.567
REMARK SMILES O=C(C=Cc1ccc(O)cc1)c1ccc(O)cc1O
REMARK SMILES IDX 4 1 3 2 5 3 6 4 7 5 8 6 11 7 10 8 9 9 2 11 1 12 12 13 18 14
REMARK SMILES IDX 13 15 17 16 14 17 15 18 19 19 16 21
REMARK H PARENT 9 10 19 20 16 22
REMARK Flexibility Score: inf
ROOT
ATOM      1  C   UNL     1     -33.711  43.882  40.098  1.00  0.00     0.012 C 
ATOM      2  C   UNL     1     -33.180  42.662  40.263  1.00  0.00     0.053 C 
ENDROOT
BRANCH   1   3
ATOM      3  C   UNL     1     -33.528  44.700  38.874  1.00  0.00    -0.025 A 
ATOM      4  C   UNL     1     -34.669  45.120  38.168  1.00  0.00     0.012 A 
ATOM      5  C   UNL     1     -34.544  45.900  37.014  1.00  0.00     0.047 A 
ATOM      6  C   UNL     1     -33.281  46.282  36.557  1.00  0.00     0.115 A 
ATOM      7  C   UNL     1     -32.258  45.102  38.414  1.00  0.00     0.012 A 
ATOM      8  C   UNL     1     -32.138  45.884  37.260  1.00  0.00     0.047 A 
BRANCH   6   9
ATOM      9  O   UNL     1     -33.172  47.060  35.406  1.00  0.00    -0.508 OA
ATOM     10  H   UNL     1     -32.372  46.984  34.789  1.00  0.00     0.293 HD
ENDBRANCH   6   9
ENDBRANCH   1   3
BRANCH   2  11
ATOM     11  C   UNL     1     -33.396  41.868  41.493  1.00  0.00     0.189 C 
ATOM     12  O   UNL     1     -32.406  41.431  42.141  1.00  0.00    -0.289 OA
BRANCH  11  13
ATOM     13  C   UNL     1     -34.761  41.616  42.009  1.00  0.00     0.064 A 
ATOM     14  C   UNL     1     -35.584  40.598  41.477  1.00  0.00     0.130 A 
ATOM     15  C   UNL     1     -35.242  42.394  43.076  1.00  0.00     0.020 A 
ATOM     16  C   UNL     1     -36.877  40.406  41.989  1.00  0.00     0.093 A 
ATOM     17  C   UNL     1     -36.529  42.190  43.583  1.00  0.00     0.047 A 
ATOM     18  C   UNL     1     -37.350  41.198  43.037  1.00  0.00     0.119 A 
BRANCH  14  19
ATOM     19  O   UNL     1     -35.114  39.763  40.463  1.00  0.00    -0.507 OA
ATOM     20  H   UNL     1     -34.462  40.093  39.762  1.00  0.00     0.293 HD
ENDBRANCH  14  19
BRANCH  18  21
ATOM     21  O   UNL     1     -38.636  40.990  43.532  1.00  0.00    -0.508 OA
ATOM     22  H   UNL     1     -39.019  40.058  43.637  1.00  0.00     0.293 HD
ENDBRANCH  18  21
ENDBRANCH  11  13
ENDBRANCH   2  11
TORSDOF 6
ENDMDL
MODEL 4
REMARK VINA RESULT:    -7.376      5.333     11.366
REMARK INTER + INTRA:          -9.883
REMARK INTER:                  -9.344
REMARK INTRA:                  -0.539
REMARK UNBOUND:                -0.567
REMARK SMILES O=C(C=Cc1ccc(O)cc1)c1ccc(O)cc1O
REMARK SMILES IDX 4 1 3 2 5 3 6 4 7 5 8 6 11 7 10 8 9 9 2 11 1 12 12 13 18 14
REMARK SMILES IDX 13 15 17 16 14 17 15 18 19 19 16 21
REMARK H PARENT 9 10 19 20 16 22
REMARK Flexibility Score: inf
ROOT
ATOM      1  C   UNL     1     -39.137  37.148  46.989  1.00  0.00     0.012 C 
ATOM      2  C   UNL     1     -38.478  38.268  46.661  1.00  0.00     0.053 C 
ENDROOT
BRANCH   1   3
ATOM      3  C   UNL     1     -39.958  37.006  48.218  1.00  0.00    -0.025 A 
ATOM      4  C   UNL     1     -40.428  38.170  48.850  1.00  0.00     0.012 A 
ATOM      5  C   UNL     1     -41.213  38.084  50.005  1.00  0.00     0.047 A 
ATOM      6  C   UNL     1     -41.548  36.836  50.535  1.00  0.00     0.115 A 
ATOM      7  C   UNL     1     -40.312  35.751  48.751  1.00  0.00     0.012 A 
ATOM      8  C   UNL     1     -41.099  35.669  49.905  1.00  0.00     0.047 A 
BRANCH   6   9
ATOM      9  O   UNL     1     -42.331  36.766  51.686  1.00  0.00    -0.508 OA
ATOM     10  H   UNL     1     -43.339  36.856  51.647  1.00  0.00     0.293 HD
ENDBRANCH   6   9
ENDBRANCH   1   3
BRANCH   2  11
ATOM     11  C   UNL     1     -37.681  38.379  45.419  1.00  0.00     0.189 C 
ATOM     12  O   UNL     1     -37.316  37.334  44.813  1.00  0.00    -0.289 OA
BRANCH  11  13
ATOM     13  C   UNL     1     -37.343  39.700  44.842  1.00  0.00     0.064 A 
ATOM     14  C   UNL     1     -38.014  40.213  43.709  1.00  0.00     0.130 A 
ATOM     15  C   UNL     1     -36.346  40.478  45.455  1.00  0.00     0.020 A 
ATOM     16  C   UNL     1     -37.650  41.464  43.189  1.00  0.00     0.093 A 
ATOM     17  C   UNL     1     -35.995  41.727  44.932  1.00  0.00     0.047 A 
ATOM     18  C   UNL     1     -36.644  42.220  43.795  1.00  0.00     0.119 A 
BRANCH  14  19
ATOM     19  O   UNL     1     -39.054  39.497  43.116  1.00  0.00    -0.507 OA
ATOM     20  H   UNL     1     -39.857  39.963  42.710  1.00  0.00     0.293 HD
ENDBRANCH  14  19
BRANCH  18  21
ATOM     21  O   UNL     1     -36.299  43.461  43.264  1.00  0.00    -0.508 OA
ATOM     22  H   UNL     1     -36.108  44.258  43.859  1.00  0.00     0.293 HD
ENDBRANCH  18  21
ENDBRANCH  11  13
ENDBRANCH   2  11
TORSDOF 6
ENDMDL
MODEL 5
REMARK VINA RESULT:    -7.258      4.228      9.348
REMARK INTER + INTRA:          -9.735
REMARK INTER:                  -9.118
REMARK INTRA:                  -0.617
REMARK UNBOUND:                -0.567
REMARK SMILES O=C(C=Cc1ccc(O)cc1)c1ccc(O)cc1O
REMARK SMILES IDX 4 1 3 2 5 3 6 4 7 5 8 6 11 7 10 8 9 9 2 11 1 12 12 13 18 14
REMARK SMILES IDX 13 15 17 16 14 17 15 18 19 19 16 21
REMARK H PARENT 9 10 19 20 16 22
REMARK Flexibility Score: inf
ROOT
ATOM      1  C   UNL     1     -38.465  39.173  44.192  1.00  0.00     0.012 C 
ATOM      2  C   UNL     1     -37.541  38.627  43.388  1.00  0.00     0.053 C 
ENDROOT
BRANCH   1   3
ATOM      3  C   UNL     1     -38.648  38.790  45.614  1.00  0.00    -0.025 A 
ATOM      4  C   UNL     1     -37.518  38.419  46.362  1.00  0.00     0.012 A 
ATOM      5  C   UNL     1     -37.642  38.059  47.707  1.00  0.00     0.047 A 
ATOM      6  C   UNL     1     -38.893  38.078  48.328  1.00  0.00     0.115 A 
ATOM      7  C   UNL     1     -39.905  38.820  46.250  1.00  0.00     0.012 A 
ATOM      8  C   UNL     1     -40.025  38.461  47.598  1.00  0.00     0.047 A 
BRANCH   6   9
ATOM      9  O   UNL     1     -39.001  37.717  49.669  1.00  0.00    -0.508 OA
ATOM     10  H   UNL     1     -39.293  38.383  50.375  1.00  0.00     0.293 HD
ENDBRANCH   6   9
ENDBRANCH   1   3
BRANCH   2  11
ATOM     11  C   UNL     1     -37.377  39.045  41.978  1.00  0.00     0.189 C 
ATOM     12  O   UNL     1     -38.386  39.118  41.224  1.00  0.00    -0.289 OA
BRANCH  11  13
ATOM     13  C   UNL     1     -36.051  39.431  41.445  1.00  0.00     0.064 A 
ATOM     14  C   UNL     1     -35.907  40.421  40.446  1.00  0.00     0.130 A 
ATOM     15  C   UNL     1     -34.899  38.815  41.965  1.00  0.00     0.020 A 
ATOM     16  C   UNL     1     -34.631  40.743  39.961  1.00  0.00     0.093 A 
ATOM     17  C   UNL     1     -33.632  39.148  41.479  1.00  0.00     0.047 A 
ATOM     18  C   UNL     1     -33.496  40.110  40.473  1.00  0.00     0.119 A 
BRANCH  14  19
ATOM     19  O   UNL     1     -37.022  41.101  39.956  1.00  0.00    -0.507 OA
ATOM     20  H   UNL     1     -36.982  41.641  39.100  1.00  0.00     0.293 HD
ENDBRANCH  14  19
BRANCH  18  21
ATOM     21  O   UNL     1     -32.237  40.446  39.979  1.00  0.00    -0.508 OA
ATOM     22  H   UNL     1     -31.808  39.925  39.224  1.00  0.00     0.293 HD
ENDBRANCH  18  21
ENDBRANCH  11  13
ENDBRANCH   2  11
TORSDOF 6
ENDMDL
MODEL 6
REMARK VINA RESULT:    -7.230      9.584     11.114
REMARK INTER + INTRA:          -9.699
REMARK INTER:                  -9.092
REMARK INTRA:                  -0.607
REMARK UNBOUND:                -0.567
REMARK SMILES O=C(C=Cc1ccc(O)cc1)c1ccc(O)cc1O
REMARK SMILES IDX 4 1 3 2 5 3 6 4 7 5 8 6 11 7 10 8 9 9 2 11 1 12 12 13 18 14
REMARK SMILES IDX 13 15 17 16 14 17 15 18 19 19 16 21
REMARK H PARENT 9 10 19 20 16 22
REMARK Flexibility Score: inf
ROOT
ATOM      1  C   UNL     1     -36.023  35.574  45.327  1.00  0.00     0.012 C 
ATOM      2  C   UNL     1     -36.950  35.681  46.289  1.00  0.00     0.053 C 
ENDROOT
BRANCH   1   3
ATOM      3  C   UNL     1     -35.114  34.409  45.186  1.00  0.00    -0.025 A 
ATOM      4  C   UNL     1     -33.920  34.571  44.463  1.00  0.00     0.012 A 
ATOM      5  C   UNL     1     -33.030  33.503  44.312  1.00  0.00     0.047 A 
ATOM      6  C   UNL     1     -33.313  32.264  44.892  1.00  0.00     0.115 A 
ATOM      7  C   UNL     1     -35.386  33.161  45.780  1.00  0.00     0.012 A 
ATOM      8  C   UNL     1     -34.492  32.095  45.629  1.00  0.00     0.047 A 
BRANCH   6   9
ATOM      9  O   UNL     1     -32.416  31.209  44.734  1.00  0.00    -0.508 OA
ATOM     10  H   UNL     1     -31.841  31.124  43.904  1.00  0.00     0.293 HD
ENDBRANCH   6   9
ENDBRANCH   1   3
BRANCH   2  11
ATOM     11  C   UNL     1     -37.850  36.852  46.389  1.00  0.00     0.189 C 
ATOM     12  O   UNL     1     -37.761  37.786  45.546  1.00  0.00    -0.289 OA
BRANCH  11  13
ATOM     13  C   UNL     1     -38.894  36.925  47.437  1.00  0.00     0.064 A 
ATOM     14  C   UNL     1     -39.145  38.115  48.158  1.00  0.00     0.130 A 
ATOM     15  C   UNL     1     -39.675  35.788  47.705  1.00  0.00     0.020 A 
ATOM     16  C   UNL     1     -40.135  38.134  49.152  1.00  0.00     0.093 A 
ATOM     17  C   UNL     1     -40.663  35.819  48.693  1.00  0.00     0.047 A 
ATOM     18  C   UNL     1     -40.892  36.991  49.422  1.00  0.00     0.119 A 
BRANCH  14  19
ATOM     19  O   UNL     1     -38.435  39.281  47.871  1.00  0.00    -0.507 OA
ATOM     20  H   UNL     1     -38.078  39.881  48.606  1.00  0.00     0.293 HD
ENDBRANCH  14  19
BRANCH  18  21
ATOM     21  O   UNL     1     -41.871  37.031  50.411  1.00  0.00    -0.508 OA
ATOM     22  H   UNL     1     -42.424  36.215  50.644  1.00  0.00     0.293 HD
ENDBRANCH  18  21
ENDBRANCH  11  13
ENDBRANCH   2  11
TORSDOF 6
ENDMDL
MODEL 7
REMARK VINA RESULT:    -7.219      6.237     11.419
REMARK INTER + INTRA:          -9.685
REMARK INTER:                  -8.947
REMARK INTRA:                  -0.738
REMARK UNBOUND:                -0.567
REMARK SMILES O=C(C=Cc1ccc(O)cc1)c1ccc(O)cc1O
REMARK SMILES IDX 4 1 3 2 5 3 6 4 7 5 8 6 11 7 10 8 9 9 2 11 1 12 12 13 18 14
REMARK SMILES IDX 13 15 17 16 14 17 15 18 19 19 16 21
REMARK H PARENT 9 10 19 20 16 22
REMARK Flexibility Score: inf
ROOT
ATOM      1  C   UNL     1     -38.900  36.915  46.964  1.00  0.00     0.012 C 
ATOM      2  C   UNL     1     -37.624  37.327  46.997  1.00  0.00     0.053 C 
ENDROOT
BRANCH   1   3
ATOM      3  C   UNL     1     -39.800  36.930  48.144  1.00  0.00    -0.025 A 
ATOM      4  C   UNL     1     -40.242  35.704  48.669  1.00  0.00     0.012 A 
ATOM      5  C   UNL     1     -41.083  35.670  49.785  1.00  0.00     0.047 A 
ATOM      6  C   UNL     1     -41.484  36.859  50.399  1.00  0.00     0.115 A 
ATOM      7  C   UNL     1     -40.197  38.125  48.777  1.00  0.00     0.012 A 
ATOM      8  C   UNL     1     -41.037  38.087  49.896  1.00  0.00     0.047 A 
BRANCH   6   9
ATOM      9  O   UNL     1     -42.323  36.810  51.511  1.00  0.00    -0.508 OA
ATOM     10  H   UNL     1     -42.170  36.145  52.261  1.00  0.00     0.293 HD
ENDBRANCH   6   9
ENDBRANCH   1   3
BRANCH   2  11
ATOM     11  C   UNL     1     -36.760  37.311  45.796  1.00  0.00     0.189 C 
ATOM     12  O   UNL     1     -35.710  36.611  45.787  1.00  0.00    -0.289 OA
BRANCH  11  13
ATOM     13  C   UNL     1     -37.131  38.067  44.577  1.00  0.00     0.064 A 
ATOM     14  C   UNL     1     -37.171  37.456  43.304  1.00  0.00     0.130 A 
ATOM     15  C   UNL     1     -37.478  39.424  44.695  1.00  0.00     0.020 A 
ATOM     16  C   UNL     1     -37.514  38.216  42.175  1.00  0.00     0.093 A 
ATOM     17  C   UNL     1     -37.825  40.171  43.565  1.00  0.00     0.047 A 
ATOM     18  C   UNL     1     -37.839  39.569  42.302  1.00  0.00     0.119 A 
BRANCH  14  19
ATOM     19  O   UNL     1     -36.898  36.095  43.160  1.00  0.00    -0.507 OA
ATOM     20  H   UNL     1     -37.551  35.386  43.471  1.00  0.00     0.293 HD
ENDBRANCH  14  19
BRANCH  18  21
ATOM     21  O   UNL     1     -38.179  40.305  41.169  1.00  0.00    -0.508 OA
ATOM     22  H   UNL     1     -37.473  40.742  40.590  1.00  0.00     0.293 HD
ENDBRANCH  18  21
ENDBRANCH  11  13
ENDBRANCH   2  11
TORSDOF 6
ENDMDL
MODEL 8
REMARK VINA RESULT:    -7.155      3.339      8.674
REMARK INTER + INTRA:          -9.604
REMARK INTER:                  -8.911
REMARK INTRA:                  -0.694
REMARK UNBOUND:                -0.567
REMARK SMILES O=C(C=Cc1ccc(O)cc1)c1ccc(O)cc1O
REMARK SMILES IDX 4 1 3 2 5 3 6 4 7 5 8 6 11 7 10 8 9 9 2 11 1 12 12 13 18 14
REMARK SMILES IDX 13 15 17 16 14 17 15 18 19 19 16 21
REMARK H PARENT 9 10 19 20 16 22
REMARK Flexibility Score: inf
ROOT
ATOM      1  C   UNL     1     -36.736  40.601  45.026  1.00  0.00     0.012 C 
ATOM      2  C   UNL     1     -35.444  40.961  45.010  1.00  0.00     0.053 C 
ENDROOT
BRANCH   1   3
ATOM      3  C   UNL     1     -37.231  39.344  45.639  1.00  0.00    -0.025 A 
ATOM      4  C   UNL     1     -38.180  39.427  46.672  1.00  0.00     0.012 A 
ATOM      5  C   UNL     1     -38.682  38.268  47.273  1.00  0.00     0.047 A 
ATOM      6  C   UNL     1     -38.254  37.011  46.841  1.00  0.00     0.115 A 
ATOM      7  C   UNL     1     -36.815  38.071  45.199  1.00  0.00     0.012 A 
ATOM      8  C   UNL     1     -37.321  36.914  45.801  1.00  0.00     0.047 A 
BRANCH   6   9
ATOM      9  O   UNL     1     -38.763  35.865  47.448  1.00  0.00    -0.508 OA
ATOM     10  H   UNL     1     -39.726  35.813  47.758  1.00  0.00     0.293 HD
ENDBRANCH   6   9
ENDBRANCH   1   3
BRANCH   2  11
ATOM     11  C   UNL     1     -34.988  42.231  44.403  1.00  0.00     0.189 C 
ATOM     12  O   UNL     1     -34.690  43.209  45.142  1.00  0.00    -0.289 OA
BRANCH  11  13
ATOM     13  C   UNL     1     -34.825  42.362  42.937  1.00  0.00     0.064 A 
ATOM     14  C   UNL     1     -35.422  43.417  42.211  1.00  0.00     0.130 A 
ATOM     15  C   UNL     1     -34.032  41.425  42.251  1.00  0.00     0.020 A 
ATOM     16  C   UNL     1     -35.252  43.492  40.820  1.00  0.00     0.093 A 
ATOM     17  C   UNL     1     -33.863  41.513  40.866  1.00  0.00     0.047 A 
ATOM     18  C   UNL     1     -34.477  42.545  40.148  1.00  0.00     0.119 A 
BRANCH  14  19
ATOM     19  O   UNL     1     -36.160  44.402  42.868  1.00  0.00    -0.507 OA
ATOM     20  H   UNL     1     -36.637  45.137  42.361  1.00  0.00     0.293 HD
ENDBRANCH  14  19
BRANCH  18  21
ATOM     21  O   UNL     1     -34.318  42.638  38.767  1.00  0.00    -0.508 OA
ATOM     22  H   UNL     1     -34.455  43.513  38.276  1.00  0.00     0.293 HD
ENDBRANCH  18  21
ENDBRANCH  11  13
ENDBRANCH   2  11
TORSDOF 6
ENDMDL
MODEL 9
REMARK VINA RESULT:    -7.120      1.757      2.592
REMARK INTER + INTRA:          -9.560
REMARK INTER:                  -8.798
REMARK INTRA:                  -0.762
REMARK UNBOUND:                -0.567
REMARK SMILES O=C(C=Cc1ccc(O)cc1)c1ccc(O)cc1O
REMARK SMILES IDX 4 1 3 2 5 3 6 4 7 5 8 6 11 7 10 8 9 9 2 11 1 12 12 13 18 14
REMARK SMILES IDX 13 15 17 16 14 17 15 18 19 19 16 21
REMARK H PARENT 9 10 19 20 16 22
REMARK Flexibility Score: inf
ROOT
ATOM      1  C   UNL     1     -33.342  43.339  39.699  1.00  0.00     0.012 C 
ATOM      2  C   UNL     1     -33.996  42.173  39.592  1.00  0.00     0.053 C 
ENDROOT
BRANCH   1   3
ATOM      3  C   UNL     1     -33.278  44.347  38.612  1.00  0.00    -0.025 A 
ATOM      4  C   UNL     1     -34.411  44.540  37.805  1.00  0.00     0.012 A 
ATOM      5  C   UNL     1     -34.399  45.486  36.775  1.00  0.00     0.047 A 
ATOM      6  C   UNL     1     -33.260  46.262  36.547  1.00  0.00     0.115 A 
ATOM      7  C   UNL     1     -32.137  45.144  38.385  1.00  0.00     0.012 A 
ATOM      8  C   UNL     1     -32.130  46.091  37.355  1.00  0.00     0.047 A 
BRANCH   6   9
ATOM      9  O   UNL     1     -33.262  47.201  35.517  1.00  0.00    -0.508 OA
ATOM     10  H   UNL     1     -33.559  46.958  34.579  1.00  0.00     0.293 HD
ENDBRANCH   6   9
ENDBRANCH   1   3
BRANCH   2  11
ATOM     11  C   UNL     1     -34.052  41.196  40.703  1.00  0.00     0.189 C 
ATOM     12  O   UNL     1     -33.767  39.986  40.490  1.00  0.00    -0.289 OA
BRANCH  11  13
ATOM     13  C   UNL     1     -34.389  41.624  42.080  1.00  0.00     0.064 A 
ATOM     14  C   UNL     1     -33.447  41.564  43.132  1.00  0.00     0.130 A 
ATOM     15  C   UNL     1     -35.675  42.128  42.343  1.00  0.00     0.020 A 
ATOM     16  C   UNL     1     -33.817  41.967  44.424  1.00  0.00     0.093 A 
ATOM     17  C   UNL     1     -36.031  42.532  43.633  1.00  0.00     0.047 A 
ATOM     18  C   UNL     1     -35.104  42.449  44.677  1.00  0.00     0.119 A 
BRANCH  14  19
ATOM     19  O   UNL     1     -32.142  41.133  42.892  1.00  0.00    -0.507 OA
ATOM     20  H   UNL     1     -31.341  41.707  43.125  1.00  0.00     0.293 HD
ENDBRANCH  14  19
BRANCH  18  21
ATOM     21  O   UNL     1     -35.450  42.845  45.967  1.00  0.00    -0.508 OA
ATOM     22  H   UNL     1     -34.886  43.505  46.488  1.00  0.00     0.293 HD
ENDBRANCH  18  21
ENDBRANCH  11  13
ENDBRANCH   2  11
TORSDOF 6
ENDMDL
