MODEL 1
REMARK VINA RESULT:    -3.365      0.000      0.000
REMARK INTER + INTRA:          -4.080
REMARK INTER:                  -4.054
REMARK INTRA:                  -0.026
REMARK UNBOUND:                -0.026
REMARK SMILES CCCCCO
REMARK SMILES IDX 4 1 3 2 2 3 1 4 5 5 6 6
REMARK H PARENT 6 7
REMARK Flexibility Score: inf
ROOT
ATOM      1  C   UNL     1       2.450  -1.477 -22.584  1.00  0.00     0.028 C 
ENDROOT
BRANCH   1   2
ATOM      2  C   UNL     1       2.338  -0.022 -23.068  1.00  0.00     0.002 C 
BRANCH   2   3
ATOM      3  C   UNL     1       2.935   0.182 -24.467  1.00  0.00    -0.003 C 
ATOM      4  C   UNL     1       4.038   1.237 -24.446  1.00  0.00     0.004 C 
ENDBRANCH   2   3
ENDBRANCH   1   2
BRANCH   1   5
ATOM      5  C   UNL     1       1.320  -1.873 -21.628  1.00  0.00     0.156 C 
BRANCH   5   6
ATOM      6  O   UNL     1       0.222  -1.017 -21.797  1.00  0.00    -0.396 OA
ATOM      7  H   UNL     1       0.397  -0.490 -22.621  1.00  0.00     0.210 HD
ENDBRANCH   5   6
ENDBRANCH   1   5
TORSDOF 4
ENDMDL
MODEL 2
REMARK VINA RESULT:    -3.364      2.359      3.820
REMARK INTER + INTRA:          -4.078
REMARK INTER:                  -4.058
REMARK INTRA:                  -0.021
REMARK UNBOUND:                -0.026
REMARK SMILES CCCCCO
REMARK SMILES IDX 4 1 3 2 2 3 1 4 5 5 6 6
REMARK H PARENT 6 7
REMARK Flexibility Score: inf
ROOT
ATOM      1  C   UNL     1       2.721  -1.816 -22.123  1.00  0.00     0.028 C 
ENDROOT
BRANCH   1   2
ATOM      2  C   UNL     1       2.665  -3.339 -22.315  1.00  0.00     0.002 C 
BRANCH   2   3
ATOM      3  C   UNL     1       3.924  -4.047 -21.793  1.00  0.00    -0.003 C 
ATOM      4  C   UNL     1       4.138  -5.381 -22.502  1.00  0.00     0.004 C 
ENDBRANCH   2   3
ENDBRANCH   1   2
BRANCH   1   5
ATOM      5  C   UNL     1       1.331  -1.174 -22.064  1.00  0.00     0.156 C 
BRANCH   5   6
ATOM      6  O   UNL     1       0.492  -1.914 -21.218  1.00  0.00    -0.396 OA
ATOM      7  H   UNL     1       0.379  -2.806 -21.640  1.00  0.00     0.210 HD
ENDBRANCH   5   6
ENDBRANCH   1   5
TORSDOF 4
ENDMDL
MODEL 3
REMARK VINA RESULT:    -3.272      3.933      4.700
REMARK INTER + INTRA:          -3.967
REMARK INTER:                  -3.955
REMARK INTRA:                  -0.012
REMARK UNBOUND:                -0.026
REMARK SMILES CCCCCO
REMARK SMILES IDX 4 1 3 2 2 3 1 4 5 5 6 6
REMARK H PARENT 6 7
REMARK Flexibility Score: inf
ROOT
ATOM      1  C   UNL     1       4.004  -4.830 -21.706  1.00  0.00     0.028 C 
ENDROOT
BRANCH   1   2
ATOM      2  C   UNL     1       3.840  -3.367 -22.148  1.00  0.00     0.002 C 
BRANCH   2   3
ATOM      3  C   UNL     1       2.379  -2.896 -22.102  1.00  0.00    -0.003 C 
ATOM      4  C   UNL     1       2.288  -1.376 -22.209  1.00  0.00     0.004 C 
ENDBRANCH   2   3
ENDBRANCH   1   2
BRANCH   1   5
ATOM      5  C   UNL     1       4.123  -5.796 -22.889  1.00  0.00     0.156 C 
BRANCH   5   6
ATOM      6  O   UNL     1       3.635  -7.061 -22.531  1.00  0.00    -0.396 OA
ATOM      7  H   UNL     1       4.421  -7.599 -22.246  1.00  0.00     0.210 HD
ENDBRANCH   5   6
ENDBRANCH   1   5
TORSDOF 4
ENDMDL
MODEL 4
REMARK VINA RESULT:    -3.184      1.863      3.041
REMARK INTER + INTRA:          -3.861
REMARK INTER:                  -3.830
REMARK INTRA:                  -0.031
REMARK UNBOUND:                -0.026
REMARK SMILES CCCCCO
REMARK SMILES IDX 4 1 3 2 2 3 1 4 5 5 6 6
REMARK H PARENT 6 7
REMARK Flexibility Score: inf
ROOT
ATOM      1  C   UNL     1       2.034  -0.222 -22.112  1.00  0.00     0.028 C 
ENDROOT
BRANCH   1   2
ATOM      2  C   UNL     1       2.533  -1.479 -22.842  1.00  0.00     0.002 C 
BRANCH   2   3
ATOM      3  C   UNL     1       2.319  -2.761 -22.024  1.00  0.00    -0.003 C 
ATOM      4  C   UNL     1       3.527  -3.688 -22.127  1.00  0.00     0.004 C 
ENDBRANCH   2   3
ENDBRANCH   1   2
BRANCH   1   5
ATOM      5  C   UNL     1       0.649   0.229 -22.589  1.00  0.00     0.156 C 
BRANCH   5   6
ATOM      6  O   UNL     1      -0.350  -0.505 -21.934  1.00  0.00    -0.396 OA
ATOM      7  H   UNL     1       0.106  -1.256 -21.472  1.00  0.00     0.210 HD
ENDBRANCH   5   6
ENDBRANCH   1   5
TORSDOF 4
ENDMDL
MODEL 5
REMARK VINA RESULT:    -3.160      5.594      6.415
REMARK INTER + INTRA:          -3.832
REMARK INTER:                  -3.822
REMARK INTRA:                  -0.010
REMARK UNBOUND:                -0.026
REMARK SMILES CCCCCO
REMARK SMILES IDX 4 1 3 2 2 3 1 4 5 5 6 6
REMARK H PARENT 6 7
REMARK Flexibility Score: inf
ROOT
ATOM      1  C   UNL     1       3.630  -6.705 -23.010  1.00  0.00     0.028 C 
ENDROOT
BRANCH   1   2
ATOM      2  C   UNL     1       4.360  -5.353 -22.977  1.00  0.00     0.002 C 
BRANCH   2   3
ATOM      3  C   UNL     1       4.015  -4.526 -21.730  1.00  0.00    -0.003 C 
ATOM      4  C   UNL     1       3.146  -3.324 -22.090  1.00  0.00     0.004 C 
ENDBRANCH   2   3
ENDBRANCH   1   2
BRANCH   1   5
ATOM      5  C   UNL     1       3.886  -7.486 -24.303  1.00  0.00     0.156 C 
BRANCH   5   6
ATOM      6  O   UNL     1       4.421  -8.748 -24.007  1.00  0.00    -0.396 OA
ATOM      7  H   UNL     1       3.779  -9.419 -24.360  1.00  0.00     0.210 HD
ENDBRANCH   5   6
ENDBRANCH   1   5
TORSDOF 4
ENDMDL
MODEL 6
REMARK VINA RESULT:    -3.146      2.239      3.701
REMARK INTER + INTRA:          -3.815
REMARK INTER:                  -3.785
REMARK INTRA:                  -0.030
REMARK UNBOUND:                -0.026
REMARK SMILES CCCCCO
REMARK SMILES IDX 4 1 3 2 2 3 1 4 5 5 6 6
REMARK H PARENT 6 7
REMARK Flexibility Score: inf
ROOT
ATOM      1  C   UNL     1       2.872  -0.212 -23.294  1.00  0.00     0.028 C 
ENDROOT
BRANCH   1   2
ATOM      2  C   UNL     1       1.557  -0.252 -22.500  1.00  0.00     0.002 C 
BRANCH   2   3
ATOM      3  C   UNL     1       1.336  -1.597 -21.791  1.00  0.00    -0.003 C 
ATOM      4  C   UNL     1       2.431  -2.596 -22.154  1.00  0.00     0.004 C 
ENDBRANCH   2   3
ENDBRANCH   1   2
BRANCH   1   5
ATOM      5  C   UNL     1       2.837   0.794 -24.448  1.00  0.00     0.156 C 
BRANCH   5   6
ATOM      6  O   UNL     1       3.708   1.862 -24.185  1.00  0.00    -0.396 OA
ATOM      7  H   UNL     1       4.622   1.546 -24.415  1.00  0.00     0.210 HD
ENDBRANCH   5   6
ENDBRANCH   1   5
TORSDOF 4
ENDMDL
MODEL 7
REMARK VINA RESULT:    -3.108      2.376      2.880
REMARK INTER + INTRA:          -3.770
REMARK INTER:                  -3.730
REMARK INTRA:                  -0.040
REMARK UNBOUND:                -0.026
REMARK SMILES CCCCCO
REMARK SMILES IDX 4 1 3 2 2 3 1 4 5 5 6 6
REMARK H PARENT 6 7
REMARK Flexibility Score: inf
ROOT
ATOM      1  C   UNL     1       2.399  -2.488 -22.712  1.00  0.00     0.028 C 
ENDROOT
BRANCH   1   2
ATOM      2  C   UNL     1       1.624  -1.569 -21.755  1.00  0.00     0.002 C 
BRANCH   2   3
ATOM      3  C   UNL     1       1.914  -0.081 -22.000  1.00  0.00    -0.003 C 
ATOM      4  C   UNL     1       2.729   0.117 -23.275  1.00  0.00     0.004 C 
ENDBRANCH   2   3
ENDBRANCH   1   2
BRANCH   1   5
ATOM      5  C   UNL     1       3.286  -3.499 -21.976  1.00  0.00     0.156 C 
BRANCH   5   6
ATOM      6  O   UNL     1       3.904  -4.358 -22.896  1.00  0.00    -0.396 OA
ATOM      7  H   UNL     1       3.461  -4.203 -23.771  1.00  0.00     0.210 HD
ENDBRANCH   5   6
ENDBRANCH   1   5
TORSDOF 4
ENDMDL
MODEL 8
REMARK VINA RESULT:    -3.074      8.648      9.325
REMARK INTER + INTRA:          -3.729
REMARK INTER:                  -3.719
REMARK INTRA:                  -0.010
REMARK UNBOUND:                -0.026
REMARK SMILES CCCCCO
REMARK SMILES IDX 4 1 3 2 2 3 1 4 5 5 6 6
REMARK H PARENT 6 7
REMARK Flexibility Score: inf
ROOT
ATOM      1  C   UNL     1      -5.482   2.311 -21.719  1.00  0.00     0.028 C 
ENDROOT
BRANCH   1   2
ATOM      2  C   UNL     1      -6.499   3.025 -22.622  1.00  0.00     0.002 C 
BRANCH   2   3
ATOM      3  C   UNL     1      -7.759   2.184 -22.873  1.00  0.00    -0.003 C 
ATOM      4  C   UNL     1      -7.960   1.924 -24.363  1.00  0.00     0.004 C 
ENDBRANCH   2   3
ENDBRANCH   1   2
BRANCH   1   5
ATOM      5  C   UNL     1      -4.173   3.093 -21.565  1.00  0.00     0.156 C 
BRANCH   5   6
ATOM      6  O   UNL     1      -3.797   3.145 -20.215  1.00  0.00    -0.396 OA
ATOM      7  H   UNL     1      -2.891   3.551 -20.188  1.00  0.00     0.210 HD
ENDBRANCH   5   6
ENDBRANCH   1   5
TORSDOF 4
ENDMDL
MODEL 9
REMARK VINA RESULT:    -2.857      1.594      1.594
REMARK INTER + INTRA:          -3.467
REMARK INTER:                  -3.433
REMARK INTRA:                  -0.034
REMARK UNBOUND:                -0.026
REMARK SMILES CCCCCO
REMARK SMILES IDX 4 1 3 2 2 3 1 4 5 5 6 6
REMARK H PARENT 6 7
REMARK Flexibility Score: inf
ROOT
ATOM      1  C   UNL     1       2.429  -0.805 -22.068  1.00  0.00     0.028 C 
ENDROOT
BRANCH   1   2
ATOM      2  C   UNL     1       2.064   0.038 -23.300  1.00  0.00     0.002 C 
BRANCH   2   3
ATOM      3  C   UNL     1       3.272   0.307 -24.210  1.00  0.00    -0.003 C 
ATOM      4  C   UNL     1       3.015   1.501 -25.125  1.00  0.00     0.004 C 
ENDBRANCH   2   3
ENDBRANCH   1   2
BRANCH   1   5
ATOM      5  C   UNL     1       1.861  -2.226 -22.132  1.00  0.00     0.156 C 
BRANCH   5   6
ATOM      6  O   UNL     1       2.863  -3.129 -22.518  1.00  0.00    -0.396 OA
ATOM      7  H   UNL     1       3.732  -2.693 -22.316  1.00  0.00     0.210 HD
ENDBRANCH   5   6
ENDBRANCH   1   5
TORSDOF 4
ENDMDL
