MODEL 1
REMARK VINA RESULT:    -5.410      0.000      0.000
REMARK INTER + INTRA:          -6.857
REMARK INTER:                  -6.676
REMARK INTRA:                  -0.182
REMARK UNBOUND:                -0.182
REMARK SMILES Oc1cc(O)c2cc(O)c(-c3cc(O)c(O)c(O)c3)[o+]c2c1
REMARK SMILES IDX 10 1 20 2 21 3 22 4 2 5 3 6 4 7 6 8 7 9 8 10 11 11 12 12
REMARK SMILES IDX 13 13 19 14 15 15 17 16 14 17 16 19 18 21 9 23 1 25 5 27
REMARK H PARENT 14 18 16 20 18 22 9 24 1 26 5 28
REMARK Flexibility Score: inf
ROOT
ATOM      1  C   UNL     1     176.245 169.068 170.529  1.00  0.00     0.402 A 
ATOM      2  O   UNL     1     176.949 167.940 170.589  1.00  0.00    -0.202 OA
ATOM      3  C   UNL     1     176.738 166.903 169.784  1.00  0.00     0.368 A 
ATOM      4  C   UNL     1     177.532 165.761 169.923  1.00  0.00     0.162 A 
ATOM      5  C   UNL     1     177.334 164.660 169.091  1.00  0.00     0.128 A 
ATOM      6  C   UNL     1     176.336 164.697 168.110  1.00  0.00     0.093 A 
ATOM      7  C   UNL     1     175.527 165.829 167.952  1.00  0.00     0.136 A 
ATOM      8  C   UNL     1     175.724 166.951 168.799  1.00  0.00     0.125 A 
ATOM      9  C   UNL     1     174.952 168.122 168.720  1.00  0.00     0.078 A 
ATOM     10  C   UNL     1     175.201 169.186 169.593  1.00  0.00     0.223 A 
ENDROOT
BRANCH   1  11
ATOM     11  C   UNL     1     176.584 170.156 171.474  1.00  0.00     0.091 A 
ATOM     12  C   UNL     1     177.847 170.765 171.401  1.00  0.00     0.068 A 
ATOM     13  C   UNL     1     178.186 171.810 172.271  1.00  0.00     0.162 A 
ATOM     14  C   UNL     1     175.649 170.631 172.409  1.00  0.00     0.068 A 
ATOM     15  C   UNL     1     177.252 172.266 173.216  1.00  0.00     0.200 A 
ATOM     16  C   UNL     1     175.978 171.675 173.279  1.00  0.00     0.162 A 
BRANCH  13  17
ATOM     17  O   UNL     1     179.449 172.397 172.197  1.00  0.00    -0.504 OA
ATOM     18  H   UNL     1     180.235 172.034 172.723  1.00  0.00     0.293 HD
ENDBRANCH  13  17
BRANCH  15  19
ATOM     19  O   UNL     1     177.574 173.304 174.092  1.00  0.00    -0.502 OA
ATOM     20  H   UNL     1     177.706 174.257 173.774  1.00  0.00     0.293 HD
ENDBRANCH  15  19
BRANCH  16  21
ATOM     21  O   UNL     1     175.025 172.115 174.196  1.00  0.00    -0.504 OA
ATOM     22  H   UNL     1     174.836 173.098 174.349  1.00  0.00     0.293 HD
ENDBRANCH  16  21
ENDBRANCH   1  11
BRANCH  10  23
ATOM     23  O   UNL     1     174.403 170.328 169.549  1.00  0.00    -0.500 OA
ATOM     24  H   UNL     1     174.786 171.236 169.311  1.00  0.00     0.294 HD
ENDBRANCH  10  23
BRANCH   5  25
ATOM     25  O   UNL     1     178.137 163.531 169.244  1.00  0.00    -0.507 OA
ATOM     26  H   UNL     1     179.083 163.598 169.600  1.00  0.00     0.293 HD
ENDBRANCH   5  25
BRANCH   7  27
ATOM     27  O   UNL     1     174.555 165.789 166.949  1.00  0.00    -0.507 OA
ATOM     28  H   UNL     1     173.960 164.995 166.761  1.00  0.00     0.293 HD
ENDBRANCH   7  27
TORSDOF 7
ENDMDL
MODEL 2
REMARK VINA RESULT:    -5.400      3.872      6.113
REMARK INTER + INTRA:          -6.844
REMARK INTER:                  -6.732
REMARK INTRA:                  -0.112
REMARK UNBOUND:                -0.182
REMARK SMILES Oc1cc(O)c2cc(O)c(-c3cc(O)c(O)c(O)c3)[o+]c2c1
REMARK SMILES IDX 10 1 20 2 21 3 22 4 2 5 3 6 4 7 6 8 7 9 8 10 11 11 12 12
REMARK SMILES IDX 13 13 19 14 15 15 17 16 14 17 16 19 18 21 9 23 1 25 5 27
REMARK H PARENT 14 18 16 20 18 22 9 24 1 26 5 28
REMARK Flexibility Score: inf
ROOT
ATOM      1  C   UNL     1     174.111 169.960 172.890  1.00  0.00     0.402 A 
ATOM      2  O   UNL     1     172.970 170.624 172.727  1.00  0.00    -0.202 OA
ATOM      3  C   UNL     1     171.772 170.057 172.840  1.00  0.00     0.368 A 
ATOM      4  C   UNL     1     170.629 170.839 172.654  1.00  0.00     0.162 A 
ATOM      5  C   UNL     1     169.361 170.271 172.768  1.00  0.00     0.128 A 
ATOM      6  C   UNL     1     169.230 168.911 173.070  1.00  0.00     0.093 A 
ATOM      7  C   UNL     1     170.360 168.106 173.261  1.00  0.00     0.136 A 
ATOM      8  C   UNL     1     171.653 168.680 173.143  1.00  0.00     0.125 A 
ATOM      9  C   UNL     1     172.841 167.947 173.305  1.00  0.00     0.078 A 
ATOM     10  C   UNL     1     174.079 168.581 173.168  1.00  0.00     0.223 A 
ENDROOT
BRANCH   1  11
ATOM     11  C   UNL     1     175.382 170.707 172.750  1.00  0.00     0.091 A 
ATOM     12  C   UNL     1     175.626 171.815 173.577  1.00  0.00     0.068 A 
ATOM     13  C   UNL     1     176.828 172.528 173.479  1.00  0.00     0.162 A 
ATOM     14  C   UNL     1     176.375 170.299 171.843  1.00  0.00     0.068 A 
ATOM     15  C   UNL     1     177.808 172.125 172.556  1.00  0.00     0.200 A 
ATOM     16  C   UNL     1     177.579 171.003 171.741  1.00  0.00     0.162 A 
BRANCH  13  17
ATOM     17  O   UNL     1     177.052 173.634 174.296  1.00  0.00    -0.504 OA
ATOM     18  H   UNL     1     176.874 174.578 173.973  1.00  0.00     0.293 HD
ENDBRANCH  13  17
BRANCH  15  19
ATOM     19  O   UNL     1     179.010 172.825 172.442  1.00  0.00    -0.502 OA
ATOM     20  H   UNL     1     179.045 173.837 172.415  1.00  0.00     0.293 HD
ENDBRANCH  15  19
BRANCH  16  21
ATOM     21  O   UNL     1     178.537 170.570 170.825  1.00  0.00    -0.504 OA
ATOM     22  H   UNL     1     179.522 170.524 171.057  1.00  0.00     0.293 HD
ENDBRANCH  16  21
ENDBRANCH   1  11
BRANCH  10  23
ATOM     23  O   UNL     1     175.258 167.844 173.279  1.00  0.00    -0.500 OA
ATOM     24  H   UNL     1     176.116 168.141 172.831  1.00  0.00     0.294 HD
ENDBRANCH  10  23
BRANCH   5  25
ATOM     25  O   UNL     1     168.233 171.067 172.580  1.00  0.00    -0.507 OA
ATOM     26  H   UNL     1     168.006 171.823 173.215  1.00  0.00     0.293 HD
ENDBRANCH   5  25
BRANCH   7  27
ATOM     27  O   UNL     1     170.146 166.759 173.563  1.00  0.00    -0.507 OA
ATOM     28  H   UNL     1     170.136 166.378 174.499  1.00  0.00     0.293 HD
ENDBRANCH   7  27
TORSDOF 7
ENDMDL
MODEL 3
REMARK VINA RESULT:    -5.399      3.649      6.944
REMARK INTER + INTRA:          -6.843
REMARK INTER:                  -6.488
REMARK INTRA:                  -0.354
REMARK UNBOUND:                -0.182
REMARK SMILES Oc1cc(O)c2cc(O)c(-c3cc(O)c(O)c(O)c3)[o+]c2c1
REMARK SMILES IDX 10 1 20 2 21 3 22 4 2 5 3 6 4 7 6 8 7 9 8 10 11 11 12 12
REMARK SMILES IDX 13 13 19 14 15 15 17 16 14 17 16 19 18 21 9 23 1 25 5 27
REMARK H PARENT 14 18 16 20 18 22 9 24 1 26 5 28
REMARK Flexibility Score: inf
ROOT
ATOM      1  C   UNL     1     173.998 169.805 172.094  1.00  0.00     0.402 A 
ATOM      2  O   UNL     1     174.523 170.744 172.878  1.00  0.00    -0.202 OA
ATOM      3  C   UNL     1     175.776 171.172 172.766  1.00  0.00     0.368 A 
ATOM      4  C   UNL     1     176.236 172.165 173.635  1.00  0.00     0.162 A 
ATOM      5  C   UNL     1     177.545 172.634 173.539  1.00  0.00     0.128 A 
ATOM      6  C   UNL     1     178.405 172.110 172.567  1.00  0.00     0.093 A 
ATOM      7  C   UNL     1     177.969 171.114 171.685  1.00  0.00     0.136 A 
ATOM      8  C   UNL     1     176.637 170.632 171.781  1.00  0.00     0.125 A 
ATOM      9  C   UNL     1     176.118 169.626 170.948  1.00  0.00     0.078 A 
ATOM     10  C   UNL     1     174.796 169.199 171.106  1.00  0.00     0.223 A 
ENDROOT
BRANCH   1  11
ATOM     11  C   UNL     1     172.585 169.422 172.311  1.00  0.00     0.091 A 
ATOM     12  C   UNL     1     171.564 170.188 171.726  1.00  0.00     0.068 A 
ATOM     13  C   UNL     1     170.219 169.836 171.899  1.00  0.00     0.162 A 
ATOM     14  C   UNL     1     172.242 168.273 173.045  1.00  0.00     0.068 A 
ATOM     15  C   UNL     1     169.883 168.698 172.651  1.00  0.00     0.200 A 
ATOM     16  C   UNL     1     170.902 167.913 173.220  1.00  0.00     0.162 A 
BRANCH  13  17
ATOM     17  O   UNL     1     169.214 170.614 171.325  1.00  0.00    -0.504 OA
ATOM     18  H   UNL     1     169.313 171.617 171.222  1.00  0.00     0.293 HD
ENDBRANCH  13  17
BRANCH  15  19
ATOM     19  O   UNL     1     168.549 168.334 172.837  1.00  0.00    -0.502 OA
ATOM     20  H   UNL     1     168.237 167.373 172.767  1.00  0.00     0.293 HD
ENDBRANCH  15  19
BRANCH  16  21
ATOM     21  O   UNL     1     170.602 166.770 173.960  1.00  0.00    -0.504 OA
ATOM     22  H   UNL     1     171.120 166.515 174.792  1.00  0.00     0.293 HD
ENDBRANCH  16  21
ENDBRANCH   1  11
BRANCH  10  23
ATOM     23  O   UNL     1     174.296 168.167 170.313  1.00  0.00    -0.500 OA
ATOM     24  H   UNL     1     173.408 168.248 169.832  1.00  0.00     0.294 HD
ENDBRANCH  10  23
BRANCH   5  25
ATOM     25  O   UNL     1     177.985 173.626 174.414  1.00  0.00    -0.507 OA
ATOM     26  H   UNL     1     178.853 174.124 174.257  1.00  0.00     0.293 HD
ENDBRANCH   5  25
BRANCH   7  27
ATOM     27  O   UNL     1     178.886 170.644 170.741  1.00  0.00    -0.507 OA
ATOM     28  H   UNL     1     179.601 169.957 170.933  1.00  0.00     0.293 HD
ENDBRANCH   7  27
TORSDOF 7
ENDMDL
MODEL 4
REMARK VINA RESULT:    -5.387      3.641      6.921
REMARK INTER + INTRA:          -6.828
REMARK INTER:                  -6.478
REMARK INTRA:                  -0.350
REMARK UNBOUND:                -0.182
REMARK SMILES Oc1cc(O)c2cc(O)c(-c3cc(O)c(O)c(O)c3)[o+]c2c1
REMARK SMILES IDX 10 1 20 2 21 3 22 4 2 5 3 6 4 7 6 8 7 9 8 10 11 11 12 12
REMARK SMILES IDX 13 13 19 14 15 15 17 16 14 17 16 19 18 21 9 23 1 25 5 27
REMARK H PARENT 14 18 16 20 18 22 9 24 1 26 5 28
REMARK Flexibility Score: inf
ROOT
ATOM      1  C   UNL     1     174.028 169.785 172.051  1.00  0.00     0.402 A 
ATOM      2  O   UNL     1     174.544 170.727 172.836  1.00  0.00    -0.202 OA
ATOM      3  C   UNL     1     175.796 171.160 172.733  1.00  0.00     0.368 A 
ATOM      4  C   UNL     1     176.247 172.156 173.603  1.00  0.00     0.162 A 
ATOM      5  C   UNL     1     177.555 172.630 173.515  1.00  0.00     0.128 A 
ATOM      6  C   UNL     1     178.424 172.106 172.550  1.00  0.00     0.093 A 
ATOM      7  C   UNL     1     177.997 171.107 171.667  1.00  0.00     0.136 A 
ATOM      8  C   UNL     1     176.667 170.620 171.755  1.00  0.00     0.125 A 
ATOM      9  C   UNL     1     176.157 169.611 170.921  1.00  0.00     0.078 A 
ATOM     10  C   UNL     1     174.835 169.179 171.071  1.00  0.00     0.223 A 
ENDROOT
BRANCH   1  11
ATOM     11  C   UNL     1     172.615 169.396 172.259  1.00  0.00     0.091 A 
ATOM     12  C   UNL     1     172.317 168.255 173.019  1.00  0.00     0.068 A 
ATOM     13  C   UNL     1     170.987 167.876 173.247  1.00  0.00     0.162 A 
ATOM     14  C   UNL     1     171.560 170.178 171.756  1.00  0.00     0.068 A 
ATOM     15  C   UNL     1     169.938 168.651 172.724  1.00  0.00     0.200 A 
ATOM     16  C   UNL     1     170.230 169.809 171.981  1.00  0.00     0.162 A 
BRANCH  13  17
ATOM     17  O   UNL     1     170.705 166.732 173.992  1.00  0.00    -0.504 OA
ATOM     18  H   UNL     1     170.073 166.018 173.650  1.00  0.00     0.293 HD
ENDBRANCH  13  17
BRANCH  15  19
ATOM     19  O   UNL     1     168.608 168.287 172.939  1.00  0.00    -0.502 OA
ATOM     20  H   UNL     1     168.041 167.863 172.215  1.00  0.00     0.293 HD
ENDBRANCH  15  19
BRANCH  16  21
ATOM     21  O   UNL     1     169.211 170.606 171.462  1.00  0.00    -0.504 OA
ATOM     22  H   UNL     1     169.098 171.577 171.727  1.00  0.00     0.293 HD
ENDBRANCH  16  21
ENDBRANCH   1  11
BRANCH  10  23
ATOM     23  O   UNL     1     174.344 168.144 170.276  1.00  0.00    -0.500 OA
ATOM     24  H   UNL     1     173.844 168.325 169.414  1.00  0.00     0.294 HD
ENDBRANCH  10  23
BRANCH   5  25
ATOM     25  O   UNL     1     177.985 173.625 174.390  1.00  0.00    -0.507 OA
ATOM     26  H   UNL     1     178.964 173.873 174.471  1.00  0.00     0.293 HD
ENDBRANCH   5  25
BRANCH   7  27
ATOM     27  O   UNL     1     178.922 170.638 170.731  1.00  0.00    -0.507 OA
ATOM     28  H   UNL     1     178.801 169.802 170.177  1.00  0.00     0.293 HD
ENDBRANCH   7  27
TORSDOF 7
ENDMDL
MODEL 5
REMARK VINA RESULT:    -5.351      1.717      2.947
REMARK INTER + INTRA:          -6.784
REMARK INTER:                  -6.405
REMARK INTRA:                  -0.379
REMARK UNBOUND:                -0.182
REMARK SMILES Oc1cc(O)c2cc(O)c(-c3cc(O)c(O)c(O)c3)[o+]c2c1
REMARK SMILES IDX 10 1 20 2 21 3 22 4 2 5 3 6 4 7 6 8 7 9 8 10 11 11 12 12
REMARK SMILES IDX 13 13 19 14 15 15 17 16 14 17 16 19 18 21 9 23 1 25 5 27
REMARK H PARENT 14 18 16 20 18 22 9 24 1 26 5 28
REMARK Flexibility Score: inf
ROOT
ATOM      1  C   UNL     1     175.855 169.268 170.692  1.00  0.00     0.402 A 
ATOM      2  O   UNL     1     175.450 169.646 169.482  1.00  0.00    -0.202 OA
ATOM      3  C   UNL     1     174.914 168.811 168.597  1.00  0.00     0.368 A 
ATOM      4  C   UNL     1     174.517 169.303 167.351  1.00  0.00     0.162 A 
ATOM      5  C   UNL     1     173.950 168.451 166.405  1.00  0.00     0.128 A 
ATOM      6  C   UNL     1     173.777 167.094 166.703  1.00  0.00     0.093 A 
ATOM      7  C   UNL     1     174.168 166.576 167.944  1.00  0.00     0.136 A 
ATOM      8  C   UNL     1     174.747 167.441 168.909  1.00  0.00     0.125 A 
ATOM      9  C   UNL     1     175.180 167.007 170.174  1.00  0.00     0.078 A 
ATOM     10  C   UNL     1     175.747 167.917 171.070  1.00  0.00     0.223 A 
ENDROOT
BRANCH   1  11
ATOM     11  C   UNL     1     176.425 170.296 171.592  1.00  0.00     0.091 A 
ATOM     12  C   UNL     1     177.760 170.696 171.425  1.00  0.00     0.068 A 
ATOM     13  C   UNL     1     178.320 171.680 172.251  1.00  0.00     0.162 A 
ATOM     14  C   UNL     1     175.642 170.921 172.578  1.00  0.00     0.068 A 
ATOM     15  C   UNL     1     177.536 172.287 173.247  1.00  0.00     0.200 A 
ATOM     16  C   UNL     1     176.192 171.907 173.404  1.00  0.00     0.162 A 
BRANCH  13  17
ATOM     17  O   UNL     1     179.651 172.058 172.083  1.00  0.00    -0.504 OA
ATOM     18  H   UNL     1     180.410 171.517 172.480  1.00  0.00     0.293 HD
ENDBRANCH  13  17
BRANCH  15  19
ATOM     19  O   UNL     1     178.078 173.267 174.080  1.00  0.00    -0.502 OA
ATOM     20  H   UNL     1     178.697 173.990 173.732  1.00  0.00     0.293 HD
ENDBRANCH  15  19
BRANCH  16  21
ATOM     21  O   UNL     1     175.385 172.501 174.375  1.00  0.00    -0.504 OA
ATOM     22  H   UNL     1     174.764 171.960 174.964  1.00  0.00     0.293 HD
ENDBRANCH  16  21
ENDBRANCH   1  11
BRANCH  10  23
ATOM     23  O   UNL     1     176.222 167.478 172.306  1.00  0.00    -0.500 OA
ATOM     24  H   UNL     1     176.958 167.969 172.799  1.00  0.00     0.294 HD
ENDBRANCH  10  23
BRANCH   5  25
ATOM     25  O   UNL     1     173.559 168.960 165.168  1.00  0.00    -0.507 OA
ATOM     26  H   UNL     1     172.853 169.683 165.093  1.00  0.00     0.293 HD
ENDBRANCH   5  25
BRANCH   7  27
ATOM     27  O   UNL     1     173.959 165.212 168.166  1.00  0.00    -0.507 OA
ATOM     28  H   UNL     1     174.508 164.475 167.747  1.00  0.00     0.293 HD
ENDBRANCH   7  27
TORSDOF 7
ENDMDL
MODEL 6
REMARK VINA RESULT:    -5.342      3.832      5.005
REMARK INTER + INTRA:          -6.773
REMARK INTER:                  -6.389
REMARK INTRA:                  -0.384
REMARK UNBOUND:                -0.182
REMARK SMILES Oc1cc(O)c2cc(O)c(-c3cc(O)c(O)c(O)c3)[o+]c2c1
REMARK SMILES IDX 10 1 20 2 21 3 22 4 2 5 3 6 4 7 6 8 7 9 8 10 11 11 12 12
REMARK SMILES IDX 13 13 19 14 15 15 17 16 14 17 16 19 18 21 9 23 1 25 5 27
REMARK H PARENT 14 18 16 20 18 22 9 24 1 26 5 28
REMARK Flexibility Score: inf
ROOT
ATOM      1  C   UNL     1     174.294 169.714 172.695  1.00  0.00     0.402 A 
ATOM      2  O   UNL     1     174.239 168.762 173.623  1.00  0.00    -0.202 OA
ATOM      3  C   UNL     1     173.193 167.958 173.783  1.00  0.00     0.368 A 
ATOM      4  C   UNL     1     173.229 166.984 174.785  1.00  0.00     0.162 A 
ATOM      5  C   UNL     1     172.147 166.126 174.973  1.00  0.00     0.128 A 
ATOM      6  C   UNL     1     171.017 166.237 174.155  1.00  0.00     0.093 A 
ATOM      7  C   UNL     1     170.956 167.205 173.144  1.00  0.00     0.136 A 
ATOM      8  C   UNL     1     172.054 168.082 172.951  1.00  0.00     0.125 A 
ATOM      9  C   UNL     1     172.075 169.090 171.971  1.00  0.00     0.078 A 
ATOM     10  C   UNL     1     173.193 169.920 171.845  1.00  0.00     0.223 A 
ENDROOT
BRANCH   1  11
ATOM     11  C   UNL     1     175.521 170.538 172.611  1.00  0.00     0.091 A 
ATOM     12  C   UNL     1     175.661 171.657 173.447  1.00  0.00     0.068 A 
ATOM     13  C   UNL     1     176.820 172.443 173.401  1.00  0.00     0.162 A 
ATOM     14  C   UNL     1     176.576 170.194 171.748  1.00  0.00     0.068 A 
ATOM     15  C   UNL     1     177.862 172.104 172.521  1.00  0.00     0.200 A 
ATOM     16  C   UNL     1     177.738 170.971 171.697  1.00  0.00     0.162 A 
BRANCH  13  17
ATOM     17  O   UNL     1     176.940 173.559 174.227  1.00  0.00    -0.504 OA
ATOM     18  H   UNL     1     176.875 173.483 175.235  1.00  0.00     0.293 HD
ENDBRANCH  13  17
BRANCH  15  19
ATOM     19  O   UNL     1     179.023 172.877 172.460  1.00  0.00    -0.502 OA
ATOM     20  H   UNL     1     179.008 173.850 172.181  1.00  0.00     0.293 HD
ENDBRANCH  15  19
BRANCH  16  21
ATOM     21  O   UNL     1     178.760 170.601 170.824  1.00  0.00    -0.504 OA
ATOM     22  H   UNL     1     178.574 170.149 169.937  1.00  0.00     0.293 HD
ENDBRANCH  16  21
ENDBRANCH   1  11
BRANCH  10  23
ATOM     23  O   UNL     1     173.194 170.952 170.906  1.00  0.00    -0.500 OA
ATOM     24  H   UNL     1     173.068 171.920 171.178  1.00  0.00     0.294 HD
ENDBRANCH  10  23
BRANCH   5  25
ATOM     25  O   UNL     1     172.202 165.161 175.977  1.00  0.00    -0.507 OA
ATOM     26  H   UNL     1     173.046 164.630 176.155  1.00  0.00     0.293 HD
ENDBRANCH   5  25
BRANCH   7  27
ATOM     27  O   UNL     1     169.795 167.251 172.367  1.00  0.00    -0.507 OA
ATOM     28  H   UNL     1     169.741 167.657 171.444  1.00  0.00     0.293 HD
ENDBRANCH   7  27
TORSDOF 7
ENDMDL
MODEL 7
REMARK VINA RESULT:    -5.336      2.942      3.956
REMARK INTER + INTRA:          -6.766
REMARK INTER:                  -6.382
REMARK INTRA:                  -0.384
REMARK UNBOUND:                -0.182
REMARK SMILES Oc1cc(O)c2cc(O)c(-c3cc(O)c(O)c(O)c3)[o+]c2c1
REMARK SMILES IDX 10 1 20 2 21 3 22 4 2 5 3 6 4 7 6 8 7 9 8 10 11 11 12 12
REMARK SMILES IDX 13 13 19 14 15 15 17 16 14 17 16 19 18 21 9 23 1 25 5 27
REMARK H PARENT 14 18 16 20 18 22 9 24 1 26 5 28
REMARK Flexibility Score: inf
ROOT
ATOM      1  C   UNL     1     175.365 170.207 171.311  1.00  0.00     0.402 A 
ATOM      2  O   UNL     1     174.761 170.672 170.220  1.00  0.00    -0.202 OA
ATOM      3  C   UNL     1     173.847 169.986 169.542  1.00  0.00     0.368 A 
ATOM      4  C   UNL     1     173.267 170.561 168.408  1.00  0.00     0.162 A 
ATOM      5  C   UNL     1     172.303 169.865 167.679  1.00  0.00     0.128 A 
ATOM      6  C   UNL     1     171.914 168.582 168.083  1.00  0.00     0.093 A 
ATOM      7  C   UNL     1     172.481 167.984 169.216  1.00  0.00     0.136 A 
ATOM      8  C   UNL     1     173.464 168.689 169.959  1.00  0.00     0.125 A 
ATOM      9  C   UNL     1     174.095 168.162 171.098  1.00  0.00     0.078 A 
ATOM     10  C   UNL     1     175.059 168.914 171.776  1.00  0.00     0.223 A 
ENDROOT
BRANCH   1  11
ATOM     11  C   UNL     1     176.358 171.073 171.985  1.00  0.00     0.091 A 
ATOM     12  C   UNL     1     177.697 171.045 171.562  1.00  0.00     0.068 A 
ATOM     13  C   UNL     1     178.654 171.869 172.170  1.00  0.00     0.162 A 
ATOM     14  C   UNL     1     175.981 171.964 173.004  1.00  0.00     0.068 A 
ATOM     15  C   UNL     1     178.273 172.743 173.202  1.00  0.00     0.200 A 
ATOM     16  C   UNL     1     176.929 172.791 173.614  1.00  0.00     0.162 A 
BRANCH  13  17
ATOM     17  O   UNL     1     179.983 171.821 171.751  1.00  0.00    -0.504 OA
ATOM     18  H   UNL     1     180.458 170.941 171.590  1.00  0.00     0.293 HD
ENDBRANCH  13  17
BRANCH  15  19
ATOM     19  O   UNL     1     179.213 173.568 173.821  1.00  0.00    -0.502 OA
ATOM     20  H   UNL     1     179.415 174.502 173.485  1.00  0.00     0.293 HD
ENDBRANCH  15  19
BRANCH  16  21
ATOM     21  O   UNL     1     176.517 173.658 174.625  1.00  0.00    -0.504 OA
ATOM     22  H   UNL     1     177.173 174.093 175.263  1.00  0.00     0.293 HD
ENDBRANCH  16  21
ENDBRANCH   1  11
BRANCH  10  23
ATOM     23  O   UNL     1     175.720 168.373 172.878  1.00  0.00    -0.500 OA
ATOM     24  H   UNL     1     176.650 167.977 172.799  1.00  0.00     0.294 HD
ENDBRANCH  10  23
BRANCH   5  25
ATOM     25  O   UNL     1     171.735 170.456 166.552  1.00  0.00    -0.507 OA
ATOM     26  H   UNL     1     171.225 169.910 165.869  1.00  0.00     0.293 HD
ENDBRANCH   5  25
BRANCH   7  27
ATOM     27  O   UNL     1     172.038 166.703 169.556  1.00  0.00    -0.507 OA
ATOM     28  H   UNL     1     172.261 165.865 169.038  1.00  0.00     0.293 HD
ENDBRANCH   7  27
TORSDOF 7
ENDMDL
MODEL 8
REMARK VINA RESULT:    -5.253      1.231      7.067
REMARK INTER + INTRA:          -6.663
REMARK INTER:                  -6.319
REMARK INTRA:                  -0.344
REMARK UNBOUND:                -0.182
REMARK SMILES Oc1cc(O)c2cc(O)c(-c3cc(O)c(O)c(O)c3)[o+]c2c1
REMARK SMILES IDX 10 1 20 2 21 3 22 4 2 5 3 6 4 7 6 8 7 9 8 10 11 11 12 12
REMARK SMILES IDX 13 13 19 14 15 15 17 16 14 17 16 19 18 21 9 23 1 25 5 27
REMARK H PARENT 14 18 16 20 18 22 9 24 1 26 5 28
REMARK Flexibility Score: inf
ROOT
ATOM      1  C   UNL     1     175.791 168.718 170.997  1.00  0.00     0.402 A 
ATOM      2  O   UNL     1     176.855 169.517 171.035  1.00  0.00    -0.202 OA
ATOM      3  C   UNL     1     176.950 170.568 171.843  1.00  0.00     0.368 A 
ATOM      4  C   UNL     1     178.110 171.346 171.813  1.00  0.00     0.162 A 
ATOM      5  C   UNL     1     178.239 172.453 172.651  1.00  0.00     0.128 A 
ATOM      6  C   UNL     1     177.201 172.788 173.528  1.00  0.00     0.093 A 
ATOM      7  C   UNL     1     176.028 172.024 173.577  1.00  0.00     0.136 A 
ATOM      8  C   UNL     1     175.893 170.899 172.724  1.00  0.00     0.125 A 
ATOM      9  C   UNL     1     174.748 170.084 172.695  1.00  0.00     0.078 A 
ATOM     10  C   UNL     1     174.686 168.993 171.823  1.00  0.00     0.223 A 
ENDROOT
BRANCH   1  11
ATOM     11  C   UNL     1     175.810 167.571 170.061  1.00  0.00     0.091 A 
ATOM     12  C   UNL     1     176.478 166.393 170.427  1.00  0.00     0.068 A 
ATOM     13  C   UNL     1     176.495 165.285 169.568  1.00  0.00     0.162 A 
ATOM     14  C   UNL     1     175.126 167.617 168.834  1.00  0.00     0.068 A 
ATOM     15  C   UNL     1     175.825 165.346 168.334  1.00  0.00     0.200 A 
ATOM     16  C   UNL     1     175.135 166.516 167.971  1.00  0.00     0.162 A 
BRANCH  13  17
ATOM     17  O   UNL     1     177.174 164.125 169.937  1.00  0.00    -0.504 OA
ATOM     18  H   UNL     1     178.007 163.819 169.449  1.00  0.00     0.293 HD
ENDBRANCH  13  17
BRANCH  15  19
ATOM     19  O   UNL     1     175.834 164.254 167.464  1.00  0.00    -0.502 OA
ATOM     20  H   UNL     1     176.627 163.627 167.394  1.00  0.00     0.293 HD
ENDBRANCH  15  19
BRANCH  16  21
ATOM     21  O   UNL     1     174.450 166.602 166.760  1.00  0.00    -0.504 OA
ATOM     22  H   UNL     1     173.789 165.894 166.463  1.00  0.00     0.293 HD
ENDBRANCH  16  21
ENDBRANCH   1  11
BRANCH  10  23
ATOM     23  O   UNL     1     173.531 168.215 171.759  1.00  0.00    -0.500 OA
ATOM     24  H   UNL     1     172.631 168.570 172.060  1.00  0.00     0.294 HD
ENDBRANCH  10  23
BRANCH   5  25
ATOM     25  O   UNL     1     179.404 173.217 172.607  1.00  0.00    -0.507 OA
ATOM     26  H   UNL     1     179.392 174.183 172.303  1.00  0.00     0.293 HD
ENDBRANCH   5  25
BRANCH   7  27
ATOM     27  O   UNL     1     175.039 172.422 174.481  1.00  0.00    -0.507 OA
ATOM     28  H   UNL     1     175.173 172.490 175.480  1.00  0.00     0.293 HD
ENDBRANCH   7  27
TORSDOF 7
ENDMDL
MODEL 9
REMARK VINA RESULT:    -5.224      3.415      5.002
REMARK INTER + INTRA:          -6.627
REMARK INTER:                  -6.528
REMARK INTRA:                  -0.099
REMARK UNBOUND:                -0.182
REMARK SMILES Oc1cc(O)c2cc(O)c(-c3cc(O)c(O)c(O)c3)[o+]c2c1
REMARK SMILES IDX 10 1 20 2 21 3 22 4 2 5 3 6 4 7 6 8 7 9 8 10 11 11 12 12
REMARK SMILES IDX 13 13 19 14 15 15 17 16 14 17 16 19 18 21 9 23 1 25 5 27
REMARK H PARENT 14 18 16 20 18 22 9 24 1 26 5 28
REMARK Flexibility Score: inf
ROOT
ATOM      1  C   UNL     1     173.923 170.274 169.730  1.00  0.00     0.402 A 
ATOM      2  O   UNL     1     174.293 170.653 168.509  1.00  0.00    -0.202 OA
ATOM      3  C   UNL     1     173.495 170.580 167.448  1.00  0.00     0.368 A 
ATOM      4  C   UNL     1     173.974 171.006 166.206  1.00  0.00     0.162 A 
ATOM      5  C   UNL     1     173.158 170.943 165.078  1.00  0.00     0.128 A 
ATOM      6  C   UNL     1     171.852 170.453 165.187  1.00  0.00     0.093 A 
ATOM      7  C   UNL     1     171.348 170.020 166.420  1.00  0.00     0.136 A 
ATOM      8  C   UNL     1     172.177 170.080 167.571  1.00  0.00     0.125 A 
ATOM      9  C   UNL     1     171.761 169.656 168.845  1.00  0.00     0.078 A 
ATOM     10  C   UNL     1     172.636 169.740 169.932  1.00  0.00     0.223 A 
ENDROOT
BRANCH   1  11
ATOM     11  C   UNL     1     174.900 170.414 170.833  1.00  0.00     0.091 A 
ATOM     12  C   UNL     1     175.258 169.285 171.586  1.00  0.00     0.068 A 
ATOM     13  C   UNL     1     176.195 169.386 172.623  1.00  0.00     0.162 A 
ATOM     14  C   UNL     1     175.520 171.645 171.109  1.00  0.00     0.068 A 
ATOM     15  C   UNL     1     176.796 170.624 172.906  1.00  0.00     0.200 A 
ATOM     16  C   UNL     1     176.458 171.754 172.141  1.00  0.00     0.162 A 
BRANCH  13  17
ATOM     17  O   UNL     1     176.532 168.260 173.372  1.00  0.00    -0.504 OA
ATOM     18  H   UNL     1     176.105 168.073 174.272  1.00  0.00     0.293 HD
ENDBRANCH  13  17
BRANCH  15  19
ATOM     19  O   UNL     1     177.729 170.744 173.937  1.00  0.00    -0.502 OA
ATOM     20  H   UNL     1     178.421 170.029 174.125  1.00  0.00     0.293 HD
ENDBRANCH  15  19
BRANCH  16  21
ATOM     21  O   UNL     1     177.047 172.994 172.389  1.00  0.00    -0.504 OA
ATOM     22  H   UNL     1     177.119 173.380 173.322  1.00  0.00     0.293 HD
ENDBRANCH  16  21
ENDBRANCH   1  11
BRANCH  10  23
ATOM     23  O   UNL     1     172.241 169.274 171.185  1.00  0.00    -0.500 OA
ATOM     24  H   UNL     1     171.769 169.873 171.852  1.00  0.00     0.294 HD
ENDBRANCH  10  23
BRANCH   5  25
ATOM     25  O   UNL     1     173.653 171.373 163.848  1.00  0.00    -0.507 OA
ATOM     26  H   UNL     1     174.188 172.229 163.762  1.00  0.00     0.293 HD
ENDBRANCH   5  25
BRANCH   7  27
ATOM     27  O   UNL     1     170.034 169.547 166.448  1.00  0.00    -0.507 OA
ATOM     28  H   UNL     1     169.631 168.938 165.750  1.00  0.00     0.293 HD
ENDBRANCH   7  27
TORSDOF 7
ENDMDL
