MODEL 1
REMARK VINA RESULT:    -4.296      0.000      0.000
REMARK INTER + INTRA:          -4.421
REMARK INTER:                  -4.421
REMARK INTRA:                   0.000
REMARK UNBOUND:                 0.000
REMARK SMILES Cc1cccc(O)c1C
REMARK SMILES IDX 1 1 2 2 8 3 6 4 5 5 4 6 3 7 9 8 7 9
REMARK H PARENT 7 10
REMARK Flexibility Score: inf
ROOT
ATOM      1  C   UNL     1     177.047 180.102 181.501  1.00  0.00     0.045 C 
ATOM      2  C   UNL     1     177.123 178.794 180.755  1.00  0.00    -0.045 A 
ATOM      3  C   UNL     1     177.301 178.752 179.348  1.00  0.00    -0.006 A 
ATOM      4  C   UNL     1     177.344 177.501 178.694  1.00  0.00     0.118 A 
ATOM      5  C   UNL     1     177.254 176.317 179.438  1.00  0.00     0.046 A 
ATOM      6  C   UNL     1     177.112 176.364 180.823  1.00  0.00     0.004 A 
ATOM      7  C   UNL     1     177.047 177.592 181.479  1.00  0.00     0.004 A 
ATOM      8  C   UNL     1     177.385 180.028 178.544  1.00  0.00     0.048 C 
ENDROOT
BRANCH   4   9
ATOM      9  O   UNL     1     177.475 177.433 177.307  1.00  0.00    -0.508 OA
ATOM     10  H   UNL     1     178.269 177.840 176.826  1.00  0.00     0.293 HD
ENDBRANCH   4   9
TORSDOF 1
ENDMDL
MODEL 2
REMARK VINA RESULT:    -4.278     13.542     13.647
REMARK INTER + INTRA:          -4.403
REMARK INTER:                  -4.403
REMARK INTRA:                   0.000
REMARK UNBOUND:                 0.000
REMARK SMILES Cc1cccc(O)c1C
REMARK SMILES IDX 1 1 2 2 8 3 6 4 5 5 4 6 3 7 9 8 7 9
REMARK H PARENT 7 10
REMARK Flexibility Score: inf
ROOT
ATOM      1  C   UNL     1     161.755 179.799 181.434  1.00  0.00     0.045 C 
ATOM      2  C   UNL     1     163.040 179.513 180.697  1.00  0.00    -0.045 A 
ATOM      3  C   UNL     1     163.141 179.683 179.292  1.00  0.00    -0.006 A 
ATOM      4  C   UNL     1     164.360 179.381 178.646  1.00  0.00     0.118 A 
ATOM      5  C   UNL     1     165.466 178.960 179.397  1.00  0.00     0.046 A 
ATOM      6  C   UNL     1     165.370 178.826 180.780  1.00  0.00     0.004 A 
ATOM      7  C   UNL     1     164.166 179.100 181.428  1.00  0.00     0.004 A 
ATOM      8  C   UNL     1     161.946 180.125 178.481  1.00  0.00     0.048 C 
ENDROOT
BRANCH   4   9
ATOM      9  O   UNL     1     164.474 179.497 177.260  1.00  0.00    -0.508 OA
ATOM     10  H   UNL     1     164.633 180.393 176.812  1.00  0.00     0.293 HD
ENDBRANCH   4   9
TORSDOF 1
ENDMDL
MODEL 3
REMARK VINA RESULT:    -4.135      1.344      2.766
REMARK INTER + INTRA:          -4.256
REMARK INTER:                  -4.256
REMARK INTRA:                   0.000
REMARK UNBOUND:                 0.000
REMARK SMILES Cc1cccc(O)c1C
REMARK SMILES IDX 1 1 2 2 8 3 6 4 5 5 4 6 3 7 9 8 7 9
REMARK H PARENT 7 10
REMARK Flexibility Score: inf
ROOT
ATOM      1  C   UNL     1     176.268 175.878 180.592  1.00  0.00     0.045 C 
ATOM      2  C   UNL     1     176.612 177.346 180.581  1.00  0.00    -0.045 A 
ATOM      3  C   UNL     1     176.937 178.021 179.376  1.00  0.00    -0.006 A 
ATOM      4  C   UNL     1     177.274 179.392 179.422  1.00  0.00     0.118 A 
ATOM      5  C   UNL     1     177.244 180.082 180.642  1.00  0.00     0.046 A 
ATOM      6  C   UNL     1     176.893 179.421 181.817  1.00  0.00     0.004 A 
ATOM      7  C   UNL     1     176.579 178.062 181.789  1.00  0.00     0.004 A 
ATOM      8  C   UNL     1     176.981 177.276 178.063  1.00  0.00     0.048 C 
ENDROOT
BRANCH   4   9
ATOM      9  O   UNL     1     177.639 180.070 178.258  1.00  0.00    -0.508 OA
ATOM     10  H   UNL     1     178.609 180.250 178.029  1.00  0.00     0.293 HD
ENDBRANCH   4   9
TORSDOF 1
ENDMDL
MODEL 4
REMARK VINA RESULT:    -4.108      1.090      2.632
REMARK INTER + INTRA:          -4.228
REMARK INTER:                  -4.228
REMARK INTRA:                   0.000
REMARK UNBOUND:                 0.000
REMARK SMILES Cc1cccc(O)c1C
REMARK SMILES IDX 1 1 2 2 8 3 6 4 5 5 4 6 3 7 9 8 7 9
REMARK H PARENT 7 10
REMARK Flexibility Score: inf
ROOT
ATOM      1  C   UNL     1     177.147 179.664 181.295  1.00  0.00     0.045 C 
ATOM      2  C   UNL     1     177.014 179.125 179.894  1.00  0.00    -0.045 A 
ATOM      3  C   UNL     1     177.269 177.760 179.598  1.00  0.00    -0.006 A 
ATOM      4  C   UNL     1     177.153 177.310 178.264  1.00  0.00     0.118 A 
ATOM      5  C   UNL     1     176.747 178.196 177.257  1.00  0.00     0.046 A 
ATOM      6  C   UNL     1     176.467 179.526 177.559  1.00  0.00     0.004 A 
ATOM      7  C   UNL     1     176.599 179.990 178.868  1.00  0.00     0.004 A 
ATOM      8  C   UNL     1     177.718 176.808 180.680  1.00  0.00     0.048 C 
ENDROOT
BRANCH   4   9
ATOM      9  O   UNL     1     177.439 175.984 177.938  1.00  0.00    -0.508 OA
ATOM     10  H   UNL     1     176.804 175.229 178.170  1.00  0.00     0.293 HD
ENDBRANCH   4   9
TORSDOF 1
ENDMDL
MODEL 5
REMARK VINA RESULT:    -4.083      2.250      2.855
REMARK INTER + INTRA:          -4.203
REMARK INTER:                  -4.203
REMARK INTRA:                   0.000
REMARK UNBOUND:                 0.000
REMARK SMILES Cc1cccc(O)c1C
REMARK SMILES IDX 1 1 2 2 8 3 6 4 5 5 4 6 3 7 9 8 7 9
REMARK H PARENT 7 10
REMARK Flexibility Score: inf
ROOT
ATOM      1  C   UNL     1     173.265 178.986 180.208  1.00  0.00     0.045 C 
ATOM      2  C   UNL     1     174.755 179.215 180.164  1.00  0.00    -0.045 A 
ATOM      3  C   UNL     1     175.431 179.454 178.939  1.00  0.00    -0.006 A 
ATOM      4  C   UNL     1     176.831 179.640 178.949  1.00  0.00     0.118 A 
ATOM      5  C   UNL     1     177.532 179.631 180.163  1.00  0.00     0.046 A 
ATOM      6  C   UNL     1     176.858 179.428 181.364  1.00  0.00     0.004 A 
ATOM      7  C   UNL     1     175.479 179.221 181.367  1.00  0.00     0.004 A 
ATOM      8  C   UNL     1     174.678 179.452 177.630  1.00  0.00     0.048 C 
ENDROOT
BRANCH   4   9
ATOM      9  O   UNL     1     177.527 179.834 177.755  1.00  0.00    -0.508 OA
ATOM     10  H   UNL     1     178.349 180.425 177.707  1.00  0.00     0.293 HD
ENDBRANCH   4   9
TORSDOF 1
ENDMDL
MODEL 6
REMARK VINA RESULT:    -4.077     13.793     13.931
REMARK INTER + INTRA:          -4.196
REMARK INTER:                  -4.196
REMARK INTRA:                   0.000
REMARK UNBOUND:                 0.000
REMARK SMILES Cc1cccc(O)c1C
REMARK SMILES IDX 1 1 2 2 8 3 6 4 5 5 4 6 3 7 9 8 7 9
REMARK H PARENT 7 10
REMARK Flexibility Score: inf
ROOT
ATOM      1  C   UNL     1     162.424 179.843 181.416  1.00  0.00     0.045 C 
ATOM      2  C   UNL     1     162.781 179.513 179.989  1.00  0.00    -0.045 A 
ATOM      3  C   UNL     1     164.132 179.417 179.567  1.00  0.00    -0.006 A 
ATOM      4  C   UNL     1     164.413 179.127 178.214  1.00  0.00     0.118 A 
ATOM      5  C   UNL     1     163.365 178.896 177.312  1.00  0.00     0.046 A 
ATOM      6  C   UNL     1     162.041 178.960 177.740  1.00  0.00     0.004 A 
ATOM      7  C   UNL     1     161.749 179.266 179.069  1.00  0.00     0.004 A 
ATOM      8  C   UNL     1     165.262 179.678 180.534  1.00  0.00     0.048 C 
ENDROOT
BRANCH   4   9
ATOM      9  O   UNL     1     165.733 179.069 177.762  1.00  0.00    -0.508 OA
ATOM     10  H   UNL     1     166.508 179.369 178.342  1.00  0.00     0.293 HD
ENDBRANCH   4   9
TORSDOF 1
ENDMDL
MODEL 7
REMARK VINA RESULT:    -4.037      2.393      3.434
REMARK INTER + INTRA:          -4.155
REMARK INTER:                  -4.155
REMARK INTRA:                   0.000
REMARK UNBOUND:                 0.000
REMARK SMILES Cc1cccc(O)c1C
REMARK SMILES IDX 1 1 2 2 8 3 6 4 5 5 4 6 3 7 9 8 7 9
REMARK H PARENT 7 10
REMARK Flexibility Score: inf
ROOT
ATOM      1  C   UNL     1     176.670 178.448 182.039  1.00  0.00     0.045 C 
ATOM      2  C   UNL     1     176.318 178.967 180.668  1.00  0.00    -0.045 A 
ATOM      3  C   UNL     1     174.972 179.040 180.227  1.00  0.00    -0.006 A 
ATOM      4  C   UNL     1     174.697 179.513 178.925  1.00  0.00     0.118 A 
ATOM      5  C   UNL     1     175.744 179.943 178.098  1.00  0.00     0.046 A 
ATOM      6  C   UNL     1     177.061 179.899 178.549  1.00  0.00     0.004 A 
ATOM      7  C   UNL     1     177.349 179.415 179.824  1.00  0.00     0.004 A 
ATOM      8  C   UNL     1     173.844 178.565 181.112  1.00  0.00     0.048 C 
ENDROOT
BRANCH   4   9
ATOM      9  O   UNL     1     173.385 179.555 178.450  1.00  0.00    -0.508 OA
ATOM     10  H   UNL     1     173.015 180.373 177.979  1.00  0.00     0.293 HD
ENDBRANCH   4   9
TORSDOF 1
ENDMDL
MODEL 8
REMARK VINA RESULT:    -4.004     15.322     15.527
REMARK INTER + INTRA:          -4.122
REMARK INTER:                  -4.122
REMARK INTRA:                   0.000
REMARK UNBOUND:                 0.000
REMARK SMILES Cc1cccc(O)c1C
REMARK SMILES IDX 1 1 2 2 8 3 6 4 5 5 4 6 3 7 9 8 7 9
REMARK H PARENT 7 10
REMARK Flexibility Score: inf
ROOT
ATOM      1  C   UNL     1     162.496 179.419 181.901  1.00  0.00     0.045 C 
ATOM      2  C   UNL     1     162.232 179.058 180.461  1.00  0.00    -0.045 A 
ATOM      3  C   UNL     1     161.825 177.751 180.087  1.00  0.00    -0.006 A 
ATOM      4  C   UNL     1     161.612 177.458 178.722  1.00  0.00     0.118 A 
ATOM      5  C   UNL     1     161.761 178.463 177.757  1.00  0.00     0.046 A 
ATOM      6  C   UNL     1     162.129 179.752 178.133  1.00  0.00     0.004 A 
ATOM      7  C   UNL     1     162.363 180.050 179.475  1.00  0.00     0.004 A 
ATOM      8  C   UNL     1     161.677 176.664 181.126  1.00  0.00     0.048 C 
ENDROOT
BRANCH   4   9
ATOM      9  O   UNL     1     161.254 176.169 178.323  1.00  0.00    -0.508 OA
ATOM     10  H   UNL     1     160.434 175.705 178.697  1.00  0.00     0.293 HD
ENDBRANCH   4   9
TORSDOF 1
ENDMDL
MODEL 9
REMARK VINA RESULT:    -4.003     15.242     15.473
REMARK INTER + INTRA:          -4.120
REMARK INTER:                  -4.120
REMARK INTRA:                   0.000
REMARK UNBOUND:                 0.000
REMARK SMILES Cc1cccc(O)c1C
REMARK SMILES IDX 1 1 2 2 8 3 6 4 5 5 4 6 3 7 9 8 7 9
REMARK H PARENT 7 10
REMARK Flexibility Score: inf
ROOT
ATOM      1  C   UNL     1     161.379 175.884 180.027  1.00  0.00     0.045 C 
ATOM      2  C   UNL     1     161.767 177.340 179.986  1.00  0.00    -0.045 A 
ATOM      3  C   UNL     1     161.834 178.054 178.761  1.00  0.00    -0.006 A 
ATOM      4  C   UNL     1     162.225 179.411 178.774  1.00  0.00     0.118 A 
ATOM      5  C   UNL     1     162.499 180.052 179.991  1.00  0.00     0.046 A 
ATOM      6  C   UNL     1     162.399 179.354 181.192  1.00  0.00     0.004 A 
ATOM      7  C   UNL     1     162.036 178.008 181.192  1.00  0.00     0.004 A 
ATOM      8  C   UNL     1     161.551 177.362 177.449  1.00  0.00     0.048 C 
ENDROOT
BRANCH   4   9
ATOM      9  O   UNL     1     162.341 180.125 177.581  1.00  0.00    -0.508 OA
ATOM     10  H   UNL     1     161.681 180.005 176.821  1.00  0.00     0.293 HD
ENDBRANCH   4   9
TORSDOF 1
ENDMDL
