MODEL 1
REMARK VINA RESULT:    -5.071      0.000      0.000
REMARK INTER + INTRA:         -15.470
REMARK INTER:                 -13.224
REMARK INTRA:                  -2.246
REMARK UNBOUND:                -2.246
REMARK SMILES CCCCCCCCCCCCCCCCCCCCCCCCCCCCCO
REMARK SMILES IDX 16 1 15 2 14 3 13 4 12 5 11 6 10 7 9 8 8 9 7 10 6 11 5 12
REMARK SMILES IDX 4 13 3 14 2 15 1 16 17 17 18 18 19 19 20 20 21 21 22 22
REMARK SMILES IDX 23 23 24 24 25 25 26 26 27 27 28 28 29 29 30 30
REMARK H PARENT 30 31
REMARK Flexibility Score: inf
ROOT
ATOM      1  C   UNL     1       0.737   0.556  10.842  1.00  0.00     0.000 C 
ENDROOT
BRANCH   1   2
ATOM      2  C   UNL     1       0.746   1.744  11.829  1.00  0.00     0.000 C 
BRANCH   2   3
ATOM      3  C   UNL     1       2.009   2.616  11.734  1.00  0.00     0.000 C 
BRANCH   3   4
ATOM      4  C   UNL     1       3.220   1.847  11.183  1.00  0.00     0.000 C 
BRANCH   4   5
ATOM      5  C   UNL     1       3.822   2.495   9.922  1.00  0.00     0.000 C 
BRANCH   5   6
ATOM      6  C   UNL     1       5.266   3.016  10.074  1.00  0.00     0.000 C 
BRANCH   6   7
ATOM      7  C   UNL     1       5.391   4.536  10.297  1.00  0.00     0.000 C 
BRANCH   7   8
ATOM      8  C   UNL     1       6.152   4.944  11.574  1.00  0.00    -0.000 C 
BRANCH   8   9
ATOM      9  C   UNL     1       5.323   4.886  12.872  1.00  0.00    -0.000 C 
BRANCH   9  10
ATOM     10  C   UNL     1       5.955   4.062  14.013  1.00  0.00    -0.000 C 
BRANCH  10  11
ATOM     11  C   UNL     1       6.066   4.797  15.364  1.00  0.00    -0.000 C 
BRANCH  11  12
ATOM     12  C   UNL     1       6.509   6.269  15.271  1.00  0.00    -0.000 C 
BRANCH  12  13
ATOM     13  C   UNL     1       7.916   6.433  14.678  1.00  0.00    -0.000 C 
BRANCH  13  14
ATOM     14  C   UNL     1       7.931   7.524  13.597  1.00  0.00    -0.000 C 
BRANCH  14  15
ATOM     15  C   UNL     1       9.348   7.833  13.090  1.00  0.00    -0.003 C 
ATOM     16  C   UNL     1       9.548   7.456  11.623  1.00  0.00     0.004 C 
ENDBRANCH  14  15
ENDBRANCH  13  14
ENDBRANCH  12  13
ENDBRANCH  11  12
ENDBRANCH  10  11
ENDBRANCH   9  10
ENDBRANCH   8   9
ENDBRANCH   7   8
ENDBRANCH   6   7
ENDBRANCH   5   6
ENDBRANCH   4   5
ENDBRANCH   3   4
ENDBRANCH   2   3
ENDBRANCH   1   2
BRANCH   1  17
ATOM     17  C   UNL     1      -0.494   0.572   9.919  1.00  0.00     0.000 C 
BRANCH  17  18
ATOM     18  C   UNL     1      -1.308  -0.734   9.985  1.00  0.00     0.000 C 
BRANCH  18  19
ATOM     19  C   UNL     1      -0.483  -2.004  10.272  1.00  0.00     0.000 C 
BRANCH  19  20
ATOM     20  C   UNL     1      -1.312  -3.246  10.659  1.00  0.00     0.000 C 
BRANCH  20  21
ATOM     21  C   UNL     1      -2.663  -2.941  11.335  1.00  0.00     0.000 C 
BRANCH  21  22
ATOM     22  C   UNL     1      -3.418  -4.174  11.865  1.00  0.00     0.000 C 
BRANCH  22  23
ATOM     23  C   UNL     1      -2.926  -4.625  13.248  1.00  0.00     0.000 C 
BRANCH  23  24
ATOM     24  C   UNL     1      -2.910  -6.155  13.357  1.00  0.00     0.000 C 
BRANCH  24  25
ATOM     25  C   UNL     1      -2.141  -6.781  12.184  1.00  0.00     0.000 C 
BRANCH  25  26
ATOM     26  C   UNL     1      -2.822  -8.045  11.636  1.00  0.00     0.000 C 
BRANCH  26  27
ATOM     27  C   UNL     1      -4.039  -7.725  10.750  1.00  0.00     0.002 C 
BRANCH  27  28
ATOM     28  C   UNL     1      -5.180  -8.745  10.908  1.00  0.00     0.028 C 
BRANCH  28  29
ATOM     29  C   UNL     1      -5.855  -8.698  12.283  1.00  0.00     0.156 C 
BRANCH  29  30
ATOM     30  O   UNL     1      -6.972  -7.855  12.249  1.00  0.00    -0.396 OA
ATOM     31  H   UNL     1      -7.486  -8.045  13.078  1.00  0.00     0.210 HD
ENDBRANCH  29  30
ENDBRANCH  28  29
ENDBRANCH  27  28
ENDBRANCH  26  27
ENDBRANCH  25  26
ENDBRANCH  24  25
ENDBRANCH  23  24
ENDBRANCH  22  23
ENDBRANCH  21  22
ENDBRANCH  20  21
ENDBRANCH  19  20
ENDBRANCH  18  19
ENDBRANCH  17  18
ENDBRANCH   1  17
TORSDOF 28
ENDMDL
MODEL 2
REMARK VINA RESULT:    -4.702      4.849     15.136
REMARK INTER + INTRA:         -14.506
REMARK INTER:                 -12.961
REMARK INTRA:                  -1.545
REMARK UNBOUND:                -2.246
REMARK SMILES CCCCCCCCCCCCCCCCCCCCCCCCCCCCCO
REMARK SMILES IDX 16 1 15 2 14 3 13 4 12 5 11 6 10 7 9 8 8 9 7 10 6 11 5 12
REMARK SMILES IDX 4 13 3 14 2 15 1 16 17 17 18 18 19 19 20 20 21 21 22 22
REMARK SMILES IDX 23 23 24 24 25 25 26 26 27 27 28 28 29 29 30 30
REMARK H PARENT 30 31
REMARK Flexibility Score: inf
ROOT
ATOM      1  C   UNL     1       0.787   1.714  11.796  1.00  0.00     0.000 C 
ENDROOT
BRANCH   1   2
ATOM      2  C   UNL     1       0.018   1.709  10.457  1.00  0.00     0.000 C 
BRANCH   2   3
ATOM      3  C   UNL     1      -0.224   0.300   9.889  1.00  0.00     0.000 C 
BRANCH   3   4
ATOM      4  C   UNL     1       0.160  -0.811  10.879  1.00  0.00     0.000 C 
BRANCH   4   5
ATOM      5  C   UNL     1      -0.389  -2.192  10.476  1.00  0.00     0.000 C 
BRANCH   5   6
ATOM      6  C   UNL     1      -1.920  -2.266  10.296  1.00  0.00     0.000 C 
BRANCH   6   7
ATOM      7  C   UNL     1      -2.579  -3.550  10.838  1.00  0.00     0.000 C 
BRANCH   7   8
ATOM      8  C   UNL     1      -2.293  -3.848  12.324  1.00  0.00    -0.000 C 
BRANCH   8   9
ATOM      9  C   UNL     1      -3.253  -4.860  12.980  1.00  0.00    -0.000 C 
BRANCH   9  10
ATOM     10  C   UNL     1      -2.697  -6.292  13.117  1.00  0.00    -0.000 C 
BRANCH  10  11
ATOM     11  C   UNL     1      -2.241  -6.944  11.796  1.00  0.00    -0.000 C 
BRANCH  11  12
ATOM     12  C   UNL     1      -2.984  -8.239  11.418  1.00  0.00    -0.000 C 
BRANCH  12  13
ATOM     13  C   UNL     1      -4.512  -8.090  11.477  1.00  0.00    -0.000 C 
BRANCH  13  14
ATOM     14  C   UNL     1      -5.021  -7.205  10.329  1.00  0.00    -0.000 C 
BRANCH  14  15
ATOM     15  C   UNL     1      -6.518  -6.879  10.454  1.00  0.00    -0.003 C 
ATOM     16  C   UNL     1      -7.282  -7.914  11.278  1.00  0.00     0.004 C 
ENDBRANCH  14  15
ENDBRANCH  13  14
ENDBRANCH  12  13
ENDBRANCH  11  12
ENDBRANCH  10  11
ENDBRANCH   9  10
ENDBRANCH   8   9
ENDBRANCH   7   8
ENDBRANCH   6   7
ENDBRANCH   5   6
ENDBRANCH   4   5
ENDBRANCH   3   4
ENDBRANCH   2   3
ENDBRANCH   1   2
BRANCH   1  17
ATOM     17  C   UNL     1       2.076   2.552  11.727  1.00  0.00     0.000 C 
BRANCH  17  18
ATOM     18  C   UNL     1       3.251   1.790  11.088  1.00  0.00     0.000 C 
BRANCH  18  19
ATOM     19  C   UNL     1       4.650   2.339  11.432  1.00  0.00     0.000 C 
BRANCH  19  20
ATOM     20  C   UNL     1       4.671   3.789  11.954  1.00  0.00     0.000 C 
BRANCH  20  21
ATOM     21  C   UNL     1       5.800   4.102  12.957  1.00  0.00     0.000 C 
BRANCH  21  22
ATOM     22  C   UNL     1       5.608   5.397  13.768  1.00  0.00     0.000 C 
BRANCH  22  23
ATOM     23  C   UNL     1       6.541   5.482  14.985  1.00  0.00     0.000 C 
BRANCH  23  24
ATOM     24  C   UNL     1       7.384   6.764  14.945  1.00  0.00     0.000 C 
BRANCH  24  25
ATOM     25  C   UNL     1       8.690   6.586  15.733  1.00  0.00     0.000 C 
BRANCH  25  26
ATOM     26  C   UNL     1       8.478   6.652  17.254  1.00  0.00     0.000 C 
BRANCH  26  27
ATOM     27  C   UNL     1       9.775   6.970  18.019  1.00  0.00     0.002 C 
BRANCH  27  28
ATOM     28  C   UNL     1       9.744   6.484  19.478  1.00  0.00     0.028 C 
BRANCH  28  29
ATOM     29  C   UNL     1       9.891   7.615  20.502  1.00  0.00     0.156 C 
BRANCH  29  30
ATOM     30  O   UNL     1       8.923   8.601  20.282  1.00  0.00    -0.396 OA
ATOM     31  H   UNL     1       8.045   8.168  20.451  1.00  0.00     0.210 HD
ENDBRANCH  29  30
ENDBRANCH  28  29
ENDBRANCH  27  28
ENDBRANCH  26  27
ENDBRANCH  25  26
ENDBRANCH  24  25
ENDBRANCH  23  24
ENDBRANCH  22  23
ENDBRANCH  21  22
ENDBRANCH  20  21
ENDBRANCH  19  20
ENDBRANCH  18  19
ENDBRANCH  17  18
ENDBRANCH   1  17
TORSDOF 28
ENDMDL
MODEL 3
REMARK VINA RESULT:    -4.687      1.675      2.236
REMARK INTER + INTRA:         -14.468
REMARK INTER:                 -12.934
REMARK INTRA:                  -1.534
REMARK UNBOUND:                -2.246
REMARK SMILES CCCCCCCCCCCCCCCCCCCCCCCCCCCCCO
REMARK SMILES IDX 16 1 15 2 14 3 13 4 12 5 11 6 10 7 9 8 8 9 7 10 6 11 5 12
REMARK SMILES IDX 4 13 3 14 2 15 1 16 17 17 18 18 19 19 20 20 21 21 22 22
REMARK SMILES IDX 23 23 24 24 25 25 26 26 27 27 28 28 29 29 30 30
REMARK H PARENT 30 31
REMARK Flexibility Score: inf
ROOT
ATOM      1  C   UNL     1       0.963   0.508  11.036  1.00  0.00     0.000 C 
ENDROOT
BRANCH   1   2
ATOM      2  C   UNL     1       1.117   1.678  12.033  1.00  0.00     0.000 C 
BRANCH   2   3
ATOM      3  C   UNL     1       2.012   2.816  11.516  1.00  0.00     0.000 C 
BRANCH   3   4
ATOM      4  C   UNL     1       3.507   2.547  11.750  1.00  0.00     0.000 C 
BRANCH   4   5
ATOM      5  C   UNL     1       4.338   2.599  10.454  1.00  0.00     0.000 C 
BRANCH   5   6
ATOM      6  C   UNL     1       5.646   3.413  10.542  1.00  0.00     0.000 C 
BRANCH   6   7
ATOM      7  C   UNL     1       5.490   4.839  11.106  1.00  0.00     0.000 C 
BRANCH   7   8
ATOM      8  C   UNL     1       6.280   5.114  12.401  1.00  0.00    -0.000 C 
BRANCH   8   9
ATOM      9  C   UNL     1       5.539   4.756  13.704  1.00  0.00    -0.000 C 
BRANCH   9  10
ATOM     10  C   UNL     1       6.389   4.859  14.987  1.00  0.00    -0.000 C 
BRANCH  10  11
ATOM     11  C   UNL     1       6.584   6.290  15.528  1.00  0.00    -0.000 C 
BRANCH  11  12
ATOM     12  C   UNL     1       8.036   6.803  15.506  1.00  0.00    -0.000 C 
BRANCH  12  13
ATOM     13  C   UNL     1       8.892   6.220  16.640  1.00  0.00    -0.000 C 
BRANCH  13  14
ATOM     14  C   UNL     1       9.167   7.279  17.719  1.00  0.00    -0.000 C 
BRANCH  14  15
ATOM     15  C   UNL     1      10.014   6.732  18.880  1.00  0.00    -0.003 C 
ATOM     16  C   UNL     1       9.580   7.281  20.238  1.00  0.00     0.004 C 
ENDBRANCH  14  15
ENDBRANCH  13  14
ENDBRANCH  12  13
ENDBRANCH  11  12
ENDBRANCH  10  11
ENDBRANCH   9  10
ENDBRANCH   8   9
ENDBRANCH   7   8
ENDBRANCH   6   7
ENDBRANCH   5   6
ENDBRANCH   4   5
ENDBRANCH   3   4
ENDBRANCH   2   3
ENDBRANCH   1   2
BRANCH   1  17
ATOM     17  C   UNL     1      -0.070   0.809   9.937  1.00  0.00     0.000 C 
BRANCH  17  18
ATOM     18  C   UNL     1      -1.200  -0.236   9.875  1.00  0.00     0.000 C 
BRANCH  18  19
ATOM     19  C   UNL     1      -0.738  -1.704   9.968  1.00  0.00     0.000 C 
BRANCH  19  20
ATOM     20  C   UNL     1      -1.864  -2.728  10.216  1.00  0.00     0.000 C 
BRANCH  20  21
ATOM     21  C   UNL     1      -1.844  -3.391  11.608  1.00  0.00     0.000 C 
BRANCH  21  22
ATOM     22  C   UNL     1      -3.082  -4.245  11.939  1.00  0.00     0.000 C 
BRANCH  22  23
ATOM     23  C   UNL     1      -3.018  -4.870  13.340  1.00  0.00     0.000 C 
BRANCH  23  24
ATOM     24  C   UNL     1      -3.156  -6.396  13.270  1.00  0.00     0.000 C 
BRANCH  24  25
ATOM     25  C   UNL     1      -2.084  -7.003  12.353  1.00  0.00     0.000 C 
BRANCH  25  26
ATOM     26  C   UNL     1      -2.661  -8.030  11.366  1.00  0.00     0.000 C 
BRANCH  26  27
ATOM     27  C   UNL     1      -4.179  -7.875  11.172  1.00  0.00     0.002 C 
BRANCH  27  28
ATOM     28  C   UNL     1      -4.968  -9.120  11.614  1.00  0.00     0.028 C 
BRANCH  28  29
ATOM     29  C   UNL     1      -6.476  -9.009  11.362  1.00  0.00     0.156 C 
BRANCH  29  30
ATOM     30  O   UNL     1      -7.107  -8.383  12.444  1.00  0.00    -0.396 OA
ATOM     31  H   UNL     1      -7.786  -7.774  12.052  1.00  0.00     0.210 HD
ENDBRANCH  29  30
ENDBRANCH  28  29
ENDBRANCH  27  28
ENDBRANCH  26  27
ENDBRANCH  25  26
ENDBRANCH  24  25
ENDBRANCH  23  24
ENDBRANCH  22  23
ENDBRANCH  21  22
ENDBRANCH  20  21
ENDBRANCH  19  20
ENDBRANCH  18  19
ENDBRANCH  17  18
ENDBRANCH   1  17
TORSDOF 28
ENDMDL
MODEL 4
REMARK VINA RESULT:    -4.262      1.208      2.184
REMARK INTER + INTRA:         -13.360
REMARK INTER:                 -11.634
REMARK INTRA:                  -1.726
REMARK UNBOUND:                -2.246
REMARK SMILES CCCCCCCCCCCCCCCCCCCCCCCCCCCCCO
REMARK SMILES IDX 16 1 15 2 14 3 13 4 12 5 11 6 10 7 9 8 8 9 7 10 6 11 5 12
REMARK SMILES IDX 4 13 3 14 2 15 1 16 17 17 18 18 19 19 20 20 21 21 22 22
REMARK SMILES IDX 23 23 24 24 25 25 26 26 27 27 28 28 29 29 30 30
REMARK H PARENT 30 31
REMARK Flexibility Score: inf
ROOT
ATOM      1  C   UNL     1      -0.315   0.986  10.786  1.00  0.00     0.000 C 
ENDROOT
BRANCH   1   2
ATOM      2  C   UNL     1      -0.559   2.209   9.876  1.00  0.00     0.000 C 
BRANCH   2   3
ATOM      3  C   UNL     1       0.595   3.227   9.889  1.00  0.00     0.000 C 
BRANCH   3   4
ATOM      4  C   UNL     1       1.432   3.157  11.175  1.00  0.00     0.000 C 
BRANCH   4   5
ATOM      5  C   UNL     1       2.800   2.481  10.967  1.00  0.00     0.000 C 
BRANCH   5   6
ATOM      6  C   UNL     1       3.225   1.499  12.078  1.00  0.00     0.000 C 
BRANCH   6   7
ATOM      7  C   UNL     1       4.680   0.996  11.983  1.00  0.00     0.000 C 
BRANCH   7   8
ATOM      8  C   UNL     1       5.754   2.049  12.321  1.00  0.00    -0.000 C 
BRANCH   8   9
ATOM      9  C   UNL     1       6.189   2.936  11.138  1.00  0.00    -0.000 C 
BRANCH   9  10
ATOM     10  C   UNL     1       6.020   4.452  11.364  1.00  0.00    -0.000 C 
BRANCH  10  11
ATOM     11  C   UNL     1       4.970   4.841  12.424  1.00  0.00    -0.000 C 
BRANCH  11  12
ATOM     12  C   UNL     1       5.397   4.602  13.884  1.00  0.00    -0.000 C 
BRANCH  12  13
ATOM     13  C   UNL     1       6.827   5.082  14.174  1.00  0.00    -0.000 C 
BRANCH  13  14
ATOM     14  C   UNL     1       6.823   6.223  15.202  1.00  0.00    -0.000 C 
BRANCH  14  15
ATOM     15  C   UNL     1       7.394   7.532  14.633  1.00  0.00    -0.003 C 
ATOM     16  C   UNL     1       7.610   7.475  13.121  1.00  0.00     0.004 C 
ENDBRANCH  14  15
ENDBRANCH  13  14
ENDBRANCH  12  13
ENDBRANCH  11  12
ENDBRANCH  10  11
ENDBRANCH   9  10
ENDBRANCH   8   9
ENDBRANCH   7   8
ENDBRANCH   6   7
ENDBRANCH   5   6
ENDBRANCH   4   5
ENDBRANCH   3   4
ENDBRANCH   2   3
ENDBRANCH   1   2
BRANCH   1  17
ATOM     17  C   UNL     1      -0.072  -0.303   9.982  1.00  0.00     0.000 C 
BRANCH  17  18
ATOM     18  C   UNL     1      -1.316  -1.209   9.913  1.00  0.00     0.000 C 
BRANCH  18  19
ATOM     19  C   UNL     1      -1.023  -2.722   9.933  1.00  0.00     0.000 C 
BRANCH  19  20
ATOM     20  C   UNL     1      -2.254  -3.622  10.166  1.00  0.00     0.000 C 
BRANCH  20  21
ATOM     21  C   UNL     1      -2.423  -4.128  11.613  1.00  0.00     0.000 C 
BRANCH  21  22
ATOM     22  C   UNL     1      -3.164  -5.471  11.749  1.00  0.00     0.000 C 
BRANCH  22  23
ATOM     23  C   UNL     1      -2.382  -6.503  12.575  1.00  0.00     0.000 C 
BRANCH  23  24
ATOM     24  C   UNL     1      -2.183  -7.804  11.787  1.00  0.00     0.000 C 
BRANCH  24  25
ATOM     25  C   UNL     1      -3.070  -7.828  10.534  1.00  0.00     0.000 C 
BRANCH  25  26
ATOM     26  C   UNL     1      -4.193  -8.874  10.623  1.00  0.00     0.000 C 
BRANCH  26  27
ATOM     27  C   UNL     1      -4.751  -9.023  12.049  1.00  0.00     0.002 C 
BRANCH  27  28
ATOM     28  C   UNL     1      -6.256  -8.716  12.138  1.00  0.00     0.028 C 
BRANCH  28  29
ATOM     29  C   UNL     1      -6.633  -7.340  11.577  1.00  0.00     0.156 C 
BRANCH  29  30
ATOM     30  O   UNL     1      -7.944  -7.008  11.941  1.00  0.00    -0.396 OA
ATOM     31  H   UNL     1      -8.406  -7.869  12.119  1.00  0.00     0.210 HD
ENDBRANCH  29  30
ENDBRANCH  28  29
ENDBRANCH  27  28
ENDBRANCH  26  27
ENDBRANCH  25  26
ENDBRANCH  24  25
ENDBRANCH  23  24
ENDBRANCH  22  23
ENDBRANCH  21  22
ENDBRANCH  20  21
ENDBRANCH  19  20
ENDBRANCH  18  19
ENDBRANCH  17  18
ENDBRANCH   1  17
TORSDOF 28
ENDMDL
MODEL 5
REMARK VINA RESULT:    -4.236      4.310     14.709
REMARK INTER + INTRA:         -13.292
REMARK INTER:                 -11.402
REMARK INTRA:                  -1.890
REMARK UNBOUND:                -2.246
REMARK SMILES CCCCCCCCCCCCCCCCCCCCCCCCCCCCCO
REMARK SMILES IDX 16 1 15 2 14 3 13 4 12 5 11 6 10 7 9 8 8 9 7 10 6 11 5 12
REMARK SMILES IDX 4 13 3 14 2 15 1 16 17 17 18 18 19 19 20 20 21 21 22 22
REMARK SMILES IDX 23 23 24 24 25 25 26 26 27 27 28 28 29 29 30 30
REMARK H PARENT 30 31
REMARK Flexibility Score: inf
ROOT
ATOM      1  C   UNL     1       0.390   1.742  11.643  1.00  0.00     0.000 C 
ENDROOT
BRANCH   1   2
ATOM      2  C   UNL     1      -0.490   1.617  10.380  1.00  0.00     0.000 C 
BRANCH   2   3
ATOM      3  C   UNL     1      -0.665   0.169   9.891  1.00  0.00     0.000 C 
BRANCH   3   4
ATOM      4  C   UNL     1       0.146  -0.839  10.722  1.00  0.00     0.000 C 
BRANCH   4   5
ATOM      5  C   UNL     1      -0.354  -2.288  10.566  1.00  0.00     0.000 C 
BRANCH   5   6
ATOM      6  C   UNL     1      -1.853  -2.436  10.236  1.00  0.00     0.000 C 
BRANCH   6   7
ATOM      7  C   UNL     1      -2.521  -3.709  10.793  1.00  0.00     0.000 C 
BRANCH   7   8
ATOM      8  C   UNL     1      -2.272  -3.969  12.292  1.00  0.00    -0.000 C 
BRANCH   8   9
ATOM      9  C   UNL     1      -2.892  -5.270  12.839  1.00  0.00    -0.000 C 
BRANCH   9  10
ATOM     10  C   UNL     1      -2.383  -6.565  12.173  1.00  0.00    -0.000 C 
BRANCH  10  11
ATOM     11  C   UNL     1      -3.479  -7.584  11.804  1.00  0.00    -0.000 C 
BRANCH  11  12
ATOM     12  C   UNL     1      -4.791  -6.970  11.283  1.00  0.00    -0.000 C 
BRANCH  12  13
ATOM     13  C   UNL     1      -6.033  -7.519  12.002  1.00  0.00    -0.000 C 
BRANCH  13  14
ATOM     14  C   UNL     1      -7.141  -7.864  10.995  1.00  0.00    -0.000 C 
BRANCH  14  15
ATOM     15  C   UNL     1      -8.123  -6.703  10.777  1.00  0.00    -0.003 C 
ATOM     16  C   UNL     1      -9.507  -6.980  11.364  1.00  0.00     0.004 C 
ENDBRANCH  14  15
ENDBRANCH  13  14
ENDBRANCH  12  13
ENDBRANCH  11  12
ENDBRANCH  10  11
ENDBRANCH   9  10
ENDBRANCH   8   9
ENDBRANCH   7   8
ENDBRANCH   6   7
ENDBRANCH   5   6
ENDBRANCH   4   5
ENDBRANCH   3   4
ENDBRANCH   2   3
ENDBRANCH   1   2
BRANCH   1  17
ATOM     17  C   UNL     1       1.678   2.542  11.382  1.00  0.00     0.000 C 
BRANCH  17  18
ATOM     18  C   UNL     1       2.859   1.650  10.954  1.00  0.00     0.000 C 
BRANCH  18  19
ATOM     19  C   UNL     1       4.256   2.214  11.282  1.00  0.00     0.000 C 
BRANCH  19  20
ATOM     20  C   UNL     1       4.869   3.114  10.190  1.00  0.00     0.000 C 
BRANCH  20  21
ATOM     21  C   UNL     1       5.636   4.344  10.717  1.00  0.00     0.000 C 
BRANCH  21  22
ATOM     22  C   UNL     1       5.209   4.826  12.115  1.00  0.00     0.000 C 
BRANCH  22  23
ATOM     23  C   UNL     1       6.276   4.566  13.188  1.00  0.00     0.000 C 
BRANCH  23  24
ATOM     24  C   UNL     1       5.688   4.705  14.598  1.00  0.00     0.000 C 
BRANCH  24  25
ATOM     25  C   UNL     1       6.766   5.141  15.601  1.00  0.00     0.000 C 
BRANCH  25  26
ATOM     26  C   UNL     1       6.762   6.657  15.855  1.00  0.00     0.000 C 
BRANCH  26  27
ATOM     27  C   UNL     1       7.895   7.384  15.111  1.00  0.00     0.002 C 
BRANCH  27  28
ATOM     28  C   UNL     1       7.453   7.944  13.748  1.00  0.00     0.028 C 
BRANCH  28  29
ATOM     29  C   UNL     1       8.300   7.438  12.575  1.00  0.00     0.156 C 
BRANCH  29  30
ATOM     30  O   UNL     1       9.631   7.262  12.975  1.00  0.00    -0.396 OA
ATOM     31  H   UNL     1      10.017   8.173  13.055  1.00  0.00     0.210 HD
ENDBRANCH  29  30
ENDBRANCH  28  29
ENDBRANCH  27  28
ENDBRANCH  26  27
ENDBRANCH  25  26
ENDBRANCH  24  25
ENDBRANCH  23  24
ENDBRANCH  22  23
ENDBRANCH  21  22
ENDBRANCH  20  21
ENDBRANCH  19  20
ENDBRANCH  18  19
ENDBRANCH  17  18
ENDBRANCH   1  17
TORSDOF 28
ENDMDL
MODEL 6
REMARK VINA RESULT:    -4.063      1.778      2.728
REMARK INTER + INTRA:         -12.842
REMARK INTER:                 -11.324
REMARK INTRA:                  -1.518
REMARK UNBOUND:                -2.246
REMARK SMILES CCCCCCCCCCCCCCCCCCCCCCCCCCCCCO
REMARK SMILES IDX 16 1 15 2 14 3 13 4 12 5 11 6 10 7 9 8 8 9 7 10 6 11 5 12
REMARK SMILES IDX 4 13 3 14 2 15 1 16 17 17 18 18 19 19 20 20 21 21 22 22
REMARK SMILES IDX 23 23 24 24 25 25 26 26 27 27 28 28 29 29 30 30
REMARK H PARENT 30 31
REMARK Flexibility Score: inf
ROOT
ATOM      1  C   UNL     1       0.029  -0.963  10.458  1.00  0.00     0.000 C 
ENDROOT
BRANCH   1   2
ATOM      2  C   UNL     1      -0.253   0.554  10.405  1.00  0.00     0.000 C 
BRANCH   2   3
ATOM      3  C   UNL     1       0.725   1.393  11.246  1.00  0.00     0.000 C 
BRANCH   3   4
ATOM      4  C   UNL     1       1.827   0.543  11.896  1.00  0.00     0.000 C 
BRANCH   4   5
ATOM      5  C   UNL     1       3.214   1.211  11.841  1.00  0.00     0.000 C 
BRANCH   5   6
ATOM      6  C   UNL     1       3.293   2.499  10.996  1.00  0.00     0.000 C 
BRANCH   6   7
ATOM      7  C   UNL     1       3.904   3.716  11.718  1.00  0.00     0.000 C 
BRANCH   7   8
ATOM      8  C   UNL     1       5.423   3.627  11.967  1.00  0.00    -0.000 C 
BRANCH   8   9
ATOM      9  C   UNL     1       5.829   3.405  13.437  1.00  0.00    -0.000 C 
BRANCH   9  10
ATOM     10  C   UNL     1       5.924   4.688  14.288  1.00  0.00    -0.000 C 
BRANCH  10  11
ATOM     11  C   UNL     1       6.539   5.905  13.568  1.00  0.00    -0.000 C 
BRANCH  11  12
ATOM     12  C   UNL     1       6.988   7.051  14.493  1.00  0.00    -0.000 C 
BRANCH  12  13
ATOM     13  C   UNL     1       7.737   6.554  15.739  1.00  0.00    -0.000 C 
BRANCH  13  14
ATOM     14  C   UNL     1       9.239   6.857  15.633  1.00  0.00    -0.000 C 
BRANCH  14  15
ATOM     15  C   UNL     1      10.018   6.423  16.885  1.00  0.00    -0.003 C 
ATOM     16  C   UNL     1       9.325   6.830  18.184  1.00  0.00     0.004 C 
ENDBRANCH  14  15
ENDBRANCH  13  14
ENDBRANCH  12  13
ENDBRANCH  11  12
ENDBRANCH  10  11
ENDBRANCH   9  10
ENDBRANCH   8   9
ENDBRANCH   7   8
ENDBRANCH   6   7
ENDBRANCH   5   6
ENDBRANCH   4   5
ENDBRANCH   3   4
ENDBRANCH   2   3
ENDBRANCH   1   2
BRANCH   1  17
ATOM     17  C   UNL     1      -1.169  -1.798   9.974  1.00  0.00     0.000 C 
BRANCH  17  18
ATOM     18  C   UNL     1      -2.506  -1.331  10.579  1.00  0.00     0.000 C 
BRANCH  18  19
ATOM     19  C   UNL     1      -3.547  -2.447  10.803  1.00  0.00     0.000 C 
BRANCH  19  20
ATOM     20  C   UNL     1      -3.024  -3.880  10.585  1.00  0.00     0.000 C 
BRANCH  20  21
ATOM     21  C   UNL     1      -2.926  -4.738  11.863  1.00  0.00     0.000 C 
BRANCH  21  22
ATOM     22  C   UNL     1      -2.594  -6.223  11.626  1.00  0.00     0.000 C 
BRANCH  22  23
ATOM     23  C   UNL     1      -3.590  -7.173  12.306  1.00  0.00     0.000 C 
BRANCH  23  24
ATOM     24  C   UNL     1      -3.567  -8.559  11.649  1.00  0.00     0.000 C 
BRANCH  24  25
ATOM     25  C   UNL     1      -4.887  -8.842  10.917  1.00  0.00     0.000 C 
BRANCH  25  26
ATOM     26  C   UNL     1      -6.116  -8.351  11.700  1.00  0.00     0.000 C 
BRANCH  26  27
ATOM     27  C   UNL     1      -6.777  -7.122  11.052  1.00  0.00     0.002 C 
BRANCH  27  28
ATOM     28  C   UNL     1      -8.016  -7.481  10.213  1.00  0.00     0.028 C 
BRANCH  28  29
ATOM     29  C   UNL     1      -9.332  -6.987  10.824  1.00  0.00     0.156 C 
BRANCH  29  30
ATOM     30  O   UNL     1      -9.095  -6.369  12.058  1.00  0.00    -0.396 OA
ATOM     31  H   UNL     1      -9.773  -6.735  12.684  1.00  0.00     0.210 HD
ENDBRANCH  29  30
ENDBRANCH  28  29
ENDBRANCH  27  28
ENDBRANCH  26  27
ENDBRANCH  25  26
ENDBRANCH  24  25
ENDBRANCH  23  24
ENDBRANCH  22  23
ENDBRANCH  21  22
ENDBRANCH  20  21
ENDBRANCH  19  20
ENDBRANCH  18  19
ENDBRANCH  17  18
ENDBRANCH   1  17
TORSDOF 28
ENDMDL
MODEL 7
REMARK VINA RESULT:    -3.639      4.291     13.806
REMARK INTER + INTRA:         -11.735
REMARK INTER:                 -10.124
REMARK INTRA:                  -1.611
REMARK UNBOUND:                -2.246
REMARK SMILES CCCCCCCCCCCCCCCCCCCCCCCCCCCCCO
REMARK SMILES IDX 16 1 15 2 14 3 13 4 12 5 11 6 10 7 9 8 8 9 7 10 6 11 5 12
REMARK SMILES IDX 4 13 3 14 2 15 1 16 17 17 18 18 19 19 20 20 21 21 22 22
REMARK SMILES IDX 23 23 24 24 25 25 26 26 27 27 28 28 29 29 30 30
REMARK H PARENT 30 31
REMARK Flexibility Score: inf
ROOT
ATOM      1  C   UNL     1       2.152   0.678  10.445  1.00  0.00     0.000 C 
ENDROOT
BRANCH   1   2
ATOM      2  C   UNL     1       1.279   1.890  10.052  1.00  0.00     0.000 C 
BRANCH   2   3
ATOM      3  C   UNL     1      -0.089   1.919  10.755  1.00  0.00     0.000 C 
BRANCH   3   4
ATOM      4  C   UNL     1      -1.051   0.845  10.224  1.00  0.00     0.000 C 
BRANCH   4   5
ATOM      5  C   UNL     1      -0.354  -0.498   9.934  1.00  0.00     0.000 C 
BRANCH   5   6
ATOM      6  C   UNL     1      -1.286  -1.725   9.875  1.00  0.00     0.000 C 
BRANCH   6   7
ATOM      7  C   UNL     1      -0.897  -2.886  10.813  1.00  0.00     0.000 C 
BRANCH   7   8
ATOM      8  C   UNL     1      -2.008  -3.926  11.053  1.00  0.00    -0.000 C 
BRANCH   8   9
ATOM      9  C   UNL     1      -2.509  -4.018  12.508  1.00  0.00    -0.000 C 
BRANCH   9  10
ATOM     10  C   UNL     1      -2.520  -5.440  13.105  1.00  0.00    -0.000 C 
BRANCH  10  11
ATOM     11  C   UNL     1      -3.917  -5.993  13.451  1.00  0.00    -0.000 C 
BRANCH  11  12
ATOM     12  C   UNL     1      -4.462  -7.049  12.473  1.00  0.00    -0.000 C 
BRANCH  12  13
ATOM     13  C   UNL     1      -4.373  -6.605  11.005  1.00  0.00    -0.000 C 
BRANCH  13  14
ATOM     14  C   UNL     1      -3.573  -7.618  10.173  1.00  0.00    -0.000 C 
BRANCH  14  15
ATOM     15  C   UNL     1      -3.117  -8.831  10.999  1.00  0.00    -0.003 C 
ATOM     16  C   UNL     1      -1.678  -8.701  11.497  1.00  0.00     0.004 C 
ENDBRANCH  14  15
ENDBRANCH  13  14
ENDBRANCH  12  13
ENDBRANCH  11  12
ENDBRANCH  10  11
ENDBRANCH   9  10
ENDBRANCH   8   9
ENDBRANCH   7   8
ENDBRANCH   6   7
ENDBRANCH   5   6
ENDBRANCH   4   5
ENDBRANCH   3   4
ENDBRANCH   2   3
ENDBRANCH   1   2
BRANCH   1  17
ATOM     17  C   UNL     1       2.410   0.609  11.960  1.00  0.00     0.000 C 
BRANCH  17  18
ATOM     18  C   UNL     1       3.344   1.728  12.459  1.00  0.00     0.000 C 
BRANCH  18  19
ATOM     19  C   UNL     1       4.847   1.390  12.421  1.00  0.00     0.000 C 
BRANCH  19  20
ATOM     20  C   UNL     1       5.607   1.936  11.195  1.00  0.00     0.000 C 
BRANCH  20  21
ATOM     21  C   UNL     1       4.827   2.965  10.352  1.00  0.00     0.000 C 
BRANCH  21  22
ATOM     22  C   UNL     1       5.495   4.347  10.233  1.00  0.00     0.000 C 
BRANCH  22  23
ATOM     23  C   UNL     1       6.319   4.721  11.474  1.00  0.00     0.000 C 
BRANCH  23  24
ATOM     24  C   UNL     1       5.422   5.292  12.580  1.00  0.00     0.000 C 
BRANCH  24  25
ATOM     25  C   UNL     1       5.643   4.547  13.904  1.00  0.00     0.000 C 
BRANCH  25  26
ATOM     26  C   UNL     1       6.668   5.243  14.813  1.00  0.00     0.000 C 
BRANCH  26  27
ATOM     27  C   UNL     1       6.858   6.729  14.460  1.00  0.00     0.002 C 
BRANCH  27  28
ATOM     28  C   UNL     1       7.791   7.462  15.439  1.00  0.00     0.028 C 
BRANCH  28  29
ATOM     29  C   UNL     1       8.180   6.620  16.659  1.00  0.00     0.156 C 
BRANCH  29  30
ATOM     30  O   UNL     1       9.537   6.277  16.601  1.00  0.00    -0.396 OA
ATOM     31  H   UNL     1      10.039   7.098  16.844  1.00  0.00     0.210 HD
ENDBRANCH  29  30
ENDBRANCH  28  29
ENDBRANCH  27  28
ENDBRANCH  26  27
ENDBRANCH  25  26
ENDBRANCH  24  25
ENDBRANCH  23  24
ENDBRANCH  22  23
ENDBRANCH  21  22
ENDBRANCH  20  21
ENDBRANCH  19  20
ENDBRANCH  18  19
ENDBRANCH  17  18
ENDBRANCH   1  17
TORSDOF 28
ENDMDL
MODEL 8
REMARK VINA RESULT:    -3.505      4.239     14.928
REMARK INTER + INTRA:         -11.387
REMARK INTER:                 -10.508
REMARK INTRA:                  -0.879
REMARK UNBOUND:                -2.246
REMARK SMILES CCCCCCCCCCCCCCCCCCCCCCCCCCCCCO
REMARK SMILES IDX 16 1 15 2 14 3 13 4 12 5 11 6 10 7 9 8 8 9 7 10 6 11 5 12
REMARK SMILES IDX 4 13 3 14 2 15 1 16 17 17 18 18 19 19 20 20 21 21 22 22
REMARK SMILES IDX 23 23 24 24 25 25 26 26 27 27 28 28 29 29 30 30
REMARK H PARENT 30 31
REMARK Flexibility Score: inf
ROOT
ATOM      1  C   UNL     1      -0.037  -0.767  10.612  1.00  0.00     0.000 C 
ENDROOT
BRANCH   1   2
ATOM      2  C   UNL     1      -1.452  -1.285  10.276  1.00  0.00     0.000 C 
BRANCH   2   3
ATOM      3  C   UNL     1      -1.489  -2.773   9.888  1.00  0.00     0.000 C 
BRANCH   3   4
ATOM      4  C   UNL     1      -2.887  -3.392  10.046  1.00  0.00     0.000 C 
BRANCH   4   5
ATOM      5  C   UNL     1      -2.903  -4.609  10.990  1.00  0.00     0.000 C 
BRANCH   5   6
ATOM      6  C   UNL     1      -2.907  -4.275  12.496  1.00  0.00     0.000 C 
BRANCH   6   7
ATOM      7  C   UNL     1      -3.161  -5.475  13.430  1.00  0.00     0.000 C 
BRANCH   7   8
ATOM      8  C   UNL     1      -2.650  -6.830  12.899  1.00  0.00    -0.000 C 
BRANCH   8   9
ATOM      9  C   UNL     1      -3.752  -7.820  12.475  1.00  0.00    -0.000 C 
BRANCH   9  10
ATOM     10  C   UNL     1      -3.504  -8.534  11.131  1.00  0.00    -0.000 C 
BRANCH  10  11
ATOM     11  C   UNL     1      -3.893  -7.723   9.879  1.00  0.00    -0.000 C 
BRANCH  11  12
ATOM     12  C   UNL     1      -5.330  -7.170   9.880  1.00  0.00    -0.000 C 
BRANCH  12  13
ATOM     13  C   UNL     1      -5.982  -7.205  11.271  1.00  0.00    -0.000 C 
BRANCH  13  14
ATOM     14  C   UNL     1      -7.191  -8.152  11.286  1.00  0.00    -0.000 C 
BRANCH  14  15
ATOM     15  C   UNL     1      -8.339  -7.657  10.392  1.00  0.00    -0.003 C 
ATOM     16  C   UNL     1      -9.479  -7.025  11.188  1.00  0.00     0.004 C 
ENDBRANCH  14  15
ENDBRANCH  13  14
ENDBRANCH  12  13
ENDBRANCH  11  12
ENDBRANCH  10  11
ENDBRANCH   9  10
ENDBRANCH   8   9
ENDBRANCH   7   8
ENDBRANCH   6   7
ENDBRANCH   5   6
ENDBRANCH   4   5
ENDBRANCH   3   4
ENDBRANCH   2   3
ENDBRANCH   1   2
BRANCH   1  17
ATOM     17  C   UNL     1       0.199   0.665  10.102  1.00  0.00     0.000 C 
BRANCH  17  18
ATOM     18  C   UNL     1       0.445   1.673  11.241  1.00  0.00     0.000 C 
BRANCH  18  19
ATOM     19  C   UNL     1       0.923   3.067  10.788  1.00  0.00     0.000 C 
BRANCH  19  20
ATOM     20  C   UNL     1       2.451   3.268  10.801  1.00  0.00     0.000 C 
BRANCH  20  21
ATOM     21  C   UNL     1       3.211   2.409  11.831  1.00  0.00     0.000 C 
BRANCH  21  22
ATOM     22  C   UNL     1       4.743   2.560  11.799  1.00  0.00     0.000 C 
BRANCH  22  23
ATOM     23  C   UNL     1       5.209   3.738  10.931  1.00  0.00     0.000 C 
BRANCH  23  24
ATOM     24  C   UNL     1       5.943   4.788  11.775  1.00  0.00     0.000 C 
BRANCH  24  25
ATOM     25  C   UNL     1       5.527   4.697  13.250  1.00  0.00     0.000 C 
BRANCH  25  26
ATOM     26  C   UNL     1       5.872   5.967  14.043  1.00  0.00     0.000 C 
BRANCH  26  27
ATOM     27  C   UNL     1       7.131   6.674  13.510  1.00  0.00     0.002 C 
BRANCH  27  28
ATOM     28  C   UNL     1       7.782   7.601  14.551  1.00  0.00     0.028 C 
BRANCH  28  29
ATOM     29  C   UNL     1       7.898   6.970  15.943  1.00  0.00     0.156 C 
BRANCH  29  30
ATOM     30  O   UNL     1       9.124   6.307  16.077  1.00  0.00    -0.396 OA
ATOM     31  H   UNL     1       9.735   6.946  16.528  1.00  0.00     0.210 HD
ENDBRANCH  29  30
ENDBRANCH  28  29
ENDBRANCH  27  28
ENDBRANCH  26  27
ENDBRANCH  25  26
ENDBRANCH  24  25
ENDBRANCH  23  24
ENDBRANCH  22  23
ENDBRANCH  21  22
ENDBRANCH  20  21
ENDBRANCH  19  20
ENDBRANCH  18  19
ENDBRANCH  17  18
ENDBRANCH   1  17
TORSDOF 28
ENDMDL
MODEL 9
REMARK VINA RESULT:    -3.357      1.867      3.718
REMARK INTER + INTRA:         -11.000
REMARK INTER:                  -9.606
REMARK INTRA:                  -1.394
REMARK UNBOUND:                -2.246
REMARK SMILES CCCCCCCCCCCCCCCCCCCCCCCCCCCCCO
REMARK SMILES IDX 16 1 15 2 14 3 13 4 12 5 11 6 10 7 9 8 8 9 7 10 6 11 5 12
REMARK SMILES IDX 4 13 3 14 2 15 1 16 17 17 18 18 19 19 20 20 21 21 22 22
REMARK SMILES IDX 23 23 24 24 25 25 26 26 27 27 28 28 29 29 30 30
REMARK H PARENT 30 31
REMARK Flexibility Score: inf
ROOT
ATOM      1  C   UNL     1      -1.188  -2.827  10.489  1.00  0.00     0.000 C 
ENDROOT
BRANCH   1   2
ATOM      2  C   UNL     1       0.057  -1.922  10.356  1.00  0.00     0.000 C 
BRANCH   2   3
ATOM      3  C   UNL     1      -0.150  -0.504  10.913  1.00  0.00     0.000 C 
BRANCH   3   4
ATOM      4  C   UNL     1       0.147   0.589   9.875  1.00  0.00     0.000 C 
BRANCH   4   5
ATOM      5  C   UNL     1       1.197   1.608  10.356  1.00  0.00     0.000 C 
BRANCH   5   6
ATOM      6  C   UNL     1       2.478   0.999  10.962  1.00  0.00     0.000 C 
BRANCH   6   7
ATOM      7  C   UNL     1       3.495   2.023  11.504  1.00  0.00     0.000 C 
BRANCH   7   8
ATOM      8  C   UNL     1       2.891   3.381  11.914  1.00  0.00    -0.000 C 
BRANCH   8   9
ATOM      9  C   UNL     1       3.923   4.481  12.235  1.00  0.00    -0.000 C 
BRANCH   9  10
ATOM     10  C   UNL     1       5.240   4.392  11.437  1.00  0.00    -0.000 C 
BRANCH  10  11
ATOM     11  C   UNL     1       6.513   4.729  12.240  1.00  0.00    -0.000 C 
BRANCH  11  12
ATOM     12  C   UNL     1       6.296   5.666  13.443  1.00  0.00    -0.000 C 
BRANCH  12  13
ATOM     13  C   UNL     1       5.928   4.911  14.729  1.00  0.00    -0.000 C 
BRANCH  13  14
ATOM     14  C   UNL     1       6.528   5.603  15.962  1.00  0.00    -0.000 C 
BRANCH  14  15
ATOM     15  C   UNL     1       7.611   6.629  15.593  1.00  0.00    -0.003 C 
ATOM     16  C   UNL     1       8.588   6.896  16.738  1.00  0.00     0.004 C 
ENDBRANCH  14  15
ENDBRANCH  13  14
ENDBRANCH  12  13
ENDBRANCH  11  12
ENDBRANCH  10  11
ENDBRANCH   9  10
ENDBRANCH   8   9
ENDBRANCH   7   8
ENDBRANCH   6   7
ENDBRANCH   5   6
ENDBRANCH   4   5
ENDBRANCH   3   4
ENDBRANCH   2   3
ENDBRANCH   1   2
BRANCH   1  17
ATOM     17  C   UNL     1      -2.502  -2.039  10.348  1.00  0.00     0.000 C 
BRANCH  17  18
ATOM     18  C   UNL     1      -3.719  -2.799  10.908  1.00  0.00     0.000 C 
BRANCH  18  19
ATOM     19  C   UNL     1      -4.492  -3.644   9.876  1.00  0.00     0.000 C 
BRANCH  19  20
ATOM     20  C   UNL     1      -4.264  -5.166   9.978  1.00  0.00     0.000 C 
BRANCH  20  21
ATOM     21  C   UNL     1      -5.541  -6.000  10.208  1.00  0.00     0.000 C 
BRANCH  21  22
ATOM     22  C   UNL     1      -5.364  -7.520  10.036  1.00  0.00     0.000 C 
BRANCH  22  23
ATOM     23  C   UNL     1      -5.177  -8.253  11.373  1.00  0.00     0.000 C 
BRANCH  23  24
ATOM     24  C   UNL     1      -3.847  -9.018  11.401  1.00  0.00     0.000 C 
BRANCH  24  25
ATOM     25  C   UNL     1      -2.677  -8.101  11.020  1.00  0.00     0.000 C 
BRANCH  25  26
ATOM     26  C   UNL     1      -2.106  -7.337  12.226  1.00  0.00     0.000 C 
BRANCH  26  27
ATOM     27  C   UNL     1      -3.204  -6.792  13.155  1.00  0.00     0.002 C 
BRANCH  27  28
ATOM     28  C   UNL     1      -2.710  -5.650  14.060  1.00  0.00     0.028 C 
BRANCH  28  29
ATOM     29  C   UNL     1      -2.246  -6.122  15.442  1.00  0.00     0.156 C 
BRANCH  29  30
ATOM     30  O   UNL     1      -3.038  -5.550  16.445  1.00  0.00    -0.396 OA
ATOM     31  H   UNL     1      -3.966  -5.857  16.271  1.00  0.00     0.210 HD
ENDBRANCH  29  30
ENDBRANCH  28  29
ENDBRANCH  27  28
ENDBRANCH  26  27
ENDBRANCH  25  26
ENDBRANCH  24  25
ENDBRANCH  23  24
ENDBRANCH  22  23
ENDBRANCH  21  22
ENDBRANCH  20  21
ENDBRANCH  19  20
ENDBRANCH  18  19
ENDBRANCH  17  18
ENDBRANCH   1  17
TORSDOF 28
ENDMDL
