MODEL 1
REMARK VINA RESULT:    -5.909      0.000      0.000
REMARK INTER + INTRA:          -6.082
REMARK INTER:                  -6.082
REMARK INTRA:                   0.000
REMARK UNBOUND:                 0.000
REMARK SMILES O=c1ccc2ccc(O)cc2o1
REMARK SMILES IDX 6 1 7 2 8 3 10 4 11 5 5 6 4 7 3 8 2 9 1 10 12 11 9 12
REMARK H PARENT 9 13
REMARK Flexibility Score: inf
ROOT
ATOM      1  C   UNL     1       4.506  44.717  11.430  1.00  0.00     0.016 A 
ATOM      2  C   UNL     1       3.580  43.848  12.017  1.00  0.00     0.047 A 
ATOM      3  C   UNL     1       2.238  43.864  11.609  1.00  0.00     0.119 A 
ATOM      4  C   UNL     1       1.821  44.752  10.611  1.00  0.00     0.094 A 
ATOM      5  C   UNL     1       2.740  45.625  10.017  1.00  0.00     0.142 A 
ATOM      6  C   UNL     1       4.090  45.607  10.430  1.00  0.00     0.018 A 
ATOM      7  C   UNL     1       4.986  46.491   9.819  1.00  0.00     0.019 A 
ATOM      8  C   UNL     1       4.523  47.357   8.828  1.00  0.00     0.094 A 
ATOM      9  C   UNL     1       3.171  47.319   8.471  1.00  0.00     0.336 A 
ATOM     10  O   UNL     1       2.735  48.093   7.579  1.00  0.00    -0.246 OA
ATOM     11  O   UNL     1       2.341  46.468   9.068  1.00  0.00    -0.423 OA
ENDROOT
BRANCH   3  12
ATOM     12  O   UNL     1       1.310  43.001  12.191  1.00  0.00    -0.508 OA
ATOM     13  H   UNL     1       0.594  43.341  12.820  1.00  0.00     0.293 HD
ENDBRANCH   3  12
TORSDOF 1
ENDMDL
MODEL 2
REMARK VINA RESULT:    -5.849      0.795      4.218
REMARK INTER + INTRA:          -6.020
REMARK INTER:                  -6.020
REMARK INTRA:                   0.000
REMARK UNBOUND:                 0.000
REMARK SMILES O=c1ccc2ccc(O)cc2o1
REMARK SMILES IDX 6 1 7 2 8 3 10 4 11 5 5 6 4 7 3 8 2 9 1 10 12 11 9 12
REMARK H PARENT 9 13
REMARK Flexibility Score: inf
ROOT
ATOM      1  C   UNL     1       4.973  46.452   9.875  1.00  0.00     0.016 A 
ATOM      2  C   UNL     1       4.509  47.380   8.937  1.00  0.00     0.047 A 
ATOM      3  C   UNL     1       3.158  47.389   8.559  1.00  0.00     0.119 A 
ATOM      4  C   UNL     1       2.269  46.468   9.123  1.00  0.00     0.094 A 
ATOM      5  C   UNL     1       2.723  45.536  10.063  1.00  0.00     0.142 A 
ATOM      6  C   UNL     1       4.084  45.528  10.441  1.00  0.00     0.018 A 
ATOM      7  C   UNL     1       4.509  44.585  11.383  1.00  0.00     0.019 A 
ATOM      8  C   UNL     1       3.584  43.688  11.917  1.00  0.00     0.094 A 
ATOM      9  C   UNL     1       2.253  43.754  11.495  1.00  0.00     0.336 A 
ATOM     10  O   UNL     1       1.404  42.952  11.965  1.00  0.00    -0.246 OA
ATOM     11  O   UNL     1       1.875  44.660  10.597  1.00  0.00    -0.423 OA
ENDROOT
BRANCH   3  12
ATOM     12  O   UNL     1       2.691  48.311   7.624  1.00  0.00    -0.508 OA
ATOM     13  H   UNL     1       1.766  48.230   7.218  1.00  0.00     0.293 HD
ENDBRANCH   3  12
TORSDOF 1
ENDMDL
MODEL 3
REMARK VINA RESULT:    -5.848      1.839      4.882
REMARK INTER + INTRA:          -6.019
REMARK INTER:                  -6.019
REMARK INTRA:                   0.000
REMARK UNBOUND:                 0.000
REMARK SMILES O=c1ccc2ccc(O)cc2o1
REMARK SMILES IDX 6 1 7 2 8 3 10 4 11 5 5 6 4 7 3 8 2 9 1 10 12 11 9 12
REMARK H PARENT 9 13
REMARK Flexibility Score: inf
ROOT
ATOM      1  C   UNL     1       3.268  47.394   8.290  1.00  0.00     0.016 A 
ATOM      2  C   UNL     1       4.381  48.191   8.003  1.00  0.00     0.047 A 
ATOM      3  C   UNL     1       5.572  48.031   8.727  1.00  0.00     0.119 A 
ATOM      4  C   UNL     1       5.649  47.070   9.741  1.00  0.00     0.094 A 
ATOM      5  C   UNL     1       4.541  46.266  10.035  1.00  0.00     0.142 A 
ATOM      6  C   UNL     1       3.343  46.430   9.305  1.00  0.00     0.018 A 
ATOM      7  C   UNL     1       2.252  45.614   9.622  1.00  0.00     0.019 A 
ATOM      8  C   UNL     1       2.378  44.671  10.641  1.00  0.00     0.094 A 
ATOM      9  C   UNL     1       3.595  44.565  11.322  1.00  0.00     0.336 A 
ATOM     10  O   UNL     1       3.727  43.719  12.245  1.00  0.00    -0.246 OA
ATOM     11  O   UNL     1       4.617  45.354  11.001  1.00  0.00    -0.423 OA
ENDROOT
BRANCH   3  12
ATOM     12  O   UNL     1       6.684  48.822   8.446  1.00  0.00    -0.508 OA
ATOM     13  H   UNL     1       7.047  48.909   7.504  1.00  0.00     0.293 HD
ENDBRANCH   3  12
TORSDOF 1
ENDMDL
MODEL 4
REMARK VINA RESULT:    -5.716      2.414      4.156
REMARK INTER + INTRA:          -5.883
REMARK INTER:                  -5.883
REMARK INTRA:                   0.000
REMARK UNBOUND:                 0.000
REMARK SMILES O=c1ccc2ccc(O)cc2o1
REMARK SMILES IDX 6 1 7 2 8 3 10 4 11 5 5 6 4 7 3 8 2 9 1 10 12 11 9 12
REMARK H PARENT 9 13
REMARK Flexibility Score: inf
ROOT
ATOM      1  C   UNL     1       4.490  46.263  10.163  1.00  0.00     0.016 A 
ATOM      2  C   UNL     1       5.614  47.017   9.812  1.00  0.00     0.047 A 
ATOM      3  C   UNL     1       5.542  47.952   8.769  1.00  0.00     0.119 A 
ATOM      4  C   UNL     1       4.340  48.133   8.076  1.00  0.00     0.094 A 
ATOM      5  C   UNL     1       3.209  47.384   8.419  1.00  0.00     0.142 A 
ATOM      6  C   UNL     1       3.285  46.442   9.469  1.00  0.00     0.018 A 
ATOM      7  C   UNL     1       2.139  45.708   9.790  1.00  0.00     0.019 A 
ATOM      8  C   UNL     1       0.964  45.924   9.070  1.00  0.00     0.094 A 
ATOM      9  C   UNL     1       0.964  46.872   8.042  1.00  0.00     0.336 A 
ATOM     10  O   UNL     1      -0.087  47.081   7.381  1.00  0.00    -0.246 OA
ATOM     11  O   UNL     1       2.068  47.558   7.757  1.00  0.00    -0.423 OA
ENDROOT
BRANCH   3  12
ATOM     12  O   UNL     1       6.659  48.706   8.415  1.00  0.00    -0.508 OA
ATOM     13  H   UNL     1       6.903  49.555   8.910  1.00  0.00     0.293 HD
ENDBRANCH   3  12
TORSDOF 1
ENDMDL
MODEL 5
REMARK VINA RESULT:    -5.688      1.472      2.324
REMARK INTER + INTRA:          -5.854
REMARK INTER:                  -5.854
REMARK INTRA:                   0.000
REMARK UNBOUND:                 0.000
REMARK SMILES O=c1ccc2ccc(O)cc2o1
REMARK SMILES IDX 6 1 7 2 8 3 10 4 11 5 5 6 4 7 3 8 2 9 1 10 12 11 9 12
REMARK H PARENT 9 13
REMARK Flexibility Score: inf
ROOT
ATOM      1  C   UNL     1       1.735  44.808  10.552  1.00  0.00     0.016 A 
ATOM      2  C   UNL     1       2.583  44.144  11.445  1.00  0.00     0.047 A 
ATOM      3  C   UNL     1       3.950  44.456  11.488  1.00  0.00     0.119 A 
ATOM      4  C   UNL     1       4.470  45.434  10.634  1.00  0.00     0.094 A 
ATOM      5  C   UNL     1       3.630  46.104   9.736  1.00  0.00     0.142 A 
ATOM      6  C   UNL     1       2.254  45.788   9.695  1.00  0.00     0.018 A 
ATOM      7  C   UNL     1       1.440  46.474   8.788  1.00  0.00     0.019 A 
ATOM      8  C   UNL     1       2.005  47.441   7.958  1.00  0.00     0.094 A 
ATOM      9  C   UNL     1       3.376  47.701   8.054  1.00  0.00     0.336 A 
ATOM     10  O   UNL     1       3.904  48.570   7.312  1.00  0.00    -0.246 OA
ATOM     11  O   UNL     1       4.128  47.034   8.925  1.00  0.00    -0.423 OA
ENDROOT
BRANCH   3  12
ATOM     12  O   UNL     1       4.799  43.798  12.376  1.00  0.00    -0.508 OA
ATOM     13  H   UNL     1       4.738  42.798  12.523  1.00  0.00     0.293 HD
ENDBRANCH   3  12
TORSDOF 1
ENDMDL
MODEL 6
REMARK VINA RESULT:    -5.666      1.698      4.736
REMARK INTER + INTRA:          -5.831
REMARK INTER:                  -5.831
REMARK INTRA:                   0.000
REMARK UNBOUND:                 0.000
REMARK SMILES O=c1ccc2ccc(O)cc2o1
REMARK SMILES IDX 6 1 7 2 8 3 10 4 11 5 5 6 4 7 3 8 2 9 1 10 12 11 9 12
REMARK H PARENT 9 13
REMARK Flexibility Score: inf
ROOT
ATOM      1  C   UNL     1       1.641  46.138   9.686  1.00  0.00     0.016 A 
ATOM      2  C   UNL     1       2.439  47.141   9.127  1.00  0.00     0.047 A 
ATOM      3  C   UNL     1       3.834  46.996   9.088  1.00  0.00     0.119 A 
ATOM      4  C   UNL     1       4.431  45.844   9.611  1.00  0.00     0.094 A 
ATOM      5  C   UNL     1       3.641  44.834  10.172  1.00  0.00     0.142 A 
ATOM      6  C   UNL     1       2.237  44.983  10.210  1.00  0.00     0.018 A 
ATOM      7  C   UNL     1       1.473  43.958  10.778  1.00  0.00     0.019 A 
ATOM      8  C   UNL     1       2.115  42.828  11.285  1.00  0.00     0.094 A 
ATOM      9  C   UNL     1       3.509  42.750  11.214  1.00  0.00     0.336 A 
ATOM     10  O   UNL     1       4.106  41.738  11.667  1.00  0.00    -0.246 OA
ATOM     11  O   UNL     1       4.212  43.740  10.669  1.00  0.00    -0.423 OA
ENDROOT
BRANCH   3  12
ATOM     12  O   UNL     1       4.634  47.993   8.533  1.00  0.00    -0.508 OA
ATOM     13  H   UNL     1       5.144  48.647   9.114  1.00  0.00     0.293 HD
ENDBRANCH   3  12
TORSDOF 1
ENDMDL
MODEL 7
REMARK VINA RESULT:    -5.643      1.707      2.472
REMARK INTER + INTRA:          -5.808
REMARK INTER:                  -5.808
REMARK INTRA:                   0.000
REMARK UNBOUND:                 0.000
REMARK SMILES O=c1ccc2ccc(O)cc2o1
REMARK SMILES IDX 6 1 7 2 8 3 10 4 11 5 5 6 4 7 3 8 2 9 1 10 12 11 9 12
REMARK H PARENT 9 13
REMARK Flexibility Score: inf
ROOT
ATOM      1  C   UNL     1       1.601  43.577  11.127  1.00  0.00     0.016 A 
ATOM      2  C   UNL     1       2.305  42.485  11.644  1.00  0.00     0.047 A 
ATOM      3  C   UNL     1       3.700  42.417  11.514  1.00  0.00     0.119 A 
ATOM      4  C   UNL     1       4.392  43.446  10.864  1.00  0.00     0.094 A 
ATOM      5  C   UNL     1       3.696  44.544  10.345  1.00  0.00     0.142 A 
ATOM      6  C   UNL     1       2.291  44.609  10.477  1.00  0.00     0.018 A 
ATOM      7  C   UNL     1       1.622  45.717   9.948  1.00  0.00     0.019 A 
ATOM      8  C   UNL     1       2.356  46.717   9.309  1.00  0.00     0.094 A 
ATOM      9  C   UNL     1       3.745  46.585   9.215  1.00  0.00     0.336 A 
ATOM     10  O   UNL     1       4.424  47.477   8.643  1.00  0.00    -0.246 OA
ATOM     11  O   UNL     1       4.356  45.520   9.727  1.00  0.00    -0.423 OA
ENDROOT
BRANCH   3  12
ATOM     12  O   UNL     1       4.408  41.331  12.026  1.00  0.00    -0.508 OA
ATOM     13  H   UNL     1       4.412  41.122  13.017  1.00  0.00     0.293 HD
ENDBRANCH   3  12
TORSDOF 1
ENDMDL
MODEL 8
REMARK VINA RESULT:    -5.567      1.580      2.356
REMARK INTER + INTRA:          -5.729
REMARK INTER:                  -5.729
REMARK INTRA:                   0.000
REMARK UNBOUND:                 0.000
REMARK SMILES O=c1ccc2ccc(O)cc2o1
REMARK SMILES IDX 6 1 7 2 8 3 10 4 11 5 5 6 4 7 3 8 2 9 1 10 12 11 9 12
REMARK H PARENT 9 13
REMARK Flexibility Score: inf
ROOT
ATOM      1  C   UNL     1       1.268  45.468   9.805  1.00  0.00     0.016 A 
ATOM      2  C   UNL     1       0.987  44.483  10.757  1.00  0.00     0.047 A 
ATOM      3  C   UNL     1       2.006  43.983  11.581  1.00  0.00     0.119 A 
ATOM      4  C   UNL     1       3.311  44.470  11.451  1.00  0.00     0.094 A 
ATOM      5  C   UNL     1       3.603  45.456  10.502  1.00  0.00     0.142 A 
ATOM      6  C   UNL     1       2.575  45.958   9.673  1.00  0.00     0.018 A 
ATOM      7  C   UNL     1       2.896  46.942   8.734  1.00  0.00     0.019 A 
ATOM      8  C   UNL     1       4.213  47.396   8.642  1.00  0.00     0.094 A 
ATOM      9  C   UNL     1       5.178  46.852   9.495  1.00  0.00     0.336 A 
ATOM     10  O   UNL     1       6.371  47.250   9.427  1.00  0.00    -0.246 OA
ATOM     11  O   UNL     1       4.846  45.917  10.380  1.00  0.00    -0.423 OA
ENDROOT
BRANCH   3  12
ATOM     12  O   UNL     1       1.731  43.001  12.531  1.00  0.00    -0.508 OA
ATOM     13  H   UNL     1       1.198  43.208  13.367  1.00  0.00     0.293 HD
ENDBRANCH   3  12
TORSDOF 1
ENDMDL
MODEL 9
REMARK VINA RESULT:    -5.506      1.415      4.171
REMARK INTER + INTRA:          -5.667
REMARK INTER:                  -5.667
REMARK INTRA:                   0.000
REMARK UNBOUND:                 0.000
REMARK SMILES O=c1ccc2ccc(O)cc2o1
REMARK SMILES IDX 6 1 7 2 8 3 10 4 11 5 5 6 4 7 3 8 2 9 1 10 12 11 9 12
REMARK H PARENT 9 13
REMARK Flexibility Score: inf
ROOT
ATOM      1  C   UNL     1       3.732  47.270   8.754  1.00  0.00     0.016 A 
ATOM      2  C   UNL     1       2.686  47.741   7.953  1.00  0.00     0.047 A 
ATOM      3  C   UNL     1       1.403  47.185   8.066  1.00  0.00     0.119 A 
ATOM      4  C   UNL     1       1.166  46.157   8.985  1.00  0.00     0.094 A 
ATOM      5  C   UNL     1       2.206  45.680   9.792  1.00  0.00     0.142 A 
ATOM      6  C   UNL     1       3.497  46.240   9.674  1.00  0.00     0.018 A 
ATOM      7  C   UNL     1       4.516  45.743  10.493  1.00  0.00     0.019 A 
ATOM      8  C   UNL     1       4.230  44.717  11.393  1.00  0.00     0.094 A 
ATOM      9  C   UNL     1       2.929  44.210  11.454  1.00  0.00     0.336 A 
ATOM     10  O   UNL     1       2.652  43.283  12.260  1.00  0.00    -0.246 OA
ATOM     11  O   UNL     1       1.977  44.701  10.663  1.00  0.00    -0.423 OA
ENDROOT
BRANCH   3  12
ATOM     12  O   UNL     1       0.357  47.649   7.271  1.00  0.00    -0.508 OA
ATOM     13  H   UNL     1       0.234  47.328   6.318  1.00  0.00     0.293 HD
ENDBRANCH   3  12
TORSDOF 1
ENDMDL
