MODEL 1
REMARK VINA RESULT:    -5.310      0.000      0.000
REMARK INTER + INTRA:          -7.918
REMARK INTER:                  -7.018
REMARK INTRA:                  -0.900
REMARK UNBOUND:                -0.900
REMARK SMILES CC[C@@H](C=C[C@@H](C)[C@@H]1CC[C@@H]2C3=CC[C@H]4C[C@@H](O)CC[C@]4(C)[C@H]3CC[C@@]21C)C(C)C
REMARK SMILES IDX 6 1 7 2 5 3 4 4 3 5 2 6 1 7 28 8 29 9 30 10 8 11 9 12 26 13
REMARK SMILES IDX 10 14 11 15 25 16 27 17 12 18 24 19 23 20 13 21 21 22 14 23
REMARK SMILES IDX 15 24 20 25 22 26 16 27 19 28 17 29 18 30
REMARK H PARENT 18 31
REMARK Flexibility Score: inf
ROOT
ATOM      1  C   UNL     1       6.940   1.751   0.156  1.00  0.00     0.012 C 
ATOM      2  C   UNL     1       6.353   3.052   0.734  1.00  0.00     0.012 C 
ENDROOT
BRANCH   1   3
ATOM      3  C   UNL     1       7.636   0.962   1.249  1.00  0.00    -0.028 C 
ATOM      4  C   UNL     1       8.077   1.519   2.391  1.00  0.00    -0.027 C 
BRANCH   4   5
ATOM      5  C   UNL     1       8.890   0.725   3.399  1.00  0.00     0.014 C 
BRANCH   5   6
ATOM      6  C   UNL     1       8.737  -0.820   3.238  1.00  0.00     0.004 C 
ATOM      7  C   UNL     1       8.790  -1.639   4.535  1.00  0.00     0.004 C 
ENDBRANCH   5   6
BRANCH   5   8
ATOM      8  C   UNL     1       8.680   1.266   4.848  1.00  0.00    -0.011 C 
ATOM      9  C   UNL     1       7.613   2.369   4.904  1.00  0.00     0.008 C 
ATOM     10  C   UNL     1       9.972   1.733   5.530  1.00  0.00     0.008 C 
ENDBRANCH   5   8
ENDBRANCH   4   5
ENDBRANCH   1   3
BRANCH   1  11
ATOM     11  C   UNL     1       7.893   2.022  -1.054  1.00  0.00     0.002 C 
ATOM     12  C   UNL     1       8.684   3.323  -0.888  1.00  0.00     0.005 C 
ATOM     13  C   UNL     1       7.258   2.093  -2.486  1.00  0.00    -0.023 C 
ATOM     14  C   UNL     1       9.119   3.747  -2.282  1.00  0.00     0.009 C 
ATOM     15  C   UNL     1       8.274   2.956  -3.292  1.00  0.00     0.021 C 
ATOM     16  C   UNL     1       5.813   2.708  -2.537  1.00  0.00     0.008 C 
ATOM     17  C   UNL     1       7.190   0.681  -3.121  1.00  0.00     0.012 C 
ATOM     18  C   UNL     1       7.599   3.885  -4.293  1.00  0.00    -0.067 C 
ATOM     19  C   UNL     1       5.783   4.242  -2.552  1.00  0.00     0.009 C 
ATOM     20  C   UNL     1       6.523   4.843  -3.781  1.00  0.00     0.021 C 
ATOM     21  C   UNL     1       8.030   3.913  -5.575  1.00  0.00    -0.027 C 
ATOM     22  C   UNL     1       5.587   5.377  -4.929  1.00  0.00    -0.023 C 
ATOM     23  C   UNL     1       7.379   4.739  -6.651  1.00  0.00     0.031 C 
ATOM     24  C   UNL     1       6.526   5.880  -6.076  1.00  0.00     0.002 C 
ATOM     25  C   UNL     1       4.758   6.600  -4.415  1.00  0.00     0.010 C 
ATOM     26  C   UNL     1       4.622   4.256  -5.413  1.00  0.00     0.012 C 
ATOM     27  C   UNL     1       5.774   6.623  -7.199  1.00  0.00     0.036 C 
ATOM     28  C   UNL     1       4.019   7.346  -5.538  1.00  0.00     0.032 C 
ATOM     29  C   UNL     1       4.984   7.812  -6.631  1.00  0.00     0.114 C 
BRANCH  29  30
ATOM     30  O   UNL     1       4.249   8.434  -7.652  1.00  0.00    -0.393 OA
ATOM     31  H   UNL     1       4.896   8.979  -8.174  1.00  0.00     0.210 HD
ENDBRANCH  29  30
ENDBRANCH   1  11
TORSDOF 6
ENDMDL
MODEL 2
REMARK VINA RESULT:    -5.259      1.832      3.103
REMARK INTER + INTRA:          -7.851
REMARK INTER:                  -6.682
REMARK INTRA:                  -1.169
REMARK UNBOUND:                -0.900
REMARK SMILES CC[C@@H](C=C[C@@H](C)[C@@H]1CC[C@@H]2C3=CC[C@H]4C[C@@H](O)CC[C@]4(C)[C@H]3CC[C@@]21C)C(C)C
REMARK SMILES IDX 6 1 7 2 5 3 4 4 3 5 2 6 1 7 28 8 29 9 30 10 8 11 9 12 26 13
REMARK SMILES IDX 10 14 11 15 25 16 27 17 12 18 24 19 23 20 13 21 21 22 14 23
REMARK SMILES IDX 15 24 20 25 22 26 16 27 19 28 17 29 18 30
REMARK H PARENT 18 31
REMARK Flexibility Score: inf
ROOT
ATOM      1  C   UNL     1       8.403   0.775   0.399  1.00  0.00     0.012 C 
ATOM      2  C   UNL     1       7.376  -0.372   0.358  1.00  0.00     0.012 C 
ENDROOT
BRANCH   1   3
ATOM      3  C   UNL     1       9.215   0.703   1.678  1.00  0.00    -0.028 C 
ATOM      4  C   UNL     1       8.660   0.708   2.903  1.00  0.00    -0.027 C 
BRANCH   4   5
ATOM      5  C   UNL     1       9.510   0.774   4.160  1.00  0.00     0.014 C 
BRANCH   5   6
ATOM      6  C   UNL     1       9.972  -0.627   4.670  1.00  0.00     0.004 C 
ATOM      7  C   UNL     1       8.970  -1.774   4.482  1.00  0.00     0.004 C 
ENDBRANCH   5   6
BRANCH   5   8
ATOM      8  C   UNL     1       8.856   1.691   5.239  1.00  0.00    -0.011 C 
ATOM      9  C   UNL     1       7.719   2.546   4.659  1.00  0.00     0.008 C 
ATOM     10  C   UNL     1       9.857   2.573   5.997  1.00  0.00     0.008 C 
ENDBRANCH   5   8
ENDBRANCH   4   5
ENDBRANCH   1   3
BRANCH   1  11
ATOM     11  C   UNL     1       7.728   2.174   0.223  1.00  0.00     0.002 C 
ATOM     12  C   UNL     1       6.254   2.162   0.636  1.00  0.00     0.005 C 
ATOM     13  C   UNL     1       7.764   2.832  -1.200  1.00  0.00    -0.023 C 
ATOM     14  C   UNL     1       5.597   3.340  -0.066  1.00  0.00     0.009 C 
ATOM     15  C   UNL     1       6.545   3.802  -1.183  1.00  0.00     0.021 C 
ATOM     16  C   UNL     1       7.675   1.818  -2.398  1.00  0.00     0.008 C 
ATOM     17  C   UNL     1       9.059   3.662  -1.383  1.00  0.00     0.012 C 
ATOM     18  C   UNL     1       5.825   3.872  -2.524  1.00  0.00    -0.067 C 
ATOM     19  C   UNL     1       6.247   1.376  -2.742  1.00  0.00     0.009 C 
ATOM     20  C   UNL     1       5.334   2.568  -3.152  1.00  0.00     0.021 C 
ATOM     21  C   UNL     1       5.550   5.078  -3.072  1.00  0.00    -0.027 C 
ATOM     22  C   UNL     1       5.061   2.700  -4.696  1.00  0.00    -0.023 C 
ATOM     23  C   UNL     1       4.912   5.248  -4.424  1.00  0.00     0.031 C 
ATOM     24  C   UNL     1       4.178   3.979  -4.888  1.00  0.00     0.002 C 
ATOM     25  C   UNL     1       4.239   1.469  -5.200  1.00  0.00     0.010 C 
ATOM     26  C   UNL     1       6.401   2.792  -5.482  1.00  0.00     0.012 C 
ATOM     27  C   UNL     1       3.649   4.146  -6.326  1.00  0.00     0.036 C 
ATOM     28  C   UNL     1       3.702   1.642  -6.630  1.00  0.00     0.032 C 
ATOM     29  C   UNL     1       2.850   2.907  -6.759  1.00  0.00     0.114 C 
BRANCH  29  30
ATOM     30  O   UNL     1       2.435   3.043  -8.094  1.00  0.00    -0.393 OA
ATOM     31  H   UNL     1       1.922   2.221  -8.315  1.00  0.00     0.210 HD
ENDBRANCH  29  30
ENDBRANCH   1  11
TORSDOF 6
ENDMDL
MODEL 3
REMARK VINA RESULT:    -5.217      9.630     12.863
REMARK INTER + INTRA:          -7.795
REMARK INTER:                  -6.644
REMARK INTRA:                  -1.151
REMARK UNBOUND:                -0.900
REMARK SMILES CC[C@@H](C=C[C@@H](C)[C@@H]1CC[C@@H]2C3=CC[C@H]4C[C@@H](O)CC[C@]4(C)[C@H]3CC[C@@]21C)C(C)C
REMARK SMILES IDX 6 1 7 2 5 3 4 4 3 5 2 6 1 7 28 8 29 9 30 10 8 11 9 12 26 13
REMARK SMILES IDX 10 14 11 15 25 16 27 17 12 18 24 19 23 20 13 21 21 22 14 23
REMARK SMILES IDX 15 24 20 25 22 26 16 27 19 28 17 29 18 30
REMARK H PARENT 18 31
REMARK Flexibility Score: inf
ROOT
ATOM      1  C   UNL     1      -3.760   3.219  -3.818  1.00  0.00     0.012 C 
ATOM      2  C   UNL     1      -3.097   2.105  -4.650  1.00  0.00     0.012 C 
ENDROOT
BRANCH   1   3
ATOM      3  C   UNL     1      -5.270   3.082  -3.871  1.00  0.00    -0.028 C 
ATOM      4  C   UNL     1      -6.027   2.865  -2.781  1.00  0.00    -0.027 C 
BRANCH   4   5
ATOM      5  C   UNL     1      -7.518   2.595  -2.892  1.00  0.00     0.014 C 
BRANCH   5   6
ATOM      6  C   UNL     1      -8.321   3.790  -3.496  1.00  0.00     0.004 C 
ATOM      7  C   UNL     1      -9.255   4.529  -2.529  1.00  0.00     0.004 C 
ENDBRANCH   5   6
BRANCH   5   8
ATOM      8  C   UNL     1      -8.090   2.018  -1.559  1.00  0.00    -0.011 C 
ATOM      9  C   UNL     1      -7.167   2.301  -0.364  1.00  0.00     0.008 C 
ATOM     10  C   UNL     1      -8.438   0.525  -1.627  1.00  0.00     0.008 C 
ENDBRANCH   5   8
ENDBRANCH   4   5
ENDBRANCH   1   3
BRANCH   1  11
ATOM     11  C   UNL     1      -3.295   4.643  -4.266  1.00  0.00     0.002 C 
ATOM     12  C   UNL     1      -1.782   4.713  -4.492  1.00  0.00     0.005 C 
ATOM     13  C   UNL     1      -3.640   5.855  -3.332  1.00  0.00    -0.023 C 
ATOM     14  C   UNL     1      -1.393   6.179  -4.376  1.00  0.00     0.009 C 
ATOM     15  C   UNL     1      -2.559   6.916  -3.698  1.00  0.00     0.021 C 
ATOM     16  C   UNL     1      -3.626   5.528  -1.795  1.00  0.00     0.008 C 
ATOM     17  C   UNL     1      -5.037   6.427  -3.679  1.00  0.00     0.012 C 
ATOM     18  C   UNL     1      -2.081   7.714  -2.492  1.00  0.00    -0.067 C 
ATOM     19  C   UNL     1      -2.231   5.557  -1.158  1.00  0.00     0.009 C 
ATOM     20  C   UNL     1      -1.546   6.948  -1.282  1.00  0.00     0.021 C 
ATOM     21  C   UNL     1      -2.044   9.065  -2.557  1.00  0.00    -0.027 C 
ATOM     22  C   UNL     1      -1.546   7.812   0.034  1.00  0.00    -0.023 C 
ATOM     23  C   UNL     1      -1.659   9.941  -1.396  1.00  0.00     0.031 C 
ATOM     24  C   UNL     1      -0.865   9.176  -0.325  1.00  0.00     0.002 C 
ATOM     25  C   UNL     1      -0.675   7.114   1.130  1.00  0.00     0.010 C 
ATOM     26  C   UNL     1      -2.997   8.004   0.561  1.00  0.00     0.012 C 
ATOM     27  C   UNL     1      -0.601  10.068   0.904  1.00  0.00     0.036 C 
ATOM     28  C   UNL     1      -0.403   8.010   2.349  1.00  0.00     0.032 C 
ATOM     29  C   UNL     1       0.260   9.328   1.940  1.00  0.00     0.114 C 
BRANCH  29  30
ATOM     30  O   UNL     1       0.432  10.125   3.082  1.00  0.00    -0.393 OA
ATOM     31  H   UNL     1       1.329  10.547   2.999  1.00  0.00     0.210 HD
ENDBRANCH  29  30
ENDBRANCH   1  11
TORSDOF 6
ENDMDL
MODEL 4
REMARK VINA RESULT:    -5.196      2.254      3.494
REMARK INTER + INTRA:          -7.767
REMARK INTER:                  -6.315
REMARK INTRA:                  -1.453
REMARK UNBOUND:                -0.900
REMARK SMILES CC[C@@H](C=C[C@@H](C)[C@@H]1CC[C@@H]2C3=CC[C@H]4C[C@@H](O)CC[C@]4(C)[C@H]3CC[C@@]21C)C(C)C
REMARK SMILES IDX 6 1 7 2 5 3 4 4 3 5 2 6 1 7 28 8 29 9 30 10 8 11 9 12 26 13
REMARK SMILES IDX 10 14 11 15 25 16 27 17 12 18 24 19 23 20 13 21 21 22 14 23
REMARK SMILES IDX 15 24 20 25 22 26 16 27 19 28 17 29 18 30
REMARK H PARENT 18 31
REMARK Flexibility Score: inf
ROOT
ATOM      1  C   UNL     1       5.653   2.383  -0.893  1.00  0.00     0.012 C 
ATOM      2  C   UNL     1       5.964   3.373   0.245  1.00  0.00     0.012 C 
ENDROOT
BRANCH   1   3
ATOM      3  C   UNL     1       5.585   0.969  -0.349  1.00  0.00    -0.028 C 
ATOM      4  C   UNL     1       6.332  -0.041  -0.832  1.00  0.00    -0.027 C 
BRANCH   4   5
ATOM      5  C   UNL     1       6.136  -1.471  -0.355  1.00  0.00     0.014 C 
BRANCH   5   6
ATOM      6  C   UNL     1       7.452  -2.141   0.150  1.00  0.00     0.004 C 
ATOM      7  C   UNL     1       8.165  -1.431   1.309  1.00  0.00     0.004 C 
ENDBRANCH   5   6
BRANCH   5   8
ATOM      8  C   UNL     1       5.321  -2.306  -1.391  1.00  0.00    -0.011 C 
ATOM      9  C   UNL     1       5.671  -1.931  -2.839  1.00  0.00     0.008 C 
ATOM     10  C   UNL     1       3.803  -2.255  -1.175  1.00  0.00     0.008 C 
ENDBRANCH   5   8
ENDBRANCH   4   5
ENDBRANCH   1   3
BRANCH   1  11
ATOM     11  C   UNL     1       6.675   2.499  -2.070  1.00  0.00     0.002 C 
ATOM     12  C   UNL     1       7.735   3.573  -1.812  1.00  0.00     0.005 C 
ATOM     13  C   UNL     1       6.113   2.797  -3.504  1.00  0.00    -0.023 C 
ATOM     14  C   UNL     1       8.294   3.967  -3.170  1.00  0.00     0.009 C 
ATOM     15  C   UNL     1       7.320   3.451  -4.240  1.00  0.00     0.021 C 
ATOM     16  C   UNL     1       4.847   3.728  -3.535  1.00  0.00     0.008 C 
ATOM     17  C   UNL     1       5.743   1.477  -4.227  1.00  0.00     0.012 C 
ATOM     18  C   UNL     1       6.901   4.565  -5.189  1.00  0.00    -0.067 C 
ATOM     19  C   UNL     1       5.167   5.226  -3.454  1.00  0.00     0.009 C 
ATOM     20  C   UNL     1       6.057   5.713  -4.633  1.00  0.00     0.021 C 
ATOM     21  C   UNL     1       7.363   4.569  -6.461  1.00  0.00    -0.027 C 
ATOM     22  C   UNL     1       5.299   6.513  -5.757  1.00  0.00    -0.023 C 
ATOM     23  C   UNL     1       6.947   5.583  -7.492  1.00  0.00     0.031 C 
ATOM     24  C   UNL     1       6.359   6.854  -6.857  1.00  0.00     0.002 C 
ATOM     25  C   UNL     1       4.756   7.860  -5.178  1.00  0.00     0.010 C 
ATOM     26  C   UNL     1       4.119   5.672  -6.323  1.00  0.00     0.012 C 
ATOM     27  C   UNL     1       5.827   7.813  -7.941  1.00  0.00     0.036 C 
ATOM     28  C   UNL     1       4.237   8.820  -6.262  1.00  0.00     0.032 C 
ATOM     29  C   UNL     1       5.312   9.115  -7.310  1.00  0.00     0.114 C 
BRANCH  29  30
ATOM     30  O   UNL     1       4.766   9.948  -8.300  1.00  0.00    -0.393 OA
ATOM     31  H   UNL     1       5.506  10.161  -8.929  1.00  0.00     0.210 HD
ENDBRANCH  29  30
ENDBRANCH   1  11
TORSDOF 6
ENDMDL
MODEL 5
REMARK VINA RESULT:    -5.187      9.893     12.089
REMARK INTER + INTRA:          -7.755
REMARK INTER:                  -6.740
REMARK INTRA:                  -1.015
REMARK UNBOUND:                -0.900
REMARK SMILES CC[C@@H](C=C[C@@H](C)[C@@H]1CC[C@@H]2C3=CC[C@H]4C[C@@H](O)CC[C@]4(C)[C@H]3CC[C@@]21C)C(C)C
REMARK SMILES IDX 6 1 7 2 5 3 4 4 3 5 2 6 1 7 28 8 29 9 30 10 8 11 9 12 26 13
REMARK SMILES IDX 10 14 11 15 25 16 27 17 12 18 24 19 23 20 13 21 21 22 14 23
REMARK SMILES IDX 15 24 20 25 22 26 16 27 19 28 17 29 18 30
REMARK H PARENT 18 31
REMARK Flexibility Score: inf
ROOT
ATOM      1  C   UNL     1      -1.933   5.770  -1.811  1.00  0.00     0.012 C 
ATOM      2  C   UNL     1      -1.427   4.537  -1.039  1.00  0.00     0.012 C 
ENDROOT
BRANCH   1   3
ATOM      3  C   UNL     1      -1.800   7.014  -0.952  1.00  0.00    -0.028 C 
ATOM      4  C   UNL     1      -1.221   7.011   0.262  1.00  0.00    -0.027 C 
BRANCH   4   5
ATOM      5  C   UNL     1      -1.231   8.244   1.149  1.00  0.00     0.014 C 
BRANCH   5   6
ATOM      6  C   UNL     1       0.162   8.567   1.776  1.00  0.00     0.004 C 
ATOM      7  C   UNL     1       1.031   9.567   1.001  1.00  0.00     0.004 C 
ENDBRANCH   5   6
BRANCH   5   8
ATOM      8  C   UNL     1      -2.420   8.206   2.158  1.00  0.00    -0.011 C 
ATOM      9  C   UNL     1      -3.595   9.083   1.700  1.00  0.00     0.008 C 
ATOM     10  C   UNL     1      -2.023   8.551   3.600  1.00  0.00     0.008 C 
ENDBRANCH   5   8
ENDBRANCH   4   5
ENDBRANCH   1   3
BRANCH   1  11
ATOM     11  C   UNL     1      -3.396   5.581  -2.328  1.00  0.00     0.002 C 
ATOM     12  C   UNL     1      -4.150   4.502  -1.547  1.00  0.00     0.005 C 
ATOM     13  C   UNL     1      -3.599   5.228  -3.842  1.00  0.00    -0.023 C 
ATOM     14  C   UNL     1      -5.288   4.034  -2.442  1.00  0.00     0.009 C 
ATOM     15  C   UNL     1      -4.986   4.519  -3.868  1.00  0.00     0.021 C 
ATOM     16  C   UNL     1      -2.477   4.319  -4.463  1.00  0.00     0.008 C 
ATOM     17  C   UNL     1      -3.683   6.519  -4.695  1.00  0.00     0.012 C 
ATOM     18  C   UNL     1      -5.044   3.369  -4.866  1.00  0.00    -0.067 C 
ATOM     19  C   UNL     1      -2.657   2.821  -4.188  1.00  0.00     0.009 C 
ATOM     20  C   UNL     1      -3.992   2.264  -4.760  1.00  0.00     0.021 C 
ATOM     21  C   UNL     1      -6.070   3.298  -5.744  1.00  0.00    -0.027 C 
ATOM     22  C   UNL     1      -3.853   1.427  -6.086  1.00  0.00    -0.023 C 
ATOM     23  C   UNL     1      -6.175   2.245  -6.814  1.00  0.00     0.031 C 
ATOM     24  C   UNL     1      -5.303   1.016  -6.511  1.00  0.00     0.002 C 
ATOM     25  C   UNL     1      -3.044   0.118  -5.808  1.00  0.00     0.010 C 
ATOM     26  C   UNL     1      -3.137   2.262  -7.186  1.00  0.00     0.012 C 
ATOM     27  C   UNL     1      -5.335   0.018  -7.686  1.00  0.00     0.036 C 
ATOM     28  C   UNL     1      -3.088  -0.881  -6.976  1.00  0.00     0.032 C 
ATOM     29  C   UNL     1      -4.526  -1.245  -7.350  1.00  0.00     0.114 C 
BRANCH  29  30
ATOM     30  O   UNL     1      -4.505  -2.112  -8.453  1.00  0.00    -0.393 OA
ATOM     31  H   UNL     1      -4.446  -1.538  -9.262  1.00  0.00     0.210 HD
ENDBRANCH  29  30
ENDBRANCH   1  11
TORSDOF 6
ENDMDL
MODEL 6
REMARK VINA RESULT:    -5.136      1.181      2.088
REMARK INTER + INTRA:          -7.688
REMARK INTER:                  -6.679
REMARK INTRA:                  -1.009
REMARK UNBOUND:                -0.900
REMARK SMILES CC[C@@H](C=C[C@@H](C)[C@@H]1CC[C@@H]2C3=CC[C@H]4C[C@@H](O)CC[C@]4(C)[C@H]3CC[C@@]21C)C(C)C
REMARK SMILES IDX 6 1 7 2 5 3 4 4 3 5 2 6 1 7 28 8 29 9 30 10 8 11 9 12 26 13
REMARK SMILES IDX 10 14 11 15 25 16 27 17 12 18 24 19 23 20 13 21 21 22 14 23
REMARK SMILES IDX 15 24 20 25 22 26 16 27 19 28 17 29 18 30
REMARK H PARENT 18 31
REMARK Flexibility Score: inf
ROOT
ATOM      1  C   UNL     1       6.073   2.344  -0.541  1.00  0.00     0.012 C 
ATOM      2  C   UNL     1       5.862   3.726   0.106  1.00  0.00     0.012 C 
ENDROOT
BRANCH   1   3
ATOM      3  C   UNL     1       6.530   1.344   0.504  1.00  0.00    -0.028 C 
ATOM      4  C   UNL     1       7.578   1.559   1.320  1.00  0.00    -0.027 C 
BRANCH   4   5
ATOM      5  C   UNL     1       8.090   0.478   2.257  1.00  0.00     0.014 C 
BRANCH   5   6
ATOM      6  C   UNL     1       8.659   1.039   3.598  1.00  0.00     0.004 C 
ATOM      7  C   UNL     1       7.858   2.177   4.244  1.00  0.00     0.004 C 
ENDBRANCH   5   6
BRANCH   5   8
ATOM      8  C   UNL     1       9.022  -0.524   1.508  1.00  0.00    -0.011 C 
ATOM      9  C   UNL     1       9.719   0.124   0.303  1.00  0.00     0.008 C 
ATOM     10  C   UNL     1       8.326  -1.826   1.089  1.00  0.00     0.008 C 
ENDBRANCH   5   8
ENDBRANCH   4   5
ENDBRANCH   1   3
BRANCH   1  11
ATOM     11  C   UNL     1       7.061   2.405  -1.751  1.00  0.00     0.002 C 
ATOM     12  C   UNL     1       8.081   3.538  -1.607  1.00  0.00     0.005 C 
ATOM     13  C   UNL     1       6.453   2.563  -3.187  1.00  0.00    -0.023 C 
ATOM     14  C   UNL     1       8.590   3.844  -3.008  1.00  0.00     0.009 C 
ATOM     15  C   UNL     1       7.614   3.203  -4.006  1.00  0.00     0.021 C 
ATOM     16  C   UNL     1       5.149   3.437  -3.258  1.00  0.00     0.008 C 
ATOM     17  C   UNL     1       6.122   1.176  -3.792  1.00  0.00     0.012 C 
ATOM     18  C   UNL     1       7.125   4.220  -5.030  1.00  0.00    -0.067 C 
ATOM     19  C   UNL     1       5.407   4.949  -3.306  1.00  0.00     0.009 C 
ATOM     20  C   UNL     1       6.248   5.374  -4.544  1.00  0.00     0.021 C 
ATOM     21  C   UNL     1       7.556   4.139  -6.309  1.00  0.00    -0.027 C 
ATOM     22  C   UNL     1       5.430   6.049  -5.707  1.00  0.00    -0.023 C 
ATOM     23  C   UNL     1       7.073   5.049  -7.406  1.00  0.00     0.031 C 
ATOM     24  C   UNL     1       6.448   6.342  -6.860  1.00  0.00     0.002 C 
ATOM     25  C   UNL     1       4.844   7.416  -5.224  1.00  0.00     0.010 C 
ATOM     26  C   UNL     1       4.273   5.118  -6.172  1.00  0.00     0.012 C 
ATOM     27  C   UNL     1       5.850   7.188  -8.002  1.00  0.00     0.036 C 
ATOM     28  C   UNL     1       4.259   8.263  -6.366  1.00  0.00     0.032 C 
ATOM     29  C   UNL     1       5.296   8.516  -7.463  1.00  0.00     0.114 C 
BRANCH  29  30
ATOM     30  O   UNL     1       4.692   9.243  -8.501  1.00  0.00    -0.393 OA
ATOM     31  H   UNL     1       5.190  10.101  -8.572  1.00  0.00     0.210 HD
ENDBRANCH  29  30
ENDBRANCH   1  11
TORSDOF 6
ENDMDL
MODEL 7
REMARK VINA RESULT:    -5.121      1.584      2.877
REMARK INTER + INTRA:          -7.668
REMARK INTER:                  -6.488
REMARK INTRA:                  -1.180
REMARK UNBOUND:                -0.900
REMARK SMILES CC[C@@H](C=C[C@@H](C)[C@@H]1CC[C@@H]2C3=CC[C@H]4C[C@@H](O)CC[C@]4(C)[C@H]3CC[C@@]21C)C(C)C
REMARK SMILES IDX 6 1 7 2 5 3 4 4 3 5 2 6 1 7 28 8 29 9 30 10 8 11 9 12 26 13
REMARK SMILES IDX 10 14 11 15 25 16 27 17 12 18 24 19 23 20 13 21 21 22 14 23
REMARK SMILES IDX 15 24 20 25 22 26 16 27 19 28 17 29 18 30
REMARK H PARENT 18 31
REMARK Flexibility Score: inf
ROOT
ATOM      1  C   UNL     1       7.850   0.355  -0.235  1.00  0.00     0.012 C 
ATOM      2  C   UNL     1       6.765  -0.717  -0.452  1.00  0.00     0.012 C 
ENDROOT
BRANCH   1   3
ATOM      3  C   UNL     1       8.676   0.021   0.991  1.00  0.00    -0.028 C 
ATOM      4  C   UNL     1       8.214   0.149   2.248  1.00  0.00    -0.027 C 
BRANCH   4   5
ATOM      5  C   UNL     1       9.116  -0.063   3.452  1.00  0.00     0.014 C 
BRANCH   5   6
ATOM      6  C   UNL     1       9.019  -1.500   4.053  1.00  0.00     0.004 C 
ATOM      7  C   UNL     1       9.777  -2.598   3.296  1.00  0.00     0.004 C 
ENDBRANCH   5   6
BRANCH   5   8
ATOM      8  C   UNL     1       8.967   1.099   4.482  1.00  0.00    -0.011 C 
ATOM      9  C   UNL     1       8.743   0.580   5.910  1.00  0.00     0.008 C 
ATOM     10  C   UNL     1       7.891   2.127   4.109  1.00  0.00     0.008 C 
ENDBRANCH   5   8
ENDBRANCH   4   5
ENDBRANCH   1   3
BRANCH   1  11
ATOM     11  C   UNL     1       7.245   1.794  -0.147  1.00  0.00     0.002 C 
ATOM     12  C   UNL     1       5.745   1.774   0.161  1.00  0.00     0.005 C 
ATOM     13  C   UNL     1       7.408   2.736  -1.390  1.00  0.00    -0.023 C 
ATOM     14  C   UNL     1       5.187   3.108  -0.309  1.00  0.00     0.009 C 
ATOM     15  C   UNL     1       6.230   3.745  -1.240  1.00  0.00     0.021 C 
ATOM     16  C   UNL     1       7.365   2.005  -2.781  1.00  0.00     0.008 C 
ATOM     17  C   UNL     1       8.745   3.515  -1.310  1.00  0.00     0.012 C 
ATOM     18  C   UNL     1       5.612   4.136  -2.576  1.00  0.00    -0.067 C 
ATOM     19  C   UNL     1       5.950   1.724  -3.300  1.00  0.00     0.009 C 
ATOM     20  C   UNL     1       5.116   3.022  -3.500  1.00  0.00     0.021 C 
ATOM     21  C   UNL     1       5.423   5.443  -2.868  1.00  0.00    -0.027 C 
ATOM     22  C   UNL     1       4.960   3.493  -4.993  1.00  0.00    -0.023 C 
ATOM     23  C   UNL     1       4.891   5.930  -4.189  1.00  0.00     0.031 C 
ATOM     24  C   UNL     1       4.144   4.829  -4.959  1.00  0.00     0.002 C 
ATOM     25  C   UNL     1       4.128   2.443  -5.799  1.00  0.00     0.010 C 
ATOM     26  C   UNL     1       6.355   3.678  -5.656  1.00  0.00     0.012 C 
ATOM     27  C   UNL     1       3.726   5.325  -6.358  1.00  0.00     0.036 C 
ATOM     28  C   UNL     1       3.702   2.944  -7.189  1.00  0.00     0.032 C 
ATOM     29  C   UNL     1       2.912   4.251  -7.096  1.00  0.00     0.114 C 
BRANCH  29  30
ATOM     30  O   UNL     1       2.600   4.689  -8.392  1.00  0.00    -0.393 OA
ATOM     31  H   UNL     1       1.793   5.264  -8.310  1.00  0.00     0.210 HD
ENDBRANCH  29  30
ENDBRANCH   1  11
TORSDOF 6
ENDMDL
MODEL 8
REMARK VINA RESULT:    -5.048      8.163     10.787
REMARK INTER + INTRA:          -7.572
REMARK INTER:                  -6.430
REMARK INTRA:                  -1.143
REMARK UNBOUND:                -0.900
REMARK SMILES CC[C@@H](C=C[C@@H](C)[C@@H]1CC[C@@H]2C3=CC[C@H]4C[C@@H](O)CC[C@]4(C)[C@H]3CC[C@@]21C)C(C)C
REMARK SMILES IDX 6 1 7 2 5 3 4 4 3 5 2 6 1 7 28 8 29 9 30 10 8 11 9 12 26 13
REMARK SMILES IDX 10 14 11 15 25 16 27 17 12 18 24 19 23 20 13 21 21 22 14 23
REMARK SMILES IDX 15 24 20 25 22 26 16 27 19 28 17 29 18 30
REMARK H PARENT 18 31
REMARK Flexibility Score: inf
ROOT
ATOM      1  C   UNL     1       4.477  -2.180  -2.256  1.00  0.00     0.012 C 
ATOM      2  C   UNL     1       5.520  -1.928  -3.362  1.00  0.00     0.012 C 
ENDROOT
BRANCH   1   3
ATOM      3  C   UNL     1       4.732  -1.259  -1.078  1.00  0.00    -0.028 C 
ATOM      4  C   UNL     1       5.340  -0.064  -1.197  1.00  0.00    -0.027 C 
BRANCH   4   5
ATOM      5  C   UNL     1       5.701   0.766   0.023  1.00  0.00     0.014 C 
BRANCH   5   6
ATOM      6  C   UNL     1       5.427   2.292  -0.163  1.00  0.00     0.004 C 
ATOM      7  C   UNL     1       5.621   2.841  -1.583  1.00  0.00     0.004 C 
ENDBRANCH   5   6
BRANCH   5   8
ATOM      8  C   UNL     1       7.125   0.407   0.550  1.00  0.00    -0.011 C 
ATOM      9  C   UNL     1       7.697   1.503   1.463  1.00  0.00     0.008 C 
ATOM     10  C   UNL     1       8.127   0.053  -0.556  1.00  0.00     0.008 C 
ENDBRANCH   5   8
ENDBRANCH   4   5
ENDBRANCH   1   3
BRANCH   1  11
ATOM     11  C   UNL     1       4.437  -3.680  -1.817  1.00  0.00     0.002 C 
ATOM     12  C   UNL     1       5.477  -4.527  -2.555  1.00  0.00     0.005 C 
ATOM     13  C   UNL     1       3.080  -4.452  -1.965  1.00  0.00    -0.023 C 
ATOM     14  C   UNL     1       4.998  -5.968  -2.476  1.00  0.00     0.009 C 
ATOM     15  C   UNL     1       3.519  -5.943  -2.063  1.00  0.00     0.021 C 
ATOM     16  C   UNL     1       2.211  -4.025  -3.203  1.00  0.00     0.008 C 
ATOM     17  C   UNL     1       2.211  -4.270  -0.696  1.00  0.00     0.012 C 
ATOM     18  C   UNL     1       2.662  -6.750  -3.030  1.00  0.00    -0.067 C 
ATOM     19  C   UNL     1       2.624  -4.693  -4.521  1.00  0.00     0.009 C 
ATOM     20  C   UNL     1       2.518  -6.244  -4.466  1.00  0.00     0.021 C 
ATOM     21  C   UNL     1       2.139  -7.932  -2.633  1.00  0.00    -0.027 C 
ATOM     22  C   UNL     1       1.269  -6.854  -5.204  1.00  0.00    -0.023 C 
ATOM     23  C   UNL     1       1.221  -8.763  -3.489  1.00  0.00     0.031 C 
ATOM     24  C   UNL     1       1.327  -8.403  -4.979  1.00  0.00     0.002 C 
ATOM     25  C   UNL     1       1.375  -6.588  -6.741  1.00  0.00     0.010 C 
ATOM     26  C   UNL     1      -0.048  -6.233  -4.654  1.00  0.00     0.012 C 
ATOM     27  C   UNL     1       0.284  -9.179  -5.807  1.00  0.00     0.036 C 
ATOM     28  C   UNL     1       0.342  -7.373  -7.566  1.00  0.00     0.032 C 
ATOM     29  C   UNL     1       0.442  -8.877  -7.305  1.00  0.00     0.114 C 
BRANCH  29  30
ATOM     30  O   UNL     1      -0.557  -9.535  -8.038  1.00  0.00    -0.393 OA
ATOM     31  H   UNL     1      -0.136 -10.348  -8.425  1.00  0.00     0.210 HD
ENDBRANCH  29  30
ENDBRANCH   1  11
TORSDOF 6
ENDMDL
MODEL 9
REMARK VINA RESULT:    -4.977      1.775      3.916
REMARK INTER + INTRA:          -7.477
REMARK INTER:                  -6.199
REMARK INTRA:                  -1.278
REMARK UNBOUND:                -0.900
REMARK SMILES CC[C@@H](C=C[C@@H](C)[C@@H]1CC[C@@H]2C3=CC[C@H]4C[C@@H](O)CC[C@]4(C)[C@H]3CC[C@@]21C)C(C)C
REMARK SMILES IDX 6 1 7 2 5 3 4 4 3 5 2 6 1 7 28 8 29 9 30 10 8 11 9 12 26 13
REMARK SMILES IDX 10 14 11 15 25 16 27 17 12 18 24 19 23 20 13 21 21 22 14 23
REMARK SMILES IDX 15 24 20 25 22 26 16 27 19 28 17 29 18 30
REMARK H PARENT 18 31
REMARK Flexibility Score: inf
ROOT
ATOM      1  C   UNL     1       8.936  -0.878   1.376  1.00  0.00     0.012 C 
ATOM      2  C   UNL     1       8.834  -2.415   1.366  1.00  0.00     0.012 C 
ENDROOT
BRANCH   1   3
ATOM      3  C   UNL     1       9.520  -0.403   2.694  1.00  0.00    -0.028 C 
ATOM      4  C   UNL     1       8.815  -0.364   3.839  1.00  0.00    -0.027 C 
BRANCH   4   5
ATOM      5  C   UNL     1       9.391   0.247   5.105  1.00  0.00     0.014 C 
BRANCH   5   6
ATOM      6  C   UNL     1       9.081  -0.583   6.390  1.00  0.00     0.004 C 
ATOM      7  C   UNL     1       7.935  -1.597   6.274  1.00  0.00     0.004 C 
ENDBRANCH   5   6
BRANCH   5   8
ATOM      8  C   UNL     1       9.058   1.769   5.202  1.00  0.00    -0.011 C 
ATOM      9  C   UNL     1       9.966   2.497   6.204  1.00  0.00     0.008 C 
ATOM     10  C   UNL     1       7.583   2.064   5.501  1.00  0.00     0.008 C 
ENDBRANCH   5   8
ENDBRANCH   4   5
ENDBRANCH   1   3
BRANCH   1  11
ATOM     11  C   UNL     1       7.562  -0.195   1.076  1.00  0.00     0.002 C 
ATOM     12  C   UNL     1       6.756  -0.958   0.021  1.00  0.00     0.005 C 
ATOM     13  C   UNL     1       7.574   1.299   0.600  1.00  0.00    -0.023 C 
ATOM     14  C   UNL     1       5.765   0.033  -0.568  1.00  0.00     0.009 C 
ATOM     15  C   UNL     1       6.232   1.444  -0.178  1.00  0.00     0.021 C 
ATOM     16  C   UNL     1       8.803   1.696  -0.296  1.00  0.00     0.008 C 
ATOM     17  C   UNL     1       7.551   2.257   1.817  1.00  0.00     0.012 C 
ATOM     18  C   UNL     1       6.351   2.344  -1.401  1.00  0.00    -0.067 C 
ATOM     19  C   UNL     1       8.648   1.325  -1.776  1.00  0.00     0.009 C 
ATOM     20  C   UNL     1       7.423   2.016  -2.441  1.00  0.00     0.021 C 
ATOM     21  C   UNL     1       5.453   3.337  -1.589  1.00  0.00    -0.027 C 
ATOM     22  C   UNL     1       7.768   3.241  -3.367  1.00  0.00    -0.023 C 
ATOM     23  C   UNL     1       5.531   4.323  -2.724  1.00  0.00     0.031 C 
ATOM     24  C   UNL     1       6.404   3.813  -3.881  1.00  0.00     0.002 C 
ATOM     25  C   UNL     1       8.585   2.757  -4.609  1.00  0.00     0.010 C 
ATOM     26  C   UNL     1       8.589   4.305  -2.582  1.00  0.00     0.012 C 
ATOM     27  C   UNL     1       6.567   4.897  -4.965  1.00  0.00     0.036 C 
ATOM     28  C   UNL     1       8.736   3.836  -5.694  1.00  0.00     0.032 C 
ATOM     29  C   UNL     1       7.374   4.359  -6.157  1.00  0.00     0.114 C 
BRANCH  29  30
ATOM     30  O   UNL     1       7.574   5.377  -7.102  1.00  0.00    -0.393 OA
ATOM     31  H   UNL     1       6.730   5.901  -7.136  1.00  0.00     0.210 HD
ENDBRANCH  29  30
ENDBRANCH   1  11
TORSDOF 6
ENDMDL
