MODEL 1
REMARK VINA RESULT:    -5.158      0.000      0.000
REMARK INTER + INTRA:          -5.966
REMARK INTER:                  -5.761
REMARK INTRA:                  -0.206
REMARK UNBOUND:                -0.206
REMARK SMILES CC(C)c1ccc(C(=O)[O-])cc1
REMARK SMILES IDX 7 1 6 2 11 3 5 4 12 5 4 6 8 7 9 8 10 9 2 10 1 11 3 12
REMARK H PARENT
REMARK Flexibility Score: inf
ROOT
ATOM      1  C   UNL     1      10.717  -5.582  15.762  1.00  0.00    -0.003 A 
ATOM      2  C   UNL     1      12.082  -5.306  15.579  1.00  0.00     0.010 A 
ATOM      3  C   UNL     1       9.874  -5.621  14.637  1.00  0.00     0.010 A 
ATOM      4  C   UNL     1      12.595  -5.073  14.300  1.00  0.00     0.004 A 
ATOM      5  C   UNL     1      10.387  -5.388  13.358  1.00  0.00     0.004 A 
ATOM      6  C   UNL     1      11.754  -5.111  13.175  1.00  0.00    -0.045 A 
ENDROOT
BRANCH   1   7
ATOM      7  C   UNL     1      10.178  -5.828  17.117  1.00  0.00     0.071 C 
ATOM      8  O   UNL     1       9.287  -5.079  17.598  1.00  0.00    -0.545 OA
ATOM      9  O   UNL     1      10.649  -6.890  17.879  1.00  0.00    -0.545 OA
ENDBRANCH   1   7
BRANCH   6  10
ATOM     10  C   UNL     1      12.325  -4.857  11.793  1.00  0.00     0.013 C 
ATOM     11  C   UNL     1      12.673  -6.173  11.087  1.00  0.00     0.012 C 
ATOM     12  C   UNL     1      13.544  -3.928  11.860  1.00  0.00     0.012 C 
ENDBRANCH   6  10
TORSDOF 2
ENDMDL
MODEL 2
REMARK VINA RESULT:    -5.097      3.159      5.055
REMARK INTER + INTRA:          -5.899
REMARK INTER:                  -5.692
REMARK INTRA:                  -0.207
REMARK UNBOUND:                -0.206
REMARK SMILES CC(C)c1ccc(C(=O)[O-])cc1
REMARK SMILES IDX 7 1 6 2 11 3 5 4 12 5 4 6 8 7 9 8 10 9 2 10 1 11 3 12
REMARK H PARENT
REMARK Flexibility Score: inf
ROOT
ATOM      1  C   UNL     1      12.243  -5.066  13.056  1.00  0.00    -0.003 A 
ATOM      2  C   UNL     1      12.855  -5.015  14.319  1.00  0.00     0.010 A 
ATOM      3  C   UNL     1      10.865  -5.333  12.978  1.00  0.00     0.010 A 
ATOM      4  C   UNL     1      12.106  -5.224  15.481  1.00  0.00     0.004 A 
ATOM      5  C   UNL     1      10.116  -5.542  14.140  1.00  0.00     0.004 A 
ATOM      6  C   UNL     1      10.729  -5.490  15.405  1.00  0.00    -0.045 A 
ENDROOT
BRANCH   1   7
ATOM      7  C   UNL     1      13.039  -4.843  11.830  1.00  0.00     0.071 C 
ATOM      8  O   UNL     1      13.881  -3.908  11.774  1.00  0.00    -0.545 OA
ATOM      9  O   UNL     1      12.869  -5.663  10.721  1.00  0.00    -0.545 OA
ENDBRANCH   1   7
BRANCH   6  10
ATOM     10  C   UNL     1       9.929  -5.716  16.674  1.00  0.00     0.013 C 
ATOM     11  C   UNL     1       9.461  -4.386  17.276  1.00  0.00     0.012 C 
ATOM     12  C   UNL     1      10.730  -6.532  17.695  1.00  0.00     0.012 C 
ENDBRANCH   6  10
TORSDOF 2
ENDMDL
MODEL 3
REMARK VINA RESULT:    -5.080      3.142      5.241
REMARK INTER + INTRA:          -5.880
REMARK INTER:                  -5.674
REMARK INTRA:                  -0.206
REMARK UNBOUND:                -0.206
REMARK SMILES CC(C)c1ccc(C(=O)[O-])cc1
REMARK SMILES IDX 7 1 6 2 11 3 5 4 12 5 4 6 8 7 9 8 10 9 2 10 1 11 3 12
REMARK H PARENT
REMARK Flexibility Score: inf
ROOT
ATOM      1  C   UNL     1      12.213  -5.093  13.087  1.00  0.00    -0.003 A 
ATOM      2  C   UNL     1      10.839  -5.374  13.007  1.00  0.00     0.010 A 
ATOM      3  C   UNL     1      12.818  -5.007  14.353  1.00  0.00     0.010 A 
ATOM      4  C   UNL     1      10.084  -5.566  14.168  1.00  0.00     0.004 A 
ATOM      5  C   UNL     1      12.063  -5.200  15.514  1.00  0.00     0.004 A 
ATOM      6  C   UNL     1      10.687  -5.482  15.434  1.00  0.00    -0.045 A 
ENDROOT
BRANCH   1   7
ATOM      7  C   UNL     1      13.007  -4.891  11.856  1.00  0.00     0.071 C 
ATOM      8  O   UNL     1      13.885  -3.988  11.801  1.00  0.00    -0.545 OA
ATOM      9  O   UNL     1      12.796  -5.694  10.742  1.00  0.00    -0.545 OA
ENDBRANCH   1   7
BRANCH   6  10
ATOM     10  C   UNL     1       9.856  -5.693  16.686  1.00  0.00     0.013 C 
ATOM     11  C   UNL     1       9.401  -4.354  17.279  1.00  0.00     0.012 C 
ATOM     12  C   UNL     1      10.619  -6.525  17.723  1.00  0.00     0.012 C 
ENDBRANCH   6  10
TORSDOF 2
ENDMDL
MODEL 4
REMARK VINA RESULT:    -5.048      7.029      9.189
REMARK INTER + INTRA:          -5.844
REMARK INTER:                  -5.638
REMARK INTRA:                  -0.207
REMARK UNBOUND:                -0.206
REMARK SMILES CC(C)c1ccc(C(=O)[O-])cc1
REMARK SMILES IDX 7 1 6 2 11 3 5 4 12 5 4 6 8 7 9 8 10 9 2 10 1 11 3 12
REMARK H PARENT
REMARK Flexibility Score: inf
ROOT
ATOM      1  C   UNL     1      13.647 -11.342   7.624  1.00  0.00    -0.003 A 
ATOM      2  C   UNL     1      13.971 -10.145   6.966  1.00  0.00     0.010 A 
ATOM      3  C   UNL     1      13.559 -11.344   9.028  1.00  0.00     0.010 A 
ATOM      4  C   UNL     1      14.201  -8.973   7.692  1.00  0.00     0.004 A 
ATOM      5  C   UNL     1      13.789 -10.173   9.754  1.00  0.00     0.004 A 
ATOM      6  C   UNL     1      14.112  -8.973   9.095  1.00  0.00    -0.045 A 
ENDROOT
BRANCH   1   7
ATOM      7  C   UNL     1      13.404 -12.579   6.851  1.00  0.00     0.071 C 
ATOM      8  O   UNL     1      13.064 -12.521   5.640  1.00  0.00    -0.545 OA
ATOM      9  O   UNL     1      13.547 -13.824   7.451  1.00  0.00    -0.545 OA
ENDBRANCH   1   7
BRANCH   6  10
ATOM     10  C   UNL     1      14.365  -7.694   9.871  1.00  0.00     0.013 C 
ATOM     11  C   UNL     1      15.703  -7.756  10.618  1.00  0.00     0.012 C 
ATOM     12  C   UNL     1      13.209  -7.394  10.833  1.00  0.00     0.012 C 
ENDBRANCH   6  10
TORSDOF 2
ENDMDL
MODEL 5
REMARK VINA RESULT:    -4.917      0.709      2.042
REMARK INTER + INTRA:          -5.697
REMARK INTER:                  -5.490
REMARK INTRA:                  -0.207
REMARK UNBOUND:                -0.206
REMARK SMILES CC(C)c1ccc(C(=O)[O-])cc1
REMARK SMILES IDX 7 1 6 2 11 3 5 4 12 5 4 6 8 7 9 8 10 9 2 10 1 11 3 12
REMARK H PARENT
REMARK Flexibility Score: inf
ROOT
ATOM      1  C   UNL     1      10.426  -5.432  16.017  1.00  0.00    -0.003 A 
ATOM      2  C   UNL     1       9.832  -5.531  14.748  1.00  0.00     0.010 A 
ATOM      3  C   UNL     1      11.819  -5.263  16.104  1.00  0.00     0.010 A 
ATOM      4  C   UNL     1      10.612  -5.461  13.590  1.00  0.00     0.004 A 
ATOM      5  C   UNL     1      12.599  -5.193  14.947  1.00  0.00     0.004 A 
ATOM      6  C   UNL     1      12.004  -5.292  13.676  1.00  0.00    -0.045 A 
ENDROOT
BRANCH   1   7
ATOM      7  C   UNL     1       9.597  -5.506  17.239  1.00  0.00     0.071 C 
ATOM      8  O   UNL     1       9.352  -6.616  17.782  1.00  0.00    -0.545 OA
ATOM      9  O   UNL     1       9.075  -4.350  17.806  1.00  0.00    -0.545 OA
ENDBRANCH   1   7
BRANCH   6  10
ATOM     10  C   UNL     1      12.838  -5.218  12.411  1.00  0.00     0.013 C 
ATOM     11  C   UNL     1      13.488  -3.837  12.257  1.00  0.00     0.012 C 
ATOM     12  C   UNL     1      12.003  -5.576  11.176  1.00  0.00     0.012 C 
ENDBRANCH   6  10
TORSDOF 2
ENDMDL
MODEL 6
REMARK VINA RESULT:    -4.900      7.015      8.718
REMARK INTER + INTRA:          -5.679
REMARK INTER:                  -5.471
REMARK INTRA:                  -0.208
REMARK UNBOUND:                -0.206
REMARK SMILES CC(C)c1ccc(C(=O)[O-])cc1
REMARK SMILES IDX 7 1 6 2 11 3 5 4 12 5 4 6 8 7 9 8 10 9 2 10 1 11 3 12
REMARK H PARENT
REMARK Flexibility Score: inf
ROOT
ATOM      1  C   UNL     1      13.793  -9.634   9.105  1.00  0.00    -0.003 A 
ATOM      2  C   UNL     1      13.389  -9.428  10.434  1.00  0.00     0.010 A 
ATOM      3  C   UNL     1      13.763 -10.938   8.579  1.00  0.00     0.010 A 
ATOM      4  C   UNL     1      12.963 -10.501  11.222  1.00  0.00     0.004 A 
ATOM      5  C   UNL     1      13.337 -12.011   9.366  1.00  0.00     0.004 A 
ATOM      6  C   UNL     1      12.932 -11.804  10.698  1.00  0.00    -0.045 A 
ENDROOT
BRANCH   1   7
ATOM      7  C   UNL     1      14.243  -8.496   8.275  1.00  0.00     0.071 C 
ATOM      8  O   UNL     1      15.046  -7.643   8.738  1.00  0.00    -0.545 OA
ATOM      9  O   UNL     1      13.784  -8.350   6.972  1.00  0.00    -0.545 OA
ENDBRANCH   1   7
BRANCH   6  10
ATOM     10  C   UNL     1      12.467 -12.960  11.564  1.00  0.00     0.013 C 
ATOM     11  C   UNL     1      11.553 -12.471  12.694  1.00  0.00     0.012 C 
ATOM     12  C   UNL     1      13.659 -13.748  12.121  1.00  0.00     0.012 C 
ENDBRANCH   6  10
TORSDOF 2
ENDMDL
MODEL 7
REMARK VINA RESULT:    -4.806     10.319     12.549
REMARK INTER + INTRA:          -5.573
REMARK INTER:                  -5.358
REMARK INTRA:                  -0.215
REMARK UNBOUND:                -0.206
REMARK SMILES CC(C)c1ccc(C(=O)[O-])cc1
REMARK SMILES IDX 7 1 6 2 11 3 5 4 12 5 4 6 8 7 9 8 10 9 2 10 1 11 3 12
REMARK H PARENT
REMARK Flexibility Score: inf
ROOT
ATOM      1  C   UNL     1      13.376 -12.689   6.685  1.00  0.00    -0.003 A 
ATOM      2  C   UNL     1      12.705 -12.547   5.459  1.00  0.00     0.010 A 
ATOM      3  C   UNL     1      13.572 -13.980   7.207  1.00  0.00     0.010 A 
ATOM      4  C   UNL     1      12.239 -13.669   4.769  1.00  0.00     0.004 A 
ATOM      5  C   UNL     1      13.106 -15.102   6.517  1.00  0.00     0.004 A 
ATOM      6  C   UNL     1      12.434 -14.960   5.289  1.00  0.00    -0.045 A 
ENDROOT
BRANCH   1   7
ATOM      7  C   UNL     1      13.867 -11.499   7.411  1.00  0.00     0.071 C 
ATOM      8  O   UNL     1      14.614 -10.661   6.838  1.00  0.00    -0.545 OA
ATOM      9  O   UNL     1      13.513 -11.287   8.738  1.00  0.00    -0.545 OA
ENDBRANCH   1   7
BRANCH   6  10
ATOM     10  C   UNL     1      11.923 -16.169   4.529  1.00  0.00     0.013 C 
ATOM     11  C   UNL     1      10.756 -15.791   3.609  1.00  0.00     0.012 C 
ATOM     12  C   UNL     1      11.526 -17.298   5.488  1.00  0.00     0.012 C 
ENDBRANCH   6  10
TORSDOF 2
ENDMDL
MODEL 8
REMARK VINA RESULT:    -4.498     11.725     13.365
REMARK INTER + INTRA:          -5.229
REMARK INTER:                  -5.022
REMARK INTRA:                  -0.208
REMARK UNBOUND:                -0.206
REMARK SMILES CC(C)c1ccc(C(=O)[O-])cc1
REMARK SMILES IDX 7 1 6 2 11 3 5 4 12 5 4 6 8 7 9 8 10 9 2 10 1 11 3 12
REMARK H PARENT
REMARK Flexibility Score: inf
ROOT
ATOM      1  C   UNL     1       3.262 -15.868  14.613  1.00  0.00    -0.003 A 
ATOM      2  C   UNL     1       4.206 -15.834  15.652  1.00  0.00     0.010 A 
ATOM      3  C   UNL     1       2.245 -14.897  14.585  1.00  0.00     0.010 A 
ATOM      4  C   UNL     1       4.137 -14.851  16.643  1.00  0.00     0.004 A 
ATOM      5  C   UNL     1       2.176 -13.914  15.576  1.00  0.00     0.004 A 
ATOM      6  C   UNL     1       3.122 -13.880  16.617  1.00  0.00    -0.045 A 
ENDROOT
BRANCH   1   7
ATOM      7  C   UNL     1       3.340 -16.909  13.566  1.00  0.00     0.071 C 
ATOM      8  O   UNL     1       3.219 -16.605  12.349  1.00  0.00    -0.545 OA
ATOM      9  O   UNL     1       3.547 -18.240  13.910  1.00  0.00    -0.545 OA
ENDBRANCH   1   7
BRANCH   6  10
ATOM     10  C   UNL     1       3.058 -12.819  17.700  1.00  0.00     0.013 C 
ATOM     11  C   UNL     1       4.459 -12.485  18.228  1.00  0.00     0.012 C 
ATOM     12  C   UNL     1       2.126 -13.247  18.839  1.00  0.00     0.012 C 
ENDBRANCH   6  10
TORSDOF 2
ENDMDL
MODEL 9
REMARK VINA RESULT:    -4.446      2.796      6.097
REMARK INTER + INTRA:          -5.172
REMARK INTER:                  -4.966
REMARK INTRA:                  -0.205
REMARK UNBOUND:                -0.206
REMARK SMILES CC(C)c1ccc(C(=O)[O-])cc1
REMARK SMILES IDX 7 1 6 2 11 3 5 4 12 5 4 6 8 7 9 8 10 9 2 10 1 11 3 12
REMARK H PARENT
REMARK Flexibility Score: inf
ROOT
ATOM      1  C   UNL     1      10.637  -5.377  16.245  1.00  0.00    -0.003 A 
ATOM      2  C   UNL     1       9.713  -4.417  16.687  1.00  0.00     0.010 A 
ATOM      3  C   UNL     1      11.078  -6.362  17.146  1.00  0.00     0.010 A 
ATOM      4  C   UNL     1       9.237  -4.439  18.001  1.00  0.00     0.004 A 
ATOM      5  C   UNL     1      10.603  -6.385  18.460  1.00  0.00     0.004 A 
ATOM      6  C   UNL     1       9.677  -5.423  18.903  1.00  0.00    -0.045 A 
ENDROOT
BRANCH   1   7
ATOM      7  C   UNL     1      11.137  -5.349  14.853  1.00  0.00     0.071 C 
ATOM      8  O   UNL     1      12.372  -5.267  14.617  1.00  0.00    -0.545 OA
ATOM      9  O   UNL     1      10.250  -5.413  13.786  1.00  0.00    -0.545 OA
ENDBRANCH   1   7
BRANCH   6  10
ATOM     10  C   UNL     1       9.153  -5.436  20.326  1.00  0.00     0.013 C 
ATOM     11  C   UNL     1       7.657  -5.099  20.368  1.00  0.00     0.012 C 
ATOM     12  C   UNL     1       9.957  -4.484  21.220  1.00  0.00     0.012 C 
ENDBRANCH   6  10
TORSDOF 2
ENDMDL
