MODEL 1
REMARK VINA RESULT:    -7.337      0.000      0.000
REMARK INTER + INTRA:         -12.486
REMARK INTER:                 -10.769
REMARK INTRA:                  -1.717
REMARK UNBOUND:                -1.717
REMARK SMILES O=c1c(O[C@H]2O[C@H](CO)[C@@H](O)[C@H](O)[C@H]2O)c(-c2ccc(O)c(O)c2)oc2cc(O)cc(O)c12
REMARK SMILES IDX 4 1 3 2 16 3 25 4 2 5 26 6 1 7 33 8 27 9 31 10 28 11 30 12
REMARK SMILES IDX 17 13 18 14 19 15 20 16 24 17 22 18 21 19 23 21 32 23 29 25
REMARK SMILES IDX 5 27 14 28 6 29 12 30 7 31 10 32 15 33 13 35 8 37 9 38 11 40
REMARK H PARENT 21 20 23 22 32 24 29 26 15 34 13 36 9 39 11 41
REMARK Flexibility Score: inf
ROOT
ATOM      1  O   UNL     1     -38.301   5.594  81.860  1.00  0.00    -0.454 OA
ENDROOT
BRANCH   1   2
ATOM      2  C   UNL     1     -39.059   4.943  80.864  1.00  0.00     0.214 A 
ATOM      3  C   UNL     1     -38.497   4.826  79.576  1.00  0.00     0.180 A 
ATOM      4  O   UNL     1     -39.192   4.275  78.588  1.00  0.00    -0.452 OA
ATOM      5  C   UNL     1     -40.360   4.430  81.073  1.00  0.00     0.239 A 
ATOM      6  C   UNL     1     -40.414   3.785  78.740  1.00  0.00     0.146 A 
ATOM      7  O   UNL     1     -40.904   4.509  82.205  1.00  0.00    -0.285 OA
ATOM      8  C   UNL     1     -41.055   3.833  79.999  1.00  0.00     0.111 A 
ATOM      9  C   UNL     1     -41.060   3.218  77.638  1.00  0.00     0.094 A 
ATOM     10  C   UNL     1     -42.360   3.291  80.126  1.00  0.00     0.134 A 
ATOM     11  C   UNL     1     -42.345   2.688  77.768  1.00  0.00     0.123 A 
ATOM     12  C   UNL     1     -42.991   2.724  79.008  1.00  0.00     0.093 A 
BRANCH   3  13
ATOM     13  C   UNL     1     -37.138   5.328  79.271  1.00  0.00     0.025 A 
ATOM     14  C   UNL     1     -36.983   6.595  78.688  1.00  0.00     0.016 A 
ATOM     15  C   UNL     1     -35.709   7.082  78.387  1.00  0.00     0.051 A 
ATOM     16  C   UNL     1     -34.572   6.304  78.652  1.00  0.00     0.157 A 
ATOM     17  C   UNL     1     -35.999   4.540  79.510  1.00  0.00     0.062 A 
ATOM     18  C   UNL     1     -34.721   5.025  79.213  1.00  0.00     0.158 A 
BRANCH  16  19
ATOM     19  O   UNL     1     -33.302   6.796  78.356  1.00  0.00    -0.504 OA
ATOM     20  H   UNL     1     -32.635   6.253  77.820  1.00  0.00     0.293 HD
ENDBRANCH  16  19
BRANCH  18  21
ATOM     21  O   UNL     1     -33.613   4.221  79.478  1.00  0.00    -0.504 OA
ATOM     22  H   UNL     1     -33.616   3.224  79.295  1.00  0.00     0.293 HD
ENDBRANCH  18  21
ENDBRANCH   3  13
BRANCH  10  23
ATOM     23  O   UNL     1     -43.031   3.311  81.350  1.00  0.00    -0.507 OA
ATOM     24  H   UNL     1     -43.441   4.162  81.719  1.00  0.00     0.293 HD
ENDBRANCH  10  23
BRANCH  11  25
ATOM     25  O   UNL     1     -42.972   2.128  76.657  1.00  0.00    -0.508 OA
ATOM     26  H   UNL     1     -43.865   1.654  76.735  1.00  0.00     0.293 HD
ENDBRANCH  11  25
ENDBRANCH   1   2
BRANCH   1  27
ATOM     27  C   UNL     1     -37.989   5.113  83.172  1.00  0.00     0.339 C 
ATOM     28  C   UNL     1     -38.270   6.204  84.222  1.00  0.00     0.214 C 
ATOM     29  O   UNL     1     -36.645   4.665  83.262  1.00  0.00    -0.332 OA
ATOM     30  C   UNL     1     -37.287   7.369  84.056  1.00  0.00     0.180 C 
ATOM     31  C   UNL     1     -35.720   5.705  82.981  1.00  0.00     0.179 C 
ATOM     32  C   UNL     1     -35.843   6.840  84.028  1.00  0.00     0.177 C 
BRANCH  28  33
ATOM     33  O   UNL     1     -39.585   6.681  84.086  1.00  0.00    -0.384 OA
ATOM     34  H   UNL     1     -39.697   6.944  83.135  1.00  0.00     0.211 HD
ENDBRANCH  28  33
BRANCH  30  35
ATOM     35  O   UNL     1     -37.450   8.265  85.125  1.00  0.00    -0.387 OA
ATOM     36  H   UNL     1     -38.239   8.828  84.912  1.00  0.00     0.211 HD
ENDBRANCH  30  35
BRANCH  31  37
ATOM     37  C   UNL     1     -34.311   5.089  82.981  1.00  0.00     0.191 C 
BRANCH  37  38
ATOM     38  O   UNL     1     -34.321   3.790  82.451  1.00  0.00    -0.394 OA
ATOM     39  H   UNL     1     -34.270   3.167  83.221  1.00  0.00     0.210 HD
ENDBRANCH  37  38
ENDBRANCH  31  37
BRANCH  32  40
ATOM     40  O   UNL     1     -34.980   7.901  83.697  1.00  0.00    -0.387 OA
ATOM     41  H   UNL     1     -34.052   7.584  83.850  1.00  0.00     0.211 HD
ENDBRANCH  32  40
ENDBRANCH   1  27
TORSDOF 12
ENDMDL
MODEL 2
REMARK VINA RESULT:    -7.190      2.128      6.662
REMARK INTER + INTRA:         -12.269
REMARK INTER:                 -10.604
REMARK INTRA:                  -1.665
REMARK UNBOUND:                -1.717
REMARK SMILES O=c1c(O[C@H]2O[C@H](CO)[C@@H](O)[C@H](O)[C@H]2O)c(-c2ccc(O)c(O)c2)oc2cc(O)cc(O)c12
REMARK SMILES IDX 4 1 3 2 16 3 25 4 2 5 26 6 1 7 33 8 27 9 31 10 28 11 30 12
REMARK SMILES IDX 17 13 18 14 19 15 20 16 24 17 22 18 21 19 23 21 32 23 29 25
REMARK SMILES IDX 5 27 14 28 6 29 12 30 7 31 10 32 15 33 13 35 8 37 9 38 11 40
REMARK H PARENT 21 20 23 22 32 24 29 26 15 34 13 36 9 39 11 41
REMARK Flexibility Score: inf
ROOT
ATOM      1  O   UNL     1     -37.624   3.889  81.847  1.00  0.00    -0.454 OA
ENDROOT
BRANCH   1   2
ATOM      2  C   UNL     1     -37.007   4.759  80.924  1.00  0.00     0.214 A 
ATOM      3  C   UNL     1     -37.522   4.803  79.611  1.00  0.00     0.180 A 
ATOM      4  O   UNL     1     -36.942   5.560  78.688  1.00  0.00    -0.452 OA
ATOM      5  C   UNL     1     -35.886   5.565  81.227  1.00  0.00     0.239 A 
ATOM      6  C   UNL     1     -35.888   6.328  78.929  1.00  0.00     0.146 A 
ATOM      7  O   UNL     1     -35.391   5.562  82.385  1.00  0.00    -0.285 OA
ATOM      8  C   UNL     1     -35.313   6.372  80.220  1.00  0.00     0.111 A 
ATOM      9  C   UNL     1     -35.355   7.095  77.890  1.00  0.00     0.094 A 
ATOM     10  C   UNL     1     -34.192   7.211  80.444  1.00  0.00     0.134 A 
ATOM     11  C   UNL     1     -34.249   7.917  78.115  1.00  0.00     0.123 A 
ATOM     12  C   UNL     1     -33.672   7.975  79.388  1.00  0.00     0.093 A 
BRANCH   3  13
ATOM     13  C   UNL     1     -38.698   3.999  79.208  1.00  0.00     0.025 A 
ATOM     14  C   UNL     1     -38.508   2.716  78.674  1.00  0.00     0.016 A 
ATOM     15  C   UNL     1     -39.606   1.945  78.283  1.00  0.00     0.051 A 
ATOM     16  C   UNL     1     -40.907   2.452  78.407  1.00  0.00     0.157 A 
ATOM     17  C   UNL     1     -40.001   4.515  79.306  1.00  0.00     0.062 A 
ATOM     18  C   UNL     1     -41.104   3.745  78.919  1.00  0.00     0.158 A 
BRANCH  16  19
ATOM     19  O   UNL     1     -42.001   1.678  78.021  1.00  0.00    -0.504 OA
ATOM     20  H   UNL     1     -42.218   0.800  78.479  1.00  0.00     0.293 HD
ENDBRANCH  16  19
BRANCH  18  21
ATOM     21  O   UNL     1     -42.384   4.284  79.045  1.00  0.00    -0.504 OA
ATOM     22  H   UNL     1     -42.908   4.619  78.244  1.00  0.00     0.293 HD
ENDBRANCH  18  21
ENDBRANCH   3  13
BRANCH  10  23
ATOM     23  O   UNL     1     -33.593   7.291  81.702  1.00  0.00    -0.507 OA
ATOM     24  H   UNL     1     -34.026   7.797  82.467  1.00  0.00     0.293 HD
ENDBRANCH  10  23
BRANCH  11  25
ATOM     25  O   UNL     1     -33.732   8.673  77.065  1.00  0.00    -0.508 OA
ATOM     26  H   UNL     1     -33.714   8.319  76.116  1.00  0.00     0.293 HD
ENDBRANCH  11  25
ENDBRANCH   1   2
BRANCH   1  27
ATOM     27  C   UNL     1     -38.057   4.194  83.178  1.00  0.00     0.339 C 
ATOM     28  C   UNL     1     -37.714   3.033  84.130  1.00  0.00     0.214 C 
ATOM     29  O   UNL     1     -39.445   4.490  83.224  1.00  0.00    -0.332 OA
ATOM     30  C   UNL     1     -38.555   1.797  83.786  1.00  0.00     0.180 C 
ATOM     31  C   UNL     1     -40.234   3.395  82.782  1.00  0.00     0.179 C 
ATOM     32  C   UNL     1     -40.044   2.174  83.717  1.00  0.00     0.177 C 
BRANCH  28  33
ATOM     33  O   UNL     1     -36.351   2.711  84.033  1.00  0.00    -0.384 OA
ATOM     34  H   UNL     1     -36.028   2.547  84.957  1.00  0.00     0.211 HD
ENDBRANCH  28  33
BRANCH  30  35
ATOM     35  O   UNL     1     -38.353   0.815  84.769  1.00  0.00    -0.387 OA
ATOM     36  H   UNL     1     -39.111   0.178  84.701  1.00  0.00     0.211 HD
ENDBRANCH  30  35
BRANCH  31  37
ATOM     37  C   UNL     1     -41.700   3.859  82.752  1.00  0.00     0.191 C 
BRANCH  37  38
ATOM     38  O   UNL     1     -42.457   3.100  81.849  1.00  0.00    -0.394 OA
ATOM     39  H   UNL     1     -42.284   2.146  82.062  1.00  0.00     0.210 HD
ENDBRANCH  37  38
ENDBRANCH  31  37
BRANCH  32  40
ATOM     40  O   UNL     1     -40.767   1.071  83.227  1.00  0.00    -0.387 OA
ATOM     41  H   UNL     1     -41.503   1.428  82.665  1.00  0.00     0.211 HD
ENDBRANCH  32  40
ENDBRANCH   1  27
TORSDOF 12
ENDMDL
MODEL 3
REMARK VINA RESULT:    -6.800      1.361      2.078
REMARK INTER + INTRA:         -11.698
REMARK INTER:                 -11.498
REMARK INTRA:                  -0.200
REMARK UNBOUND:                -1.717
REMARK SMILES O=c1c(O[C@H]2O[C@H](CO)[C@@H](O)[C@H](O)[C@H]2O)c(-c2ccc(O)c(O)c2)oc2cc(O)cc(O)c12
REMARK SMILES IDX 4 1 3 2 16 3 25 4 2 5 26 6 1 7 33 8 27 9 31 10 28 11 30 12
REMARK SMILES IDX 17 13 18 14 19 15 20 16 24 17 22 18 21 19 23 21 32 23 29 25
REMARK SMILES IDX 5 27 14 28 6 29 12 30 7 31 10 32 15 33 13 35 8 37 9 38 11 40
REMARK H PARENT 21 20 23 22 32 24 29 26 15 34 13 36 9 39 11 41
REMARK Flexibility Score: inf
ROOT
ATOM      1  O   UNL     1     -38.555   5.539  81.979  1.00  0.00    -0.454 OA
ENDROOT
BRANCH   1   2
ATOM      2  C   UNL     1     -39.272   4.869  80.966  1.00  0.00     0.214 A 
ATOM      3  C   UNL     1     -38.624   4.648  79.733  1.00  0.00     0.180 A 
ATOM      4  O   UNL     1     -39.274   4.075  78.727  1.00  0.00    -0.452 OA
ATOM      5  C   UNL     1     -40.611   4.435  81.103  1.00  0.00     0.239 A 
ATOM      6  C   UNL     1     -40.530   3.657  78.812  1.00  0.00     0.146 A 
ATOM      7  O   UNL     1     -41.232   4.609  82.184  1.00  0.00    -0.285 OA
ATOM      8  C   UNL     1     -41.257   3.811  80.014  1.00  0.00     0.111 A 
ATOM      9  C   UNL     1     -41.123   3.058  77.697  1.00  0.00     0.094 A 
ATOM     10  C   UNL     1     -42.595   3.345  80.071  1.00  0.00     0.134 A 
ATOM     11  C   UNL     1     -42.441   2.603  77.757  1.00  0.00     0.123 A 
ATOM     12  C   UNL     1     -43.173   2.745  78.941  1.00  0.00     0.093 A 
BRANCH   3  13
ATOM     13  C   UNL     1     -37.221   5.061  79.505  1.00  0.00     0.025 A 
ATOM     14  C   UNL     1     -36.935   6.028  78.529  1.00  0.00     0.016 A 
ATOM     15  C   UNL     1     -35.616   6.426  78.296  1.00  0.00     0.051 A 
ATOM     16  C   UNL     1     -34.564   5.853  79.024  1.00  0.00     0.157 A 
ATOM     17  C   UNL     1     -36.163   4.470  80.214  1.00  0.00     0.062 A 
ATOM     18  C   UNL     1     -34.841   4.867  79.986  1.00  0.00     0.158 A 
BRANCH  16  19
ATOM     19  O   UNL     1     -33.250   6.257  78.793  1.00  0.00    -0.504 OA
ATOM     20  H   UNL     1     -32.993   7.237  78.767  1.00  0.00     0.293 HD
ENDBRANCH  16  19
BRANCH  18  21
ATOM     21  O   UNL     1     -33.817   4.269  80.721  1.00  0.00    -0.504 OA
ATOM     22  H   UNL     1     -33.121   4.814  81.216  1.00  0.00     0.293 HD
ENDBRANCH  18  21
ENDBRANCH   3  13
BRANCH  10  23
ATOM     23  O   UNL     1     -43.352   3.471  81.237  1.00  0.00    -0.507 OA
ATOM     24  H   UNL     1     -42.996   3.174  82.138  1.00  0.00     0.293 HD
ENDBRANCH  10  23
BRANCH  11  25
ATOM     25  O   UNL     1     -43.014   2.010  76.635  1.00  0.00    -0.508 OA
ATOM     26  H   UNL     1     -42.557   1.248  76.146  1.00  0.00     0.293 HD
ENDBRANCH  11  25
ENDBRANCH   1   2
BRANCH   1  27
ATOM     27  C   UNL     1     -38.760   5.455  83.394  1.00  0.00     0.339 C 
ATOM     28  C   UNL     1     -37.546   6.034  84.144  1.00  0.00     0.214 C 
ATOM     29  O   UNL     1     -39.017   4.122  83.810  1.00  0.00    -0.332 OA
ATOM     30  C   UNL     1     -36.316   5.142  83.937  1.00  0.00     0.180 C 
ATOM     31  C   UNL     1     -37.937   3.253  83.505  1.00  0.00     0.179 C 
ATOM     32  C   UNL     1     -36.660   3.682  84.273  1.00  0.00     0.177 C 
BRANCH  28  33
ATOM     33  O   UNL     1     -37.264   7.331  83.684  1.00  0.00    -0.384 OA
ATOM     34  H   UNL     1     -36.624   7.732  84.329  1.00  0.00     0.211 HD
ENDBRANCH  28  33
BRANCH  30  35
ATOM     35  O   UNL     1     -35.275   5.593  84.765  1.00  0.00    -0.387 OA
ATOM     36  H   UNL     1     -35.536   5.380  85.698  1.00  0.00     0.211 HD
ENDBRANCH  30  35
BRANCH  31  37
ATOM     37  C   UNL     1     -38.366   1.825  83.878  1.00  0.00     0.191 C 
BRANCH  37  38
ATOM     38  O   UNL     1     -39.171   1.257  82.880  1.00  0.00    -0.394 OA
ATOM     39  H   UNL     1     -39.444   1.996  82.278  1.00  0.00     0.210 HD
ENDBRANCH  37  38
ENDBRANCH  31  37
BRANCH  32  40
ATOM     40  O   UNL     1     -35.576   2.865  83.904  1.00  0.00    -0.387 OA
ATOM     41  H   UNL     1     -35.365   2.287  84.682  1.00  0.00     0.211 HD
ENDBRANCH  32  40
ENDBRANCH   1  27
TORSDOF 12
ENDMDL
MODEL 4
REMARK VINA RESULT:    -6.328      2.860      4.981
REMARK INTER + INTRA:         -11.004
REMARK INTER:                  -9.012
REMARK INTRA:                  -1.993
REMARK UNBOUND:                -1.717
REMARK SMILES O=c1c(O[C@H]2O[C@H](CO)[C@@H](O)[C@H](O)[C@H]2O)c(-c2ccc(O)c(O)c2)oc2cc(O)cc(O)c12
REMARK SMILES IDX 4 1 3 2 16 3 25 4 2 5 26 6 1 7 33 8 27 9 31 10 28 11 30 12
REMARK SMILES IDX 17 13 18 14 19 15 20 16 24 17 22 18 21 19 23 21 32 23 29 25
REMARK SMILES IDX 5 27 14 28 6 29 12 30 7 31 10 32 15 33 13 35 8 37 9 38 11 40
REMARK H PARENT 21 20 23 22 32 24 29 26 15 34 13 36 9 39 11 41
REMARK Flexibility Score: inf
ROOT
ATOM      1  O   UNL     1     -39.009   6.211  79.587  1.00  0.00    -0.454 OA
ENDROOT
BRANCH   1   2
ATOM      2  C   UNL     1     -38.935   5.180  80.546  1.00  0.00     0.214 A 
ATOM      3  C   UNL     1     -37.658   4.708  80.913  1.00  0.00     0.180 A 
ATOM      4  O   UNL     1     -37.535   3.699  81.767  1.00  0.00    -0.452 OA
ATOM      5  C   UNL     1     -40.066   4.571  81.138  1.00  0.00     0.239 A 
ATOM      6  C   UNL     1     -38.568   3.099  82.342  1.00  0.00     0.146 A 
ATOM      7  O   UNL     1     -41.227   4.958  80.844  1.00  0.00    -0.285 OA
ATOM      8  C   UNL     1     -39.889   3.515  82.058  1.00  0.00     0.111 A 
ATOM      9  C   UNL     1     -38.333   2.050  83.235  1.00  0.00     0.094 A 
ATOM     10  C   UNL     1     -40.969   2.855  82.697  1.00  0.00     0.134 A 
ATOM     11  C   UNL     1     -39.400   1.402  83.860  1.00  0.00     0.123 A 
ATOM     12  C   UNL     1     -40.712   1.805  83.592  1.00  0.00     0.093 A 
BRANCH   3  13
ATOM     13  C   UNL     1     -36.420   5.293  80.350  1.00  0.00     0.025 A 
ATOM     14  C   UNL     1     -35.990   4.903  79.072  1.00  0.00     0.016 A 
ATOM     15  C   UNL     1     -34.821   5.440  78.527  1.00  0.00     0.051 A 
ATOM     16  C   UNL     1     -34.058   6.363  79.256  1.00  0.00     0.157 A 
ATOM     17  C   UNL     1     -35.639   6.197  81.089  1.00  0.00     0.062 A 
ATOM     18  C   UNL     1     -34.470   6.740  80.546  1.00  0.00     0.158 A 
BRANCH  16  19
ATOM     19  O   UNL     1     -32.896   6.901  78.707  1.00  0.00    -0.504 OA
ATOM     20  H   UNL     1     -32.886   7.820  78.280  1.00  0.00     0.293 HD
ENDBRANCH  16  19
BRANCH  18  21
ATOM     21  O   UNL     1     -33.729   7.647  81.303  1.00  0.00    -0.504 OA
ATOM     22  H   UNL     1     -33.729   7.628  82.316  1.00  0.00     0.293 HD
ENDBRANCH  18  21
ENDBRANCH   3  13
BRANCH  10  23
ATOM     23  O   UNL     1     -42.290   3.234  82.453  1.00  0.00    -0.507 OA
ATOM     24  H   UNL     1     -43.063   2.592  82.590  1.00  0.00     0.293 HD
ENDBRANCH  10  23
BRANCH  11  25
ATOM     25  O   UNL     1     -39.144   0.357  84.745  1.00  0.00    -0.508 OA
ATOM     26  H   UNL     1     -39.875  -0.285  85.032  1.00  0.00     0.293 HD
ENDBRANCH  11  25
ENDBRANCH   1   2
BRANCH   1  27
ATOM     27  C   UNL     1     -39.087   7.621  79.825  1.00  0.00     0.339 C 
ATOM     28  C   UNL     1     -40.335   8.210  79.140  1.00  0.00     0.214 C 
ATOM     29  O   UNL     1     -37.913   8.293  79.395  1.00  0.00    -0.332 OA
ATOM     30  C   UNL     1     -40.186   8.143  77.615  1.00  0.00     0.180 C 
ATOM     31  C   UNL     1     -37.690   8.130  78.002  1.00  0.00     0.179 C 
ATOM     32  C   UNL     1     -38.846   8.764  77.187  1.00  0.00     0.177 C 
BRANCH  28  33
ATOM     33  O   UNL     1     -41.483   7.500  79.529  1.00  0.00    -0.384 OA
ATOM     34  H   UNL     1     -41.316   7.166  80.449  1.00  0.00     0.211 HD
ENDBRANCH  28  33
BRANCH  30  35
ATOM     35  O   UNL     1     -41.251   8.838  77.018  1.00  0.00    -0.387 OA
ATOM     36  H   UNL     1     -40.994   9.796  76.997  1.00  0.00     0.211 HD
ENDBRANCH  30  35
BRANCH  31  37
ATOM     37  C   UNL     1     -36.340   8.784  77.666  1.00  0.00     0.191 C 
BRANCH  37  38
ATOM     38  O   UNL     1     -36.513   9.956  76.915  1.00  0.00    -0.394 OA
ATOM     39  H   UNL     1     -35.825   9.940  76.200  1.00  0.00     0.210 HD
ENDBRANCH  37  38
ENDBRANCH  31  37
BRANCH  32  40
ATOM     40  O   UNL     1     -38.658   8.528  75.814  1.00  0.00    -0.387 OA
ATOM     41  H   UNL     1     -38.032   7.762  75.729  1.00  0.00     0.211 HD
ENDBRANCH  32  40
ENDBRANCH   1  27
TORSDOF 12
ENDMDL
MODEL 5
REMARK VINA RESULT:    -6.157      2.904      5.470
REMARK INTER + INTRA:         -10.753
REMARK INTER:                  -9.195
REMARK INTRA:                  -1.558
REMARK UNBOUND:                -1.717
REMARK SMILES O=c1c(O[C@H]2O[C@H](CO)[C@@H](O)[C@H](O)[C@H]2O)c(-c2ccc(O)c(O)c2)oc2cc(O)cc(O)c12
REMARK SMILES IDX 4 1 3 2 16 3 25 4 2 5 26 6 1 7 33 8 27 9 31 10 28 11 30 12
REMARK SMILES IDX 17 13 18 14 19 15 20 16 24 17 22 18 21 19 23 21 32 23 29 25
REMARK SMILES IDX 5 27 14 28 6 29 12 30 7 31 10 32 15 33 13 35 8 37 9 38 11 40
REMARK H PARENT 21 20 23 22 32 24 29 26 15 34 13 36 9 39 11 41
REMARK Flexibility Score: inf
ROOT
ATOM      1  O   UNL     1     -36.817   6.255  79.865  1.00  0.00    -0.454 OA
ENDROOT
BRANCH   1   2
ATOM      2  C   UNL     1     -37.893   5.577  80.474  1.00  0.00     0.214 A 
ATOM      3  C   UNL     1     -39.203   5.978  80.138  1.00  0.00     0.180 A 
ATOM      4  O   UNL     1     -40.250   5.413  80.726  1.00  0.00    -0.452 OA
ATOM      5  C   UNL     1     -37.737   4.541  81.424  1.00  0.00     0.239 A 
ATOM      6  C   UNL     1     -40.148   4.441  81.623  1.00  0.00     0.146 A 
ATOM      7  O   UNL     1     -36.589   4.147  81.756  1.00  0.00    -0.285 OA
ATOM      8  C   UNL     1     -38.879   3.953  82.009  1.00  0.00     0.111 A 
ATOM      9  C   UNL     1     -41.313   3.906  82.179  1.00  0.00     0.094 A 
ATOM     10  C   UNL     1     -38.808   2.908  82.965  1.00  0.00     0.134 A 
ATOM     11  C   UNL     1     -41.238   2.879  83.122  1.00  0.00     0.123 A 
ATOM     12  C   UNL     1     -39.989   2.382  83.511  1.00  0.00     0.093 A 
BRANCH   3  13
ATOM     13  C   UNL     1     -39.460   7.048  79.147  1.00  0.00     0.025 A 
ATOM     14  C   UNL     1     -39.725   8.352  79.591  1.00  0.00     0.016 A 
ATOM     15  C   UNL     1     -39.976   9.373  78.671  1.00  0.00     0.051 A 
ATOM     16  C   UNL     1     -39.978   9.102  77.295  1.00  0.00     0.157 A 
ATOM     17  C   UNL     1     -39.489   6.774  77.769  1.00  0.00     0.062 A 
ATOM     18  C   UNL     1     -39.737   7.794  76.844  1.00  0.00     0.158 A 
BRANCH  16  19
ATOM     19  O   UNL     1     -40.223  10.125  76.380  1.00  0.00    -0.504 OA
ATOM     20  H   UNL     1     -40.229   9.952  75.381  1.00  0.00     0.293 HD
ENDBRANCH  16  19
BRANCH  18  21
ATOM     21  O   UNL     1     -39.743   7.488  75.484  1.00  0.00    -0.504 OA
ATOM     22  H   UNL     1     -39.366   6.617  75.127  1.00  0.00     0.293 HD
ENDBRANCH  18  21
ENDBRANCH   3  13
BRANCH  10  23
ATOM     23  O   UNL     1     -37.579   2.389  83.375  1.00  0.00    -0.507 OA
ATOM     24  H   UNL     1     -37.412   1.390  83.424  1.00  0.00     0.293 HD
ENDBRANCH  10  23
BRANCH  11  25
ATOM     25  O   UNL     1     -42.410   2.360  83.666  1.00  0.00    -0.508 OA
ATOM     26  H   UNL     1     -43.109   1.908  83.086  1.00  0.00     0.293 HD
ENDBRANCH  11  25
ENDBRANCH   1   2
BRANCH   1  27
ATOM     27  C   UNL     1     -36.224   5.983  78.591  1.00  0.00     0.339 C 
ATOM     28  C   UNL     1     -34.723   5.676  78.754  1.00  0.00     0.214 C 
ATOM     29  O   UNL     1     -36.420   7.055  77.680  1.00  0.00    -0.332 OA
ATOM     30  C   UNL     1     -33.969   6.932  79.207  1.00  0.00     0.180 C 
ATOM     31  C   UNL     1     -35.838   8.262  78.149  1.00  0.00     0.179 C 
ATOM     32  C   UNL     1     -34.301   8.111  78.277  1.00  0.00     0.177 C 
BRANCH  28  33
ATOM     33  O   UNL     1     -34.538   4.654  79.700  1.00  0.00    -0.384 OA
ATOM     34  H   UNL     1     -33.620   4.301  79.564  1.00  0.00     0.211 HD
ENDBRANCH  28  33
BRANCH  30  35
ATOM     35  O   UNL     1     -32.589   6.675  79.182  1.00  0.00    -0.387 OA
ATOM     36  H   UNL     1     -32.455   5.872  78.614  1.00  0.00     0.211 HD
ENDBRANCH  30  35
BRANCH  31  37
ATOM     37  C   UNL     1     -36.214   9.377  77.159  1.00  0.00     0.191 C 
BRANCH  37  38
ATOM     38  O   UNL     1     -35.084   9.866  76.488  1.00  0.00    -0.394 OA
ATOM     39  H   UNL     1     -34.302   9.669  77.065  1.00  0.00     0.210 HD
ENDBRANCH  37  38
ENDBRANCH  31  37
BRANCH  32  40
ATOM     40  O   UNL     1     -33.742   9.283  78.817  1.00  0.00    -0.387 OA
ATOM     41  H   UNL     1     -34.008  10.035  78.227  1.00  0.00     0.211 HD
ENDBRANCH  32  40
ENDBRANCH   1  27
TORSDOF 12
ENDMDL
MODEL 6
REMARK VINA RESULT:    -6.149      3.377      5.636
REMARK INTER + INTRA:         -10.742
REMARK INTER:                  -8.863
REMARK INTRA:                  -1.878
REMARK UNBOUND:                -1.717
REMARK SMILES O=c1c(O[C@H]2O[C@H](CO)[C@@H](O)[C@H](O)[C@H]2O)c(-c2ccc(O)c(O)c2)oc2cc(O)cc(O)c12
REMARK SMILES IDX 4 1 3 2 16 3 25 4 2 5 26 6 1 7 33 8 27 9 31 10 28 11 30 12
REMARK SMILES IDX 17 13 18 14 19 15 20 16 24 17 22 18 21 19 23 21 32 23 29 25
REMARK SMILES IDX 5 27 14 28 6 29 12 30 7 31 10 32 15 33 13 35 8 37 9 38 11 40
REMARK H PARENT 21 20 23 22 32 24 29 26 15 34 13 36 9 39 11 41
REMARK Flexibility Score: inf
ROOT
ATOM      1  O   UNL     1     -37.243   6.763  79.316  1.00  0.00    -0.454 OA
ENDROOT
BRANCH   1   2
ATOM      2  C   UNL     1     -38.511   7.309  79.024  1.00  0.00     0.214 A 
ATOM      3  C   UNL     1     -39.605   6.899  79.814  1.00  0.00     0.180 A 
ATOM      4  O   UNL     1     -40.829   7.337  79.544  1.00  0.00    -0.452 OA
ATOM      5  C   UNL     1     -38.754   8.218  77.968  1.00  0.00     0.239 A 
ATOM      6  C   UNL     1     -41.101   8.186  78.563  1.00  0.00     0.146 A 
ATOM      7  O   UNL     1     -37.810   8.614  77.236  1.00  0.00    -0.285 OA
ATOM      8  C   UNL     1     -40.069   8.675  77.730  1.00  0.00     0.111 A 
ATOM      9  C   UNL     1     -42.423   8.594  78.365  1.00  0.00     0.094 A 
ATOM     10  C   UNL     1     -40.396   9.587  76.695  1.00  0.00     0.134 A 
ATOM     11  C   UNL     1     -42.740   9.491  77.344  1.00  0.00     0.123 A 
ATOM     12  C   UNL     1     -41.729   9.986  76.513  1.00  0.00     0.093 A 
BRANCH   3  13
ATOM     13  C   UNL     1     -39.440   5.958  80.945  1.00  0.00     0.025 A 
ATOM     14  C   UNL     1     -39.386   6.455  82.256  1.00  0.00     0.016 A 
ATOM     15  C   UNL     1     -39.224   5.583  83.335  1.00  0.00     0.051 A 
ATOM     16  C   UNL     1     -39.100   4.204  83.119  1.00  0.00     0.157 A 
ATOM     17  C   UNL     1     -39.287   4.578  80.729  1.00  0.00     0.062 A 
ATOM     18  C   UNL     1     -39.128   3.701  81.807  1.00  0.00     0.158 A 
BRANCH  16  19
ATOM     19  O   UNL     1     -38.944   3.336  84.198  1.00  0.00    -0.504 OA
ATOM     20  H   UNL     1     -38.709   3.676  85.123  1.00  0.00     0.293 HD
ENDBRANCH  16  19
BRANCH  18  21
ATOM     21  O   UNL     1     -38.995   2.336  81.555  1.00  0.00    -0.504 OA
ATOM     22  H   UNL     1     -39.439   1.890  80.761  1.00  0.00     0.293 HD
ENDBRANCH  18  21
ENDBRANCH   3  13
BRANCH  10  23
ATOM     23  O   UNL     1     -39.411  10.101  75.850  1.00  0.00    -0.507 OA
ATOM     24  H   UNL     1     -39.644  10.660  75.038  1.00  0.00     0.293 HD
ENDBRANCH  10  23
BRANCH  11  25
ATOM     25  O   UNL     1     -44.064   9.883  77.162  1.00  0.00    -0.508 OA
ATOM     26  H   UNL     1     -44.299  10.763  76.715  1.00  0.00     0.293 HD
ENDBRANCH  11  25
ENDBRANCH   1   2
BRANCH   1  27
ATOM     27  C   UNL     1     -36.298   7.224  80.288  1.00  0.00     0.339 C 
ATOM     28  C   UNL     1     -34.983   7.637  79.600  1.00  0.00     0.214 C 
ATOM     29  O   UNL     1     -36.056   6.248  81.289  1.00  0.00    -0.332 OA
ATOM     30  C   UNL     1     -34.280   6.406  79.014  1.00  0.00     0.180 C 
ATOM     31  C   UNL     1     -35.524   5.049  80.744  1.00  0.00     0.179 C 
ATOM     32  C   UNL     1     -34.145   5.314  80.089  1.00  0.00     0.177 C 
BRANCH  28  33
ATOM     33  O   UNL     1     -35.241   8.559  78.572  1.00  0.00    -0.384 OA
ATOM     34  H   UNL     1     -34.817   8.199  77.750  1.00  0.00     0.211 HD
ENDBRANCH  28  33
BRANCH  30  35
ATOM     35  O   UNL     1     -33.009   6.780  78.548  1.00  0.00    -0.387 OA
ATOM     36  H   UNL     1     -32.370   6.089  78.864  1.00  0.00     0.211 HD
ENDBRANCH  30  35
BRANCH  31  37
ATOM     37  C   UNL     1     -35.419   4.024  81.884  1.00  0.00     0.191 C 
BRANCH  37  38
ATOM     38  O   UNL     1     -34.081   3.760  82.212  1.00  0.00    -0.394 OA
ATOM     39  H   UNL     1     -34.078   3.408  83.139  1.00  0.00     0.210 HD
ENDBRANCH  37  38
ENDBRANCH  31  37
BRANCH  32  40
ATOM     40  O   UNL     1     -33.663   4.140  79.482  1.00  0.00    -0.387 OA
ATOM     41  H   UNL     1     -34.072   4.086  78.579  1.00  0.00     0.211 HD
ENDBRANCH  32  40
ENDBRANCH   1  27
TORSDOF 12
ENDMDL
MODEL 7
REMARK VINA RESULT:    -6.134      1.928      6.463
REMARK INTER + INTRA:         -10.720
REMARK INTER:                  -9.926
REMARK INTRA:                  -0.794
REMARK UNBOUND:                -1.717
REMARK SMILES O=c1c(O[C@H]2O[C@H](CO)[C@@H](O)[C@H](O)[C@H]2O)c(-c2ccc(O)c(O)c2)oc2cc(O)cc(O)c12
REMARK SMILES IDX 4 1 3 2 16 3 25 4 2 5 26 6 1 7 33 8 27 9 31 10 28 11 30 12
REMARK SMILES IDX 17 13 18 14 19 15 20 16 24 17 22 18 21 19 23 21 32 23 29 25
REMARK SMILES IDX 5 27 14 28 6 29 12 30 7 31 10 32 15 33 13 35 8 37 9 38 11 40
REMARK H PARENT 21 20 23 22 32 24 29 26 15 34 13 36 9 39 11 41
REMARK Flexibility Score: inf
ROOT
ATOM      1  O   UNL     1     -38.159   2.729  81.807  1.00  0.00    -0.454 OA
ENDROOT
BRANCH   1   2
ATOM      2  C   UNL     1     -37.518   3.653  80.955  1.00  0.00     0.214 A 
ATOM      3  C   UNL     1     -38.216   4.092  79.810  1.00  0.00     0.180 A 
ATOM      4  O   UNL     1     -37.636   4.915  78.945  1.00  0.00    -0.452 OA
ATOM      5  C   UNL     1     -36.207   4.141  81.164  1.00  0.00     0.239 A 
ATOM      6  C   UNL     1     -36.409   5.393  79.102  1.00  0.00     0.146 A 
ATOM      7  O   UNL     1     -35.545   3.779  82.172  1.00  0.00    -0.285 OA
ATOM      8  C   UNL     1     -35.637   5.031  80.229  1.00  0.00     0.111 A 
ATOM      9  C   UNL     1     -35.890   6.260  78.137  1.00  0.00     0.094 A 
ATOM     10  C   UNL     1     -34.332   5.568  80.368  1.00  0.00     0.134 A 
ATOM     11  C   UNL     1     -34.604   6.784  78.277  1.00  0.00     0.123 A 
ATOM     12  C   UNL     1     -33.829   6.439  79.389  1.00  0.00     0.093 A 
BRANCH   3  13
ATOM     13  C   UNL     1     -39.595   3.639  79.518  1.00  0.00     0.025 A 
ATOM     14  C   UNL     1     -39.882   3.053  78.276  1.00  0.00     0.016 A 
ATOM     15  C   UNL     1     -41.178   2.626  77.980  1.00  0.00     0.051 A 
ATOM     16  C   UNL     1     -42.209   2.791  78.915  1.00  0.00     0.157 A 
ATOM     17  C   UNL     1     -40.636   3.828  80.443  1.00  0.00     0.062 A 
ATOM     18  C   UNL     1     -41.935   3.400  80.152  1.00  0.00     0.158 A 
BRANCH  16  19
ATOM     19  O   UNL     1     -43.501   2.359  78.619  1.00  0.00    -0.504 OA
ATOM     20  H   UNL     1     -44.220   2.308  79.331  1.00  0.00     0.293 HD
ENDBRANCH  16  19
BRANCH  18  21
ATOM     21  O   UNL     1     -42.940   3.590  81.100  1.00  0.00    -0.504 OA
ATOM     22  H   UNL     1     -43.059   2.966  81.890  1.00  0.00     0.293 HD
ENDBRANCH  18  21
ENDBRANCH   3  13
BRANCH  10  23
ATOM     23  O   UNL     1     -33.533   5.245  81.466  1.00  0.00    -0.507 OA
ATOM     24  H   UNL     1     -33.285   5.935  82.166  1.00  0.00     0.293 HD
ENDBRANCH  10  23
BRANCH  11  25
ATOM     25  O   UNL     1     -34.105   7.646  77.303  1.00  0.00    -0.508 OA
ATOM     26  H   UNL     1     -34.451   7.627  76.351  1.00  0.00     0.293 HD
ENDBRANCH  11  25
ENDBRANCH   1   2
BRANCH   1  27
ATOM     27  C   UNL     1     -38.077   2.657  83.235  1.00  0.00     0.339 C 
ATOM     28  C   UNL     1     -39.186   1.743  83.788  1.00  0.00     0.214 C 
ATOM     29  O   UNL     1     -38.144   3.944  83.831  1.00  0.00    -0.332 OA
ATOM     30  C   UNL     1     -40.563   2.383  83.569  1.00  0.00     0.180 C 
ATOM     31  C   UNL     1     -39.363   4.606  83.528  1.00  0.00     0.179 C 
ATOM     32  C   UNL     1     -40.567   3.823  84.111  1.00  0.00     0.177 C 
BRANCH  28  33
ATOM     33  O   UNL     1     -39.148   0.492  83.149  1.00  0.00    -0.384 OA
ATOM     34  H   UNL     1     -40.028   0.061  83.310  1.00  0.00     0.211 HD
ENDBRANCH  28  33
BRANCH  30  35
ATOM     35  O   UNL     1     -41.537   1.618  84.231  1.00  0.00    -0.387 OA
ATOM     36  H   UNL     1     -42.330   2.203  84.353  1.00  0.00     0.211 HD
ENDBRANCH  30  35
BRANCH  31  37
ATOM     37  C   UNL     1     -39.280   6.026  84.111  1.00  0.00     0.191 C 
BRANCH  37  38
ATOM     38  O   UNL     1     -39.844   6.969  83.239  1.00  0.00    -0.394 OA
ATOM     39  H   UNL     1     -39.560   6.717  82.323  1.00  0.00     0.210 HD
ENDBRANCH  37  38
ENDBRANCH  31  37
BRANCH  32  40
ATOM     40  O   UNL     1     -41.774   4.442  83.738  1.00  0.00    -0.387 OA
ATOM     41  H   UNL     1     -41.544   5.196  83.136  1.00  0.00     0.211 HD
ENDBRANCH  32  40
ENDBRANCH   1  27
TORSDOF 12
ENDMDL
MODEL 8
REMARK VINA RESULT:    -6.074      2.480      6.718
REMARK INTER + INTRA:         -10.632
REMARK INTER:                  -9.147
REMARK INTRA:                  -1.485
REMARK UNBOUND:                -1.717
REMARK SMILES O=c1c(O[C@H]2O[C@H](CO)[C@@H](O)[C@H](O)[C@H]2O)c(-c2ccc(O)c(O)c2)oc2cc(O)cc(O)c12
REMARK SMILES IDX 4 1 3 2 16 3 25 4 2 5 26 6 1 7 33 8 27 9 31 10 28 11 30 12
REMARK SMILES IDX 17 13 18 14 19 15 20 16 24 17 22 18 21 19 23 21 32 23 29 25
REMARK SMILES IDX 5 27 14 28 6 29 12 30 7 31 10 32 15 33 13 35 8 37 9 38 11 40
REMARK H PARENT 21 20 23 22 32 24 29 26 15 34 13 36 9 39 11 41
REMARK Flexibility Score: inf
ROOT
ATOM      1  O   UNL     1     -38.936   5.207  81.340  1.00  0.00    -0.454 OA
ENDROOT
BRANCH   1   2
ATOM      2  C   UNL     1     -37.696   5.832  81.587  1.00  0.00     0.214 A 
ATOM      3  C   UNL     1     -37.171   6.679  80.588  1.00  0.00     0.180 A 
ATOM      4  O   UNL     1     -35.980   7.244  80.745  1.00  0.00    -0.452 OA
ATOM      5  C   UNL     1     -36.934   5.636  82.762  1.00  0.00     0.239 A 
ATOM      6  C   UNL     1     -35.233   7.084  81.829  1.00  0.00     0.146 A 
ATOM      7  O   UNL     1     -37.360   4.891  83.683  1.00  0.00    -0.285 OA
ATOM      8  C   UNL     1     -35.682   6.274  82.897  1.00  0.00     0.111 A 
ATOM      9  C   UNL     1     -33.996   7.730  81.901  1.00  0.00     0.094 A 
ATOM     10  C   UNL     1     -34.859   6.133  84.043  1.00  0.00     0.134 A 
ATOM     11  C   UNL     1     -33.189   7.585  83.031  1.00  0.00     0.123 A 
ATOM     12  C   UNL     1     -33.621   6.790  84.098  1.00  0.00     0.093 A 
BRANCH   3  13
ATOM     13  C   UNL     1     -37.905   6.947  79.331  1.00  0.00     0.025 A 
ATOM     14  C   UNL     1     -37.566   6.239  78.168  1.00  0.00     0.016 A 
ATOM     15  C   UNL     1     -38.244   6.483  76.970  1.00  0.00     0.051 A 
ATOM     16  C   UNL     1     -39.259   7.449  76.916  1.00  0.00     0.157 A 
ATOM     17  C   UNL     1     -38.904   7.933  79.266  1.00  0.00     0.062 A 
ATOM     18  C   UNL     1     -39.587   8.179  78.070  1.00  0.00     0.158 A 
BRANCH  16  19
ATOM     19  O   UNL     1     -39.936   7.686  75.721  1.00  0.00    -0.504 OA
ATOM     20  H   UNL     1     -39.572   8.322  75.021  1.00  0.00     0.293 HD
ENDBRANCH  16  19
BRANCH  18  21
ATOM     21  O   UNL     1     -40.583   9.154  78.047  1.00  0.00    -0.504 OA
ATOM     22  H   UNL     1     -40.367  10.144  78.010  1.00  0.00     0.293 HD
ENDBRANCH  18  21
ENDBRANCH   3  13
BRANCH  10  23
ATOM     23  O   UNL     1     -35.262   5.348  85.125  1.00  0.00    -0.507 OA
ATOM     24  H   UNL     1     -34.679   5.235  85.948  1.00  0.00     0.293 HD
ENDBRANCH  10  23
BRANCH  11  25
ATOM     25  O   UNL     1     -31.958   8.236  83.083  1.00  0.00    -0.508 OA
ATOM     26  H   UNL     1     -31.249   7.975  83.759  1.00  0.00     0.293 HD
ENDBRANCH  11  25
ENDBRANCH   1   2
BRANCH   1  27
ATOM     27  C   UNL     1     -39.168   3.964  80.668  1.00  0.00     0.339 C 
ATOM     28  C   UNL     1     -40.638   3.866  80.219  1.00  0.00     0.214 C 
ATOM     29  O   UNL     1     -38.815   2.854  81.480  1.00  0.00    -0.332 OA
ATOM     30  C   UNL     1     -41.561   3.757  81.440  1.00  0.00     0.180 C 
ATOM     31  C   UNL     1     -39.573   2.813  82.680  1.00  0.00     0.179 C 
ATOM     32  C   UNL     1     -41.079   2.629  82.366  1.00  0.00     0.177 C 
BRANCH  28  33
ATOM     33  O   UNL     1     -40.992   4.998  79.466  1.00  0.00    -0.384 OA
ATOM     34  H   UNL     1     -41.711   4.713  78.843  1.00  0.00     0.211 HD
ENDBRANCH  28  33
BRANCH  30  35
ATOM     35  O   UNL     1     -42.870   3.496  81.005  1.00  0.00    -0.387 OA
ATOM     36  H   UNL     1     -43.210   2.740  81.550  1.00  0.00     0.211 HD
ENDBRANCH  30  35
BRANCH  31  37
ATOM     37  C   UNL     1     -39.030   1.657  83.536  1.00  0.00     0.191 C 
BRANCH  37  38
ATOM     38  O   UNL     1     -39.662   0.446  83.218  1.00  0.00    -0.394 OA
ATOM     39  H   UNL     1     -39.815  -0.030  84.075  1.00  0.00     0.210 HD
ENDBRANCH  37  38
ENDBRANCH  31  37
BRANCH  32  40
ATOM     40  O   UNL     1     -41.830   2.669  83.555  1.00  0.00    -0.387 OA
ATOM     41  H   UNL     1     -41.718   1.792  84.005  1.00  0.00     0.211 HD
ENDBRANCH  32  40
ENDBRANCH   1  27
TORSDOF 12
ENDMDL
MODEL 9
REMARK VINA RESULT:    -5.880      1.969      2.815
REMARK INTER + INTRA:         -10.346
REMARK INTER:                  -8.328
REMARK INTRA:                  -2.018
REMARK UNBOUND:                -1.717
REMARK SMILES O=c1c(O[C@H]2O[C@H](CO)[C@@H](O)[C@H](O)[C@H]2O)c(-c2ccc(O)c(O)c2)oc2cc(O)cc(O)c12
REMARK SMILES IDX 4 1 3 2 16 3 25 4 2 5 26 6 1 7 33 8 27 9 31 10 28 11 30 12
REMARK SMILES IDX 17 13 18 14 19 15 20 16 24 17 22 18 21 19 23 21 32 23 29 25
REMARK SMILES IDX 5 27 14 28 6 29 12 30 7 31 10 32 15 33 13 35 8 37 9 38 11 40
REMARK H PARENT 21 20 23 22 32 24 29 26 15 34 13 36 9 39 11 41
REMARK Flexibility Score: inf
ROOT
ATOM      1  O   UNL     1     -36.703   5.191  81.768  1.00  0.00    -0.454 OA
ENDROOT
BRANCH   1   2
ATOM      2  C   UNL     1     -37.890   4.888  81.069  1.00  0.00     0.214 A 
ATOM      3  C   UNL     1     -38.076   5.472  79.798  1.00  0.00     0.180 A 
ATOM      4  O   UNL     1     -39.202   5.268  79.124  1.00  0.00    -0.452 OA
ATOM      5  C   UNL     1     -38.917   4.061  81.579  1.00  0.00     0.239 A 
ATOM      6  C   UNL     1     -40.190   4.502  79.567  1.00  0.00     0.146 A 
ATOM      7  O   UNL     1     -38.797   3.516  82.708  1.00  0.00    -0.285 OA
ATOM      8  C   UNL     1     -40.088   3.853  80.819  1.00  0.00     0.111 A 
ATOM      9  C   UNL     1     -41.332   4.344  78.778  1.00  0.00     0.094 A 
ATOM     10  C   UNL     1     -41.161   3.036  81.257  1.00  0.00     0.134 A 
ATOM     11  C   UNL     1     -42.386   3.540  79.214  1.00  0.00     0.123 A 
ATOM     12  C   UNL     1     -42.299   2.888  80.449  1.00  0.00     0.093 A 
BRANCH   3  13
ATOM     13  C   UNL     1     -37.050   6.344  79.184  1.00  0.00     0.025 A 
ATOM     14  C   UNL     1     -36.187   5.817  78.211  1.00  0.00     0.016 A 
ATOM     15  C   UNL     1     -35.208   6.623  77.625  1.00  0.00     0.051 A 
ATOM     16  C   UNL     1     -35.068   7.963  78.013  1.00  0.00     0.157 A 
ATOM     17  C   UNL     1     -36.890   7.680  79.590  1.00  0.00     0.062 A 
ATOM     18  C   UNL     1     -35.913   8.492  79.004  1.00  0.00     0.158 A 
BRANCH  16  19
ATOM     19  O   UNL     1     -34.094   8.766  77.422  1.00  0.00    -0.504 OA
ATOM     20  H   UNL     1     -34.112   8.981  76.432  1.00  0.00     0.293 HD
ENDBRANCH  16  19
BRANCH  18  21
ATOM     21  O   UNL     1     -35.793   9.817  79.422  1.00  0.00    -0.504 OA
ATOM     22  H   UNL     1     -36.228  10.153  80.273  1.00  0.00     0.293 HD
ENDBRANCH  18  21
ENDBRANCH   3  13
BRANCH  10  23
ATOM     23  O   UNL     1     -41.106   2.371  82.483  1.00  0.00    -0.507 OA
ATOM     24  H   UNL     1     -41.694   1.570  82.682  1.00  0.00     0.293 HD
ENDBRANCH  10  23
BRANCH  11  25
ATOM     25  O   UNL     1     -43.517   3.396  78.413  1.00  0.00    -0.508 OA
ATOM     26  H   UNL     1     -43.633   3.931  77.560  1.00  0.00     0.293 HD
ENDBRANCH  11  25
ENDBRANCH   1   2
BRANCH   1  27
ATOM     27  C   UNL     1     -35.420   4.572  81.617  1.00  0.00     0.339 C 
ATOM     28  C   UNL     1     -34.966   3.952  82.952  1.00  0.00     0.214 C 
ATOM     29  O   UNL     1     -34.449   5.487  81.132  1.00  0.00    -0.332 OA
ATOM     30  C   UNL     1     -34.681   5.054  83.980  1.00  0.00     0.180 C 
ATOM     31  C   UNL     1     -34.268   6.585  82.014  1.00  0.00     0.179 C 
ATOM     32  C   UNL     1     -33.726   6.100  83.382  1.00  0.00     0.177 C 
BRANCH  28  33
ATOM     33  O   UNL     1     -35.958   3.093  83.451  1.00  0.00    -0.384 OA
ATOM     34  H   UNL     1     -36.649   3.668  83.875  1.00  0.00     0.211 HD
ENDBRANCH  28  33
BRANCH  30  35
ATOM     35  O   UNL     1     -34.106   4.477  85.125  1.00  0.00    -0.387 OA
ATOM     36  H   UNL     1     -34.602   4.832  85.907  1.00  0.00     0.211 HD
ENDBRANCH  30  35
BRANCH  31  37
ATOM     37  C   UNL     1     -33.299   7.571  81.341  1.00  0.00     0.191 C 
BRANCH  37  38
ATOM     38  O   UNL     1     -33.666   8.900  81.593  1.00  0.00    -0.394 OA
ATOM     39  H   UNL     1     -34.657   8.921  81.631  1.00  0.00     0.210 HD
ENDBRANCH  37  38
ENDBRANCH  31  37
BRANCH  32  40
ATOM     40  O   UNL     1     -33.625   7.182  84.275  1.00  0.00    -0.387 OA
ATOM     41  H   UNL     1     -34.075   7.958  83.850  1.00  0.00     0.211 HD
ENDBRANCH  32  40
ENDBRANCH   1  27
TORSDOF 12
ENDMDL
