MODEL 1
REMARK VINA RESULT:    -4.385      0.000      0.000
REMARK INTER + INTRA:          -5.922
REMARK INTER:                  -6.180
REMARK INTRA:                   0.258
REMARK UNBOUND:                 0.258
REMARK SMILES CC1=CCC(=C(C)C)C(=O)CC(C)=CCC1
REMARK SMILES IDX 12 1 14 2 13 3 15 4 16 5 2 6 1 7 3 8 11 10 9 11 10 12 5 13
REMARK SMILES IDX 6 14 7 15 8 16 4 17
REMARK H PARENT
REMARK Flexibility Score: 60.00
ROOT
ATOM      1  C   UNL     1      -9.839 -28.593 -19.084  1.00  0.00    -0.070 C 
ATOM      2  C   UNL     1     -10.646 -27.573 -18.713  1.00  0.00    -0.027 C 
ATOM      3  C   UNL     1     -10.280 -29.467 -20.231  1.00  0.00     0.039 C 
ENDROOT
BRANCH   2   4
ATOM      4  C   UNL     1     -10.294 -26.520 -17.694  1.00  0.00     0.032 C 
BRANCH   4   5
ATOM      5  C   UNL     1      -9.360 -25.479 -18.321  1.00  0.00     0.034 C 
BRANCH   5   6
ATOM      6  C   UNL     1      -8.212 -25.103 -17.405  1.00  0.00    -0.077 C 
ATOM      7  C   UNL     1      -8.518 -24.344 -16.138  1.00  0.00     0.039 C 
ATOM      8  C   UNL     1      -6.910 -25.347 -17.696  1.00  0.00    -0.023 CG0
ATOM      9  G   UNL     1      -6.358 -26.137 -18.870  1.00  0.00     0.000 G0
ENDBRANCH   5   6
ENDBRANCH   4   5
ENDBRANCH   2   4
BRANCH   1  10
ATOM     10  C   UNL     1      -8.526 -28.912 -18.395  1.00  0.00     0.111 C 
BRANCH  10  11
ATOM     11  C   UNL     1      -7.338 -28.497 -19.227  1.00  0.00     0.163 C 
ATOM     12  O   UNL     1      -7.290 -28.924 -20.413  1.00  0.00    -0.294 OA
BRANCH  11  13
ATOM     13  C   UNL     1      -6.219 -27.638 -18.715  1.00  0.00    -0.002 C 
ATOM     14  C   UNL     1      -5.198 -28.185 -17.986  1.00  0.00    -0.069 C 
ATOM     15  C   UNL     1      -4.184 -27.331 -17.260  1.00  0.00     0.039 C 
ATOM     16  C   UNL     1      -4.998 -29.682 -17.908  1.00  0.00     0.039 C 
BRANCH  13  17
ATOM     17  C   UNL     1      -6.352 -26.127 -18.876  1.00  0.00     0.066 CG0
ATOM     18  G   UNL     1      -6.930 -25.370 -17.693  1.00  0.00     0.000 G0
ENDBRANCH  13  17
ENDBRANCH  11  13
ENDBRANCH  10  11
ENDBRANCH   1  10
TORSDOF 0
ENDMDL
MODEL 2
REMARK VINA RESULT:    -4.332      3.470      5.626
REMARK INTER + INTRA:          -5.847
REMARK INTER:                  -5.932
REMARK INTRA:                   0.086
REMARK UNBOUND:                 0.258
REMARK SMILES CC1=CCC(=C(C)C)C(=O)CC(C)=CCC1
REMARK SMILES IDX 12 1 14 2 13 3 15 4 16 5 2 6 1 7 3 8 11 10 9 11 10 12 5 13
REMARK SMILES IDX 6 14 7 15 8 16 4 17
REMARK H PARENT
REMARK Flexibility Score: 60.00
ROOT
ATOM      1  C   UNL     1      -5.887 -24.460 -18.769  1.00  0.00    -0.070 C 
ATOM      2  C   UNL     1      -6.802 -25.421 -19.032  1.00  0.00    -0.027 C 
ATOM      3  C   UNL     1      -5.216 -23.781 -19.936  1.00  0.00     0.039 C 
ENDROOT
BRANCH   2   4
ATOM      4  C   UNL     1      -7.669 -26.093 -17.999  1.00  0.00     0.032 C 
BRANCH   4   5
ATOM      5  C   UNL     1      -9.066 -25.461 -17.999  1.00  0.00     0.034 C 
BRANCH   5   6
ATOM      6  C   UNL     1      -9.291 -24.548 -16.811  1.00  0.00    -0.077 C 
ATOM      7  C   UNL     1      -9.833 -25.142 -15.535  1.00  0.00     0.039 C 
ATOM      8  C   UNL     1      -9.100 -23.206 -16.850  1.00  0.00    -0.023 CG0
ATOM      9  G   UNL     1      -8.513 -22.389 -17.987  1.00  0.00     0.000 G0
ENDBRANCH   5   6
ENDBRANCH   4   5
ENDBRANCH   2   4
BRANCH   1  10
ATOM     10  C   UNL     1      -5.490 -24.047 -17.365  1.00  0.00     0.111 C 
BRANCH  10  11
ATOM     11  C   UNL     1      -6.154 -22.757 -16.949  1.00  0.00     0.163 C 
ATOM     12  O   UNL     1      -5.958 -22.366 -15.766  1.00  0.00    -0.294 OA
BRANCH  11  13
ATOM     13  C   UNL     1      -7.037 -21.943 -17.850  1.00  0.00    -0.002 C 
ATOM     14  C   UNL     1      -6.586 -20.770 -18.391  1.00  0.00    -0.069 C 
ATOM     15  C   UNL     1      -7.510 -19.810 -19.107  1.00  0.00     0.039 C 
ATOM     16  C   UNL     1      -5.123 -20.390 -18.345  1.00  0.00     0.039 C 
BRANCH  13  17
ATOM     17  C   UNL     1      -8.494 -22.369 -17.991  1.00  0.00     0.066 CG0
ATOM     18  G   UNL     1      -9.066 -23.207 -16.861  1.00  0.00     0.000 G0
ENDBRANCH  13  17
ENDBRANCH  11  13
ENDBRANCH  10  11
ENDBRANCH   1  10
TORSDOF 0
ENDMDL
MODEL 3
REMARK VINA RESULT:    -4.239      1.680      3.571
REMARK INTER + INTRA:          -5.715
REMARK INTER:                  -5.542
REMARK INTRA:                  -0.173
REMARK UNBOUND:                 0.258
REMARK SMILES CC1=CCC(=C(C)C)C(=O)CC(C)=CCC1
REMARK SMILES IDX 12 1 14 2 13 3 15 4 16 5 2 6 1 7 3 8 11 10 9 11 10 12 5 13
REMARK SMILES IDX 6 14 7 15 8 16 4 17
REMARK H PARENT
REMARK Flexibility Score: 60.00
ROOT
ATOM      1  C   UNL     1      -9.219 -25.152 -18.021  1.00  0.00    -0.070 C 
ATOM      2  C   UNL     1     -10.120 -26.107 -18.349  1.00  0.00    -0.027 C 
ATOM      3  C   UNL     1      -9.524 -23.726 -18.407  1.00  0.00     0.039 C 
ENDROOT
BRANCH   2   4
ATOM      4  C   UNL     1     -10.046 -27.548 -17.914  1.00  0.00     0.032 C 
BRANCH   4   5
ATOM      5  C   UNL     1      -9.553 -28.419 -19.075  1.00  0.00     0.034 C 
BRANCH   5   6
ATOM      6  C   UNL     1      -8.511 -29.430 -18.640  1.00  0.00    -0.077 C 
ATOM      7  C   UNL     1      -8.975 -30.731 -18.037  1.00  0.00     0.039 C 
ATOM      8  C   UNL     1      -7.175 -29.202 -18.696  1.00  0.00    -0.023 CG0
ATOM      9  G   UNL     1      -6.468 -28.005 -19.307  1.00  0.00     0.000 G0
ENDBRANCH   5   6
ENDBRANCH   4   5
ENDBRANCH   2   4
BRANCH   1  10
ATOM     10  C   UNL     1      -7.916 -25.444 -17.304  1.00  0.00     0.111 C 
BRANCH  10  11
ATOM     11  C   UNL     1      -6.774 -25.645 -18.271  1.00  0.00     0.163 C 
ATOM     12  O   UNL     1      -6.513 -24.694 -19.056  1.00  0.00    -0.294 OA
BRANCH  11  13
ATOM     13  C   UNL     1      -5.966 -26.907 -18.357  1.00  0.00    -0.002 C 
ATOM     14  C   UNL     1      -4.759 -27.005 -17.719  1.00  0.00    -0.069 C 
ATOM     15  C   UNL     1      -3.812 -28.158 -17.967  1.00  0.00     0.039 C 
ATOM     16  C   UNL     1      -4.327 -25.987 -16.687  1.00  0.00     0.039 C 
BRANCH  13  17
ATOM     17  C   UNL     1      -6.441 -27.991 -19.318  1.00  0.00     0.066 CG0
ATOM     18  G   UNL     1      -7.175 -29.168 -18.701  1.00  0.00     0.000 G0
ENDBRANCH  13  17
ENDBRANCH  11  13
ENDBRANCH  10  11
ENDBRANCH   1  10
TORSDOF 0
ENDMDL
MODEL 4
REMARK VINA RESULT:    -4.224      4.426      6.661
REMARK INTER + INTRA:          -5.694
REMARK INTER:                  -5.877
REMARK INTRA:                   0.183
REMARK UNBOUND:                 0.258
REMARK SMILES CC1=CCC(=C(C)C)C(=O)CC(C)=CCC1
REMARK SMILES IDX 12 1 14 2 13 3 15 4 16 5 2 6 1 7 3 8 11 10 9 11 10 12 5 13
REMARK SMILES IDX 6 14 7 15 8 16 4 17
REMARK H PARENT
REMARK Flexibility Score: 60.00
ROOT
ATOM      1  C   UNL     1      -6.313 -20.691 -19.032  1.00  0.00    -0.070 C 
ATOM      2  C   UNL     1      -5.207 -20.178 -18.446  1.00  0.00    -0.027 C 
ATOM      3  C   UNL     1      -7.595 -19.903 -18.937  1.00  0.00     0.039 C 
ENDROOT
BRANCH   2   4
ATOM      4  C   UNL     1      -3.820 -20.755 -18.568  1.00  0.00     0.032 C 
BRANCH   4   5
ATOM      5  C   UNL     1      -3.314 -21.195 -17.189  1.00  0.00     0.034 C 
BRANCH   5   6
ATOM      6  C   UNL     1      -3.338 -22.700 -17.014  1.00  0.00    -0.077 C 
ATOM      7  C   UNL     1      -2.072 -23.478 -17.271  1.00  0.00     0.039 C 
ATOM      8  C   UNL     1      -4.458 -23.401 -16.708  1.00  0.00    -0.023 CG0
ATOM      9  G   UNL     1      -5.826 -22.847 -16.351  1.00  0.00     0.000 G0
ENDBRANCH   5   6
ENDBRANCH   4   5
ENDBRANCH   2   4
BRANCH   1  10
ATOM     10  C   UNL     1      -6.333 -22.021 -19.758  1.00  0.00     0.111 C 
BRANCH  10  11
ATOM     11  C   UNL     1      -6.538 -23.177 -18.811  1.00  0.00     0.163 C 
ATOM     12  O   UNL     1      -6.373 -24.337 -19.276  1.00  0.00    -0.294 OA
BRANCH  11  13
ATOM     13  C   UNL     1      -6.944 -23.018 -17.374  1.00  0.00    -0.002 C 
ATOM     14  C   UNL     1      -8.262 -22.869 -17.035  1.00  0.00    -0.069 C 
ATOM     15  C   UNL     1      -8.691 -22.476 -15.640  1.00  0.00     0.039 C 
ATOM     16  C   UNL     1      -9.368 -23.139 -18.030  1.00  0.00     0.039 C 
BRANCH  13  17
ATOM     17  C   UNL     1      -5.838 -22.846 -16.338  1.00  0.00     0.066 CG0
ATOM     18  G   UNL     1      -4.471 -23.390 -16.712  1.00  0.00     0.000 G0
ENDBRANCH  13  17
ENDBRANCH  11  13
ENDBRANCH  10  11
ENDBRANCH   1  10
TORSDOF 0
ENDMDL
MODEL 5
REMARK VINA RESULT:    -4.160      2.191      4.368
REMARK INTER + INTRA:          -5.605
REMARK INTER:                  -5.439
REMARK INTRA:                  -0.165
REMARK UNBOUND:                 0.258
REMARK SMILES CC1=CCC(=C(C)C)C(=O)CC(C)=CCC1
REMARK SMILES IDX 12 1 14 2 13 3 15 4 16 5 2 6 1 7 3 8 11 10 9 11 10 12 5 13
REMARK SMILES IDX 6 14 7 15 8 16 4 17
REMARK H PARENT
REMARK Flexibility Score: 60.00
ROOT
ATOM      1  C   UNL     1      -8.992 -27.000 -18.124  1.00  0.00    -0.070 C 
ATOM      2  C   UNL     1      -8.057 -27.781 -18.712  1.00  0.00    -0.027 C 
ATOM      3  C   UNL     1     -10.444 -27.333 -18.356  1.00  0.00     0.039 C 
ENDROOT
BRANCH   2   4
ATOM      4  C   UNL     1      -6.573 -27.682 -18.471  1.00  0.00     0.032 C 
BRANCH   4   5
ATOM      5  C   UNL     1      -5.925 -26.812 -19.553  1.00  0.00     0.034 C 
BRANCH   5   6
ATOM      6  C   UNL     1      -4.884 -25.865 -18.991  1.00  0.00    -0.077 C 
ATOM      7  C   UNL     1      -3.540 -26.421 -18.593  1.00  0.00     0.039 C 
ATOM      8  C   UNL     1      -5.116 -24.549 -18.757  1.00  0.00    -0.023 CG0
ATOM      9  G   UNL     1      -6.355 -23.751 -19.121  1.00  0.00     0.000 G0
ENDBRANCH   5   6
ENDBRANCH   4   5
ENDBRANCH   2   4
BRANCH   1  10
ATOM     10  C   UNL     1      -8.654 -25.799 -17.262  1.00  0.00     0.111 C 
BRANCH  10  11
ATOM     11  C   UNL     1      -8.588 -24.526 -18.071  1.00  0.00     0.163 C 
ATOM     12  O   UNL     1      -9.569 -24.270 -18.819  1.00  0.00    -0.294 OA
BRANCH  11  13
ATOM     13  C   UNL     1      -7.422 -23.580 -18.045  1.00  0.00    -0.002 C 
ATOM     14  C   UNL     1      -7.408 -22.517 -17.183  1.00  0.00    -0.069 C 
ATOM     15  C   UNL     1      -6.375 -21.418 -17.284  1.00  0.00     0.039 C 
ATOM     16  C   UNL     1      -8.399 -22.409 -16.046  1.00  0.00     0.039 C 
BRANCH  13  17
ATOM     17  C   UNL     1      -6.357 -23.736 -19.124  1.00  0.00     0.066 CG0
ATOM     18  G   UNL     1      -5.133 -24.555 -18.754  1.00  0.00     0.000 G0
ENDBRANCH  13  17
ENDBRANCH  11  13
ENDBRANCH  10  11
ENDBRANCH   1  10
TORSDOF 0
ENDMDL
MODEL 6
REMARK VINA RESULT:    -4.077      2.394      4.804
REMARK INTER + INTRA:          -5.488
REMARK INTER:                  -5.867
REMARK INTRA:                   0.379
REMARK UNBOUND:                 0.258
REMARK SMILES CC1=CCC(=C(C)C)C(=O)CC(C)=CCC1
REMARK SMILES IDX 12 1 14 2 13 3 15 4 16 5 2 6 1 7 3 8 11 10 9 11 10 12 5 13
REMARK SMILES IDX 6 14 7 15 8 16 4 17
REMARK H PARENT
REMARK Flexibility Score: 60.00
ROOT
ATOM      1  C   UNL     1      -4.090 -24.979 -17.315  1.00  0.00    -0.070 C 
ATOM      2  C   UNL     1      -4.308 -23.918 -16.505  1.00  0.00    -0.027 C 
ATOM      3  C   UNL     1      -2.819 -25.004 -18.125  1.00  0.00     0.039 C 
ENDROOT
BRANCH   2   4
ATOM      4  C   UNL     1      -5.444 -23.801 -15.522  1.00  0.00     0.032 C 
BRANCH   4   5
ATOM      5  C   UNL     1      -6.251 -22.529 -15.806  1.00  0.00     0.034 C 
BRANCH   5   6
ATOM      6  C   UNL     1      -6.556 -22.351 -17.280  1.00  0.00    -0.077 C 
ATOM      7  C   UNL     1      -5.916 -21.201 -18.016  1.00  0.00     0.039 C 
ATOM      8  C   UNL     1      -7.433 -23.127 -17.964  1.00  0.00    -0.023 CG0
ATOM      9  G   UNL     1      -8.152 -24.367 -17.464  1.00  0.00     0.000 G0
ENDBRANCH   5   6
ENDBRANCH   4   5
ENDBRANCH   2   4
BRANCH   1  10
ATOM     10  C   UNL     1      -5.067 -26.129 -17.465  1.00  0.00     0.111 C 
BRANCH  10  11
ATOM     11  C   UNL     1      -6.198 -25.790 -18.405  1.00  0.00     0.163 C 
ATOM     12  O   UNL     1      -5.894 -25.549 -19.604  1.00  0.00    -0.294 OA
BRANCH  11  13
ATOM     13  C   UNL     1      -7.636 -25.705 -17.984  1.00  0.00    -0.002 C 
ATOM     14  C   UNL     1      -8.490 -26.750 -18.210  1.00  0.00    -0.069 C 
ATOM     15  C   UNL     1      -9.984 -26.620 -18.018  1.00  0.00     0.039 C 
ATOM     16  C   UNL     1      -7.979 -28.114 -18.619  1.00  0.00     0.039 C 
BRANCH  13  17
ATOM     17  C   UNL     1      -8.148 -24.364 -17.471  1.00  0.00     0.066 CG0
ATOM     18  G   UNL     1      -7.433 -23.126 -17.983  1.00  0.00     0.000 G0
ENDBRANCH  13  17
ENDBRANCH  11  13
ENDBRANCH  10  11
ENDBRANCH   1  10
TORSDOF 0
ENDMDL
MODEL 7
REMARK VINA RESULT:    -4.069      2.653      4.875
REMARK INTER + INTRA:          -5.475
REMARK INTER:                  -5.384
REMARK INTRA:                  -0.091
REMARK UNBOUND:                 0.258
REMARK SMILES CC1=CCC(=C(C)C)C(=O)CC(C)=CCC1
REMARK SMILES IDX 12 1 14 2 13 3 15 4 16 5 2 6 1 7 3 8 11 10 9 11 10 12 5 13
REMARK SMILES IDX 6 14 7 15 8 16 4 17
REMARK H PARENT
REMARK Flexibility Score: 60.00
ROOT
ATOM      1  C   UNL     1      -3.971 -22.905 -16.756  1.00  0.00    -0.070 C 
ATOM      2  C   UNL     1      -5.068 -22.167 -16.471  1.00  0.00    -0.027 C 
ATOM      3  C   UNL     1      -2.708 -22.179 -17.146  1.00  0.00     0.039 C 
ENDROOT
BRANCH   2   4
ATOM      4  C   UNL     1      -6.361 -22.716 -15.926  1.00  0.00     0.032 C 
BRANCH   4   5
ATOM      5  C   UNL     1      -7.456 -22.633 -16.996  1.00  0.00     0.034 C 
BRANCH   5   6
ATOM      6  C   UNL     1      -8.321 -23.876 -17.039  1.00  0.00    -0.077 C 
ATOM      7  C   UNL     1      -9.555 -23.928 -16.173  1.00  0.00     0.039 C 
ATOM      8  C   UNL     1      -8.011 -24.982 -17.761  1.00  0.00    -0.023 CG0
ATOM      9  G   UNL     1      -6.866 -25.151 -18.743  1.00  0.00     0.000 G0
ENDBRANCH   5   6
ENDBRANCH   4   5
ENDBRANCH   2   4
BRANCH   1  10
ATOM     10  C   UNL     1      -3.954 -24.421 -16.722  1.00  0.00     0.111 C 
BRANCH  10  11
ATOM     11  C   UNL     1      -4.379 -25.019 -18.041  1.00  0.00     0.163 C 
ATOM     12  O   UNL     1      -3.652 -24.776 -19.042  1.00  0.00    -0.294 OA
BRANCH  11  13
ATOM     13  C   UNL     1      -5.613 -25.853 -18.221  1.00  0.00    -0.002 C 
ATOM     14  C   UNL     1      -5.563 -27.213 -18.068  1.00  0.00    -0.069 C 
ATOM     15  C   UNL     1      -6.716 -28.107 -18.464  1.00  0.00     0.039 C 
ATOM     16  C   UNL     1      -4.364 -27.893 -17.447  1.00  0.00     0.039 C 
BRANCH  13  17
ATOM     17  C   UNL     1      -6.866 -25.165 -18.752  1.00  0.00     0.066 CG0
ATOM     18  G   UNL     1      -8.003 -24.974 -17.764  1.00  0.00     0.000 G0
ENDBRANCH  13  17
ENDBRANCH  11  13
ENDBRANCH  10  11
ENDBRANCH   1  10
TORSDOF 0
ENDMDL
MODEL 8
REMARK VINA RESULT:    -3.996      2.442      4.976
REMARK INTER + INTRA:          -5.373
REMARK INTER:                  -5.525
REMARK INTRA:                   0.152
REMARK UNBOUND:                 0.258
REMARK SMILES CC1=CCC(=C(C)C)C(=O)CC(C)=CCC1
REMARK SMILES IDX 12 1 14 2 13 3 15 4 16 5 2 6 1 7 3 8 11 10 9 11 10 12 5 13
REMARK SMILES IDX 6 14 7 15 8 16 4 17
REMARK H PARENT
REMARK Flexibility Score: 60.00
ROOT
ATOM      1  C   UNL     1      -7.962 -22.499 -17.062  1.00  0.00    -0.070 C 
ATOM      2  C   UNL     1      -6.770 -21.930 -17.355  1.00  0.00    -0.027 C 
ATOM      3  C   UNL     1      -8.622 -22.132 -15.756  1.00  0.00     0.039 C 
ENDROOT
BRANCH   2   4
ATOM      4  C   UNL     1      -6.048 -22.068 -18.670  1.00  0.00     0.032 C 
BRANCH   4   5
ATOM      5  C   UNL     1      -4.958 -23.139 -18.558  1.00  0.00     0.034 C 
BRANCH   5   6
ATOM      6  C   UNL     1      -5.102 -24.227 -19.603  1.00  0.00    -0.077 C 
ATOM      7  C   UNL     1      -4.564 -23.973 -20.989  1.00  0.00     0.039 C 
ATOM      8  C   UNL     1      -5.754 -25.396 -19.384  1.00  0.00    -0.023 CG0
ATOM      9  G   UNL     1      -6.326 -25.902 -18.071  1.00  0.00     0.000 G0
ENDBRANCH   5   6
ENDBRANCH   4   5
ENDBRANCH   2   4
BRANCH   1  10
ATOM     10  C   UNL     1      -8.656 -23.497 -17.968  1.00  0.00     0.111 C 
BRANCH  10  11
ATOM     11  C   UNL     1      -8.621 -24.894 -17.398  1.00  0.00     0.163 C 
ATOM     12  O   UNL     1      -9.262 -25.095 -16.331  1.00  0.00    -0.294 OA
BRANCH  11  13
ATOM     13  C   UNL     1      -7.858 -26.029 -18.016  1.00  0.00    -0.002 C 
ATOM     14  C   UNL     1      -8.493 -27.193 -18.354  1.00  0.00    -0.069 C 
ATOM     15  C   UNL     1      -7.730 -28.435 -18.758  1.00  0.00     0.039 C 
ATOM     16  C   UNL     1     -10.002 -27.287 -18.390  1.00  0.00     0.039 C 
BRANCH  13  17
ATOM     17  C   UNL     1      -6.339 -25.911 -18.082  1.00  0.00     0.066 CG0
ATOM     18  G   UNL     1      -5.756 -25.407 -19.391  1.00  0.00     0.000 G0
ENDBRANCH  13  17
ENDBRANCH  11  13
ENDBRANCH  10  11
ENDBRANCH   1  10
TORSDOF 0
ENDMDL
MODEL 9
REMARK VINA RESULT:    -3.986      2.318      3.764
REMARK INTER + INTRA:          -5.360
REMARK INTER:                  -5.712
REMARK INTRA:                   0.353
REMARK UNBOUND:                 0.258
REMARK SMILES CC1=CCC(=C(C)C)C(=O)CC(C)=CCC1
REMARK SMILES IDX 12 1 14 2 13 3 15 4 16 5 2 6 1 7 3 8 11 10 9 11 10 12 5 13
REMARK SMILES IDX 6 14 7 15 8 16 4 17
REMARK H PARENT
REMARK Flexibility Score: 60.00
ROOT
ATOM      1  C   UNL     1      -9.037 -24.302 -16.845  1.00  0.00    -0.070 C 
ATOM      2  C   UNL     1      -8.716 -23.209 -16.116  1.00  0.00    -0.027 C 
ATOM      3  C   UNL     1     -10.110 -25.219 -16.315  1.00  0.00     0.039 C 
ENDROOT
BRANCH   2   4
ATOM      4  C   UNL     1      -7.780 -22.117 -16.565  1.00  0.00     0.032 C 
BRANCH   4   5
ATOM      5  C   UNL     1      -6.395 -22.327 -15.942  1.00  0.00     0.034 C 
BRANCH   5   6
ATOM      6  C   UNL     1      -5.313 -22.526 -16.984  1.00  0.00    -0.077 C 
ATOM      7  C   UNL     1      -4.669 -21.309 -17.599  1.00  0.00     0.039 C 
ATOM      8  C   UNL     1      -4.937 -23.742 -17.452  1.00  0.00    -0.023 CG0
ATOM      9  G   UNL     1      -5.393 -25.103 -16.957  1.00  0.00     0.000 G0
ENDBRANCH   5   6
ENDBRANCH   4   5
ENDBRANCH   2   4
BRANCH   1  10
ATOM     10  C   UNL     1      -8.361 -24.661 -18.154  1.00  0.00     0.111 C 
BRANCH  10  11
ATOM     11  C   UNL     1      -7.585 -25.951 -18.052  1.00  0.00     0.163 C 
ATOM     12  O   UNL     1      -8.251 -27.021 -18.022  1.00  0.00    -0.294 OA
BRANCH  11  13
ATOM     13  C   UNL     1      -6.088 -26.021 -17.964  1.00  0.00    -0.002 C 
ATOM     14  C   UNL     1      -5.393 -26.976 -18.655  1.00  0.00    -0.069 C 
ATOM     15  C   UNL     1      -3.922 -27.228 -18.415  1.00  0.00     0.039 C 
ATOM     16  C   UNL     1      -6.051 -27.801 -19.738  1.00  0.00     0.039 C 
BRANCH  13  17
ATOM     17  C   UNL     1      -5.393 -25.121 -16.947  1.00  0.00     0.066 CG0
ATOM     18  G   UNL     1      -4.950 -23.756 -17.443  1.00  0.00     0.000 G0
ENDBRANCH  13  17
ENDBRANCH  11  13
ENDBRANCH  10  11
ENDBRANCH   1  10
TORSDOF 0
ENDMDL
