MODEL 1
REMARK VINA RESULT:    -4.724      0.000      0.000
REMARK INTER + INTRA:          -8.127
REMARK INTER:                  -6.795
REMARK INTRA:                  -1.332
REMARK UNBOUND:                -1.332
REMARK SMILES O=C(CO)[C@H](O)[C@@H](O)[C@H](O)CO
REMARK SMILES IDX 7 1 9 2 11 3 12 4 10 6 5 8 2 9 1 10 3 11 4 12 6 14 8 16
REMARK H PARENT 12 5 10 7 4 13 6 15 8 17
REMARK Flexibility Score: inf
ROOT
ATOM      1  C   UNL     1      13.489  16.938  25.895  1.00  0.00     0.181 C 
ENDROOT
BRANCH   1   2
ATOM      2  C   UNL     1      12.026  17.288  25.537  1.00  0.00     0.171 C 
BRANCH   2   3
ATOM      3  C   UNL     1      11.778  17.140  24.026  1.00  0.00     0.190 C 
BRANCH   3   4
ATOM      4  O   UNL     1      11.443  15.816  23.708  1.00  0.00    -0.394 OA
ATOM      5  H   UNL     1      11.044  15.419  24.527  1.00  0.00     0.210 HD
ENDBRANCH   3   4
ENDBRANCH   2   3
BRANCH   2   6
ATOM      6  O   UNL     1      11.151  16.445  26.245  1.00  0.00    -0.388 OA
ATOM      7  H   UNL     1      10.794  16.971  27.007  1.00  0.00     0.211 HD
ENDBRANCH   2   6
ENDBRANCH   1   2
BRANCH   1   8
ATOM      8  C   UNL     1      13.847  17.339  27.345  1.00  0.00     0.214 C 
BRANCH   8   9
ATOM      9  C   UNL     1      14.416  16.167  28.117  1.00  0.00     0.189 C 
ATOM     10  O   UNL     1      15.591  15.865  27.975  1.00  0.00    -0.294 OA
BRANCH   9  11
ATOM     11  C   UNL     1      13.562  15.365  29.062  1.00  0.00     0.234 C 
BRANCH  11  12
ATOM     12  O   UNL     1      12.292  15.158  28.505  1.00  0.00    -0.388 OA
ATOM     13  H   UNL     1      12.280  14.227  28.160  1.00  0.00     0.211 HD
ENDBRANCH  11  12
ENDBRANCH   9  11
ENDBRANCH   8   9
BRANCH   8  14
ATOM     14  O   UNL     1      12.692  17.800  27.997  1.00  0.00    -0.382 OA
ATOM     15  H   UNL     1      12.160  18.296  27.320  1.00  0.00     0.211 HD
ENDBRANCH   8  14
ENDBRANCH   1   8
BRANCH   1  16
ATOM     16  O   UNL     1      13.684  15.554  25.732  1.00  0.00    -0.387 OA
ATOM     17  H   UNL     1      14.024  15.413  24.810  1.00  0.00     0.211 HD
ENDBRANCH   1  16
TORSDOF 10
ENDMDL
MODEL 2
REMARK VINA RESULT:    -4.672      0.993      1.773
REMARK INTER + INTRA:          -8.053
REMARK INTER:                  -7.279
REMARK INTRA:                  -0.774
REMARK UNBOUND:                -1.332
REMARK SMILES O=C(CO)[C@H](O)[C@@H](O)[C@H](O)CO
REMARK SMILES IDX 7 1 9 2 11 3 12 4 10 6 5 8 2 9 1 10 3 11 4 12 6 14 8 16
REMARK H PARENT 12 5 10 7 4 13 6 15 8 17
REMARK Flexibility Score: inf
ROOT
ATOM      1  C   UNL     1      12.637  16.303  26.290  1.00  0.00     0.181 C 
ENDROOT
BRANCH   1   2
ATOM      2  C   UNL     1      11.953  17.369  25.403  1.00  0.00     0.171 C 
BRANCH   2   3
ATOM      3  C   UNL     1      11.814  16.873  23.954  1.00  0.00     0.190 C 
BRANCH   3   4
ATOM      4  O   UNL     1      11.416  15.528  23.930  1.00  0.00    -0.394 OA
ATOM      5  H   UNL     1      10.443  15.515  24.133  1.00  0.00     0.210 HD
ENDBRANCH   3   4
ENDBRANCH   2   3
BRANCH   2   6
ATOM      6  O   UNL     1      10.683  17.674  25.924  1.00  0.00    -0.388 OA
ATOM      7  H   UNL     1      10.401  16.898  26.474  1.00  0.00     0.211 HD
ENDBRANCH   2   6
ENDBRANCH   1   2
BRANCH   1   8
ATOM      8  C   UNL     1      13.330  16.927  27.524  1.00  0.00     0.214 C 
BRANCH   8   9
ATOM      9  C   UNL     1      13.844  15.861  28.467  1.00  0.00     0.189 C 
ATOM     10  O   UNL     1      13.053  15.232  29.155  1.00  0.00    -0.294 OA
BRANCH   9  11
ATOM     11  C   UNL     1      15.313  15.554  28.574  1.00  0.00     0.234 C 
BRANCH  11  12
ATOM     12  O   UNL     1      16.066  16.612  28.046  1.00  0.00    -0.388 OA
ATOM     13  H   UNL     1      16.740  16.853  28.734  1.00  0.00     0.211 HD
ENDBRANCH  11  12
ENDBRANCH   9  11
ENDBRANCH   8   9
BRANCH   8  14
ATOM     14  O   UNL     1      12.413  17.741  28.208  1.00  0.00    -0.382 OA
ATOM     15  H   UNL     1      12.824  17.962  29.086  1.00  0.00     0.211 HD
ENDBRANCH   8  14
ENDBRANCH   1   8
BRANCH   1  16
ATOM     16  O   UNL     1      11.671  15.373  26.719  1.00  0.00    -0.387 OA
ATOM     17  H   UNL     1      10.967  15.883  27.199  1.00  0.00     0.211 HD
ENDBRANCH   1  16
TORSDOF 10
ENDMDL
MODEL 3
REMARK VINA RESULT:    -4.667      1.265      1.745
REMARK INTER + INTRA:          -8.046
REMARK INTER:                  -7.283
REMARK INTRA:                  -0.763
REMARK UNBOUND:                -1.332
REMARK SMILES O=C(CO)[C@H](O)[C@@H](O)[C@H](O)CO
REMARK SMILES IDX 7 1 9 2 11 3 12 4 10 6 5 8 2 9 1 10 3 11 4 12 6 14 8 16
REMARK H PARENT 12 5 10 7 4 13 6 15 8 17
REMARK Flexibility Score: inf
ROOT
ATOM      1  C   UNL     1      12.529  15.734  26.150  1.00  0.00     0.181 C 
ENDROOT
BRANCH   1   2
ATOM      2  C   UNL     1      12.125  17.140  25.648  1.00  0.00     0.171 C 
BRANCH   2   3
ATOM      3  C   UNL     1      11.187  17.041  24.432  1.00  0.00     0.190 C 
BRANCH   3   4
ATOM      4  O   UNL     1      11.397  15.836  23.745  1.00  0.00    -0.394 OA
ATOM      5  H   UNL     1      10.565  15.652  23.234  1.00  0.00     0.210 HD
ENDBRANCH   3   4
ENDBRANCH   2   3
BRANCH   2   6
ATOM      6  O   UNL     1      11.487  17.847  26.682  1.00  0.00    -0.388 OA
ATOM      7  H   UNL     1      10.733  18.345  26.271  1.00  0.00     0.211 HD
ENDBRANCH   2   6
ENDBRANCH   1   2
BRANCH   1   8
ATOM      8  C   UNL     1      14.044  15.635  26.447  1.00  0.00     0.214 C 
BRANCH   8   9
ATOM      9  C   UNL     1      14.364  16.107  27.849  1.00  0.00     0.189 C 
ATOM     10  O   UNL     1      14.232  17.288  28.133  1.00  0.00    -0.294 OA
BRANCH   9  11
ATOM     11  C   UNL     1      14.841  15.148  28.908  1.00  0.00     0.234 C 
BRANCH  11  12
ATOM     12  O   UNL     1      13.754  14.440  29.441  1.00  0.00    -0.388 OA
ATOM     13  H   UNL     1      14.126  13.813  30.115  1.00  0.00     0.211 HD
ENDBRANCH  11  12
ENDBRANCH   9  11
ENDBRANCH   8   9
BRANCH   8  14
ATOM     14  O   UNL     1      14.750  16.424  25.526  1.00  0.00    -0.382 OA
ATOM     15  H   UNL     1      15.515  15.875  25.205  1.00  0.00     0.211 HD
ENDBRANCH   8  14
ENDBRANCH   1   8
BRANCH   1  16
ATOM     16  O   UNL     1      11.805  15.438  27.320  1.00  0.00    -0.387 OA
ATOM     17  H   UNL     1      11.956  16.186  27.956  1.00  0.00     0.211 HD
ENDBRANCH   1  16
TORSDOF 10
ENDMDL
MODEL 4
REMARK VINA RESULT:    -4.558      0.958      4.291
REMARK INTER + INTRA:          -7.889
REMARK INTER:                  -7.276
REMARK INTRA:                  -0.613
REMARK UNBOUND:                -1.332
REMARK SMILES O=C(CO)[C@H](O)[C@@H](O)[C@H](O)CO
REMARK SMILES IDX 7 1 9 2 11 3 12 4 10 6 5 8 2 9 1 10 3 11 4 12 6 14 8 16
REMARK H PARENT 12 5 10 7 4 13 6 15 8 17
REMARK Flexibility Score: inf
ROOT
ATOM      1  C   UNL     1      13.615  17.081  27.375  1.00  0.00     0.181 C 
ENDROOT
BRANCH   1   2
ATOM      2  C   UNL     1      13.579  15.564  27.677  1.00  0.00     0.171 C 
BRANCH   2   3
ATOM      3  C   UNL     1      14.831  15.129  28.457  1.00  0.00     0.190 C 
BRANCH   3   4
ATOM      4  O   UNL     1      15.618  16.242  28.787  1.00  0.00    -0.394 OA
ATOM      5  H   UNL     1      15.194  16.664  29.581  1.00  0.00     0.210 HD
ENDBRANCH   3   4
ENDBRANCH   2   3
BRANCH   2   6
ATOM      6  O   UNL     1      12.426  15.257  28.421  1.00  0.00    -0.388 OA
ATOM      7  H   UNL     1      12.095  16.108  28.808  1.00  0.00     0.211 HD
ENDBRANCH   2   6
ENDBRANCH   1   2
BRANCH   1   8
ATOM      8  C   UNL     1      13.441  17.380  25.867  1.00  0.00     0.214 C 
BRANCH   8   9
ATOM      9  C   UNL     1      11.991  17.273  25.447  1.00  0.00     0.189 C 
ATOM     10  O   UNL     1      11.193  18.125  25.811  1.00  0.00    -0.294 OA
BRANCH   9  11
ATOM     11  C   UNL     1      11.508  16.138  24.584  1.00  0.00     0.234 C 
BRANCH  11  12
ATOM     12  O   UNL     1      11.517  16.521  23.236  1.00  0.00    -0.388 OA
ATOM     13  H   UNL     1      12.114  15.883  22.763  1.00  0.00     0.211 HD
ENDBRANCH  11  12
ENDBRANCH   9  11
ENDBRANCH   8   9
BRANCH   8  14
ATOM     14  O   UNL     1      14.203  16.466  25.123  1.00  0.00    -0.382 OA
ATOM     15  H   UNL     1      13.932  15.557  25.421  1.00  0.00     0.211 HD
ENDBRANCH   8  14
ENDBRANCH   1   8
BRANCH   1  16
ATOM     16  O   UNL     1      12.589  17.717  28.098  1.00  0.00    -0.387 OA
ATOM     17  H   UNL     1      12.111  17.014  28.610  1.00  0.00     0.211 HD
ENDBRANCH   1  16
TORSDOF 10
ENDMDL
MODEL 5
REMARK VINA RESULT:    -4.530      1.129      4.375
REMARK INTER + INTRA:          -7.849
REMARK INTER:                  -6.958
REMARK INTRA:                  -0.891
REMARK UNBOUND:                -1.332
REMARK SMILES O=C(CO)[C@H](O)[C@@H](O)[C@H](O)CO
REMARK SMILES IDX 7 1 9 2 11 3 12 4 10 6 5 8 2 9 1 10 3 11 4 12 6 14 8 16
REMARK H PARENT 12 5 10 7 4 13 6 15 8 17
REMARK Flexibility Score: inf
ROOT
ATOM      1  C   UNL     1      13.059  16.708  27.463  1.00  0.00     0.181 C 
ENDROOT
BRANCH   1   2
ATOM      2  C   UNL     1      14.340  16.468  28.295  1.00  0.00     0.171 C 
BRANCH   2   3
ATOM      3  C   UNL     1      14.621  14.963  28.450  1.00  0.00     0.190 C 
BRANCH   3   4
ATOM      4  O   UNL     1      13.839  14.419  29.480  1.00  0.00    -0.394 OA
ATOM      5  H   UNL     1      12.919  14.321  29.117  1.00  0.00     0.210 HD
ENDBRANCH   3   4
ENDBRANCH   2   3
BRANCH   2   6
ATOM      6  O   UNL     1      15.434  17.092  27.671  1.00  0.00    -0.388 OA
ATOM      7  H   UNL     1      15.683  17.871  28.233  1.00  0.00     0.211 HD
ENDBRANCH   2   6
ENDBRANCH   1   2
BRANCH   1   8
ATOM      8  C   UNL     1      13.378  17.151  26.016  1.00  0.00     0.214 C 
BRANCH   8   9
ATOM      9  C   UNL     1      12.116  17.492  25.252  1.00  0.00     0.189 C 
ATOM     10  O   UNL     1      11.229  18.125  25.805  1.00  0.00    -0.294 OA
BRANCH   9  11
ATOM     11  C   UNL     1      11.931  17.070  23.819  1.00  0.00     0.234 C 
BRANCH  11  12
ATOM     12  O   UNL     1      11.477  15.745  23.763  1.00  0.00    -0.388 OA
ATOM     13  H   UNL     1      11.808  15.295  24.583  1.00  0.00     0.211 HD
ENDBRANCH  11  12
ENDBRANCH   9  11
ENDBRANCH   8   9
BRANCH   8  14
ATOM     14  O   UNL     1      14.050  16.114  25.351  1.00  0.00    -0.382 OA
ATOM     15  H   UNL     1      14.888  15.944  25.858  1.00  0.00     0.211 HD
ENDBRANCH   8  14
ENDBRANCH   1   8
BRANCH   1  16
ATOM     16  O   UNL     1      12.302  15.522  27.431  1.00  0.00    -0.387 OA
ATOM     17  H   UNL     1      11.849  15.487  26.548  1.00  0.00     0.211 HD
ENDBRANCH   1  16
TORSDOF 10
ENDMDL
MODEL 6
REMARK VINA RESULT:    -4.456      1.145      1.727
REMARK INTER + INTRA:          -7.742
REMARK INTER:                  -7.318
REMARK INTRA:                  -0.424
REMARK UNBOUND:                -1.332
REMARK SMILES O=C(CO)[C@H](O)[C@@H](O)[C@H](O)CO
REMARK SMILES IDX 7 1 9 2 11 3 12 4 10 6 5 8 2 9 1 10 3 11 4 12 6 14 8 16
REMARK H PARENT 12 5 10 7 4 13 6 15 8 17
REMARK Flexibility Score: inf
ROOT
ATOM      1  C   UNL     1      12.760  15.880  26.552  1.00  0.00     0.181 C 
ENDROOT
BRANCH   1   2
ATOM      2  C   UNL     1      13.398  15.889  25.143  1.00  0.00     0.171 C 
BRANCH   2   3
ATOM      3  C   UNL     1      12.466  16.563  24.122  1.00  0.00     0.190 C 
BRANCH   3   4
ATOM      4  O   UNL     1      11.430  15.694  23.751  1.00  0.00    -0.394 OA
ATOM      5  H   UNL     1      11.759  14.771  23.919  1.00  0.00     0.210 HD
ENDBRANCH   3   4
ENDBRANCH   2   3
BRANCH   2   6
ATOM      6  O   UNL     1      14.627  16.569  25.185  1.00  0.00    -0.388 OA
ATOM      7  H   UNL     1      15.188  16.115  25.866  1.00  0.00     0.211 HD
ENDBRANCH   2   6
ENDBRANCH   1   2
BRANCH   1   8
ATOM      8  C   UNL     1      13.549  16.753  27.556  1.00  0.00     0.214 C 
BRANCH   8   9
ATOM      9  C   UNL     1      14.522  15.921  28.365  1.00  0.00     0.189 C 
ATOM     10  O   UNL     1      15.724  16.067  28.198  1.00  0.00    -0.294 OA
BRANCH   9  11
ATOM     11  C   UNL     1      14.038  14.917  29.377  1.00  0.00     0.234 C 
BRANCH  11  12
ATOM     12  O   UNL     1      14.578  13.654  29.097  1.00  0.00    -0.388 OA
ATOM     13  H   UNL     1      15.533  13.797  28.866  1.00  0.00     0.211 HD
ENDBRANCH  11  12
ENDBRANCH   9  11
ENDBRANCH   8   9
BRANCH   8  14
ATOM     14  O   UNL     1      12.649  17.385  28.429  1.00  0.00    -0.382 OA
ATOM     15  H   UNL     1      13.176  17.685  29.216  1.00  0.00     0.211 HD
ENDBRANCH   8  14
ENDBRANCH   1   8
BRANCH   1  16
ATOM     16  O   UNL     1      11.439  16.354  26.461  1.00  0.00    -0.387 OA
ATOM     17  H   UNL     1      10.867  15.582  26.210  1.00  0.00     0.211 HD
ENDBRANCH   1  16
TORSDOF 10
ENDMDL
MODEL 7
REMARK VINA RESULT:    -4.336      2.098      3.236
REMARK INTER + INTRA:          -7.570
REMARK INTER:                  -7.195
REMARK INTRA:                  -0.375
REMARK UNBOUND:                -1.332
REMARK SMILES O=C(CO)[C@H](O)[C@@H](O)[C@H](O)CO
REMARK SMILES IDX 7 1 9 2 11 3 12 4 10 6 5 8 2 9 1 10 3 11 4 12 6 14 8 16
REMARK H PARENT 12 5 10 7 4 13 6 15 8 17
REMARK Flexibility Score: inf
ROOT
ATOM      1  C   UNL     1      13.679  15.324  28.064  1.00  0.00     0.181 C 
ENDROOT
BRANCH   1   2
ATOM      2  C   UNL     1      13.729  16.699  27.358  1.00  0.00     0.171 C 
BRANCH   2   3
ATOM      3  C   UNL     1      13.686  16.533  25.829  1.00  0.00     0.190 C 
BRANCH   3   4
ATOM      4  O   UNL     1      13.411  15.202  25.485  1.00  0.00    -0.394 OA
ATOM      5  H   UNL     1      12.433  15.147  25.319  1.00  0.00     0.210 HD
ENDBRANCH   3   4
ENDBRANCH   2   3
BRANCH   2   6
ATOM      6  O   UNL     1      12.644  17.488  27.780  1.00  0.00    -0.388 OA
ATOM      7  H   UNL     1      12.622  17.444  28.771  1.00  0.00     0.211 HD
ENDBRANCH   2   6
ENDBRANCH   1   2
BRANCH   1   8
ATOM      8  C   UNL     1      14.994  15.007  28.816  1.00  0.00     0.214 C 
BRANCH   8   9
ATOM      9  C   UNL     1      14.730  14.218  30.080  1.00  0.00     0.189 C 
ATOM     10  O   UNL     1      14.209  14.770  31.038  1.00  0.00    -0.294 OA
BRANCH   9  11
ATOM     11  C   UNL     1      15.094  12.761  30.183  1.00  0.00     0.234 C 
BRANCH  11  12
ATOM     12  O   UNL     1      15.861  12.536  31.334  1.00  0.00    -0.388 OA
ATOM     13  H   UNL     1      15.221  12.409  32.083  1.00  0.00     0.211 HD
ENDBRANCH  11  12
ENDBRANCH   9  11
ENDBRANCH   8   9
BRANCH   8  14
ATOM     14  O   UNL     1      15.638  16.208  29.151  1.00  0.00    -0.382 OA
ATOM     15  H   UNL     1      14.925  16.886  29.293  1.00  0.00     0.211 HD
ENDBRANCH   8  14
ENDBRANCH   1   8
BRANCH   1  16
ATOM     16  O   UNL     1      12.607  15.315  28.976  1.00  0.00    -0.387 OA
ATOM     17  H   UNL     1      12.041  14.530  28.755  1.00  0.00     0.211 HD
ENDBRANCH   1  16
TORSDOF 10
ENDMDL
MODEL 8
REMARK VINA RESULT:    -4.233      1.257      2.523
REMARK INTER + INTRA:          -7.422
REMARK INTER:                  -6.847
REMARK INTRA:                  -0.575
REMARK UNBOUND:                -1.332
REMARK SMILES O=C(CO)[C@H](O)[C@@H](O)[C@H](O)CO
REMARK SMILES IDX 7 1 9 2 11 3 12 4 10 6 5 8 2 9 1 10 3 11 4 12 6 14 8 16
REMARK H PARENT 12 5 10 7 4 13 6 15 8 17
REMARK Flexibility Score: inf
ROOT
ATOM      1  C   UNL     1      12.229  16.360  26.231  1.00  0.00     0.181 C 
ENDROOT
BRANCH   1   2
ATOM      2  C   UNL     1      12.988  16.295  24.885  1.00  0.00     0.171 C 
BRANCH   2   3
ATOM      3  C   UNL     1      13.932  17.500  24.727  1.00  0.00     0.190 C 
BRANCH   3   4
ATOM      4  O   UNL     1      15.270  17.096  24.844  1.00  0.00    -0.394 OA
ATOM      5  H   UNL     1      15.571  16.842  23.933  1.00  0.00     0.210 HD
ENDBRANCH   3   4
ENDBRANCH   2   3
BRANCH   2   6
ATOM      6  O   UNL     1      13.727  15.101  24.815  1.00  0.00    -0.388 OA
ATOM      7  H   UNL     1      13.964  14.852  25.746  1.00  0.00     0.211 HD
ENDBRANCH   2   6
ENDBRANCH   1   2
BRANCH   1   8
ATOM      8  C   UNL     1      13.071  17.030  27.343  1.00  0.00     0.214 C 
BRANCH   8   9
ATOM      9  C   UNL     1      13.708  15.999  28.249  1.00  0.00     0.189 C 
ATOM     10  O   UNL     1      12.999  15.291  28.950  1.00  0.00    -0.294 OA
BRANCH   9  11
ATOM     11  C   UNL     1      15.202  15.823  28.305  1.00  0.00     0.234 C 
BRANCH  11  12
ATOM     12  O   UNL     1      15.839  16.942  27.752  1.00  0.00    -0.388 OA
ATOM     13  H   UNL     1      16.786  16.906  28.048  1.00  0.00     0.211 HD
ENDBRANCH  11  12
ENDBRANCH   9  11
ENDBRANCH   8   9
BRANCH   8  14
ATOM     14  O   UNL     1      12.244  17.866  28.110  1.00  0.00    -0.382 OA
ATOM     15  H   UNL     1      12.564  18.796  27.966  1.00  0.00     0.211 HD
ENDBRANCH   8  14
ENDBRANCH   1   8
BRANCH   1  16
ATOM     16  O   UNL     1      11.035  17.082  26.051  1.00  0.00    -0.387 OA
ATOM     17  H   UNL     1      10.682  17.294  26.955  1.00  0.00     0.211 HD
ENDBRANCH   1  16
TORSDOF 10
ENDMDL
MODEL 9
REMARK VINA RESULT:    -4.210      2.010      3.267
REMARK INTER + INTRA:          -7.388
REMARK INTER:                  -6.777
REMARK INTRA:                  -0.611
REMARK UNBOUND:                -1.332
REMARK SMILES O=C(CO)[C@H](O)[C@@H](O)[C@H](O)CO
REMARK SMILES IDX 7 1 9 2 11 3 12 4 10 6 5 8 2 9 1 10 3 11 4 12 6 14 8 16
REMARK H PARENT 12 5 10 7 4 13 6 15 8 17
REMARK Flexibility Score: inf
ROOT
ATOM      1  C   UNL     1      14.241  15.472  27.406  1.00  0.00     0.181 C 
ENDROOT
BRANCH   1   2
ATOM      2  C   UNL     1      12.815  15.977  27.083  1.00  0.00     0.171 C 
BRANCH   2   3
ATOM      3  C   UNL     1      12.526  15.882  25.575  1.00  0.00     0.190 C 
BRANCH   3   4
ATOM      4  O   UNL     1      13.594  15.265  24.907  1.00  0.00    -0.394 OA
ATOM      5  H   UNL     1      14.423  15.544  25.377  1.00  0.00     0.210 HD
ENDBRANCH   3   4
ENDBRANCH   2   3
BRANCH   2   6
ATOM      6  O   UNL     1      11.871  15.217  27.795  1.00  0.00    -0.388 OA
ATOM      7  H   UNL     1      12.294  14.342  27.994  1.00  0.00     0.211 HD
ENDBRANCH   2   6
ENDBRANCH   1   2
BRANCH   1   8
ATOM      8  C   UNL     1      15.202  16.630  27.767  1.00  0.00     0.214 C 
BRANCH   8   9
ATOM      9  C   UNL     1      16.125  16.960  26.615  1.00  0.00     0.189 C 
ATOM     10  O   UNL     1      15.688  17.562  25.645  1.00  0.00    -0.294 OA
BRANCH   9  11
ATOM     11  C   UNL     1      17.577  16.565  26.638  1.00  0.00     0.234 C 
BRANCH  11  12
ATOM     12  O   UNL     1      18.236  17.217  27.690  1.00  0.00    -0.388 OA
ATOM     13  H   UNL     1      19.180  16.906  27.671  1.00  0.00     0.211 HD
ENDBRANCH  11  12
ENDBRANCH   9  11
ENDBRANCH   8   9
BRANCH   8  14
ATOM     14  O   UNL     1      15.972  16.262  28.882  1.00  0.00    -0.382 OA
ATOM     15  H   UNL     1      15.791  15.299  29.050  1.00  0.00     0.211 HD
ENDBRANCH   8  14
ENDBRANCH   1   8
BRANCH   1  16
ATOM     16  O   UNL     1      14.175  14.568  28.482  1.00  0.00    -0.387 OA
ATOM     17  H   UNL     1      14.904  14.809  29.112  1.00  0.00     0.211 HD
ENDBRANCH   1  16
TORSDOF 10
ENDMDL
