MODEL 1
REMARK VINA RESULT:    -3.382      0.000      0.000
REMARK INTER + INTRA:          -5.830
REMARK INTER:                  -4.964
REMARK INTRA:                  -0.865
REMARK UNBOUND:                -0.865
REMARK SMILES O=C([O-])CCCCCCCC(=O)[O-]
REMARK SMILES IDX 7 1 6 2 5 3 4 4 2 5 1 6 3 7 8 8 9 9 10 10 11 11 12 12 13 13
REMARK H PARENT
REMARK Flexibility Score: inf
ROOT
ATOM      1  C   UNL     1      38.697  22.174  31.617  1.00  0.00     0.000 C 
ENDROOT
BRANCH   1   2
ATOM      2  C   UNL     1      37.675  23.278  31.302  1.00  0.00     0.000 C 
BRANCH   2   3
ATOM      3  C   UNL     1      37.490  23.501  29.793  1.00  0.00     0.006 C 
BRANCH   3   4
ATOM      4  C   UNL     1      37.952  22.276  28.998  1.00  0.00     0.053 C 
BRANCH   4   5
ATOM      5  C   UNL     1      38.949  22.674  27.957  1.00  0.00     0.041 C 
ATOM      6  O   UNL     1      38.719  23.653  27.199  1.00  0.00    -0.550 OA
ATOM      7  O   UNL     1      40.114  21.934  27.790  1.00  0.00    -0.550 OA
ENDBRANCH   4   5
ENDBRANCH   3   4
ENDBRANCH   2   3
ENDBRANCH   1   2
BRANCH   1   8
ATOM      8  C   UNL     1      39.786  22.638  32.596  1.00  0.00     0.000 C 
BRANCH   8   9
ATOM      9  C   UNL     1      40.556  23.838  32.030  1.00  0.00     0.006 C 
BRANCH   9  10
ATOM     10  C   UNL     1      41.297  23.459  30.744  1.00  0.00     0.053 C 
BRANCH  10  11
ATOM     11  C   UNL     1      41.457  24.656  29.860  1.00  0.00     0.041 C 
ATOM     12  O   UNL     1      42.579  24.930  29.362  1.00  0.00    -0.550 OA
ATOM     13  O   UNL     1      40.353  25.440  29.546  1.00  0.00    -0.550 OA
ENDBRANCH  10  11
ENDBRANCH   9  10
ENDBRANCH   8   9
ENDBRANCH   1   8
TORSDOF 8
ENDMDL
MODEL 2
REMARK VINA RESULT:    -3.377     15.054     16.859
REMARK INTER + INTRA:          -5.822
REMARK INTER:                  -5.498
REMARK INTRA:                  -0.323
REMARK UNBOUND:                -0.865
REMARK SMILES O=C([O-])CCCCCCCC(=O)[O-]
REMARK SMILES IDX 7 1 6 2 5 3 4 4 2 5 1 6 3 7 8 8 9 9 10 10 11 11 12 12 13 13
REMARK H PARENT
REMARK Flexibility Score: inf
ROOT
ATOM      1  C   UNL     1      29.773  32.632  22.993  1.00  0.00     0.000 C 
ENDROOT
BRANCH   1   2
ATOM      2  C   UNL     1      30.927  33.647  23.023  1.00  0.00     0.000 C 
BRANCH   2   3
ATOM      3  C   UNL     1      32.272  33.028  22.610  1.00  0.00     0.006 C 
BRANCH   3   4
ATOM      4  C   UNL     1      32.691  33.510  21.218  1.00  0.00     0.053 C 
BRANCH   4   5
ATOM      5  C   UNL     1      33.940  32.814  20.778  1.00  0.00     0.041 C 
ATOM      6  O   UNL     1      35.052  33.132  21.276  1.00  0.00    -0.550 OA
ATOM      7  O   UNL     1      33.883  31.846  19.782  1.00  0.00    -0.550 OA
ENDBRANCH   4   5
ENDBRANCH   3   4
ENDBRANCH   2   3
ENDBRANCH   1   2
BRANCH   1   8
ATOM      8  C   UNL     1      28.398  33.295  23.166  1.00  0.00     0.000 C 
BRANCH   8   9
ATOM      9  C   UNL     1      28.044  34.150  21.943  1.00  0.00     0.006 C 
BRANCH   9  10
ATOM     10  C   UNL     1      27.769  33.272  20.718  1.00  0.00     0.053 C 
BRANCH  10  11
ATOM     11  C   UNL     1      26.741  33.909  19.837  1.00  0.00     0.041 C 
ATOM     12  O   UNL     1      26.671  35.163  19.749  1.00  0.00    -0.550 OA
ATOM     13  O   UNL     1      25.894  33.117  19.073  1.00  0.00    -0.550 OA
ENDBRANCH  10  11
ENDBRANCH   9  10
ENDBRANCH   8   9
ENDBRANCH   1   8
TORSDOF 8
ENDMDL
MODEL 3
REMARK VINA RESULT:    -3.352     14.110     15.562
REMARK INTER + INTRA:          -5.785
REMARK INTER:                  -5.338
REMARK INTRA:                  -0.447
REMARK UNBOUND:                -0.865
REMARK SMILES O=C([O-])CCCCCCCC(=O)[O-]
REMARK SMILES IDX 7 1 6 2 5 3 4 4 2 5 1 6 3 7 8 8 9 9 10 10 11 11 12 12 13 13
REMARK H PARENT
REMARK Flexibility Score: inf
ROOT
ATOM      1  C   UNL     1      30.982  34.059  23.191  1.00  0.00     0.000 C 
ENDROOT
BRANCH   1   2
ATOM      2  C   UNL     1      30.499  32.603  23.091  1.00  0.00     0.000 C 
BRANCH   2   3
ATOM      3  C   UNL     1      28.969  32.491  23.013  1.00  0.00     0.006 C 
BRANCH   3   4
ATOM      4  C   UNL     1      28.370  33.682  22.259  1.00  0.00     0.053 C 
BRANCH   4   5
ATOM      5  C   UNL     1      28.084  33.312  20.838  1.00  0.00     0.041 C 
ATOM      6  O   UNL     1      26.902  33.084  20.468  1.00  0.00    -0.550 OA
ATOM      7  O   UNL     1      29.129  33.174  19.932  1.00  0.00    -0.550 OA
ENDBRANCH   4   5
ENDBRANCH   3   4
ENDBRANCH   2   3
ENDBRANCH   1   2
BRANCH   1   8
ATOM      8  C   UNL     1      32.395  34.254  22.620  1.00  0.00     0.000 C 
BRANCH   8   9
ATOM      9  C   UNL     1      33.031  32.907  22.256  1.00  0.00     0.006 C 
BRANCH   9  10
ATOM     10  C   UNL     1      34.350  33.107  21.503  1.00  0.00     0.053 C 
BRANCH  10  11
ATOM     11  C   UNL     1      34.350  32.322  20.229  1.00  0.00     0.041 C 
ATOM     12  O   UNL     1      35.334  31.596  19.933  1.00  0.00    -0.550 OA
ATOM     13  O   UNL     1      33.240  32.353  19.394  1.00  0.00    -0.550 OA
ENDBRANCH  10  11
ENDBRANCH   9  10
ENDBRANCH   8   9
ENDBRANCH   1   8
TORSDOF 8
ENDMDL
MODEL 4
REMARK VINA RESULT:    -3.336     15.670     17.127
REMARK INTER + INTRA:          -5.762
REMARK INTER:                  -5.459
REMARK INTRA:                  -0.303
REMARK UNBOUND:                -0.865
REMARK SMILES O=C([O-])CCCCCCCC(=O)[O-]
REMARK SMILES IDX 7 1 6 2 5 3 4 4 2 5 1 6 3 7 8 8 9 9 10 10 11 11 12 12 13 13
REMARK H PARENT
REMARK Flexibility Score: inf
ROOT
ATOM      1  C   UNL     1      28.754  33.409  23.324  1.00  0.00     0.000 C 
ENDROOT
BRANCH   1   2
ATOM      2  C   UNL     1      28.201  34.138  22.089  1.00  0.00     0.000 C 
BRANCH   2   3
ATOM      3  C   UNL     1      27.559  33.180  21.074  1.00  0.00     0.006 C 
BRANCH   3   4
ATOM      4  C   UNL     1      27.018  33.948  19.864  1.00  0.00     0.053 C 
BRANCH   4   5
ATOM      5  C   UNL     1      25.623  33.509  19.548  1.00  0.00     0.041 C 
ATOM      6  O   UNL     1      25.050  32.650  20.268  1.00  0.00    -0.550 OA
ATOM      7  O   UNL     1      24.972  34.015  18.429  1.00  0.00    -0.550 OA
ENDBRANCH   4   5
ENDBRANCH   3   4
ENDBRANCH   2   3
ENDBRANCH   1   2
BRANCH   1   8
ATOM      8  C   UNL     1      30.085  32.695  23.044  1.00  0.00     0.000 C 
BRANCH   8   9
ATOM      9  C   UNL     1      31.243  33.698  22.985  1.00  0.00     0.006 C 
BRANCH   9  10
ATOM     10  C   UNL     1      32.528  33.027  22.490  1.00  0.00     0.053 C 
BRANCH  10  11
ATOM     11  C   UNL     1      32.814  33.422  21.076  1.00  0.00     0.041 C 
ATOM     12  O   UNL     1      31.876  33.775  20.314  1.00  0.00    -0.550 OA
ATOM     13  O   UNL     1      34.124  33.448  20.613  1.00  0.00    -0.550 OA
ENDBRANCH  10  11
ENDBRANCH   9  10
ENDBRANCH   8   9
ENDBRANCH   1   8
TORSDOF 8
ENDMDL
MODEL 5
REMARK VINA RESULT:    -3.327      0.463      3.673
REMARK INTER + INTRA:          -5.748
REMARK INTER:                  -4.987
REMARK INTRA:                  -0.760
REMARK UNBOUND:                -0.865
REMARK SMILES O=C([O-])CCCCCCCC(=O)[O-]
REMARK SMILES IDX 7 1 6 2 5 3 4 4 2 5 1 6 3 7 8 8 9 9 10 10 11 11 12 12 13 13
REMARK H PARENT
REMARK Flexibility Score: inf
ROOT
ATOM      1  C   UNL     1      38.516  22.062  31.562  1.00  0.00     0.000 C 
ENDROOT
BRANCH   1   2
ATOM      2  C   UNL     1      39.894  22.290  32.203  1.00  0.00     0.000 C 
BRANCH   2   3
ATOM      3  C   UNL     1      40.458  23.690  31.915  1.00  0.00     0.006 C 
BRANCH   3   4
ATOM      4  C   UNL     1      41.240  23.704  30.598  1.00  0.00     0.053 C 
BRANCH   4   5
ATOM      5  C   UNL     1      41.288  25.089  30.034  1.00  0.00     0.041 C 
ATOM      6  O   UNL     1      40.351  25.510  29.306  1.00  0.00    -0.550 OA
ATOM      7  O   UNL     1      42.392  25.899  30.273  1.00  0.00    -0.550 OA
ENDBRANCH   4   5
ENDBRANCH   3   4
ENDBRANCH   2   3
ENDBRANCH   1   2
BRANCH   1   8
ATOM      8  C   UNL     1      37.818  23.376  31.176  1.00  0.00     0.000 C 
BRANCH   8   9
ATOM      9  C   UNL     1      37.533  23.422  29.670  1.00  0.00     0.006 C 
BRANCH   9  10
ATOM     10  C   UNL     1      38.155  22.219  28.954  1.00  0.00     0.053 C 
BRANCH  10  11
ATOM     11  C   UNL     1      39.043  22.674  27.840  1.00  0.00     0.041 C 
ATOM     12  O   UNL     1      38.715  23.661  27.131  1.00  0.00    -0.550 OA
ATOM     13  O   UNL     1      40.259  22.040  27.617  1.00  0.00    -0.550 OA
ENDBRANCH  10  11
ENDBRANCH   9  10
ENDBRANCH   8   9
ENDBRANCH   1   8
TORSDOF 8
ENDMDL
MODEL 6
REMARK VINA RESULT:    -3.306     14.172     15.944
REMARK INTER + INTRA:          -5.717
REMARK INTER:                  -5.276
REMARK INTRA:                  -0.441
REMARK UNBOUND:                -0.865
REMARK SMILES O=C([O-])CCCCCCCC(=O)[O-]
REMARK SMILES IDX 7 1 6 2 5 3 4 4 2 5 1 6 3 7 8 8 9 9 10 10 11 11 12 12 13 13
REMARK H PARENT
REMARK Flexibility Score: inf
ROOT
ATOM      1  C   UNL     1      31.755  34.253  22.591  1.00  0.00     0.000 C 
ENDROOT
BRANCH   1   2
ATOM      2  C   UNL     1      32.506  32.912  22.614  1.00  0.00     0.000 C 
BRANCH   2   3
ATOM      3  C   UNL     1      33.739  32.908  21.696  1.00  0.00     0.006 C 
BRANCH   3   4
ATOM      4  C   UNL     1      33.324  32.947  20.222  1.00  0.00     0.053 C 
BRANCH   4   5
ATOM      5  C   UNL     1      34.133  31.974  19.425  1.00  0.00     0.041 C 
ATOM      6  O   UNL     1      35.306  31.685  19.778  1.00  0.00    -0.550 OA
ATOM      7  O   UNL     1      33.607  31.419  18.264  1.00  0.00    -0.550 OA
ENDBRANCH   4   5
ENDBRANCH   3   4
ENDBRANCH   2   3
ENDBRANCH   1   2
BRANCH   1   8
ATOM      8  C   UNL     1      30.432  34.204  23.370  1.00  0.00     0.000 C 
BRANCH   8   9
ATOM      9  C   UNL     1      29.596  32.988  22.955  1.00  0.00     0.006 C 
BRANCH   9  10
ATOM     10  C   UNL     1      28.237  33.420  22.394  1.00  0.00     0.053 C 
BRANCH  10  11
ATOM     11  C   UNL     1      28.180  33.180  20.918  1.00  0.00     0.041 C 
ATOM     12  O   UNL     1      27.072  33.166  20.322  1.00  0.00    -0.550 OA
ATOM     13  O   UNL     1      29.355  33.022  20.194  1.00  0.00    -0.550 OA
ENDBRANCH  10  11
ENDBRANCH   9  10
ENDBRANCH   8   9
ENDBRANCH   1   8
TORSDOF 8
ENDMDL
MODEL 7
REMARK VINA RESULT:    -3.233     14.893     16.629
REMARK INTER + INTRA:          -5.611
REMARK INTER:                  -5.179
REMARK INTRA:                  -0.432
REMARK UNBOUND:                -0.865
REMARK SMILES O=C([O-])CCCCCCCC(=O)[O-]
REMARK SMILES IDX 7 1 6 2 5 3 4 4 2 5 1 6 3 7 8 8 9 9 10 10 11 11 12 12 13 13
REMARK H PARENT
REMARK Flexibility Score: inf
ROOT
ATOM      1  C   UNL     1      29.845  33.795  23.393  1.00  0.00     0.000 C 
ENDROOT
BRANCH   1   2
ATOM      2  C   UNL     1      31.082  32.957  23.036  1.00  0.00     0.000 C 
BRANCH   2   3
ATOM      3  C   UNL     1      32.243  33.811  22.504  1.00  0.00     0.006 C 
BRANCH   3   4
ATOM      4  C   UNL     1      33.465  32.941  22.193  1.00  0.00     0.053 C 
BRANCH   4   5
ATOM      5  C   UNL     1      33.602  32.741  20.717  1.00  0.00     0.041 C 
ATOM      6  O   UNL     1      32.756  33.237  19.928  1.00  0.00    -0.550 OA
ATOM      7  O   UNL     1      34.640  31.965  20.214  1.00  0.00    -0.550 OA
ENDBRANCH   4   5
ENDBRANCH   3   4
ENDBRANCH   2   3
ENDBRANCH   1   2
BRANCH   1   8
ATOM      8  C   UNL     1      28.534  33.144  22.928  1.00  0.00     0.000 C 
BRANCH   8   9
ATOM      9  C   UNL     1      28.620  32.728  21.454  1.00  0.00     0.006 C 
BRANCH   9  10
ATOM     10  C   UNL     1      27.484  33.352  20.639  1.00  0.00     0.053 C 
BRANCH  10  11
ATOM     11  C   UNL     1      27.717  34.818  20.450  1.00  0.00     0.041 C 
ATOM     12  O   UNL     1      26.752  35.624  20.494  1.00  0.00    -0.550 OA
ATOM     13  O   UNL     1      29.009  35.298  20.276  1.00  0.00    -0.550 OA
ENDBRANCH  10  11
ENDBRANCH   9  10
ENDBRANCH   8   9
ENDBRANCH   1   8
TORSDOF 8
ENDMDL
MODEL 8
REMARK VINA RESULT:    -3.052     10.001     11.270
REMARK INTER + INTRA:          -5.344
REMARK INTER:                  -4.970
REMARK INTRA:                  -0.375
REMARK UNBOUND:                -0.865
REMARK SMILES O=C([O-])CCCCCCCC(=O)[O-]
REMARK SMILES IDX 7 1 6 2 5 3 4 4 2 5 1 6 3 7 8 8 9 9 10 10 11 11 12 12 13 13
REMARK H PARENT
REMARK Flexibility Score: inf
ROOT
ATOM      1  C   UNL     1      37.186  32.508  33.125  1.00  0.00     0.000 C 
ENDROOT
BRANCH   1   2
ATOM      2  C   UNL     1      38.231  31.384  33.040  1.00  0.00     0.000 C 
BRANCH   2   3
ATOM      3  C   UNL     1      39.319  31.664  31.992  1.00  0.00     0.006 C 
BRANCH   3   4
ATOM      4  C   UNL     1      40.701  31.259  32.515  1.00  0.00     0.053 C 
BRANCH   4   5
ATOM      5  C   UNL     1      41.761  31.614  31.521  1.00  0.00     0.041 C 
ATOM      6  O   UNL     1      42.883  31.044  31.561  1.00  0.00    -0.550 OA
ATOM      7  O   UNL     1      41.526  32.607  30.578  1.00  0.00    -0.550 OA
ENDBRANCH   4   5
ENDBRANCH   3   4
ENDBRANCH   2   3
ENDBRANCH   1   2
BRANCH   1   8
ATOM      8  C   UNL     1      37.551  33.723  32.257  1.00  0.00     0.000 C 
BRANCH   8   9
ATOM      9  C   UNL     1      38.039  34.889  33.125  1.00  0.00     0.006 C 
BRANCH   9  10
ATOM     10  C   UNL     1      38.584  36.029  32.258  1.00  0.00     0.053 C 
BRANCH  10  11
ATOM     11  C   UNL     1      37.670  37.212  32.313  1.00  0.00     0.041 C 
ATOM     12  O   UNL     1      36.423  37.048  32.337  1.00  0.00    -0.550 OA
ATOM     13  O   UNL     1      38.198  38.495  32.388  1.00  0.00    -0.550 OA
ENDBRANCH  10  11
ENDBRANCH   9  10
ENDBRANCH   8   9
ENDBRANCH   1   8
TORSDOF 8
ENDMDL
MODEL 9
REMARK VINA RESULT:    -3.050     10.737     11.978
REMARK INTER + INTRA:          -5.342
REMARK INTER:                  -4.921
REMARK INTRA:                  -0.421
REMARK UNBOUND:                -0.865
REMARK SMILES O=C([O-])CCCCCCCC(=O)[O-]
REMARK SMILES IDX 7 1 6 2 5 3 4 4 2 5 1 6 3 7 8 8 9 9 10 10 11 11 12 12 13 13
REMARK H PARENT
REMARK Flexibility Score: inf
ROOT
ATOM      1  C   UNL     1      36.622  33.999  32.973  1.00  0.00     0.000 C 
ENDROOT
BRANCH   1   2
ATOM      2  C   UNL     1      37.945  34.693  32.614  1.00  0.00     0.000 C 
BRANCH   2   3
ATOM      3  C   UNL     1      38.010  36.142  33.119  1.00  0.00     0.006 C 
BRANCH   3   4
ATOM      4  C   UNL     1      38.051  37.129  31.948  1.00  0.00     0.053 C 
BRANCH   4   5
ATOM      5  C   UNL     1      36.764  37.886  31.856  1.00  0.00     0.041 C 
ATOM      6  O   UNL     1      36.750  39.060  31.403  1.00  0.00    -0.550 OA
ATOM      7  O   UNL     1      35.585  37.311  32.316  1.00  0.00    -0.550 OA
ENDBRANCH   4   5
ENDBRANCH   3   4
ENDBRANCH   2   3
ENDBRANCH   1   2
BRANCH   1   8
ATOM      8  C   UNL     1      36.763  32.472  33.078  1.00  0.00     0.000 C 
BRANCH   8   9
ATOM      9  C   UNL     1      37.905  31.965  32.188  1.00  0.00     0.006 C 
BRANCH   9  10
ATOM     10  C   UNL     1      38.878  31.092  32.987  1.00  0.00     0.053 C 
BRANCH  10  11
ATOM     11  C   UNL     1      40.282  31.312  32.521  1.00  0.00     0.041 C 
ATOM     12  O   UNL     1      41.227  30.647  33.020  1.00  0.00    -0.550 OA
ATOM     13  O   UNL     1      40.541  32.217  31.499  1.00  0.00    -0.550 OA
ENDBRANCH  10  11
ENDBRANCH   9  10
ENDBRANCH   8   9
ENDBRANCH   1   8
TORSDOF 8
ENDMDL
