MODEL 1
REMARK VINA RESULT:    -4.525      0.000      0.000
REMARK INTER + INTRA:          -7.622
REMARK INTER:                  -6.906
REMARK INTRA:                  -0.716
REMARK UNBOUND:                -0.716
REMARK SMILES CCCCCCCCCCC(=O)[O-]
REMARK SMILES IDX 7 1 8 2 9 3 10 4 11 5 12 6 13 7 6 8 5 9 4 10 3 11 2 12 1 13
REMARK H PARENT
REMARK Flexibility Score: inf
ROOT
ATOM      1  C   UNL     1     -17.343  34.476  82.016  1.00  0.00     0.000 C 
ENDROOT
BRANCH   1   2
ATOM      2  C   UNL     1     -16.944  35.211  80.726  1.00  0.00     0.000 C 
BRANCH   2   3
ATOM      3  C   UNL     1     -18.138  35.447  79.783  1.00  0.00     0.006 C 
BRANCH   3   4
ATOM      4  C   UNL     1     -18.888  36.744  80.115  1.00  0.00     0.053 C 
BRANCH   4   5
ATOM      5  C   UNL     1     -19.416  37.410  78.882  1.00  0.00     0.041 C 
ATOM      6  O   UNL     1     -18.672  37.567  77.878  1.00  0.00    -0.550 OA
ATOM      7  O   UNL     1     -20.740  37.827  78.828  1.00  0.00    -0.550 OA
ENDBRANCH   4   5
ENDBRANCH   3   4
ENDBRANCH   2   3
ENDBRANCH   1   2
BRANCH   1   8
ATOM      8  C   UNL     1     -16.814  35.175  83.280  1.00  0.00     0.000 C 
BRANCH   8   9
ATOM      9  C   UNL     1     -16.511  36.667  83.055  1.00  0.00    -0.000 C 
BRANCH   9  10
ATOM     10  C   UNL     1     -17.647  37.636  83.445  1.00  0.00    -0.000 C 
BRANCH  10  11
ATOM     11  C   UNL     1     -18.586  37.127  84.553  1.00  0.00    -0.000 C 
BRANCH  11  12
ATOM     12  C   UNL     1     -19.711  38.119  84.883  1.00  0.00    -0.003 C 
ATOM     13  C   UNL     1     -19.973  38.173  86.385  1.00  0.00     0.004 C 
ENDBRANCH  11  12
ENDBRANCH  10  11
ENDBRANCH   9  10
ENDBRANCH   8   9
ENDBRANCH   1   8
TORSDOF 9
ENDMDL
MODEL 2
REMARK VINA RESULT:    -4.465      3.627      6.131
REMARK INTER + INTRA:          -7.530
REMARK INTER:                  -7.043
REMARK INTRA:                  -0.487
REMARK UNBOUND:                -0.716
REMARK SMILES CCCCCCCCCCC(=O)[O-]
REMARK SMILES IDX 7 1 8 2 9 3 10 4 11 5 12 6 13 7 6 8 5 9 4 10 3 11 2 12 1 13
REMARK H PARENT
REMARK Flexibility Score: inf
ROOT
ATOM      1  C   UNL     1     -18.231  36.613  83.591  1.00  0.00     0.000 C 
ENDROOT
BRANCH   1   2
ATOM      2  C   UNL     1     -18.565  37.923  84.323  1.00  0.00     0.000 C 
BRANCH   2   3
ATOM      3  C   UNL     1     -19.937  37.881  85.019  1.00  0.00     0.006 C 
BRANCH   3   4
ATOM      4  C   UNL     1     -19.830  38.160  86.524  1.00  0.00     0.053 C 
BRANCH   4   5
ATOM      5  C   UNL     1     -20.217  39.569  86.856  1.00  0.00     0.041 C 
ATOM      6  O   UNL     1     -21.405  39.841  87.172  1.00  0.00    -0.550 OA
ATOM      7  O   UNL     1     -19.258  40.574  86.851  1.00  0.00    -0.550 OA
ENDBRANCH   4   5
ENDBRANCH   3   4
ENDBRANCH   2   3
ENDBRANCH   1   2
BRANCH   1   8
ATOM      8  C   UNL     1     -16.748  36.523  83.191  1.00  0.00     0.000 C 
BRANCH   8   9
ATOM      9  C   UNL     1     -16.506  35.581  81.999  1.00  0.00    -0.000 C 
BRANCH   9  10
ATOM     10  C   UNL     1     -17.780  35.004  81.346  1.00  0.00    -0.000 C 
BRANCH  10  11
ATOM     11  C   UNL     1     -18.027  35.449  79.894  1.00  0.00    -0.000 C 
BRANCH  11  12
ATOM     12  C   UNL     1     -18.753  36.800  79.800  1.00  0.00    -0.003 C 
ATOM     13  C   UNL     1     -18.761  37.321  78.366  1.00  0.00     0.004 C 
ENDBRANCH  11  12
ENDBRANCH  10  11
ENDBRANCH   9  10
ENDBRANCH   8   9
ENDBRANCH   1   8
TORSDOF 9
ENDMDL
MODEL 3
REMARK VINA RESULT:    -4.410      2.367      4.968
REMARK INTER + INTRA:          -7.446
REMARK INTER:                  -6.878
REMARK INTRA:                  -0.568
REMARK UNBOUND:                -0.716
REMARK SMILES CCCCCCCCCCC(=O)[O-]
REMARK SMILES IDX 7 1 8 2 9 3 10 4 11 5 12 6 13 7 6 8 5 9 4 10 3 11 2 12 1 13
REMARK H PARENT
REMARK Flexibility Score: inf
ROOT
ATOM      1  C   UNL     1     -17.204  34.733  81.875  1.00  0.00     0.000 C 
ENDROOT
BRANCH   1   2
ATOM      2  C   UNL     1     -16.138  35.730  82.359  1.00  0.00     0.000 C 
BRANCH   2   3
ATOM      3  C   UNL     1     -16.515  36.405  83.689  1.00  0.00     0.006 C 
BRANCH   3   4
ATOM      4  C   UNL     1     -17.309  37.701  83.473  1.00  0.00     0.053 C 
BRANCH   4   5
ATOM      5  C   UNL     1     -18.755  37.532  83.825  1.00  0.00     0.041 C 
ATOM      6  O   UNL     1     -19.529  36.920  83.042  1.00  0.00    -0.550 OA
ATOM      7  O   UNL     1     -19.240  38.018  85.031  1.00  0.00    -0.550 OA
ENDBRANCH   4   5
ENDBRANCH   3   4
ENDBRANCH   2   3
ENDBRANCH   1   2
BRANCH   1   8
ATOM      8  C   UNL     1     -17.197  34.558  80.347  1.00  0.00     0.000 C 
BRANCH   8   9
ATOM      9  C   UNL     1     -18.401  35.229  79.662  1.00  0.00    -0.000 C 
BRANCH   9  10
ATOM     10  C   UNL     1     -18.382  36.772  79.664  1.00  0.00    -0.000 C 
BRANCH  10  11
ATOM     11  C   UNL     1     -19.185  37.434  78.530  1.00  0.00    -0.000 C 
BRANCH  11  12
ATOM     12  C   UNL     1     -20.609  37.823  78.955  1.00  0.00    -0.003 C 
ATOM     13  C   UNL     1     -21.364  38.485  77.807  1.00  0.00     0.004 C 
ENDBRANCH  11  12
ENDBRANCH  10  11
ENDBRANCH   9  10
ENDBRANCH   8   9
ENDBRANCH   1   8
TORSDOF 9
ENDMDL
MODEL 4
REMARK VINA RESULT:    -4.403      7.713      9.543
REMARK INTER + INTRA:          -7.436
REMARK INTER:                  -6.961
REMARK INTRA:                  -0.474
REMARK UNBOUND:                -0.716
REMARK SMILES CCCCCCCCCCC(=O)[O-]
REMARK SMILES IDX 7 1 8 2 9 3 10 4 11 5 12 6 13 7 6 8 5 9 4 10 3 11 2 12 1 13
REMARK H PARENT
REMARK Flexibility Score: inf
ROOT
ATOM      1  C   UNL     1     -19.607  43.150  85.659  1.00  0.00     0.000 C 
ENDROOT
BRANCH   1   2
ATOM      2  C   UNL     1     -20.442  42.569  86.812  1.00  0.00     0.000 C 
BRANCH   2   3
ATOM      3  C   UNL     1     -20.040  41.127  87.169  1.00  0.00     0.006 C 
BRANCH   3   4
ATOM      4  C   UNL     1     -21.218  40.324  87.738  1.00  0.00     0.053 C 
BRANCH   4   5
ATOM      5  C   UNL     1     -20.751  39.145  88.536  1.00  0.00     0.041 C 
ATOM      6  O   UNL     1     -20.611  39.241  89.784  1.00  0.00    -0.550 OA
ATOM      7  O   UNL     1     -20.505  37.932  87.907  1.00  0.00    -0.550 OA
ENDBRANCH   4   5
ENDBRANCH   3   4
ENDBRANCH   2   3
ENDBRANCH   1   2
BRANCH   1   8
ATOM      8  C   UNL     1     -19.170  44.602  85.921  1.00  0.00     0.000 C 
BRANCH   8   9
ATOM      9  C   UNL     1     -17.729  44.884  85.463  1.00  0.00    -0.000 C 
BRANCH   9  10
ATOM     10  C   UNL     1     -17.599  45.776  84.210  1.00  0.00    -0.000 C 
BRANCH  10  11
ATOM     11  C   UNL     1     -18.711  46.826  84.039  1.00  0.00    -0.000 C 
BRANCH  11  12
ATOM     12  C   UNL     1     -19.388  46.758  82.662  1.00  0.00    -0.003 C 
ATOM     13  C   UNL     1     -20.672  45.935  82.721  1.00  0.00     0.004 C 
ENDBRANCH  11  12
ENDBRANCH  10  11
ENDBRANCH   9  10
ENDBRANCH   8   9
ENDBRANCH   1   8
TORSDOF 9
ENDMDL
MODEL 5
REMARK VINA RESULT:    -4.396      6.828      9.376
REMARK INTER + INTRA:          -7.425
REMARK INTER:                  -6.596
REMARK INTRA:                  -0.829
REMARK UNBOUND:                -0.716
REMARK SMILES CCCCCCCCCCC(=O)[O-]
REMARK SMILES IDX 7 1 8 2 9 3 10 4 11 5 12 6 13 7 6 8 5 9 4 10 3 11 2 12 1 13
REMARK H PARENT
REMARK Flexibility Score: inf
ROOT
ATOM      1  C   UNL     1     -20.239  44.371  86.862  1.00  0.00     0.000 C 
ENDROOT
BRANCH   1   2
ATOM      2  C   UNL     1     -19.993  43.042  86.130  1.00  0.00     0.000 C 
BRANCH   2   3
ATOM      3  C   UNL     1     -20.536  41.828  86.905  1.00  0.00     0.006 C 
BRANCH   3   4
ATOM      4  C   UNL     1     -19.443  40.790  87.193  1.00  0.00     0.053 C 
BRANCH   4   5
ATOM      5  C   UNL     1     -20.013  39.414  87.352  1.00  0.00     0.041 C 
ATOM      6  O   UNL     1     -20.338  38.992  88.494  1.00  0.00    -0.550 OA
ATOM      7  O   UNL     1     -20.216  38.611  86.238  1.00  0.00    -0.550 OA
ENDBRANCH   4   5
ENDBRANCH   3   4
ENDBRANCH   2   3
ENDBRANCH   1   2
BRANCH   1   8
ATOM      8  C   UNL     1     -20.888  45.431  85.955  1.00  0.00     0.000 C 
BRANCH   8   9
ATOM      9  C   UNL     1     -20.848  45.049  84.465  1.00  0.00    -0.000 C 
BRANCH   9  10
ATOM     10  C   UNL     1     -20.040  46.005  83.562  1.00  0.00    -0.000 C 
BRANCH  10  11
ATOM     11  C   UNL     1     -18.559  45.632  83.376  1.00  0.00    -0.000 C 
BRANCH  11  12
ATOM     12  C   UNL     1     -17.647  46.265  84.437  1.00  0.00    -0.003 C 
ATOM     13  C   UNL     1     -16.981  45.197  85.298  1.00  0.00     0.004 C 
ENDBRANCH  11  12
ENDBRANCH  10  11
ENDBRANCH   9  10
ENDBRANCH   8   9
ENDBRANCH   1   8
TORSDOF 9
ENDMDL
MODEL 6
REMARK VINA RESULT:    -4.315      2.088      4.107
REMARK INTER + INTRA:          -7.301
REMARK INTER:                  -6.813
REMARK INTRA:                  -0.488
REMARK UNBOUND:                -0.716
REMARK SMILES CCCCCCCCCCC(=O)[O-]
REMARK SMILES IDX 7 1 8 2 9 3 10 4 11 5 12 6 13 7 6 8 5 9 4 10 3 11 2 12 1 13
REMARK H PARENT
REMARK Flexibility Score: inf
ROOT
ATOM      1  C   UNL     1     -19.058  37.514  84.000  1.00  0.00     0.000 C 
ENDROOT
BRANCH   1   2
ATOM      2  C   UNL     1     -17.895  36.514  84.111  1.00  0.00     0.000 C 
BRANCH   2   3
ATOM      3  C   UNL     1     -16.662  36.945  83.298  1.00  0.00     0.006 C 
BRANCH   3   4
ATOM      4  C   UNL     1     -16.253  35.887  82.264  1.00  0.00     0.053 C 
BRANCH   4   5
ATOM      5  C   UNL     1     -17.099  35.960  81.031  1.00  0.00     0.041 C 
ATOM      6  O   UNL     1     -17.726  34.943  80.632  1.00  0.00    -0.550 OA
ATOM      7  O   UNL     1     -17.223  37.159  80.342  1.00  0.00    -0.550 OA
ENDBRANCH   4   5
ENDBRANCH   3   4
ENDBRANCH   2   3
ENDBRANCH   1   2
BRANCH   1   8
ATOM      8  C   UNL     1     -19.777  37.733  85.342  1.00  0.00     0.000 C 
BRANCH   8   9
ATOM      9  C   UNL     1     -19.415  39.074  86.003  1.00  0.00    -0.000 C 
BRANCH   9  10
ATOM     10  C   UNL     1     -20.092  39.342  87.363  1.00  0.00    -0.000 C 
BRANCH  10  11
ATOM     11  C   UNL     1     -20.532  38.084  88.131  1.00  0.00    -0.000 C 
BRANCH  11  12
ATOM     12  C   UNL     1     -19.784  37.903  89.460  1.00  0.00    -0.003 C 
ATOM     13  C   UNL     1     -18.723  36.812  89.350  1.00  0.00     0.004 C 
ENDBRANCH  11  12
ENDBRANCH  10  11
ENDBRANCH   9  10
ENDBRANCH   8   9
ENDBRANCH   1   8
TORSDOF 9
ENDMDL
MODEL 7
REMARK VINA RESULT:    -4.302      6.134      8.535
REMARK INTER + INTRA:          -7.282
REMARK INTER:                  -6.273
REMARK INTRA:                  -1.009
REMARK UNBOUND:                -0.716
REMARK SMILES CCCCCCCCCCC(=O)[O-]
REMARK SMILES IDX 7 1 8 2 9 3 10 4 11 5 12 6 13 7 6 8 5 9 4 10 3 11 2 12 1 13
REMARK H PARENT
REMARK Flexibility Score: inf
ROOT
ATOM      1  C   UNL     1     -21.015  40.673  89.891  1.00  0.00     0.000 C 
ENDROOT
BRANCH   1   2
ATOM      2  C   UNL     1     -19.910  41.392  89.101  1.00  0.00     0.000 C 
BRANCH   2   3
ATOM      3  C   UNL     1     -19.165  40.456  88.133  1.00  0.00     0.006 C 
BRANCH   3   4
ATOM      4  C   UNL     1     -19.959  40.209  86.843  1.00  0.00     0.053 C 
BRANCH   4   5
ATOM      5  C   UNL     1     -20.245  38.753  86.638  1.00  0.00     0.041 C 
ATOM      6  O   UNL     1     -19.728  38.137  85.668  1.00  0.00    -0.550 OA
ATOM      7  O   UNL     1     -21.054  38.069  87.535  1.00  0.00    -0.550 OA
ENDBRANCH   4   5
ENDBRANCH   3   4
ENDBRANCH   2   3
ENDBRANCH   1   2
BRANCH   1   8
ATOM      8  C   UNL     1     -20.707  40.591  91.395  1.00  0.00     0.000 C 
BRANCH   8   9
ATOM      9  C   UNL     1     -20.127  39.228  91.814  1.00  0.00    -0.000 C 
BRANCH   9  10
ATOM     10  C   UNL     1     -18.586  39.136  91.799  1.00  0.00    -0.000 C 
BRANCH  10  11
ATOM     11  C   UNL     1     -17.995  38.287  90.659  1.00  0.00    -0.000 C 
BRANCH  11  12
ATOM     12  C   UNL     1     -19.017  37.319  90.045  1.00  0.00    -0.003 C 
ATOM     13  C   UNL     1     -18.322  36.226  89.239  1.00  0.00     0.004 C 
ENDBRANCH  11  12
ENDBRANCH  10  11
ENDBRANCH   9  10
ENDBRANCH   8   9
ENDBRANCH   1   8
TORSDOF 9
ENDMDL
MODEL 8
REMARK VINA RESULT:    -4.133      7.169      9.375
REMARK INTER + INTRA:          -7.024
REMARK INTER:                  -6.265
REMARK INTRA:                  -0.760
REMARK UNBOUND:                -0.716
REMARK SMILES CCCCCCCCCCC(=O)[O-]
REMARK SMILES IDX 7 1 8 2 9 3 10 4 11 5 12 6 13 7 6 8 5 9 4 10 3 11 2 12 1 13
REMARK H PARENT
REMARK Flexibility Score: inf
ROOT
ATOM      1  C   UNL     1     -21.836  43.341  87.912  1.00  0.00     0.000 C 
ENDROOT
BRANCH   1   2
ATOM      2  C   UNL     1     -21.682  41.822  87.730  1.00  0.00     0.000 C 
BRANCH   2   3
ATOM      3  C   UNL     1     -20.447  41.445  86.894  1.00  0.00     0.006 C 
BRANCH   3   4
ATOM      4  C   UNL     1     -19.504  40.499  87.649  1.00  0.00     0.053 C 
BRANCH   4   5
ATOM      5  C   UNL     1     -20.117  39.147  87.847  1.00  0.00     0.041 C 
ATOM      6  O   UNL     1     -20.238  38.358  86.873  1.00  0.00    -0.550 OA
ATOM      7  O   UNL     1     -20.521  38.745  89.113  1.00  0.00    -0.550 OA
ENDBRANCH   4   5
ENDBRANCH   3   4
ENDBRANCH   2   3
ENDBRANCH   1   2
BRANCH   1   8
ATOM      8  C   UNL     1     -20.595  44.119  87.441  1.00  0.00     0.000 C 
BRANCH   8   9
ATOM      9  C   UNL     1     -20.874  45.000  86.211  1.00  0.00    -0.000 C 
BRANCH   9  10
ATOM     10  C   UNL     1     -19.848  44.874  85.065  1.00  0.00    -0.000 C 
BRANCH  10  11
ATOM     11  C   UNL     1     -18.484  44.289  85.472  1.00  0.00    -0.000 C 
BRANCH  11  12
ATOM     12  C   UNL     1     -17.316  45.246  85.191  1.00  0.00    -0.003 C 
ATOM     13  C   UNL     1     -17.781  46.460  84.392  1.00  0.00     0.004 C 
ENDBRANCH  11  12
ENDBRANCH  10  11
ENDBRANCH   9  10
ENDBRANCH   8   9
ENDBRANCH   1   8
TORSDOF 9
ENDMDL
MODEL 9
REMARK VINA RESULT:    -4.133     10.933     13.846
REMARK INTER + INTRA:          -7.023
REMARK INTER:                  -6.245
REMARK INTRA:                  -0.778
REMARK UNBOUND:                -0.716
REMARK SMILES CCCCCCCCCCC(=O)[O-]
REMARK SMILES IDX 7 1 8 2 9 3 10 4 11 5 12 6 13 7 6 8 5 9 4 10 3 11 2 12 1 13
REMARK H PARENT
REMARK Flexibility Score: inf
ROOT
ATOM      1  C   UNL     1     -25.773  45.248  88.489  1.00  0.00     0.000 C 
ENDROOT
BRANCH   1   2
ATOM      2  C   UNL     1     -25.789  45.729  89.949  1.00  0.00     0.000 C 
BRANCH   2   3
ATOM      3  C   UNL     1     -27.072  45.322  90.695  1.00  0.00     0.006 C 
BRANCH   3   4
ATOM      4  C   UNL     1     -27.001  43.883  91.224  1.00  0.00     0.053 C 
BRANCH   4   5
ATOM      5  C   UNL     1     -28.086  43.025  90.646  1.00  0.00     0.041 C 
ATOM      6  O   UNL     1     -28.017  42.638  89.450  1.00  0.00    -0.550 OA
ATOM      7  O   UNL     1     -29.153  42.626  91.439  1.00  0.00    -0.550 OA
ENDBRANCH   4   5
ENDBRANCH   3   4
ENDBRANCH   2   3
ENDBRANCH   1   2
BRANCH   1   8
ATOM      8  C   UNL     1     -25.910  46.406  87.486  1.00  0.00     0.000 C 
BRANCH   8   9
ATOM      9  C   UNL     1     -24.737  46.477  86.492  1.00  0.00    -0.000 C 
BRANCH   9  10
ATOM     10  C   UNL     1     -23.337  46.578  87.132  1.00  0.00    -0.000 C 
BRANCH  10  11
ATOM     11  C   UNL     1     -22.397  45.397  86.835  1.00  0.00    -0.000 C 
BRANCH  11  12
ATOM     12  C   UNL     1     -22.131  44.521  88.068  1.00  0.00    -0.003 C 
ATOM     13  C   UNL     1     -22.748  43.136  87.902  1.00  0.00     0.004 C 
ENDBRANCH  11  12
ENDBRANCH  10  11
ENDBRANCH   9  10
ENDBRANCH   8   9
ENDBRANCH   1   8
TORSDOF 9
ENDMDL
