MODEL 1
REMARK VINA RESULT:    -4.598      0.000      0.000
REMARK INTER + INTRA:          -5.423
REMARK INTER:                  -5.270
REMARK INTRA:                  -0.153
REMARK UNBOUND:                -0.153
REMARK SMILES CC=Cc1ccc(O)c(OC)c1
REMARK SMILES IDX 4 1 12 2 9 3 7 4 6 5 5 6 3 7 1 8 2 9 10 10 11 11 8 12
REMARK H PARENT 8 13
REMARK Flexibility Score: inf
ROOT
ATOM      1  C   UNL     1      73.468  34.233  53.798  1.00  0.00    -0.022 A 
ATOM      2  C   UNL     1      74.571  33.473  53.373  1.00  0.00     0.058 A 
ATOM      3  C   UNL     1      75.488  33.989  52.437  1.00  0.00     0.161 A 
ATOM      4  C   UNL     1      75.287  35.275  51.916  1.00  0.00     0.157 A 
ATOM      5  C   UNL     1      74.182  36.032  52.324  1.00  0.00     0.051 A 
ATOM      6  C   UNL     1      73.276  35.516  53.253  1.00  0.00     0.012 A 
ENDROOT
BRANCH   1   7
ATOM      7  C   UNL     1      72.529  33.635  54.780  1.00  0.00     0.003 C 
ATOM      8  C   UNL     1      71.326  33.487  56.924  1.00  0.00     0.035 C 
ATOM      9  C   UNL     1      72.275  34.158  55.985  1.00  0.00    -0.030 C 
ENDBRANCH   1   7
BRANCH   3  10
ATOM     10  O   UNL     1      76.604  33.259  52.000  1.00  0.00    -0.493 OA
ATOM     11  C   UNL     1      76.880  31.911  52.366  1.00  0.00     0.278 C 
ENDBRANCH   3  10
BRANCH   4  12
ATOM     12  O   UNL     1      76.190  35.793  50.990  1.00  0.00    -0.504 OA
ATOM     13  H   UNL     1      75.879  36.314  50.178  1.00  0.00     0.293 HD
ENDBRANCH   4  12
TORSDOF 3
ENDMDL
MODEL 2
REMARK VINA RESULT:    -4.287      2.814      3.985
REMARK INTER + INTRA:          -5.066
REMARK INTER:                  -4.909
REMARK INTRA:                  -0.157
REMARK UNBOUND:                -0.153
REMARK SMILES CC=Cc1ccc(O)c(OC)c1
REMARK SMILES IDX 4 1 12 2 9 3 7 4 6 5 5 6 3 7 1 8 2 9 10 10 11 11 8 12
REMARK H PARENT 8 13
REMARK Flexibility Score: inf
ROOT
ATOM      1  C   UNL     1      76.631  35.306  51.612  1.00  0.00    -0.022 A 
ATOM      2  C   UNL     1      77.689  34.474  52.014  1.00  0.00     0.058 A 
ATOM      3  C   UNL     1      78.912  34.472  51.315  1.00  0.00     0.161 A 
ATOM      4  C   UNL     1      79.067  35.304  50.198  1.00  0.00     0.157 A 
ATOM      5  C   UNL     1      78.011  36.125  49.783  1.00  0.00     0.051 A 
ATOM      6  C   UNL     1      76.801  36.125  50.479  1.00  0.00     0.012 A 
ENDROOT
BRANCH   1   7
ATOM      7  C   UNL     1      75.361  35.261  52.379  1.00  0.00     0.003 C 
ATOM      8  C   UNL     1      73.448  34.169  53.482  1.00  0.00     0.035 C 
ATOM      9  C   UNL     1      74.732  34.130  52.719  1.00  0.00    -0.030 C 
ENDBRANCH   1   7
BRANCH   3  10
ATOM     10  O   UNL     1      79.992  33.659  51.697  1.00  0.00    -0.493 OA
ATOM     11  C   UNL     1      79.878  32.289  52.068  1.00  0.00     0.278 C 
ENDBRANCH   3  10
BRANCH   4  12
ATOM     12  O   UNL     1      80.275  35.307  49.502  1.00  0.00    -0.504 OA
ATOM     13  H   UNL     1      80.930  34.538  49.573  1.00  0.00     0.293 HD
ENDBRANCH   4  12
TORSDOF 3
ENDMDL
MODEL 3
REMARK VINA RESULT:    -4.134      2.855      4.744
REMARK INTER + INTRA:          -4.891
REMARK INTER:                  -4.717
REMARK INTRA:                  -0.174
REMARK UNBOUND:                -0.153
REMARK SMILES CC=Cc1ccc(O)c(OC)c1
REMARK SMILES IDX 4 1 12 2 9 3 7 4 6 5 5 6 3 7 1 8 2 9 10 10 11 11 8 12
REMARK H PARENT 8 13
REMARK Flexibility Score: inf
ROOT
ATOM      1  C   UNL     1      76.897  33.474  52.045  1.00  0.00    -0.022 A 
ATOM      2  C   UNL     1      77.891  34.417  51.734  1.00  0.00     0.058 A 
ATOM      3  C   UNL     1      79.255  34.063  51.754  1.00  0.00     0.161 A 
ATOM      4  C   UNL     1      79.620  32.754  52.099  1.00  0.00     0.157 A 
ATOM      5  C   UNL     1      78.634  31.814  52.425  1.00  0.00     0.051 A 
ATOM      6  C   UNL     1      77.284  32.169  52.403  1.00  0.00     0.012 A 
ENDROOT
BRANCH   1   7
ATOM      7  C   UNL     1      75.477  33.905  52.018  1.00  0.00     0.003 C 
ATOM      8  C   UNL     1      73.204  34.187  52.926  1.00  0.00     0.035 C 
ATOM      9  C   UNL     1      74.625  33.738  53.037  1.00  0.00    -0.030 C 
ENDBRANCH   1   7
BRANCH   3  10
ATOM     10  O   UNL     1      80.271  34.978  51.439  1.00  0.00    -0.493 OA
ATOM     11  C   UNL     1      80.594  36.125  52.219  1.00  0.00     0.278 C 
ENDBRANCH   3  10
BRANCH   4  12
ATOM     12  O   UNL     1      80.966  32.397  52.120  1.00  0.00    -0.504 OA
ATOM     13  H   UNL     1      81.529  32.399  51.277  1.00  0.00     0.293 HD
ENDBRANCH   4  12
TORSDOF 3
ENDMDL
MODEL 4
REMARK VINA RESULT:    -3.968     16.484     18.144
REMARK INTER + INTRA:          -4.701
REMARK INTER:                  -4.551
REMARK INTRA:                  -0.151
REMARK UNBOUND:                -0.153
REMARK SMILES CC=Cc1ccc(O)c(OC)c1
REMARK SMILES IDX 4 1 12 2 9 3 7 4 6 5 5 6 3 7 1 8 2 9 10 10 11 11 8 12
REMARK H PARENT 8 13
REMARK Flexibility Score: inf
ROOT
ATOM      1  C   UNL     1      87.428  29.008  65.036  1.00  0.00    -0.022 A 
ATOM      2  C   UNL     1      86.089  29.316  64.741  1.00  0.00     0.058 A 
ATOM      3  C   UNL     1      85.453  30.422  65.340  1.00  0.00     0.161 A 
ATOM      4  C   UNL     1      86.167  31.216  66.248  1.00  0.00     0.157 A 
ATOM      5  C   UNL     1      87.497  30.905  66.557  1.00  0.00     0.051 A 
ATOM      6  C   UNL     1      88.123  29.809  65.961  1.00  0.00     0.012 A 
ENDROOT
BRANCH   1   7
ATOM      7  C   UNL     1      88.044  27.826  64.384  1.00  0.00     0.003 C 
ATOM      8  C   UNL     1      88.124  25.497  63.584  1.00  0.00     0.035 C 
ATOM      9  C   UNL     1      87.429  26.645  64.240  1.00  0.00    -0.030 C 
ENDBRANCH   1   7
BRANCH   3  10
ATOM     10  O   UNL     1      84.121  30.763  65.060  1.00  0.00    -0.493 OA
ATOM     11  C   UNL     1      83.201  29.921  64.371  1.00  0.00     0.278 C 
ENDBRANCH   3  10
BRANCH   4  12
ATOM     12  O   UNL     1      85.545  32.312  66.843  1.00  0.00    -0.504 OA
ATOM     13  H   UNL     1      84.720  32.206  67.421  1.00  0.00     0.293 HD
ENDBRANCH   4  12
TORSDOF 3
ENDMDL
MODEL 5
REMARK VINA RESULT:    -3.867     15.446     16.970
REMARK INTER + INTRA:          -4.586
REMARK INTER:                  -4.433
REMARK INTRA:                  -0.153
REMARK UNBOUND:                -0.153
REMARK SMILES CC=Cc1ccc(O)c(OC)c1
REMARK SMILES IDX 4 1 12 2 9 3 7 4 6 5 5 6 3 7 1 8 2 9 10 10 11 11 8 12
REMARK H PARENT 8 13
REMARK Flexibility Score: inf
ROOT
ATOM      1  C   UNL     1      85.170  28.537  64.740  1.00  0.00    -0.022 A 
ATOM      2  C   UNL     1      85.733  29.777  65.085  1.00  0.00     0.058 A 
ATOM      3  C   UNL     1      84.957  30.953  65.070  1.00  0.00     0.161 A 
ATOM      4  C   UNL     1      83.608  30.880  64.695  1.00  0.00     0.157 A 
ATOM      5  C   UNL     1      83.045  29.650  64.337  1.00  0.00     0.051 A 
ATOM      6  C   UNL     1      83.818  28.487  64.354  1.00  0.00     0.012 A 
ENDROOT
BRANCH   1   7
ATOM      7  C   UNL     1      86.037  27.332  64.765  1.00  0.00     0.003 C 
ATOM      8  C   UNL     1      88.125  26.068  64.430  1.00  0.00     0.035 C 
ATOM      9  C   UNL     1      87.322  27.328  64.390  1.00  0.00    -0.030 C 
ENDBRANCH   1   7
BRANCH   3  10
ATOM     10  O   UNL     1      85.487  32.205  65.417  1.00  0.00    -0.493 OA
ATOM     11  C   UNL     1      86.869  32.542  65.354  1.00  0.00     0.278 C 
ENDBRANCH   3  10
BRANCH   4  12
ATOM     12  O   UNL     1      82.834  32.039  64.679  1.00  0.00    -0.504 OA
ATOM     13  H   UNL     1      82.042  32.140  64.054  1.00  0.00     0.293 HD
ENDBRANCH   4  12
TORSDOF 3
ENDMDL
MODEL 6
REMARK VINA RESULT:    -3.852      2.249      4.997
REMARK INTER + INTRA:          -4.568
REMARK INTER:                  -4.385
REMARK INTRA:                  -0.183
REMARK UNBOUND:                -0.153
REMARK SMILES CC=Cc1ccc(O)c(OC)c1
REMARK SMILES IDX 4 1 12 2 9 3 7 4 6 5 5 6 3 7 1 8 2 9 10 10 11 11 8 12
REMARK H PARENT 8 13
REMARK Flexibility Score: inf
ROOT
ATOM      1  C   UNL     1      76.815  34.116  51.976  1.00  0.00    -0.022 A 
ATOM      2  C   UNL     1      75.711  33.444  52.527  1.00  0.00     0.058 A 
ATOM      3  C   UNL     1      74.472  34.096  52.685  1.00  0.00     0.161 A 
ATOM      4  C   UNL     1      74.347  35.437  52.295  1.00  0.00     0.157 A 
ATOM      5  C   UNL     1      75.447  36.117  51.759  1.00  0.00     0.051 A 
ATOM      6  C   UNL     1      76.673  35.467  51.604  1.00  0.00     0.012 A 
ENDROOT
BRANCH   1   7
ATOM      7  C   UNL     1      78.098  33.383  51.842  1.00  0.00     0.003 C 
ATOM      8  C   UNL     1      80.541  33.170  51.605  1.00  0.00     0.035 C 
ATOM      9  C   UNL     1      79.294  33.979  51.752  1.00  0.00    -0.030 C 
ENDBRANCH   1   7
BRANCH   3  10
ATOM     10  O   UNL     1      73.348  33.450  53.223  1.00  0.00    -0.493 OA
ATOM     11  C   UNL     1      73.133  33.229  54.613  1.00  0.00     0.278 C 
ENDBRANCH   3  10
BRANCH   4  12
ATOM     12  O   UNL     1      73.124  36.088  52.447  1.00  0.00    -0.504 OA
ATOM     13  H   UNL     1      72.244  35.590  52.369  1.00  0.00     0.293 HD
ENDBRANCH   4  12
TORSDOF 3
ENDMDL
MODEL 7
REMARK VINA RESULT:    -3.682     15.737     17.120
REMARK INTER + INTRA:          -4.373
REMARK INTER:                  -4.218
REMARK INTRA:                  -0.155
REMARK UNBOUND:                -0.153
REMARK SMILES CC=Cc1ccc(O)c(OC)c1
REMARK SMILES IDX 4 1 12 2 9 3 7 4 6 5 5 6 3 7 1 8 2 9 10 10 11 11 8 12
REMARK H PARENT 8 13
REMARK Flexibility Score: inf
ROOT
ATOM      1  C   UNL     1      85.420  31.071  64.810  1.00  0.00    -0.022 A 
ATOM      2  C   UNL     1      86.213  29.911  64.823  1.00  0.00     0.058 A 
ATOM      3  C   UNL     1      85.624  28.632  64.780  1.00  0.00     0.161 A 
ATOM      4  C   UNL     1      84.228  28.520  64.734  1.00  0.00     0.157 A 
ATOM      5  C   UNL     1      83.431  29.672  64.735  1.00  0.00     0.051 A 
ATOM      6  C   UNL     1      84.019  30.938  64.778  1.00  0.00     0.012 A 
ENDROOT
BRANCH   1   7
ATOM      7  C   UNL     1      86.093  32.392  64.867  1.00  0.00     0.003 C 
ATOM      8  C   UNL     1      87.996  33.925  65.187  1.00  0.00     0.035 C 
ATOM      9  C   UNL     1      87.395  32.558  65.134  1.00  0.00    -0.030 C 
ENDBRANCH   1   7
BRANCH   3  10
ATOM     10  O   UNL     1      86.388  27.455  64.781  1.00  0.00    -0.493 OA
ATOM     11  C   UNL     1      87.757  27.382  64.398  1.00  0.00     0.278 C 
ENDBRANCH   3  10
BRANCH   4  12
ATOM     12  O   UNL     1      83.638  27.258  64.689  1.00  0.00    -0.504 OA
ATOM     13  H   UNL     1      83.597  26.721  63.831  1.00  0.00     0.293 HD
ENDBRANCH   4  12
TORSDOF 3
ENDMDL
MODEL 8
REMARK VINA RESULT:    -3.528      2.715      5.788
REMARK INTER + INTRA:          -4.196
REMARK INTER:                  -4.012
REMARK INTRA:                  -0.184
REMARK UNBOUND:                -0.153
REMARK SMILES CC=Cc1ccc(O)c(OC)c1
REMARK SMILES IDX 4 1 12 2 9 3 7 4 6 5 5 6 3 7 1 8 2 9 10 10 11 11 8 12
REMARK H PARENT 8 13
REMARK Flexibility Score: inf
ROOT
ATOM      1  C   UNL     1      76.877  35.023  51.511  1.00  0.00    -0.022 A 
ATOM      2  C   UNL     1      75.677  35.745  51.629  1.00  0.00     0.058 A 
ATOM      3  C   UNL     1      74.547  35.174  52.247  1.00  0.00     0.161 A 
ATOM      4  C   UNL     1      74.622  33.864  52.740  1.00  0.00     0.157 A 
ATOM      5  C   UNL     1      75.810  33.134  52.612  1.00  0.00     0.051 A 
ATOM      6  C   UNL     1      76.928  33.704  52.000  1.00  0.00     0.012 A 
ENDROOT
BRANCH   1   7
ATOM      7  C   UNL     1      78.033  35.670  50.842  1.00  0.00     0.003 C 
ATOM      8  C   UNL     1      80.212  35.727  49.694  1.00  0.00     0.035 C 
ATOM      9  C   UNL     1      79.078  35.000  50.341  1.00  0.00    -0.030 C 
ENDBRANCH   1   7
BRANCH   3  10
ATOM     10  O   UNL     1      73.338  35.872  52.388  1.00  0.00    -0.493 OA
ATOM     11  C   UNL     1      72.423  36.125  51.327  1.00  0.00     0.278 C 
ENDBRANCH   3  10
BRANCH   4  12
ATOM     12  O   UNL     1      73.509  33.293  53.353  1.00  0.00    -0.504 OA
ATOM     13  H   UNL     1      72.692  33.845  53.591  1.00  0.00     0.293 HD
ENDBRANCH   4  12
TORSDOF 3
ENDMDL
MODEL 9
REMARK VINA RESULT:    -3.399     15.978     17.465
REMARK INTER + INTRA:          -4.049
REMARK INTER:                  -3.896
REMARK INTRA:                  -0.153
REMARK UNBOUND:                -0.153
REMARK SMILES CC=Cc1ccc(O)c(OC)c1
REMARK SMILES IDX 4 1 12 2 9 3 7 4 6 5 5 6 3 7 1 8 2 9 10 10 11 11 8 12
REMARK H PARENT 8 13
REMARK Flexibility Score: inf
ROOT
ATOM      1  C   UNL     1      87.237  31.747  65.064  1.00  0.00    -0.022 A 
ATOM      2  C   UNL     1      85.839  31.717  64.929  1.00  0.00     0.058 A 
ATOM      3  C   UNL     1      85.146  30.494  64.847  1.00  0.00     0.161 A 
ATOM      4  C   UNL     1      85.866  29.292  64.891  1.00  0.00     0.157 A 
ATOM      5  C   UNL     1      87.261  29.315  65.011  1.00  0.00     0.051 A 
ATOM      6  C   UNL     1      87.944  30.530  65.092  1.00  0.00     0.012 A 
ENDROOT
BRANCH   1   7
ATOM      7  C   UNL     1      87.916  33.065  65.136  1.00  0.00     0.003 C 
ATOM      8  C   UNL     1      88.125  35.497  64.809  1.00  0.00     0.035 C 
ATOM      9  C   UNL     1      87.369  34.212  64.715  1.00  0.00    -0.030 C 
ENDBRANCH   1   7
BRANCH   3  10
ATOM     10  O   UNL     1      83.749  30.430  64.722  1.00  0.00    -0.493 OA
ATOM     11  C   UNL     1      82.877  31.549  64.845  1.00  0.00     0.278 C 
ENDBRANCH   3  10
BRANCH   4  12
ATOM     12  O   UNL     1      85.187  28.078  64.812  1.00  0.00    -0.504 OA
ATOM     13  H   UNL     1      84.577  27.761  65.556  1.00  0.00     0.293 HD
ENDBRANCH   4  12
TORSDOF 3
ENDMDL
