MODEL 1
REMARK VINA RESULT:    -4.297      0.000      0.000
REMARK INTER + INTRA:          -5.000
REMARK INTER:                  -4.799
REMARK INTRA:                  -0.201
REMARK UNBOUND:                -0.201
REMARK SMILES O=C([O-])c1ccccc1C(=O)[O-]
REMARK SMILES IDX 4 1 9 2 5 3 8 4 6 5 7 6 2 7 1 8 3 9 10 10 11 11 12 12
REMARK H PARENT
REMARK Flexibility Score: inf
ROOT
ATOM      1  C   UNL     1      56.339  26.635  50.161  1.00  0.00     0.006 A 
ATOM      2  C   UNL     1      56.266  28.032  50.425  1.00  0.00     0.006 A 
ATOM      3  C   UNL     1      55.181  25.959  49.731  1.00  0.00     0.010 A 
ATOM      4  C   UNL     1      55.026  28.686  50.314  1.00  0.00     0.010 A 
ATOM      5  C   UNL     1      53.967  26.634  49.605  1.00  0.00     0.001 A 
ATOM      6  C   UNL     1      53.886  27.991  49.907  1.00  0.00     0.001 A 
ENDROOT
BRANCH   1   7
ATOM      7  C   UNL     1      57.568  25.840  50.387  1.00  0.00     0.072 C 
ATOM      8  O   UNL     1      57.705  25.173  51.445  1.00  0.00    -0.545 OA
ATOM      9  O   UNL     1      58.611  25.872  49.469  1.00  0.00    -0.545 OA
ENDBRANCH   1   7
BRANCH   2  10
ATOM     10  C   UNL     1      57.456  28.853  50.749  1.00  0.00     0.072 C 
ATOM     11  O   UNL     1      57.730  29.149  51.942  1.00  0.00    -0.545 OA
ATOM     12  O   UNL     1      58.324  29.250  49.737  1.00  0.00    -0.545 OA
ENDBRANCH   2  10
TORSDOF 2
ENDMDL
MODEL 2
REMARK VINA RESULT:    -4.274     12.119     14.025
REMARK INTER + INTRA:          -4.975
REMARK INTER:                  -4.795
REMARK INTRA:                  -0.179
REMARK UNBOUND:                -0.201
REMARK SMILES O=C([O-])c1ccccc1C(=O)[O-]
REMARK SMILES IDX 4 1 9 2 5 3 8 4 6 5 7 6 2 7 1 8 3 9 10 10 11 11 12 12
REMARK H PARENT
REMARK Flexibility Score: inf
ROOT
ATOM      1  C   UNL     1      63.682  33.489  60.827  1.00  0.00     0.006 A 
ATOM      2  C   UNL     1      62.293  33.694  60.592  1.00  0.00     0.006 A 
ATOM      3  C   UNL     1      64.476  34.580  61.228  1.00  0.00     0.010 A 
ATOM      4  C   UNL     1      61.765  34.993  60.703  1.00  0.00     0.010 A 
ATOM      5  C   UNL     1      63.925  35.855  61.354  1.00  0.00     0.001 A 
ATOM      6  C   UNL     1      62.576  36.064  61.080  1.00  0.00     0.001 A 
ENDROOT
BRANCH   1   7
ATOM      7  C   UNL     1      64.348  32.186  60.599  1.00  0.00     0.072 C 
ATOM      8  O   UNL     1      65.036  32.000  59.561  1.00  0.00    -0.545 OA
ATOM      9  O   UNL     1      64.172  31.134  61.490  1.00  0.00    -0.545 OA
ENDBRANCH   1   7
BRANCH   2  10
ATOM     10  C   UNL     1      61.353  32.587  60.301  1.00  0.00     0.072 C 
ATOM     11  O   UNL     1      61.027  32.312  59.117  1.00  0.00    -0.545 OA
ATOM     12  O   UNL     1      60.871  31.792  61.337  1.00  0.00    -0.545 OA
ENDBRANCH   2  10
TORSDOF 2
ENDMDL
MODEL 3
REMARK VINA RESULT:    -4.259     12.132     14.053
REMARK INTER + INTRA:          -4.958
REMARK INTER:                  -4.779
REMARK INTRA:                  -0.179
REMARK UNBOUND:                -0.201
REMARK SMILES O=C([O-])c1ccccc1C(=O)[O-]
REMARK SMILES IDX 4 1 9 2 5 3 8 4 6 5 7 6 2 7 1 8 3 9 10 10 11 11 12 12
REMARK H PARENT
REMARK Flexibility Score: inf
ROOT
ATOM      1  C   UNL     1      62.311  33.746  60.569  1.00  0.00     0.006 A 
ATOM      2  C   UNL     1      63.703  33.572  60.810  1.00  0.00     0.006 A 
ATOM      3  C   UNL     1      61.753  35.034  60.683  1.00  0.00     0.010 A 
ATOM      4  C   UNL     1      64.470  34.677  61.219  1.00  0.00     0.010 A 
ATOM      5  C   UNL     1      62.539  36.120  61.068  1.00  0.00     0.001 A 
ATOM      6  C   UNL     1      63.891  35.941  61.347  1.00  0.00     0.001 A 
ENDROOT
BRANCH   1   7
ATOM      7  C   UNL     1      61.402  32.616  60.271  1.00  0.00     0.072 C 
ATOM      8  O   UNL     1      61.019  32.405  59.090  1.00  0.00    -0.545 OA
ATOM      9  O   UNL     1      60.908  31.814  61.294  1.00  0.00    -0.545 OA
ENDBRANCH   1   7
BRANCH   2  10
ATOM     10  C   UNL     1      64.404  32.287  60.583  1.00  0.00     0.072 C 
ATOM     11  O   UNL     1      64.338  31.358  61.430  1.00  0.00    -0.545 OA
ATOM     12  O   UNL     1      65.092  32.070  59.394  1.00  0.00    -0.545 OA
ENDBRANCH   2  10
TORSDOF 2
ENDMDL
MODEL 4
REMARK VINA RESULT:    -4.240      0.135      3.005
REMARK INTER + INTRA:          -4.937
REMARK INTER:                  -4.758
REMARK INTRA:                  -0.178
REMARK UNBOUND:                -0.201
REMARK SMILES O=C([O-])c1ccccc1C(=O)[O-]
REMARK SMILES IDX 4 1 9 2 5 3 8 4 6 5 7 6 2 7 1 8 3 9 10 10 11 11 12 12
REMARK H PARENT
REMARK Flexibility Score: inf
ROOT
ATOM      1  C   UNL     1      56.342  28.102  50.485  1.00  0.00     0.006 A 
ATOM      2  C   UNL     1      56.384  26.719  50.147  1.00  0.00     0.006 A 
ATOM      3  C   UNL     1      55.112  28.783  50.426  1.00  0.00     0.010 A 
ATOM      4  C   UNL     1      55.209  26.088  49.701  1.00  0.00     0.010 A 
ATOM      5  C   UNL     1      53.954  28.130  50.002  1.00  0.00     0.001 A 
ATOM      6  C   UNL     1      54.005  26.790  49.629  1.00  0.00     0.001 A 
ENDROOT
BRANCH   1   7
ATOM      7  C   UNL     1      57.555  28.879  50.829  1.00  0.00     0.072 C 
ATOM      8  O   UNL     1      57.757  29.244  52.017  1.00  0.00    -0.545 OA
ATOM      9  O   UNL     1      58.450  29.271  49.841  1.00  0.00    -0.545 OA
ENDBRANCH   1   7
BRANCH   2  10
ATOM     10  C   UNL     1      57.599  25.888  50.309  1.00  0.00     0.072 C 
ATOM     11  O   UNL     1      58.511  25.902  49.441  1.00  0.00    -0.545 OA
ATOM     12  O   UNL     1      57.775  25.129  51.461  1.00  0.00    -0.545 OA
ENDBRANCH   2  10
TORSDOF 2
ENDMDL
MODEL 5
REMARK VINA RESULT:    -3.781     12.446     13.561
REMARK INTER + INTRA:          -4.424
REMARK INTER:                  -4.211
REMARK INTRA:                  -0.213
REMARK UNBOUND:                -0.201
REMARK SMILES O=C([O-])c1ccccc1C(=O)[O-]
REMARK SMILES IDX 4 1 9 2 5 3 8 4 6 5 7 6 2 7 1 8 3 9 10 10 11 11 12 12
REMARK H PARENT
REMARK Flexibility Score: inf
ROOT
ATOM      1  C   UNL     1      61.980  32.663  60.639  1.00  0.00     0.006 A 
ATOM      2  C   UNL     1      63.382  32.425  60.675  1.00  0.00     0.006 A 
ATOM      3  C   UNL     1      61.107  31.690  61.161  1.00  0.00     0.010 A 
ATOM      4  C   UNL     1      63.855  31.197  61.171  1.00  0.00     0.010 A 
ATOM      5  C   UNL     1      61.600  30.488  61.670  1.00  0.00     0.001 A 
ATOM      6  C   UNL     1      62.970  30.237  61.664  1.00  0.00     0.001 A 
ENDROOT
BRANCH   1   7
ATOM      7  C   UNL     1      61.388  33.865  60.007  1.00  0.00     0.072 C 
ATOM      8  O   UNL     1      60.985  33.821  58.815  1.00  0.00    -0.545 OA
ATOM      9  O   UNL     1      61.329  35.071  60.696  1.00  0.00    -0.545 OA
ENDBRANCH   1   7
BRANCH   2  10
ATOM     10  C   UNL     1      64.383  33.443  60.276  1.00  0.00     0.072 C 
ATOM     11  O   UNL     1      64.917  33.409  59.137  1.00  0.00    -0.545 OA
ATOM     12  O   UNL     1      64.693  34.489  61.138  1.00  0.00    -0.545 OA
ENDBRANCH   2  10
TORSDOF 2
ENDMDL
MODEL 6
REMARK VINA RESULT:    -3.745     13.379     14.782
REMARK INTER + INTRA:          -4.384
REMARK INTER:                  -4.162
REMARK INTRA:                  -0.222
REMARK UNBOUND:                -0.201
REMARK SMILES O=C([O-])c1ccccc1C(=O)[O-]
REMARK SMILES IDX 4 1 9 2 5 3 8 4 6 5 7 6 2 7 1 8 3 9 10 10 11 11 12 12
REMARK H PARENT
REMARK Flexibility Score: inf
ROOT
ATOM      1  C   UNL     1      63.823  34.624  60.892  1.00  0.00     0.006 A 
ATOM      2  C   UNL     1      62.485  34.989  60.571  1.00  0.00     0.006 A 
ATOM      3  C   UNL     1      64.157  33.260  60.982  1.00  0.00     0.010 A 
ATOM      4  C   UNL     1      61.519  33.979  60.418  1.00  0.00     0.010 A 
ATOM      5  C   UNL     1      63.186  32.274  60.804  1.00  0.00     0.001 A 
ATOM      6  C   UNL     1      61.868  32.632  60.534  1.00  0.00     0.001 A 
ENDROOT
BRANCH   1   7
ATOM      7  C   UNL     1      64.871  35.622  61.207  1.00  0.00     0.072 C 
ATOM      8  O   UNL     1      64.964  36.098  62.368  1.00  0.00    -0.545 OA
ATOM      9  O   UNL     1      65.722  36.094  60.214  1.00  0.00    -0.545 OA
ENDBRANCH   1   7
BRANCH   2  10
ATOM     10  C   UNL     1      62.070  36.389  60.320  1.00  0.00     0.072 C 
ATOM     11  O   UNL     1      61.681  37.125  61.264  1.00  0.00    -0.545 OA
ATOM     12  O   UNL     1      62.171  36.926  59.041  1.00  0.00    -0.545 OA
ENDBRANCH   2  10
TORSDOF 2
ENDMDL
MODEL 7
REMARK VINA RESULT:    -3.727      2.746      4.468
REMARK INTER + INTRA:          -4.363
REMARK INTER:                  -4.148
REMARK INTRA:                  -0.216
REMARK UNBOUND:                -0.201
REMARK SMILES O=C([O-])c1ccccc1C(=O)[O-]
REMARK SMILES IDX 4 1 9 2 5 3 8 4 6 5 7 6 2 7 1 8 3 9 10 10 11 11 12 12
REMARK H PARENT
REMARK Flexibility Score: inf
ROOT
ATOM      1  C   UNL     1      55.279  27.911  50.474  1.00  0.00     0.006 A 
ATOM      2  C   UNL     1      55.487  26.537  50.166  1.00  0.00     0.006 A 
ATOM      3  C   UNL     1      56.391  28.769  50.560  1.00  0.00     0.010 A 
ATOM      4  C   UNL     1      56.802  26.061  50.020  1.00  0.00     0.010 A 
ATOM      5  C   UNL     1      57.686  28.279  50.389  1.00  0.00     0.001 A 
ATOM      6  C   UNL     1      57.892  26.926  50.131  1.00  0.00     0.001 A 
ENDROOT
BRANCH   1   7
ATOM      7  C   UNL     1      53.942  28.469  50.781  1.00  0.00     0.072 C 
ATOM      8  O   UNL     1      53.565  28.589  51.977  1.00  0.00    -0.545 OA
ATOM      9  O   UNL     1      53.062  28.804  49.759  1.00  0.00    -0.545 OA
ENDBRANCH   1   7
BRANCH   2  10
ATOM     10  C   UNL     1      54.375  25.590  49.921  1.00  0.00     0.072 C 
ATOM     11  O   UNL     1      53.895  24.902  50.860  1.00  0.00    -0.545 OA
ATOM     12  O   UNL     1      53.804  25.499  48.656  1.00  0.00    -0.545 OA
ENDBRANCH   2  10
TORSDOF 2
ENDMDL
MODEL 8
REMARK VINA RESULT:    -3.713     12.466     13.537
REMARK INTER + INTRA:          -4.348
REMARK INTER:                  -4.152
REMARK INTRA:                  -0.195
REMARK UNBOUND:                -0.201
REMARK SMILES O=C([O-])c1ccccc1C(=O)[O-]
REMARK SMILES IDX 4 1 9 2 5 3 8 4 6 5 7 6 2 7 1 8 3 9 10 10 11 11 12 12
REMARK H PARENT
REMARK Flexibility Score: inf
ROOT
ATOM      1  C   UNL     1      63.417  32.619  60.706  1.00  0.00     0.006 A 
ATOM      2  C   UNL     1      62.010  32.820  60.629  1.00  0.00     0.006 A 
ATOM      3  C   UNL     1      63.906  31.386  61.176  1.00  0.00     0.010 A 
ATOM      4  C   UNL     1      61.148  31.807  61.086  1.00  0.00     0.010 A 
ATOM      5  C   UNL     1      63.031  30.386  61.602  1.00  0.00     0.001 A 
ATOM      6  C   UNL     1      61.656  30.600  61.568  1.00  0.00     0.001 A 
ENDROOT
BRANCH   1   7
ATOM      7  C   UNL     1      64.397  33.680  60.380  1.00  0.00     0.072 C 
ATOM      8  O   UNL     1      64.721  34.532  61.249  1.00  0.00    -0.545 OA
ATOM      9  O   UNL     1      64.920  33.792  59.097  1.00  0.00    -0.545 OA
ENDBRANCH   1   7
BRANCH   2  10
ATOM     10  C   UNL     1      61.402  34.027  60.023  1.00  0.00     0.072 C 
ATOM     11  O   UNL     1      61.292  35.095  60.682  1.00  0.00    -0.545 OA
ATOM     12  O   UNL     1      61.004  34.012  58.690  1.00  0.00    -0.545 OA
ENDBRANCH   2  10
TORSDOF 2
ENDMDL
MODEL 9
REMARK VINA RESULT:    -3.710      1.990      3.266
REMARK INTER + INTRA:          -4.345
REMARK INTER:                  -4.142
REMARK INTRA:                  -0.203
REMARK UNBOUND:                -0.201
REMARK SMILES O=C([O-])c1ccccc1C(=O)[O-]
REMARK SMILES IDX 4 1 9 2 5 3 8 4 6 5 7 6 2 7 1 8 3 9 10 10 11 11 12 12
REMARK H PARENT
REMARK Flexibility Score: inf
ROOT
ATOM      1  C   UNL     1      57.379  26.870  50.302  1.00  0.00     0.006 A 
ATOM      2  C   UNL     1      57.271  28.285  50.413  1.00  0.00     0.006 A 
ATOM      3  C   UNL     1      58.570  26.313  49.801  1.00  0.00     0.010 A 
ATOM      4  C   UNL     1      58.330  29.090  49.957  1.00  0.00     0.010 A 
ATOM      5  C   UNL     1      59.618  27.130  49.377  1.00  0.00     0.001 A 
ATOM      6  C   UNL     1      59.494  28.515  49.443  1.00  0.00     0.001 A 
ENDROOT
BRANCH   1   7
ATOM      7  C   UNL     1      56.261  25.954  50.626  1.00  0.00     0.072 C 
ATOM      8  O   UNL     1      55.377  25.705  49.765  1.00  0.00    -0.545 OA
ATOM      9  O   UNL     1      56.135  25.412  51.899  1.00  0.00    -0.545 OA
ENDBRANCH   1   7
BRANCH   2  10
ATOM     10  C   UNL     1      56.115  28.957  51.052  1.00  0.00     0.072 C 
ATOM     11  O   UNL     1      56.206  29.425  52.218  1.00  0.00    -0.545 OA
ATOM     12  O   UNL     1      54.934  29.137  50.341  1.00  0.00    -0.545 OA
ENDBRANCH   2  10
TORSDOF 2
ENDMDL
