MODEL 1
REMARK VINA RESULT:    -4.256      0.000      0.000
REMARK INTER + INTRA:          -9.421
REMARK INTER:                  -7.491
REMARK INTRA:                  -1.930
REMARK UNBOUND:                -1.930
REMARK SMILES CCCCCCCCCCCCCCC(=O)[O-]
REMARK SMILES IDX 9 1 10 2 11 3 12 4 13 5 14 6 15 7 16 8 17 9 8 10 7 11 6 12
REMARK SMILES IDX 5 13 4 14 3 15 2 16 1 17
REMARK H PARENT
REMARK Flexibility Score: inf
ROOT
ATOM      1  C   UNL     1      43.990  63.573  12.266  1.00  0.00     0.000 C 
ENDROOT
BRANCH   1   2
ATOM      2  C   UNL     1      43.190  64.162  11.096  1.00  0.00     0.000 C 
BRANCH   2   3
ATOM      3  C   UNL     1      41.882  63.391  10.880  1.00  0.00     0.000 C 
BRANCH   3   4
ATOM      4  C   UNL     1      41.218  63.793   9.554  1.00  0.00     0.000 C 
BRANCH   4   5
ATOM      5  C   UNL     1      42.127  64.670   8.678  1.00  0.00     0.006 C 
BRANCH   5   6
ATOM      6  C   UNL     1      41.434  65.956   8.210  1.00  0.00     0.053 C 
BRANCH   6   7
ATOM      7  C   UNL     1      42.446  66.959   7.755  1.00  0.00     0.041 C 
ATOM      8  O   UNL     1      42.086  67.967   7.094  1.00  0.00    -0.550 OA
ATOM      9  O   UNL     1      43.782  66.806   8.104  1.00  0.00    -0.550 OA
ENDBRANCH   6   7
ENDBRANCH   5   6
ENDBRANCH   4   5
ENDBRANCH   3   4
ENDBRANCH   2   3
ENDBRANCH   1   2
BRANCH   1  10
ATOM     10  C   UNL     1      43.197  62.528  13.073  1.00  0.00     0.000 C 
BRANCH  10  11
ATOM     11  C   UNL     1      44.051  61.441  13.752  1.00  0.00    -0.000 C 
BRANCH  11  12
ATOM     12  C   UNL     1      44.156  60.153  12.917  1.00  0.00    -0.000 C 
BRANCH  12  13
ATOM     13  C   UNL     1      42.938  59.942  12.002  1.00  0.00    -0.000 C 
BRANCH  13  14
ATOM     14  C   UNL     1      43.321  59.848  10.518  1.00  0.00    -0.000 C 
BRANCH  14  15
ATOM     15  C   UNL     1      44.737  60.386  10.281  1.00  0.00    -0.000 C 
BRANCH  15  16
ATOM     16  C   UNL     1      44.938  60.783   8.814  1.00  0.00    -0.003 C 
ATOM     17  C   UNL     1      43.638  61.285   8.195  1.00  0.00     0.004 C 
ENDBRANCH  15  16
ENDBRANCH  14  15
ENDBRANCH  13  14
ENDBRANCH  12  13
ENDBRANCH  11  12
ENDBRANCH  10  11
ENDBRANCH   1  10
TORSDOF 13
ENDMDL
MODEL 2
REMARK VINA RESULT:    -4.252      1.445      2.692
REMARK INTER + INTRA:          -9.414
REMARK INTER:                  -7.392
REMARK INTRA:                  -2.021
REMARK UNBOUND:                -1.930
REMARK SMILES CCCCCCCCCCCCCCC(=O)[O-]
REMARK SMILES IDX 9 1 10 2 11 3 12 4 13 5 14 6 15 7 16 8 17 9 8 10 7 11 6 12
REMARK SMILES IDX 5 13 4 14 3 15 2 16 1 17
REMARK H PARENT
REMARK Flexibility Score: inf
ROOT
ATOM      1  C   UNL     1      42.494  63.733   9.929  1.00  0.00     0.000 C 
ENDROOT
BRANCH   1   2
ATOM      2  C   UNL     1      41.915  63.055   8.680  1.00  0.00     0.000 C 
BRANCH   2   3
ATOM      3  C   UNL     1      43.026  62.671   7.696  1.00  0.00     0.000 C 
BRANCH   3   4
ATOM      4  C   UNL     1      42.834  63.376   6.345  1.00  0.00     0.000 C 
BRANCH   4   5
ATOM      5  C   UNL     1      43.713  64.629   6.200  1.00  0.00     0.006 C 
BRANCH   5   6
ATOM      6  C   UNL     1      42.892  65.923   6.136  1.00  0.00     0.053 C 
BRANCH   6   7
ATOM      7  C   UNL     1      42.782  66.538   7.495  1.00  0.00     0.041 C 
ATOM      8  O   UNL     1      43.820  66.813   8.152  1.00  0.00    -0.550 OA
ATOM      9  O   UNL     1      41.534  66.855   8.016  1.00  0.00    -0.550 OA
ENDBRANCH   6   7
ENDBRANCH   5   6
ENDBRANCH   4   5
ENDBRANCH   3   4
ENDBRANCH   2   3
ENDBRANCH   1   2
BRANCH   1  10
ATOM     10  C   UNL     1      41.710  63.403  11.213  1.00  0.00     0.000 C 
BRANCH  10  11
ATOM     11  C   UNL     1      42.530  63.465  12.514  1.00  0.00    -0.000 C 
BRANCH  11  12
ATOM     12  C   UNL     1      44.049  63.481  12.266  1.00  0.00    -0.000 C 
BRANCH  12  13
ATOM     13  C   UNL     1      44.793  62.424  13.098  1.00  0.00    -0.000 C 
BRANCH  13  14
ATOM     14  C   UNL     1      44.827  61.048  12.416  1.00  0.00    -0.000 C 
BRANCH  14  15
ATOM     15  C   UNL     1      45.069  61.189  10.909  1.00  0.00    -0.000 C 
BRANCH  15  16
ATOM     16  C   UNL     1      44.337  60.091  10.128  1.00  0.00    -0.003 C 
ATOM     17  C   UNL     1      42.887  59.962  10.584  1.00  0.00     0.004 C 
ENDBRANCH  15  16
ENDBRANCH  14  15
ENDBRANCH  13  14
ENDBRANCH  12  13
ENDBRANCH  11  12
ENDBRANCH  10  11
ENDBRANCH   1  10
TORSDOF 13
ENDMDL
MODEL 3
REMARK VINA RESULT:    -4.232      1.299      3.274
REMARK INTER + INTRA:          -9.378
REMARK INTER:                  -7.578
REMARK INTRA:                  -1.800
REMARK UNBOUND:                -1.930
REMARK SMILES CCCCCCCCCCCCCCC(=O)[O-]
REMARK SMILES IDX 9 1 10 2 11 3 12 4 13 5 14 6 15 7 16 8 17 9 8 10 7 11 6 12
REMARK SMILES IDX 5 13 4 14 3 15 2 16 1 17
REMARK H PARENT
REMARK Flexibility Score: inf
ROOT
ATOM      1  C   UNL     1      44.325  60.063  10.119  1.00  0.00     0.000 C 
ENDROOT
BRANCH   1   2
ATOM      2  C   UNL     1      44.491  60.827   8.798  1.00  0.00     0.000 C 
BRANCH   2   3
ATOM      3  C   UNL     1      43.197  61.557   8.417  1.00  0.00     0.000 C 
BRANCH   3   4
ATOM      4  C   UNL     1      43.427  62.501   7.227  1.00  0.00     0.000 C 
BRANCH   4   5
ATOM      5  C   UNL     1      42.400  63.643   7.170  1.00  0.00     0.006 C 
BRANCH   5   6
ATOM      6  C   UNL     1      43.036  64.992   6.811  1.00  0.00     0.053 C 
BRANCH   6   7
ATOM      7  C   UNL     1      42.841  65.973   7.923  1.00  0.00     0.041 C 
ATOM      8  O   UNL     1      42.985  67.206   7.714  1.00  0.00    -0.550 OA
ATOM      9  O   UNL     1      42.451  65.529   9.181  1.00  0.00    -0.550 OA
ENDBRANCH   6   7
ENDBRANCH   5   6
ENDBRANCH   4   5
ENDBRANCH   3   4
ENDBRANCH   2   3
ENDBRANCH   1   2
BRANCH   1  10
ATOM     10  C   UNL     1      45.191  60.633  11.258  1.00  0.00     0.000 C 
BRANCH  10  11
ATOM     11  C   UNL     1      44.635  60.408  12.676  1.00  0.00    -0.000 C 
BRANCH  11  12
ATOM     12  C   UNL     1      44.230  61.717  13.375  1.00  0.00    -0.000 C 
BRANCH  12  13
ATOM     13  C   UNL     1      44.744  62.964  12.636  1.00  0.00    -0.000 C 
BRANCH  13  14
ATOM     14  C   UNL     1      43.608  63.822  12.060  1.00  0.00    -0.000 C 
BRANCH  14  15
ATOM     15  C   UNL     1      42.241  63.305  12.524  1.00  0.00    -0.000 C 
BRANCH  15  16
ATOM     16  C   UNL     1      41.395  62.839  11.333  1.00  0.00    -0.003 C 
ATOM     17  C   UNL     1      41.023  61.365  11.464  1.00  0.00     0.004 C 
ENDBRANCH  15  16
ENDBRANCH  14  15
ENDBRANCH  13  14
ENDBRANCH  12  13
ENDBRANCH  11  12
ENDBRANCH  10  11
ENDBRANCH   1  10
TORSDOF 13
ENDMDL
MODEL 4
REMARK VINA RESULT:    -4.203      1.310      3.371
REMARK INTER + INTRA:          -9.326
REMARK INTER:                  -7.422
REMARK INTRA:                  -1.904
REMARK UNBOUND:                -1.930
REMARK SMILES CCCCCCCCCCCCCCC(=O)[O-]
REMARK SMILES IDX 9 1 10 2 11 3 12 4 13 5 14 6 15 7 16 8 17 9 8 10 7 11 6 12
REMARK SMILES IDX 5 13 4 14 3 15 2 16 1 17
REMARK H PARENT
REMARK Flexibility Score: inf
ROOT
ATOM      1  C   UNL     1      43.355  60.359   9.067  1.00  0.00     0.000 C 
ENDROOT
BRANCH   1   2
ATOM      2  C   UNL     1      42.684  61.189   7.964  1.00  0.00     0.000 C 
BRANCH   2   3
ATOM      3  C   UNL     1      43.590  62.340   7.512  1.00  0.00     0.000 C 
BRANCH   3   4
ATOM      4  C   UNL     1      42.759  63.536   7.023  1.00  0.00     0.000 C 
BRANCH   4   5
ATOM      5  C   UNL     1      43.583  64.530   6.188  1.00  0.00     0.006 C 
BRANCH   5   6
ATOM      6  C   UNL     1      42.961  65.931   6.154  1.00  0.00     0.053 C 
BRANCH   6   7
ATOM      7  C   UNL     1      42.866  66.494   7.537  1.00  0.00     0.041 C 
ATOM      8  O   UNL     1      43.912  66.788   8.173  1.00  0.00    -0.550 OA
ATOM      9  O   UNL     1      41.622  66.742   8.104  1.00  0.00    -0.550 OA
ENDBRANCH   6   7
ENDBRANCH   5   6
ENDBRANCH   4   5
ENDBRANCH   3   4
ENDBRANCH   2   3
ENDBRANCH   1   2
BRANCH   1  10
ATOM     10  C   UNL     1      44.854  60.674   9.231  1.00  0.00     0.000 C 
BRANCH  10  11
ATOM     11  C   UNL     1      45.361  60.700  10.684  1.00  0.00    -0.000 C 
BRANCH  11  12
ATOM     12  C   UNL     1      44.245  60.456  11.713  1.00  0.00    -0.000 C 
BRANCH  12  13
ATOM     13  C   UNL     1      44.216  61.526  12.817  1.00  0.00    -0.000 C 
BRANCH  13  14
ATOM     14  C   UNL     1      44.656  62.908  12.314  1.00  0.00    -0.000 C 
BRANCH  14  15
ATOM     15  C   UNL     1      43.458  63.859  12.203  1.00  0.00    -0.000 C 
BRANCH  15  16
ATOM     16  C   UNL     1      42.874  63.847  10.785  1.00  0.00    -0.003 C 
ATOM     17  C   UNL     1      41.492  63.202  10.763  1.00  0.00     0.004 C 
ENDBRANCH  15  16
ENDBRANCH  14  15
ENDBRANCH  13  14
ENDBRANCH  12  13
ENDBRANCH  11  12
ENDBRANCH  10  11
ENDBRANCH   1  10
TORSDOF 13
ENDMDL
MODEL 5
REMARK VINA RESULT:    -4.151      1.456      2.327
REMARK INTER + INTRA:          -9.235
REMARK INTER:                  -7.653
REMARK INTRA:                  -1.582
REMARK UNBOUND:                -1.930
REMARK SMILES CCCCCCCCCCCCCCC(=O)[O-]
REMARK SMILES IDX 9 1 10 2 11 3 12 4 13 5 14 6 15 7 16 8 17 9 8 10 7 11 6 12
REMARK SMILES IDX 5 13 4 14 3 15 2 16 1 17
REMARK H PARENT
REMARK Flexibility Score: inf
ROOT
ATOM      1  C   UNL     1      41.791  63.356  10.955  1.00  0.00     0.000 C 
ENDROOT
BRANCH   1   2
ATOM      2  C   UNL     1      42.697  63.320   9.716  1.00  0.00     0.000 C 
BRANCH   2   3
ATOM      3  C   UNL     1      42.047  64.054   8.537  1.00  0.00     0.000 C 
BRANCH   3   4
ATOM      4  C   UNL     1      41.981  65.567   8.798  1.00  0.00     0.000 C 
BRANCH   4   5
ATOM      5  C   UNL     1      43.047  66.351   8.017  1.00  0.00     0.006 C 
BRANCH   5   6
ATOM      6  C   UNL     1      43.503  65.623   6.746  1.00  0.00     0.053 C 
BRANCH   6   7
ATOM      7  C   UNL     1      43.044  66.361   5.529  1.00  0.00     0.041 C 
ATOM      8  O   UNL     1      42.335  67.395   5.645  1.00  0.00    -0.550 OA
ATOM      9  O   UNL     1      43.440  65.936   4.267  1.00  0.00    -0.550 OA
ENDBRANCH   6   7
ENDBRANCH   5   6
ENDBRANCH   4   5
ENDBRANCH   3   4
ENDBRANCH   2   3
ENDBRANCH   1   2
BRANCH   1  10
ATOM     10  C   UNL     1      42.550  63.712  12.247  1.00  0.00     0.000 C 
BRANCH  10  11
ATOM     11  C   UNL     1      44.079  63.805  12.101  1.00  0.00    -0.000 C 
BRANCH  11  12
ATOM     12  C   UNL     1      44.831  62.861  13.056  1.00  0.00    -0.000 C 
BRANCH  12  13
ATOM     13  C   UNL     1      44.002  61.623  13.435  1.00  0.00    -0.000 C 
BRANCH  13  14
ATOM     14  C   UNL     1      44.511  60.340  12.761  1.00  0.00    -0.000 C 
BRANCH  14  15
ATOM     15  C   UNL     1      44.027  60.254  11.309  1.00  0.00    -0.000 C 
BRANCH  15  16
ATOM     16  C   UNL     1      45.185  60.479  10.328  1.00  0.00    -0.003 C 
ATOM     17  C   UNL     1      44.725  60.304   8.884  1.00  0.00     0.004 C 
ENDBRANCH  15  16
ENDBRANCH  14  15
ENDBRANCH  13  14
ENDBRANCH  12  13
ENDBRANCH  11  12
ENDBRANCH  10  11
ENDBRANCH   1  10
TORSDOF 13
ENDMDL
MODEL 6
REMARK VINA RESULT:    -4.123      1.324      2.175
REMARK INTER + INTRA:          -9.186
REMARK INTER:                  -6.994
REMARK INTRA:                  -2.192
REMARK UNBOUND:                -1.930
REMARK SMILES CCCCCCCCCCCCCCC(=O)[O-]
REMARK SMILES IDX 9 1 10 2 11 3 12 4 13 5 14 6 15 7 16 8 17 9 8 10 7 11 6 12
REMARK SMILES IDX 5 13 4 14 3 15 2 16 1 17
REMARK H PARENT
REMARK Flexibility Score: inf
ROOT
ATOM      1  C   UNL     1      42.892  63.813  10.689  1.00  0.00     0.000 C 
ENDROOT
BRANCH   1   2
ATOM      2  C   UNL     1      41.473  63.381  10.291  1.00  0.00     0.000 C 
BRANCH   2   3
ATOM      3  C   UNL     1      41.481  62.632   8.953  1.00  0.00     0.000 C 
BRANCH   3   4
ATOM      4  C   UNL     1      42.848  62.750   8.263  1.00  0.00     0.000 C 
BRANCH   4   5
ATOM      5  C   UNL     1      42.732  63.134   6.779  1.00  0.00     0.006 C 
BRANCH   5   6
ATOM      6  C   UNL     1      43.383  64.487   6.465  1.00  0.00     0.053 C 
BRANCH   6   7
ATOM      7  C   UNL     1      42.654  65.591   7.164  1.00  0.00     0.041 C 
ATOM      8  O   UNL     1      41.433  65.790   6.932  1.00  0.00    -0.550 OA
ATOM      9  O   UNL     1      43.310  66.368   8.111  1.00  0.00    -0.550 OA
ENDBRANCH   6   7
ENDBRANCH   5   6
ENDBRANCH   4   5
ENDBRANCH   3   4
ENDBRANCH   2   3
ENDBRANCH   1   2
BRANCH   1  10
ATOM     10  C   UNL     1      43.156  63.692  12.201  1.00  0.00     0.000 C 
BRANCH  10  11
ATOM     11  C   UNL     1      44.630  63.482  12.592  1.00  0.00    -0.000 C 
BRANCH  11  12
ATOM     12  C   UNL     1      44.859  62.193  13.401  1.00  0.00    -0.000 C 
BRANCH  12  13
ATOM     13  C   UNL     1      43.582  61.347  13.534  1.00  0.00    -0.000 C 
BRANCH  13  14
ATOM     14  C   UNL     1      43.658  60.031  12.745  1.00  0.00    -0.000 C 
BRANCH  14  15
ATOM     15  C   UNL     1      42.807  60.106  11.472  1.00  0.00    -0.000 C 
BRANCH  15  16
ATOM     16  C   UNL     1      43.626  59.709  10.237  1.00  0.00    -0.003 C 
ATOM     17  C   UNL     1      44.968  60.434  10.209  1.00  0.00     0.004 C 
ENDBRANCH  15  16
ENDBRANCH  14  15
ENDBRANCH  13  14
ENDBRANCH  12  13
ENDBRANCH  11  12
ENDBRANCH  10  11
ENDBRANCH   1  10
TORSDOF 13
ENDMDL
MODEL 7
REMARK VINA RESULT:    -4.075      0.985      3.186
REMARK INTER + INTRA:          -9.102
REMARK INTER:                  -7.215
REMARK INTRA:                  -1.886
REMARK UNBOUND:                -1.930
REMARK SMILES CCCCCCCCCCCCCCC(=O)[O-]
REMARK SMILES IDX 9 1 10 2 11 3 12 4 13 5 14 6 15 7 16 8 17 9 8 10 7 11 6 12
REMARK SMILES IDX 5 13 4 14 3 15 2 16 1 17
REMARK H PARENT
REMARK Flexibility Score: inf
ROOT
ATOM      1  C   UNL     1      44.377  61.094   8.800  1.00  0.00     0.000 C 
ENDROOT
BRANCH   1   2
ATOM      2  C   UNL     1      43.019  61.428   8.168  1.00  0.00     0.000 C 
BRANCH   2   3
ATOM      3  C   UNL     1      42.870  62.938   7.946  1.00  0.00     0.000 C 
BRANCH   3   4
ATOM      4  C   UNL     1      41.863  63.543   8.935  1.00  0.00     0.000 C 
BRANCH   4   5
ATOM      5  C   UNL     1      42.178  65.008   9.280  1.00  0.00     0.006 C 
BRANCH   5   6
ATOM      6  C   UNL     1      41.508  65.998   8.319  1.00  0.00     0.053 C 
BRANCH   6   7
ATOM      7  C   UNL     1      42.541  66.815   7.609  1.00  0.00     0.041 C 
ATOM      8  O   UNL     1      43.711  66.894   8.066  1.00  0.00    -0.550 OA
ATOM      9  O   UNL     1      42.225  67.449   6.413  1.00  0.00    -0.550 OA
ENDBRANCH   6   7
ENDBRANCH   5   6
ENDBRANCH   4   5
ENDBRANCH   3   4
ENDBRANCH   2   3
ENDBRANCH   1   2
BRANCH   1  10
ATOM     10  C   UNL     1      44.256  60.222  10.063  1.00  0.00     0.000 C 
BRANCH  10  11
ATOM     11  C   UNL     1      42.856  59.635  10.321  1.00  0.00    -0.000 C 
BRANCH  11  12
ATOM     12  C   UNL     1      42.353  59.890  11.752  1.00  0.00    -0.000 C 
BRANCH  12  13
ATOM     13  C   UNL     1      41.686  61.266  11.906  1.00  0.00    -0.000 C 
BRANCH  13  14
ATOM     14  C   UNL     1      42.399  62.160  12.931  1.00  0.00    -0.000 C 
BRANCH  14  15
ATOM     15  C   UNL     1      43.242  63.233  12.231  1.00  0.00    -0.000 C 
BRANCH  15  16
ATOM     16  C   UNL     1      44.696  63.197  12.718  1.00  0.00    -0.003 C 
ATOM     17  C   UNL     1      45.020  61.866  13.390  1.00  0.00     0.004 C 
ENDBRANCH  15  16
ENDBRANCH  14  15
ENDBRANCH  13  14
ENDBRANCH  12  13
ENDBRANCH  11  12
ENDBRANCH  10  11
ENDBRANCH   1  10
TORSDOF 13
ENDMDL
MODEL 8
REMARK VINA RESULT:    -4.055      2.852      4.699
REMARK INTER + INTRA:          -9.067
REMARK INTER:                  -7.223
REMARK INTRA:                  -1.844
REMARK UNBOUND:                -1.930
REMARK SMILES CCCCCCCCCCCCCCC(=O)[O-]
REMARK SMILES IDX 9 1 10 2 11 3 12 4 13 5 14 6 15 7 16 8 17 9 8 10 7 11 6 12
REMARK SMILES IDX 5 13 4 14 3 15 2 16 1 17
REMARK H PARENT
REMARK Flexibility Score: inf
ROOT
ATOM      1  C   UNL     1      44.785  60.390  12.479  1.00  0.00     0.000 C 
ENDROOT
BRANCH   1   2
ATOM      2  C   UNL     1      44.476  61.598  13.375  1.00  0.00     0.000 C 
BRANCH   2   3
ATOM      3  C   UNL     1      44.501  62.903  12.569  1.00  0.00     0.000 C 
BRANCH   3   4
ATOM      4  C   UNL     1      43.086  63.484  12.418  1.00  0.00     0.000 C 
BRANCH   4   5
ATOM      5  C   UNL     1      41.996  62.528  12.928  1.00  0.00     0.006 C 
BRANCH   5   6
ATOM      6  C   UNL     1      40.749  63.268  13.430  1.00  0.00     0.053 C 
BRANCH   6   7
ATOM      7  C   UNL     1      39.586  63.002  12.529  1.00  0.00     0.041 C 
ATOM      8  O   UNL     1      38.487  62.618  13.009  1.00  0.00    -0.550 OA
ATOM      9  O   UNL     1      39.699  63.227  11.162  1.00  0.00    -0.550 OA
ENDBRANCH   6   7
ENDBRANCH   5   6
ENDBRANCH   4   5
ENDBRANCH   3   4
ENDBRANCH   2   3
ENDBRANCH   1   2
BRANCH   1  10
ATOM     10  C   UNL     1      45.409  60.786  11.128  1.00  0.00     0.000 C 
BRANCH  10  11
ATOM     11  C   UNL     1      44.705  60.206   9.888  1.00  0.00    -0.000 C 
BRANCH  11  12
ATOM     12  C   UNL     1      43.178  60.115  10.053  1.00  0.00    -0.000 C 
BRANCH  12  13
ATOM     13  C   UNL     1      42.446  61.318   9.434  1.00  0.00    -0.000 C 
BRANCH  13  14
ATOM     14  C   UNL     1      42.853  61.573   7.975  1.00  0.00    -0.000 C 
BRANCH  14  15
ATOM     15  C   UNL     1      42.901  63.076   7.674  1.00  0.00    -0.000 C 
BRANCH  15  16
ATOM     16  C   UNL     1      41.771  63.819   8.399  1.00  0.00    -0.003 C 
ATOM     17  C   UNL     1      42.303  65.042   9.140  1.00  0.00     0.004 C 
ENDBRANCH  15  16
ENDBRANCH  14  15
ENDBRANCH  13  14
ENDBRANCH  12  13
ENDBRANCH  11  12
ENDBRANCH  10  11
ENDBRANCH   1  10
TORSDOF 13
ENDMDL
MODEL 9
REMARK VINA RESULT:    -3.997      2.556      5.038
REMARK INTER + INTRA:          -8.964
REMARK INTER:                  -7.382
REMARK INTRA:                  -1.582
REMARK UNBOUND:                -1.930
REMARK SMILES CCCCCCCCCCCCCCC(=O)[O-]
REMARK SMILES IDX 9 1 10 2 11 3 12 4 13 5 14 6 15 7 16 8 17 9 8 10 7 11 6 12
REMARK SMILES IDX 5 13 4 14 3 15 2 16 1 17
REMARK H PARENT
REMARK Flexibility Score: inf
ROOT
ATOM      1  C   UNL     1      45.376  60.762  10.834  1.00  0.00     0.000 C 
ENDROOT
BRANCH   1   2
ATOM      2  C   UNL     1      44.569  60.391  12.087  1.00  0.00     0.000 C 
BRANCH   2   3
ATOM      3  C   UNL     1      44.446  61.588  13.038  1.00  0.00     0.000 C 
BRANCH   3   4
ATOM      4  C   UNL     1      44.599  62.914  12.277  1.00  0.00     0.000 C 
BRANCH   4   5
ATOM      5  C   UNL     1      43.293  63.723  12.229  1.00  0.00     0.006 C 
BRANCH   5   6
ATOM      6  C   UNL     1      42.584  63.620  10.873  1.00  0.00     0.053 C 
BRANCH   6   7
ATOM      7  C   UNL     1      41.333  62.809  10.998  1.00  0.00     0.041 C 
ATOM      8  O   UNL     1      41.401  61.566  11.185  1.00  0.00    -0.550 OA
ATOM      9  O   UNL     1      40.092  63.432  10.958  1.00  0.00    -0.550 OA
ENDBRANCH   6   7
ENDBRANCH   5   6
ENDBRANCH   4   5
ENDBRANCH   3   4
ENDBRANCH   2   3
ENDBRANCH   1   2
BRANCH   1  10
ATOM     10  C   UNL     1      44.996  59.921   9.601  1.00  0.00     0.000 C 
BRANCH  10  11
ATOM     11  C   UNL     1      43.697  60.348   8.895  1.00  0.00    -0.000 C 
BRANCH  11  12
ATOM     12  C   UNL     1      43.853  61.646   8.084  1.00  0.00    -0.000 C 
BRANCH  12  13
ATOM     13  C   UNL     1      42.555  62.055   7.369  1.00  0.00    -0.000 C 
BRANCH  13  14
ATOM     14  C   UNL     1      42.484  63.562   7.084  1.00  0.00    -0.000 C 
BRANCH  14  15
ATOM     15  C   UNL     1      42.947  63.872   5.656  1.00  0.00    -0.000 C 
BRANCH  15  16
ATOM     16  C   UNL     1      43.469  65.310   5.545  1.00  0.00    -0.003 C 
ATOM     17  C   UNL     1      43.420  66.020   6.895  1.00  0.00     0.004 C 
ENDBRANCH  15  16
ENDBRANCH  14  15
ENDBRANCH  13  14
ENDBRANCH  12  13
ENDBRANCH  11  12
ENDBRANCH  10  11
ENDBRANCH   1  10
TORSDOF 13
ENDMDL
