MODEL 1
REMARK VINA RESULT:    -4.392      0.000      0.000
REMARK INTER + INTRA:          -5.916
REMARK INTER:                  -5.675
REMARK INTRA:                  -0.240
REMARK UNBOUND:                -0.240
REMARK SMILES C=CC(=O)CCCCC
REMARK SMILES IDX 6 1 7 2 8 3 9 4 5 5 3 6 4 7 2 8 1 9
REMARK H PARENT
REMARK Flexibility Score: inf
ROOT
ATOM      1  C   UNL     1      -2.777 -12.645  31.136  1.00  0.00     0.008 C 
ENDROOT
BRANCH   1   2
ATOM      2  C   UNL     1      -3.974 -13.596  30.998  1.00  0.00     0.000 C 
BRANCH   2   3
ATOM      3  C   UNL     1      -4.402 -14.205  32.342  1.00  0.00    -0.003 C 
ATOM      4  C   UNL     1      -5.585 -15.163  32.207  1.00  0.00     0.004 C 
ENDBRANCH   2   3
ENDBRANCH   1   2
BRANCH   1   5
ATOM      5  C   UNL     1      -1.529 -13.399  31.607  1.00  0.00     0.080 C 
BRANCH   5   6
ATOM      6  C   UNL     1      -0.328 -12.978  30.814  1.00  0.00     0.155 C 
ATOM      7  O   UNL     1       0.700 -12.566  31.419  1.00  0.00    -0.295 OA
BRANCH   6   8
ATOM      8  C   UNL     1      -0.339 -13.089  29.342  1.00  0.00     0.039 C 
ATOM      9  C   UNL     1      -0.048 -14.225  28.709  1.00  0.00     0.012 C 
ENDBRANCH   6   8
ENDBRANCH   5   6
ENDBRANCH   1   5
TORSDOF 5
ENDMDL
MODEL 2
REMARK VINA RESULT:    -4.367      1.178      1.782
REMARK INTER + INTRA:          -5.884
REMARK INTER:                  -5.495
REMARK INTRA:                  -0.389
REMARK UNBOUND:                -0.240
REMARK SMILES C=CC(=O)CCCCC
REMARK SMILES IDX 6 1 7 2 8 3 9 4 5 5 3 6 4 7 2 8 1 9
REMARK H PARENT
REMARK Flexibility Score: inf
ROOT
ATOM      1  C   UNL     1      -2.913 -12.713  31.420  1.00  0.00     0.008 C 
ENDROOT
BRANCH   1   2
ATOM      2  C   UNL     1      -3.957 -13.496  30.610  1.00  0.00     0.000 C 
BRANCH   2   3
ATOM      3  C   UNL     1      -4.234 -12.864  29.238  1.00  0.00    -0.003 C 
ATOM      4  C   UNL     1      -5.311 -13.609  28.450  1.00  0.00     0.004 C 
ENDBRANCH   2   3
ENDBRANCH   1   2
BRANCH   1   5
ATOM      5  C   UNL     1      -1.648 -13.550  31.638  1.00  0.00     0.080 C 
BRANCH   5   6
ATOM      6  C   UNL     1      -0.485 -12.944  30.910  1.00  0.00     0.155 C 
ATOM      7  O   UNL     1       0.446 -12.406  31.571  1.00  0.00    -0.295 OA
BRANCH   6   8
ATOM      8  C   UNL     1      -0.414 -13.021  29.438  1.00  0.00     0.039 C 
ATOM      9  C   UNL     1      -0.216 -14.169  28.791  1.00  0.00     0.012 C 
ENDBRANCH   6   8
ENDBRANCH   5   6
ENDBRANCH   1   5
TORSDOF 5
ENDMDL
MODEL 3
REMARK VINA RESULT:    -4.351      3.395      3.853
REMARK INTER + INTRA:          -5.863
REMARK INTER:                  -5.611
REMARK INTRA:                  -0.252
REMARK UNBOUND:                -0.240
REMARK SMILES C=CC(=O)CCCCC
REMARK SMILES IDX 6 1 7 2 8 3 9 4 5 5 3 6 4 7 2 8 1 9
REMARK H PARENT
REMARK Flexibility Score: inf
ROOT
ATOM      1  C   UNL     1      -4.233 -12.521  29.831  1.00  0.00     0.008 C 
ENDROOT
BRANCH   1   2
ATOM      2  C   UNL     1      -3.553 -13.538  30.759  1.00  0.00     0.000 C 
BRANCH   2   3
ATOM      3  C   UNL     1      -4.316 -13.735  32.078  1.00  0.00    -0.003 C 
ATOM      4  C   UNL     1      -5.367 -14.842  31.993  1.00  0.00     0.004 C 
ENDBRANCH   2   3
ENDBRANCH   1   2
BRANCH   1   5
ATOM      5  C   UNL     1      -4.885 -13.221  28.635  1.00  0.00     0.080 C 
BRANCH   5   6
ATOM      6  C   UNL     1      -3.963 -13.211  27.452  1.00  0.00     0.155 C 
ATOM      7  O   UNL     1      -4.011 -14.159  26.621  1.00  0.00    -0.295 OA
BRANCH   6   8
ATOM      8  C   UNL     1      -3.041 -12.076  27.244  1.00  0.00     0.039 C 
ATOM      9  C   UNL     1      -3.034 -11.357  26.123  1.00  0.00     0.012 C 
ENDBRANCH   6   8
ENDBRANCH   5   6
ENDBRANCH   1   5
TORSDOF 5
ENDMDL
MODEL 4
REMARK VINA RESULT:    -4.286      2.320      3.075
REMARK INTER + INTRA:          -5.780
REMARK INTER:                  -5.266
REMARK INTRA:                  -0.514
REMARK UNBOUND:                -0.240
REMARK SMILES C=CC(=O)CCCCC
REMARK SMILES IDX 6 1 7 2 8 3 9 4 5 5 3 6 4 7 2 8 1 9
REMARK H PARENT
REMARK Flexibility Score: inf
ROOT
ATOM      1  C   UNL     1      -3.017 -12.286  31.309  1.00  0.00     0.008 C 
ENDROOT
BRANCH   1   2
ATOM      2  C   UNL     1      -4.119 -12.872  32.203  1.00  0.00     0.000 C 
BRANCH   2   3
ATOM      3  C   UNL     1      -4.156 -14.407  32.163  1.00  0.00    -0.003 C 
ATOM      4  C   UNL     1      -5.538 -14.974  32.486  1.00  0.00     0.004 C 
ENDBRANCH   2   3
ENDBRANCH   1   2
BRANCH   1   5
ATOM      5  C   UNL     1      -2.689 -13.233  30.151  1.00  0.00     0.080 C 
BRANCH   5   6
ATOM      6  C   UNL     1      -3.107 -12.629  28.843  1.00  0.00     0.155 C 
ATOM      7  O   UNL     1      -2.224 -12.249  28.026  1.00  0.00    -0.295 OA
BRANCH   6   8
ATOM      8  C   UNL     1      -4.540 -12.526  28.502  1.00  0.00     0.039 C 
ATOM      9  C   UNL     1      -5.348 -13.585  28.481  1.00  0.00     0.012 C 
ENDBRANCH   6   8
ENDBRANCH   5   6
ENDBRANCH   1   5
TORSDOF 5
ENDMDL
MODEL 5
REMARK VINA RESULT:    -4.259      1.917      4.751
REMARK INTER + INTRA:          -5.744
REMARK INTER:                  -5.495
REMARK INTRA:                  -0.249
REMARK UNBOUND:                -0.240
REMARK SMILES C=CC(=O)CCCCC
REMARK SMILES IDX 6 1 7 2 8 3 9 4 5 5 3 6 4 7 2 8 1 9
REMARK H PARENT
REMARK Flexibility Score: inf
ROOT
ATOM      1  C   UNL     1      -1.689 -13.403  31.671  1.00  0.00     0.008 C 
ENDROOT
BRANCH   1   2
ATOM      2  C   UNL     1      -0.377 -13.285  30.883  1.00  0.00     0.000 C 
BRANCH   2   3
ATOM      3  C   UNL     1      -0.610 -13.069  29.380  1.00  0.00    -0.003 C 
ATOM      4  C   UNL     1      -0.077 -14.220  28.527  1.00  0.00     0.004 C 
ENDBRANCH   2   3
ENDBRANCH   1   2
BRANCH   1   5
ATOM      5  C   UNL     1      -2.825 -12.659  30.960  1.00  0.00     0.080 C 
BRANCH   5   6
ATOM      6  C   UNL     1      -4.079 -13.482  30.967  1.00  0.00     0.155 C 
ATOM      7  O   UNL     1      -4.691 -13.687  29.883  1.00  0.00    -0.295 OA
BRANCH   6   8
ATOM      8  C   UNL     1      -4.561 -14.082  32.227  1.00  0.00     0.039 C 
ATOM      9  C   UNL     1      -5.402 -15.115  32.251  1.00  0.00     0.012 C 
ENDBRANCH   6   8
ENDBRANCH   5   6
ENDBRANCH   1   5
TORSDOF 5
ENDMDL
MODEL 6
REMARK VINA RESULT:    -4.243      2.369      4.378
REMARK INTER + INTRA:          -5.723
REMARK INTER:                  -5.266
REMARK INTRA:                  -0.457
REMARK UNBOUND:                -0.240
REMARK SMILES C=CC(=O)CCCCC
REMARK SMILES IDX 6 1 7 2 8 3 9 4 5 5 3 6 4 7 2 8 1 9
REMARK H PARENT
REMARK Flexibility Score: inf
ROOT
ATOM      1  C   UNL     1      -2.021 -12.607  31.389  1.00  0.00     0.008 C 
ENDROOT
BRANCH   1   2
ATOM      2  C   UNL     1      -0.693 -13.260  30.977  1.00  0.00     0.000 C 
BRANCH   2   3
ATOM      3  C   UNL     1      -0.337 -12.996  29.506  1.00  0.00    -0.003 C 
ATOM      4  C   UNL     1      -0.348 -14.267  28.657  1.00  0.00     0.004 C 
ENDBRANCH   2   3
ENDBRANCH   1   2
BRANCH   1   5
ATOM      5  C   UNL     1      -3.050 -13.668  31.795  1.00  0.00     0.080 C 
BRANCH   5   6
ATOM      6  C   UNL     1      -4.225 -13.644  30.863  1.00  0.00     0.155 C 
ATOM      7  O   UNL     1      -5.230 -14.364  31.116  1.00  0.00    -0.295 OA
BRANCH   6   8
ATOM      8  C   UNL     1      -4.218 -12.750  29.688  1.00  0.00     0.039 C 
ATOM      9  C   UNL     1      -4.635 -13.147  28.486  1.00  0.00     0.012 C 
ENDBRANCH   6   8
ENDBRANCH   5   6
ENDBRANCH   1   5
TORSDOF 5
ENDMDL
MODEL 7
REMARK VINA RESULT:    -4.227      2.426      3.360
REMARK INTER + INTRA:          -5.703
REMARK INTER:                  -5.153
REMARK INTRA:                  -0.550
REMARK UNBOUND:                -0.240
REMARK SMILES C=CC(=O)CCCCC
REMARK SMILES IDX 6 1 7 2 8 3 9 4 5 5 3 6 4 7 2 8 1 9
REMARK H PARENT
REMARK Flexibility Score: inf
ROOT
ATOM      1  C   UNL     1      -3.835 -12.396  29.405  1.00  0.00     0.008 C 
ENDROOT
BRANCH   1   2
ATOM      2  C   UNL     1      -4.610 -13.199  28.350  1.00  0.00     0.000 C 
BRANCH   2   3
ATOM      3  C   UNL     1      -3.842 -13.328  27.026  1.00  0.00    -0.003 C 
ATOM      4  C   UNL     1      -3.292 -11.991  26.528  1.00  0.00     0.004 C 
ENDBRANCH   2   3
ENDBRANCH   1   2
BRANCH   1   5
ATOM      5  C   UNL     1      -3.358 -13.305  30.543  1.00  0.00     0.080 C 
BRANCH   5   6
ATOM      6  C   UNL     1      -1.862 -13.269  30.653  1.00  0.00     0.155 C 
ATOM      7  O   UNL     1      -1.314 -13.576  31.747  1.00  0.00    -0.295 OA
BRANCH   6   8
ATOM      8  C   UNL     1      -1.043 -12.919  29.475  1.00  0.00     0.039 C 
ATOM      9  C   UNL     1      -0.376 -13.833  28.771  1.00  0.00     0.012 C 
ENDBRANCH   6   8
ENDBRANCH   5   6
ENDBRANCH   1   5
TORSDOF 5
ENDMDL
MODEL 8
REMARK VINA RESULT:    -4.201      1.731      2.510
REMARK INTER + INTRA:          -5.669
REMARK INTER:                  -5.093
REMARK INTRA:                  -0.577
REMARK UNBOUND:                -0.240
REMARK SMILES C=CC(=O)CCCCC
REMARK SMILES IDX 6 1 7 2 8 3 9 4 5 5 3 6 4 7 2 8 1 9
REMARK H PARENT
REMARK Flexibility Score: inf
ROOT
ATOM      1  C   UNL     1      -3.061 -13.269  28.587  1.00  0.00     0.008 C 
ENDROOT
BRANCH   1   2
ATOM      2  C   UNL     1      -4.072 -12.734  29.611  1.00  0.00     0.000 C 
BRANCH   2   3
ATOM      3  C   UNL     1      -4.189 -13.634  30.850  1.00  0.00    -0.003 C 
ATOM      4  C   UNL     1      -4.081 -12.855  32.160  1.00  0.00     0.004 C 
ENDBRANCH   2   3
ENDBRANCH   1   2
BRANCH   1   5
ATOM      5  C   UNL     1      -1.705 -12.572  28.740  1.00  0.00     0.080 C 
BRANCH   5   6
ATOM      6  C   UNL     1      -0.700 -13.505  29.348  1.00  0.00     0.155 C 
ATOM      7  O   UNL     1      -0.089 -14.324  28.607  1.00  0.00    -0.295 OA
BRANCH   6   8
ATOM      8  C   UNL     1      -0.400 -13.428  30.791  1.00  0.00     0.039 C 
ATOM      9  C   UNL     1      -0.422 -12.279  31.466  1.00  0.00     0.012 C 
ENDBRANCH   6   8
ENDBRANCH   5   6
ENDBRANCH   1   5
TORSDOF 5
ENDMDL
MODEL 9
REMARK VINA RESULT:    -4.152      2.566      3.933
REMARK INTER + INTRA:          -5.606
REMARK INTER:                  -5.129
REMARK INTRA:                  -0.477
REMARK UNBOUND:                -0.240
REMARK SMILES C=CC(=O)CCCCC
REMARK SMILES IDX 6 1 7 2 8 3 9 4 5 5 3 6 4 7 2 8 1 9
REMARK H PARENT
REMARK Flexibility Score: inf
ROOT
ATOM      1  C   UNL     1      -3.504 -11.421  30.005  1.00  0.00     0.008 C 
ENDROOT
BRANCH   1   2
ATOM      2  C   UNL     1      -4.498 -11.635  28.854  1.00  0.00     0.000 C 
BRANCH   2   3
ATOM      3  C   UNL     1      -4.362 -13.021  28.207  1.00  0.00    -0.003 C 
ATOM      4  C   UNL     1      -5.620 -13.875  28.366  1.00  0.00     0.004 C 
ENDBRANCH   2   3
ENDBRANCH   1   2
BRANCH   1   5
ATOM      5  C   UNL     1      -4.080 -11.936  31.329  1.00  0.00     0.080 C 
BRANCH   5   6
ATOM      6  C   UNL     1      -3.432 -13.233  31.716  1.00  0.00     0.155 C 
ATOM      7  O   UNL     1      -2.201 -13.399  31.497  1.00  0.00    -0.295 OA
BRANCH   6   8
ATOM      8  C   UNL     1      -4.224 -14.282  32.387  1.00  0.00     0.039 C 
ATOM      9  C   UNL     1      -5.334 -14.792  31.854  1.00  0.00     0.012 C 
ENDBRANCH   6   8
ENDBRANCH   5   6
ENDBRANCH   1   5
TORSDOF 5
ENDMDL
