MODEL 1
REMARK VINA RESULT:    -3.466      0.000      0.000
REMARK INTER + INTRA:          -4.096
REMARK INTER:                  -4.074
REMARK INTRA:                  -0.022
REMARK UNBOUND:                -0.022
REMARK SMILES CCCCC(=O)[O-]
REMARK SMILES IDX 4 1 5 2 6 3 7 4 3 5 2 6 1 7
REMARK H PARENT
REMARK Flexibility Score: inf
ROOT
ATOM      1  C   UNL     1      -2.567  -3.096   1.475  1.00  0.00     0.053 C 
ENDROOT
BRANCH   1   2
ATOM      2  C   UNL     1      -3.959  -2.614   1.749  1.00  0.00     0.041 C 
ATOM      3  O   UNL     1      -4.951  -3.303   1.390  1.00  0.00    -0.550 OA
ATOM      4  O   UNL     1      -4.160  -1.421   2.430  1.00  0.00    -0.550 OA
ENDBRANCH   1   2
BRANCH   1   5
ATOM      5  C   UNL     1      -1.731  -2.035   0.751  1.00  0.00     0.006 C 
BRANCH   5   6
ATOM      6  C   UNL     1      -0.454  -2.625   0.132  1.00  0.00    -0.003 C 
ATOM      7  C   UNL     1       0.268  -3.535   1.122  1.00  0.00     0.004 C 
ENDBRANCH   5   6
ENDBRANCH   1   5
TORSDOF 3
ENDMDL
MODEL 2
REMARK VINA RESULT:    -3.139      2.738      3.973
REMARK INTER + INTRA:          -3.712
REMARK INTER:                  -3.690
REMARK INTRA:                  -0.022
REMARK UNBOUND:                -0.022
REMARK SMILES CCCCC(=O)[O-]
REMARK SMILES IDX 4 1 5 2 6 3 7 4 3 5 2 6 1 7
REMARK H PARENT
REMARK Flexibility Score: inf
ROOT
ATOM      1  C   UNL     1      -2.010  -2.110   0.945  1.00  0.00     0.053 C 
ENDROOT
BRANCH   1   2
ATOM      2  C   UNL     1      -0.781  -2.482   0.176  1.00  0.00     0.041 C 
ATOM      3  O   UNL     1      -0.803  -2.507  -1.083  1.00  0.00    -0.550 OA
ATOM      4  O   UNL     1       0.400  -2.770   0.849  1.00  0.00    -0.550 OA
ENDBRANCH   1   2
BRANCH   1   5
ATOM      5  C   UNL     1      -2.746  -3.347   1.475  1.00  0.00     0.006 C 
BRANCH   5   6
ATOM      6  C   UNL     1      -4.227  -3.061   1.765  1.00  0.00    -0.003 C 
ATOM      7  C   UNL     1      -4.391  -1.783   2.583  1.00  0.00     0.004 C 
ENDBRANCH   5   6
ENDBRANCH   1   5
TORSDOF 3
ENDMDL
MODEL 3
REMARK VINA RESULT:    -3.088      1.976      2.127
REMARK INTER + INTRA:          -3.652
REMARK INTER:                  -3.574
REMARK INTRA:                  -0.078
REMARK UNBOUND:                -0.022
REMARK SMILES CCCCC(=O)[O-]
REMARK SMILES IDX 4 1 5 2 6 3 7 4 3 5 2 6 1 7
REMARK H PARENT
REMARK Flexibility Score: inf
ROOT
ATOM      1  C   UNL     1      -3.009  -3.847   1.375  1.00  0.00     0.053 C 
ENDROOT
BRANCH   1   2
ATOM      2  C   UNL     1      -3.000  -4.383   2.773  1.00  0.00     0.041 C 
ATOM      3  O   UNL     1      -2.056  -5.118   3.165  1.00  0.00    -0.550 OA
ATOM      4  O   UNL     1      -4.019  -4.043   3.654  1.00  0.00    -0.550 OA
ENDBRANCH   1   2
BRANCH   1   5
ATOM      5  C   UNL     1      -2.444  -2.423   1.307  1.00  0.00     0.006 C 
BRANCH   5   6
ATOM      6  C   UNL     1      -1.326  -2.291   0.262  1.00  0.00    -0.003 C 
ATOM      7  C   UNL     1       0.008  -2.779   0.819  1.00  0.00     0.004 C 
ENDBRANCH   5   6
ENDBRANCH   1   5
TORSDOF 3
ENDMDL
MODEL 4
REMARK VINA RESULT:    -2.966     10.170     10.877
REMARK INTER + INTRA:          -3.509
REMARK INTER:                  -3.395
REMARK INTRA:                  -0.113
REMARK UNBOUND:                -0.022
REMARK SMILES CCCCC(=O)[O-]
REMARK SMILES IDX 4 1 5 2 6 3 7 4 3 5 2 6 1 7
REMARK H PARENT
REMARK Flexibility Score: inf
ROOT
ATOM      1  C   UNL     1       1.484   3.717  -4.832  1.00  0.00     0.053 C 
ENDROOT
BRANCH   1   2
ATOM      2  C   UNL     1       1.399   5.178  -5.153  1.00  0.00     0.041 C 
ATOM      3  O   UNL     1       0.661   5.935  -4.469  1.00  0.00    -0.550 OA
ATOM      4  O   UNL     1       2.160   5.709  -6.187  1.00  0.00    -0.550 OA
ENDBRANCH   1   2
BRANCH   1   5
ATOM      5  C   UNL     1       2.923   3.196  -4.934  1.00  0.00     0.006 C 
BRANCH   5   6
ATOM      6  C   UNL     1       3.832   3.785  -3.845  1.00  0.00    -0.003 C 
ATOM      7  C   UNL     1       5.155   4.268  -4.434  1.00  0.00     0.004 C 
ENDBRANCH   5   6
ENDBRANCH   1   5
TORSDOF 3
ENDMDL
MODEL 5
REMARK VINA RESULT:    -2.797      7.406      7.737
REMARK INTER + INTRA:          -3.310
REMARK INTER:                  -3.289
REMARK INTRA:                  -0.021
REMARK UNBOUND:                -0.022
REMARK SMILES CCCCC(=O)[O-]
REMARK SMILES IDX 4 1 5 2 6 3 7 4 3 5 2 6 1 7
REMARK H PARENT
REMARK Flexibility Score: inf
ROOT
ATOM      1  C   UNL     1       0.591   1.479   6.923  1.00  0.00     0.053 C 
ENDROOT
BRANCH   1   2
ATOM      2  C   UNL     1      -0.145   2.524   6.142  1.00  0.00     0.041 C 
ATOM      3  O   UNL     1      -1.404   2.512   6.096  1.00  0.00    -0.550 OA
ATOM      4  O   UNL     1       0.558   3.530   5.491  1.00  0.00    -0.550 OA
ENDBRANCH   1   2
BRANCH   1   5
ATOM      5  C   UNL     1       2.105   1.559   6.692  1.00  0.00     0.006 C 
BRANCH   5   6
ATOM      6  C   UNL     1       2.776   0.178   6.760  1.00  0.00    -0.003 C 
ATOM      7  C   UNL     1       3.948   0.088   5.786  1.00  0.00     0.004 C 
ENDBRANCH   5   6
ENDBRANCH   1   5
TORSDOF 3
ENDMDL
MODEL 6
REMARK VINA RESULT:    -2.763      2.439      4.385
REMARK INTER + INTRA:          -3.270
REMARK INTER:                  -3.253
REMARK INTRA:                  -0.017
REMARK UNBOUND:                -0.022
REMARK SMILES CCCCC(=O)[O-]
REMARK SMILES IDX 4 1 5 2 6 3 7 4 3 5 2 6 1 7
REMARK H PARENT
REMARK Flexibility Score: inf
ROOT
ATOM      1  C   UNL     1      -4.277  -3.586   1.528  1.00  0.00     0.053 C 
ENDROOT
BRANCH   1   2
ATOM      2  C   UNL     1      -3.553  -2.307   1.816  1.00  0.00     0.041 C 
ATOM      3  O   UNL     1      -2.405  -2.107   1.338  1.00  0.00    -0.550 OA
ATOM      4  O   UNL     1      -4.159  -1.322   2.585  1.00  0.00    -0.550 OA
ENDBRANCH   1   2
BRANCH   1   5
ATOM      5  C   UNL     1      -5.763  -3.345   1.235  1.00  0.00     0.006 C 
BRANCH   5   6
ATOM      6  C   UNL     1      -6.460  -4.604   0.697  1.00  0.00    -0.003 C 
ATOM      7  C   UNL     1      -7.637  -4.238  -0.203  1.00  0.00     0.004 C 
ENDBRANCH   5   6
ENDBRANCH   1   5
TORSDOF 3
ENDMDL
MODEL 7
REMARK VINA RESULT:    -2.692      7.430      7.823
REMARK INTER + INTRA:          -3.187
REMARK INTER:                  -3.145
REMARK INTRA:                  -0.042
REMARK UNBOUND:                -0.022
REMARK SMILES CCCCC(=O)[O-]
REMARK SMILES IDX 4 1 5 2 6 3 7 4 3 5 2 6 1 7
REMARK H PARENT
REMARK Flexibility Score: inf
ROOT
ATOM      1  C   UNL     1       0.406   1.639   6.977  1.00  0.00     0.053 C 
ENDROOT
BRANCH   1   2
ATOM      2  C   UNL     1      -0.142   2.630   5.998  1.00  0.00     0.041 C 
ATOM      3  O   UNL     1       0.625   3.451   5.429  1.00  0.00    -0.550 OA
ATOM      4  O   UNL     1      -1.496   2.625   5.687  1.00  0.00    -0.550 OA
ENDBRANCH   1   2
BRANCH   1   5
ATOM      5  C   UNL     1       1.901   1.383   6.751  1.00  0.00     0.006 C 
BRANCH   5   6
ATOM      6  C   UNL     1       2.325  -0.021   7.208  1.00  0.00    -0.003 C 
ATOM      7  C   UNL     1       1.166  -0.756   7.876  1.00  0.00     0.004 C 
ENDBRANCH   5   6
ENDBRANCH   1   5
TORSDOF 3
ENDMDL
MODEL 8
REMARK VINA RESULT:    -2.664      6.047      7.079
REMARK INTER + INTRA:          -3.154
REMARK INTER:                  -3.042
REMARK INTRA:                  -0.112
REMARK UNBOUND:                -0.022
REMARK SMILES CCCCC(=O)[O-]
REMARK SMILES IDX 4 1 5 2 6 3 7 4 3 5 2 6 1 7
REMARK H PARENT
REMARK Flexibility Score: inf
ROOT
ATOM      1  C   UNL     1      -8.846  -3.624  -0.880  1.00  0.00     0.053 C 
ENDROOT
BRANCH   1   2
ATOM      2  C   UNL     1     -10.147  -4.330  -0.654  1.00  0.00     0.041 C 
ATOM      3  O   UNL     1     -10.587  -4.491   0.515  1.00  0.00    -0.550 OA
ATOM      4  O   UNL     1     -10.890  -4.782  -1.737  1.00  0.00    -0.550 OA
ENDBRANCH   1   2
BRANCH   1   5
ATOM      5  C   UNL     1      -7.654  -4.584  -0.782  1.00  0.00     0.006 C 
BRANCH   5   6
ATOM      6  C   UNL     1      -6.939  -4.484   0.575  1.00  0.00    -0.003 C 
ATOM      7  C   UNL     1      -7.228  -5.708   1.439  1.00  0.00     0.004 C 
ENDBRANCH   5   6
ENDBRANCH   1   5
TORSDOF 3
ENDMDL
MODEL 9
REMARK VINA RESULT:    -2.580     11.602     12.523
REMARK INTER + INTRA:          -3.055
REMARK INTER:                  -2.970
REMARK INTRA:                  -0.085
REMARK UNBOUND:                -0.022
REMARK SMILES CCCCC(=O)[O-]
REMARK SMILES IDX 4 1 5 2 6 3 7 4 3 5 2 6 1 7
REMARK H PARENT
REMARK Flexibility Score: inf
ROOT
ATOM      1  C   UNL     1     -11.564   3.788  -3.419  1.00  0.00     0.053 C 
ENDROOT
BRANCH   1   2
ATOM      2  C   UNL     1     -10.421   3.783  -4.387  1.00  0.00     0.041 C 
ATOM      3  O   UNL     1      -9.280   3.394  -4.019  1.00  0.00    -0.550 OA
ATOM      4  O   UNL     1     -10.623   4.175  -5.704  1.00  0.00    -0.550 OA
ENDBRANCH   1   2
BRANCH   1   5
ATOM      5  C   UNL     1     -11.319   4.757  -2.256  1.00  0.00     0.006 C 
BRANCH   5   6
ATOM      6  C   UNL     1     -11.077   6.195  -2.738  1.00  0.00    -0.003 C 
ATOM      7  C   UNL     1     -10.939   7.154  -1.560  1.00  0.00     0.004 C 
ENDBRANCH   5   6
ENDBRANCH   1   5
TORSDOF 3
ENDMDL
