MODEL 1
REMARK VINA RESULT:    -5.229      0.000      0.000
REMARK INTER + INTRA:         -12.432
REMARK INTER:                 -10.120
REMARK INTRA:                  -2.311
REMARK UNBOUND:                -2.311
REMARK SMILES CCCCCCCCCCCCCCCCCC(=O)[O-]
REMARK SMILES IDX 10 1 11 2 12 3 13 4 14 5 15 6 16 7 17 8 18 9 19 10 20 11
REMARK SMILES IDX 9 12 8 13 7 14 6 15 5 16 4 17 3 18 2 19 1 20
REMARK H PARENT
REMARK Flexibility Score: inf
ROOT
ATOM      1  C   UNL     1     121.038 176.341 127.415  1.00  0.00     0.000 C 
ENDROOT
BRANCH   1   2
ATOM      2  C   UNL     1     120.058 177.444 127.844  1.00  0.00     0.000 C 
BRANCH   2   3
ATOM      3  C   UNL     1     120.729 178.821 127.967  1.00  0.00     0.000 C 
BRANCH   3   4
ATOM      4  C   UNL     1     121.352 179.250 126.634  1.00  0.00     0.000 C 
BRANCH   4   5
ATOM      5  C   UNL     1     120.278 179.771 125.667  1.00  0.00     0.000 C 
BRANCH   5   6
ATOM      6  C   UNL     1     120.403 179.165 124.260  1.00  0.00     0.000 C 
BRANCH   6   7
ATOM      7  C   UNL     1     119.205 178.280 123.886  1.00  0.00     0.006 C 
BRANCH   7   8
ATOM      8  C   UNL     1     118.074 178.430 124.907  1.00  0.00     0.053 C 
BRANCH   8   9
ATOM      9  C   UNL     1     116.785 178.752 124.218  1.00  0.00     0.041 C 
ATOM     10  O   UNL     1     116.644 178.507 122.991  1.00  0.00    -0.550 OA
ATOM     11  O   UNL     1     115.757 179.368 124.920  1.00  0.00    -0.550 OA
ENDBRANCH   8   9
ENDBRANCH   7   8
ENDBRANCH   6   7
ENDBRANCH   5   6
ENDBRANCH   4   5
ENDBRANCH   3   4
ENDBRANCH   2   3
ENDBRANCH   1   2
BRANCH   1  12
ATOM     12  C   UNL     1     120.385 175.296 126.494  1.00  0.00     0.000 C 
BRANCH  12  13
ATOM     13  C   UNL     1     120.945 175.339 125.062  1.00  0.00    -0.000 C 
BRANCH  13  14
ATOM     14  C   UNL     1     122.417 175.786 125.016  1.00  0.00    -0.000 C 
BRANCH  14  15
ATOM     15  C   UNL     1     122.718 176.696 123.815  1.00  0.00    -0.000 C 
BRANCH  15  16
ATOM     16  C   UNL     1     124.207 177.069 123.710  1.00  0.00    -0.000 C 
BRANCH  16  17
ATOM     17  C   UNL     1     124.650 177.359 122.264  1.00  0.00    -0.000 C 
BRANCH  17  18
ATOM     18  C   UNL     1     123.528 177.843 121.328  1.00  0.00    -0.000 C 
BRANCH  18  19
ATOM     19  C   UNL     1     123.786 177.494 119.856  1.00  0.00    -0.003 C 
ATOM     20  C   UNL     1     125.054 176.658 119.703  1.00  0.00     0.004 C 
ENDBRANCH  18  19
ENDBRANCH  17  18
ENDBRANCH  16  17
ENDBRANCH  15  16
ENDBRANCH  14  15
ENDBRANCH  13  14
ENDBRANCH  12  13
ENDBRANCH   1  12
TORSDOF 16
ENDMDL
MODEL 2
REMARK VINA RESULT:    -5.062      2.361      4.705
REMARK INTER + INTRA:         -12.108
REMARK INTER:                  -9.359
REMARK INTRA:                  -2.749
REMARK UNBOUND:                -2.311
REMARK SMILES CCCCCCCCCCCCCCCCCC(=O)[O-]
REMARK SMILES IDX 10 1 11 2 12 3 13 4 14 5 15 6 16 7 17 8 18 9 19 10 20 11
REMARK SMILES IDX 9 12 8 13 7 14 6 15 5 16 4 17 3 18 2 19 1 20
REMARK H PARENT
REMARK Flexibility Score: inf
ROOT
ATOM      1  C   UNL     1     123.087 177.345 125.705  1.00  0.00     0.000 C 
ENDROOT
BRANCH   1   2
ATOM      2  C   UNL     1     122.462 177.736 124.357  1.00  0.00     0.000 C 
BRANCH   2   3
ATOM      3  C   UNL     1     120.926 177.725 124.388  1.00  0.00     0.000 C 
BRANCH   3   4
ATOM      4  C   UNL     1     120.370 179.142 124.569  1.00  0.00     0.000 C 
BRANCH   4   5
ATOM      5  C   UNL     1     119.086 179.126 125.411  1.00  0.00     0.000 C 
BRANCH   5   6
ATOM      6  C   UNL     1     118.456 177.727 125.506  1.00  0.00     0.000 C 
BRANCH   6   7
ATOM      7  C   UNL     1     117.055 177.748 126.135  1.00  0.00     0.006 C 
BRANCH   7   8
ATOM      8  C   UNL     1     115.992 178.109 125.094  1.00  0.00     0.053 C 
BRANCH   8   9
ATOM      9  C   UNL     1     115.213 179.308 125.536  1.00  0.00     0.041 C 
ATOM     10  O   UNL     1     113.980 179.211 125.773  1.00  0.00    -0.550 OA
ATOM     11  O   UNL     1     115.838 180.544 125.638  1.00  0.00    -0.550 OA
ENDBRANCH   8   9
ENDBRANCH   7   8
ENDBRANCH   6   7
ENDBRANCH   5   6
ENDBRANCH   4   5
ENDBRANCH   3   4
ENDBRANCH   2   3
ENDBRANCH   1   2
BRANCH   1  12
ATOM     12  C   UNL     1     123.384 178.565 126.595  1.00  0.00     0.000 C 
BRANCH  12  13
ATOM     13  C   UNL     1     122.871 178.383 128.033  1.00  0.00    -0.000 C 
BRANCH  13  14
ATOM     14  C   UNL     1     121.334 178.356 128.115  1.00  0.00    -0.000 C 
BRANCH  14  15
ATOM     15  C   UNL     1     120.812 177.203 128.985  1.00  0.00    -0.000 C 
BRANCH  15  16
ATOM     16  C   UNL     1     121.826 176.055 129.123  1.00  0.00    -0.000 C 
BRANCH  16  17
ATOM     17  C   UNL     1     121.627 174.950 128.071  1.00  0.00    -0.000 C 
BRANCH  17  18
ATOM     18  C   UNL     1     120.164 174.706 127.658  1.00  0.00    -0.000 C 
BRANCH  18  19
ATOM     19  C   UNL     1     119.984 174.584 126.138  1.00  0.00    -0.003 C 
ATOM     20  C   UNL     1     121.273 174.117 125.468  1.00  0.00     0.004 C 
ENDBRANCH  18  19
ENDBRANCH  17  18
ENDBRANCH  16  17
ENDBRANCH  15  16
ENDBRANCH  14  15
ENDBRANCH  13  14
ENDBRANCH  12  13
ENDBRANCH   1  12
TORSDOF 16
ENDMDL
MODEL 3
REMARK VINA RESULT:    -5.021      3.502      6.451
REMARK INTER + INTRA:         -12.029
REMARK INTER:                  -9.195
REMARK INTRA:                  -2.834
REMARK UNBOUND:                -2.311
REMARK SMILES CCCCCCCCCCCCCCCCCC(=O)[O-]
REMARK SMILES IDX 10 1 11 2 12 3 13 4 14 5 15 6 16 7 17 8 18 9 19 10 20 11
REMARK SMILES IDX 9 12 8 13 7 14 6 15 5 16 4 17 3 18 2 19 1 20
REMARK H PARENT
REMARK Flexibility Score: inf
ROOT
ATOM      1  C   UNL     1     120.171 175.544 126.052  1.00  0.00     0.000 C 
ENDROOT
BRANCH   1   2
ATOM      2  C   UNL     1     121.202 175.663 124.918  1.00  0.00     0.000 C 
BRANCH   2   3
ATOM      3  C   UNL     1     122.601 176.046 125.425  1.00  0.00     0.000 C 
BRANCH   3   4
ATOM      4  C   UNL     1     123.307 176.981 124.437  1.00  0.00     0.000 C 
BRANCH   4   5
ATOM      5  C   UNL     1     122.700 176.856 123.031  1.00  0.00     0.000 C 
BRANCH   5   6
ATOM      6  C   UNL     1     123.001 178.074 122.144  1.00  0.00     0.000 C 
BRANCH   6   7
ATOM      7  C   UNL     1     123.806 177.710 120.889  1.00  0.00     0.006 C 
BRANCH   7   8
ATOM      8  C   UNL     1     125.119 177.016 121.262  1.00  0.00     0.053 C 
BRANCH   8   9
ATOM      9  C   UNL     1     126.276 177.946 121.072  1.00  0.00     0.041 C 
ATOM     10  O   UNL     1     126.802 178.515 122.064  1.00  0.00    -0.550 OA
ATOM     11  O   UNL     1     126.741 178.224 119.792  1.00  0.00    -0.550 OA
ENDBRANCH   8   9
ENDBRANCH   7   8
ENDBRANCH   6   7
ENDBRANCH   5   6
ENDBRANCH   4   5
ENDBRANCH   3   4
ENDBRANCH   2   3
ENDBRANCH   1   2
BRANCH   1  12
ATOM     12  C   UNL     1     120.700 176.087 127.391  1.00  0.00     0.000 C 
BRANCH  12  13
ATOM     13  C   UNL     1     120.022 177.404 127.802  1.00  0.00    -0.000 C 
BRANCH  13  14
ATOM     14  C   UNL     1     121.030 178.546 128.020  1.00  0.00    -0.000 C 
BRANCH  14  15
ATOM     15  C   UNL     1     121.381 179.278 126.715  1.00  0.00    -0.000 C 
BRANCH  15  16
ATOM     16  C   UNL     1     120.136 179.686 125.909  1.00  0.00    -0.000 C 
BRANCH  16  17
ATOM     17  C   UNL     1     120.130 179.106 124.483  1.00  0.00    -0.000 C 
BRANCH  17  18
ATOM     18  C   UNL     1     118.824 178.397 124.079  1.00  0.00    -0.000 C 
BRANCH  18  19
ATOM     19  C   UNL     1     117.630 178.797 124.956  1.00  0.00    -0.003 C 
ATOM     20  C   UNL     1     117.035 177.582 125.661  1.00  0.00     0.004 C 
ENDBRANCH  18  19
ENDBRANCH  17  18
ENDBRANCH  16  17
ENDBRANCH  15  16
ENDBRANCH  14  15
ENDBRANCH  13  14
ENDBRANCH  12  13
ENDBRANCH   1  12
TORSDOF 16
ENDMDL
MODEL 4
REMARK VINA RESULT:    -4.997      1.375      2.136
REMARK INTER + INTRA:         -11.983
REMARK INTER:                  -9.613
REMARK INTRA:                  -2.369
REMARK UNBOUND:                -2.311
REMARK SMILES CCCCCCCCCCCCCCCCCC(=O)[O-]
REMARK SMILES IDX 10 1 11 2 12 3 13 4 14 5 15 6 16 7 17 8 18 9 19 10 20 11
REMARK SMILES IDX 9 12 8 13 7 14 6 15 5 16 4 17 3 18 2 19 1 20
REMARK H PARENT
REMARK Flexibility Score: inf
ROOT
ATOM      1  C   UNL     1     121.124 174.734 127.921  1.00  0.00     0.000 C 
ENDROOT
BRANCH   1   2
ATOM      2  C   UNL     1     121.941 175.538 128.944  1.00  0.00     0.000 C 
BRANCH   2   3
ATOM      3  C   UNL     1     121.550 177.024 128.980  1.00  0.00     0.000 C 
BRANCH   3   4
ATOM      4  C   UNL     1     122.748 177.915 128.631  1.00  0.00     0.000 C 
BRANCH   4   5
ATOM      5  C   UNL     1     122.408 178.866 127.473  1.00  0.00     0.000 C 
BRANCH   5   6
ATOM      6  C   UNL     1     120.911 178.861 127.122  1.00  0.00     0.000 C 
BRANCH   6   7
ATOM      7  C   UNL     1     120.610 179.575 125.796  1.00  0.00     0.006 C 
BRANCH   7   8
ATOM      8  C   UNL     1     119.102 179.738 125.592  1.00  0.00     0.053 C 
BRANCH   8   9
ATOM      9  C   UNL     1     118.576 178.666 124.690  1.00  0.00     0.041 C 
ATOM     10  O   UNL     1     117.511 178.059 124.979  1.00  0.00    -0.550 OA
ATOM     11  O   UNL     1     119.289 178.301 123.555  1.00  0.00    -0.550 OA
ENDBRANCH   8   9
ENDBRANCH   7   8
ENDBRANCH   6   7
ENDBRANCH   5   6
ENDBRANCH   4   5
ENDBRANCH   3   4
ENDBRANCH   2   3
ENDBRANCH   1   2
BRANCH   1  12
ATOM     12  C   UNL     1     119.978 175.554 127.303  1.00  0.00     0.000 C 
BRANCH  12  13
ATOM     13  C   UNL     1     119.917 175.423 125.772  1.00  0.00    -0.000 C 
BRANCH  13  14
ATOM     14  C   UNL     1     121.274 175.034 125.158  1.00  0.00    -0.000 C 
BRANCH  14  15
ATOM     15  C   UNL     1     121.875 176.158 124.300  1.00  0.00    -0.000 C 
BRANCH  15  16
ATOM     16  C   UNL     1     123.264 176.603 124.792  1.00  0.00    -0.000 C 
BRANCH  16  17
ATOM     17  C   UNL     1     124.157 177.136 123.657  1.00  0.00    -0.000 C 
BRANCH  17  18
ATOM     18  C   UNL     1     123.426 177.405 122.329  1.00  0.00    -0.000 C 
BRANCH  18  19
ATOM     19  C   UNL     1     124.384 177.709 121.170  1.00  0.00    -0.003 C 
ATOM     20  C   UNL     1     123.714 177.455 119.822  1.00  0.00     0.004 C 
ENDBRANCH  18  19
ENDBRANCH  17  18
ENDBRANCH  16  17
ENDBRANCH  15  16
ENDBRANCH  14  15
ENDBRANCH  13  14
ENDBRANCH  12  13
ENDBRANCH   1  12
TORSDOF 16
ENDMDL
MODEL 5
REMARK VINA RESULT:    -4.927      2.835      5.991
REMARK INTER + INTRA:         -11.847
REMARK INTER:                  -8.829
REMARK INTRA:                  -3.018
REMARK UNBOUND:                -2.311
REMARK SMILES CCCCCCCCCCCCCCCCCC(=O)[O-]
REMARK SMILES IDX 10 1 11 2 12 3 13 4 14 5 15 6 16 7 17 8 18 9 19 10 20 11
REMARK SMILES IDX 9 12 8 13 7 14 6 15 5 16 4 17 3 18 2 19 1 20
REMARK H PARENT
REMARK Flexibility Score: inf
ROOT
ATOM      1  C   UNL     1     120.352 176.740 128.734  1.00  0.00     0.000 C 
ENDROOT
BRANCH   1   2
ATOM      2  C   UNL     1     121.176 175.760 127.885  1.00  0.00     0.000 C 
BRANCH   2   3
ATOM      3  C   UNL     1     120.373 175.162 126.720  1.00  0.00     0.000 C 
BRANCH   3   4
ATOM      4  C   UNL     1     121.305 174.620 125.630  1.00  0.00     0.000 C 
BRANCH   4   5
ATOM      5  C   UNL     1     121.781 175.748 124.702  1.00  0.00     0.000 C 
BRANCH   5   6
ATOM      6  C   UNL     1     123.291 176.012 124.816  1.00  0.00     0.000 C 
BRANCH   6   7
ATOM      7  C   UNL     1     123.732 177.273 124.059  1.00  0.00     0.006 C 
BRANCH   7   8
ATOM      8  C   UNL     1     122.984 177.403 122.730  1.00  0.00     0.053 C 
BRANCH   8   9
ATOM      9  C   UNL     1     123.945 177.374 121.583  1.00  0.00     0.041 C 
ATOM     10  O   UNL     1     125.153 177.077 121.775  1.00  0.00    -0.550 OA
ATOM     11  O   UNL     1     123.516 177.723 120.308  1.00  0.00    -0.550 OA
ENDBRANCH   8   9
ENDBRANCH   7   8
ENDBRANCH   6   7
ENDBRANCH   5   6
ENDBRANCH   4   5
ENDBRANCH   3   4
ENDBRANCH   2   3
ENDBRANCH   1   2
BRANCH   1  12
ATOM     12  C   UNL     1     120.826 178.197 128.582  1.00  0.00     0.000 C 
BRANCH  12  13
ATOM     13  C   UNL     1     122.105 178.316 127.737  1.00  0.00    -0.000 C 
BRANCH  13  14
ATOM     14  C   UNL     1     121.947 179.292 126.558  1.00  0.00    -0.000 C 
BRANCH  14  15
ATOM     15  C   UNL     1     120.488 179.418 126.091  1.00  0.00    -0.000 C 
BRANCH  15  16
ATOM     16  C   UNL     1     120.322 179.159 124.584  1.00  0.00    -0.000 C 
BRANCH  16  17
ATOM     17  C   UNL     1     118.954 178.549 124.228  1.00  0.00    -0.000 C 
BRANCH  17  18
ATOM     18  C   UNL     1     118.460 177.460 125.199  1.00  0.00    -0.000 C 
BRANCH  18  19
ATOM     19  C   UNL     1     117.077 177.767 125.788  1.00  0.00    -0.003 C 
ATOM     20  C   UNL     1     117.002 177.358 127.256  1.00  0.00     0.004 C 
ENDBRANCH  18  19
ENDBRANCH  17  18
ENDBRANCH  16  17
ENDBRANCH  15  16
ENDBRANCH  14  15
ENDBRANCH  13  14
ENDBRANCH  12  13
ENDBRANCH   1  12
TORSDOF 16
ENDMDL
MODEL 6
REMARK VINA RESULT:    -4.924      1.152      2.317
REMARK INTER + INTRA:         -11.841
REMARK INTER:                  -9.318
REMARK INTRA:                  -2.523
REMARK UNBOUND:                -2.311
REMARK SMILES CCCCCCCCCCCCCCCCCC(=O)[O-]
REMARK SMILES IDX 10 1 11 2 12 3 13 4 14 5 15 6 16 7 17 8 18 9 19 10 20 11
REMARK SMILES IDX 9 12 8 13 7 14 6 15 5 16 4 17 3 18 2 19 1 20
REMARK H PARENT
REMARK Flexibility Score: inf
ROOT
ATOM      1  C   UNL     1     121.726 175.594 125.223  1.00  0.00     0.000 C 
ENDROOT
BRANCH   1   2
ATOM      2  C   UNL     1     120.297 175.512 125.783  1.00  0.00     0.000 C 
BRANCH   2   3
ATOM      3  C   UNL     1     120.188 176.063 127.213  1.00  0.00     0.000 C 
BRANCH   3   4
ATOM      4  C   UNL     1     121.305 177.072 127.501  1.00  0.00     0.000 C 
BRANCH   4   5
ATOM      5  C   UNL     1     120.749 178.502 127.582  1.00  0.00     0.000 C 
BRANCH   5   6
ATOM      6  C   UNL     1     120.978 179.302 126.290  1.00  0.00     0.000 C 
BRANCH   6   7
ATOM      7  C   UNL     1     119.666 179.747 125.627  1.00  0.00     0.006 C 
BRANCH   7   8
ATOM      8  C   UNL     1     119.270 178.789 124.500  1.00  0.00     0.053 C 
BRANCH   8   9
ATOM      9  C   UNL     1     117.847 178.356 124.657  1.00  0.00     0.041 C 
ATOM     10  O   UNL     1     117.462 177.818 125.729  1.00  0.00    -0.550 OA
ATOM     11  O   UNL     1     116.956 178.500 123.601  1.00  0.00    -0.550 OA
ENDBRANCH   8   9
ENDBRANCH   7   8
ENDBRANCH   6   7
ENDBRANCH   5   6
ENDBRANCH   4   5
ENDBRANCH   3   4
ENDBRANCH   2   3
ENDBRANCH   1   2
BRANCH   1  12
ATOM     12  C   UNL     1     121.785 176.294 123.853  1.00  0.00     0.000 C 
BRANCH  12  13
ATOM     13  C   UNL     1     122.863 177.388 123.796  1.00  0.00    -0.000 C 
BRANCH  13  14
ATOM     14  C   UNL     1     124.134 177.008 124.578  1.00  0.00    -0.000 C 
BRANCH  14  15
ATOM     15  C   UNL     1     125.420 177.410 123.841  1.00  0.00    -0.000 C 
BRANCH  15  16
ATOM     16  C   UNL     1     126.048 176.242 123.061  1.00  0.00    -0.000 C 
BRANCH  16  17
ATOM     17  C   UNL     1     125.922 176.404 121.536  1.00  0.00    -0.000 C 
BRANCH  17  18
ATOM     18  C   UNL     1     125.909 177.862 121.039  1.00  0.00    -0.000 C 
BRANCH  18  19
ATOM     19  C   UNL     1     124.551 178.284 120.463  1.00  0.00    -0.003 C 
ATOM     20  C   UNL     1     123.860 177.114 119.769  1.00  0.00     0.004 C 
ENDBRANCH  18  19
ENDBRANCH  17  18
ENDBRANCH  16  17
ENDBRANCH  15  16
ENDBRANCH  14  15
ENDBRANCH  13  14
ENDBRANCH  12  13
ENDBRANCH   1  12
TORSDOF 16
ENDMDL
MODEL 7
REMARK VINA RESULT:    -4.919      2.450      3.899
REMARK INTER + INTRA:         -11.831
REMARK INTER:                  -9.130
REMARK INTRA:                  -2.701
REMARK UNBOUND:                -2.311
REMARK SMILES CCCCCCCCCCCCCCCCCC(=O)[O-]
REMARK SMILES IDX 10 1 11 2 12 3 13 4 14 5 15 6 16 7 17 8 18 9 19 10 20 11
REMARK SMILES IDX 9 12 8 13 7 14 6 15 5 16 4 17 3 18 2 19 1 20
REMARK H PARENT
REMARK Flexibility Score: inf
ROOT
ATOM      1  C   UNL     1     122.466 177.390 128.620  1.00  0.00     0.000 C 
ENDROOT
BRANCH   1   2
ATOM      2  C   UNL     1     121.037 176.830 128.707  1.00  0.00     0.000 C 
BRANCH   2   3
ATOM      3  C   UNL     1     120.014 177.695 127.954  1.00  0.00     0.000 C 
BRANCH   3   4
ATOM      4  C   UNL     1     118.832 176.849 127.468  1.00  0.00     0.000 C 
BRANCH   4   5
ATOM      5  C   UNL     1     118.713 176.898 125.937  1.00  0.00     0.000 C 
BRANCH   5   6
ATOM      6  C   UNL     1     118.598 178.333 125.397  1.00  0.00     0.000 C 
BRANCH   6   7
ATOM      7  C   UNL     1     117.473 178.489 124.365  1.00  0.00     0.006 C 
BRANCH   7   8
ATOM      8  C   UNL     1     116.124 178.070 124.956  1.00  0.00     0.053 C 
BRANCH   8   9
ATOM      9  C   UNL     1     115.319 179.274 125.332  1.00  0.00     0.041 C 
ATOM     10  O   UNL     1     114.120 179.148 125.692  1.00  0.00    -0.550 OA
ATOM     11  O   UNL     1     115.880 180.542 125.238  1.00  0.00    -0.550 OA
ENDBRANCH   8   9
ENDBRANCH   7   8
ENDBRANCH   6   7
ENDBRANCH   5   6
ENDBRANCH   4   5
ENDBRANCH   3   4
ENDBRANCH   2   3
ENDBRANCH   1   2
BRANCH   1  12
ATOM     12  C   UNL     1     122.494 178.884 128.254  1.00  0.00     0.000 C 
BRANCH  12  13
ATOM     13  C   UNL     1     123.360 179.172 127.016  1.00  0.00    -0.000 C 
BRANCH  13  14
ATOM     14  C   UNL     1     123.413 177.981 126.042  1.00  0.00    -0.000 C 
BRANCH  14  15
ATOM     15  C   UNL     1     122.261 178.000 125.026  1.00  0.00    -0.000 C 
BRANCH  15  16
ATOM     16  C   UNL     1     122.095 176.659 124.290  1.00  0.00    -0.000 C 
BRANCH  16  17
ATOM     17  C   UNL     1     122.768 175.486 125.024  1.00  0.00    -0.000 C 
BRANCH  17  18
ATOM     18  C   UNL     1     121.838 174.683 125.952  1.00  0.00    -0.000 C 
BRANCH  18  19
ATOM     19  C   UNL     1     120.765 173.896 125.187  1.00  0.00    -0.003 C 
ATOM     20  C   UNL     1     119.742 173.289 126.144  1.00  0.00     0.004 C 
ENDBRANCH  18  19
ENDBRANCH  17  18
ENDBRANCH  16  17
ENDBRANCH  15  16
ENDBRANCH  14  15
ENDBRANCH  13  14
ENDBRANCH  12  13
ENDBRANCH   1  12
TORSDOF 16
ENDMDL
MODEL 8
REMARK VINA RESULT:    -4.908      3.369      6.089
REMARK INTER + INTRA:         -11.810
REMARK INTER:                  -9.038
REMARK INTRA:                  -2.772
REMARK UNBOUND:                -2.311
REMARK SMILES CCCCCCCCCCCCCCCCCC(=O)[O-]
REMARK SMILES IDX 10 1 11 2 12 3 13 4 14 5 15 6 16 7 17 8 18 9 19 10 20 11
REMARK SMILES IDX 9 12 8 13 7 14 6 15 5 16 4 17 3 18 2 19 1 20
REMARK H PARENT
REMARK Flexibility Score: inf
ROOT
ATOM      1  C   UNL     1     123.745 178.125 126.145  1.00  0.00     0.000 C 
ENDROOT
BRANCH   1   2
ATOM      2  C   UNL     1     122.976 179.138 127.008  1.00  0.00     0.000 C 
BRANCH   2   3
ATOM      3  C   UNL     1     122.588 178.573 128.384  1.00  0.00     0.000 C 
BRANCH   3   4
ATOM      4  C   UNL     1     121.066 178.547 128.558  1.00  0.00     0.000 C 
BRANCH   4   5
ATOM      5  C   UNL     1     120.566 177.119 128.826  1.00  0.00     0.000 C 
BRANCH   5   6
ATOM      6  C   UNL     1     121.710 176.094 128.890  1.00  0.00     0.000 C 
BRANCH   6   7
ATOM      7  C   UNL     1     121.295 174.709 128.371  1.00  0.00     0.006 C 
BRANCH   7   8
ATOM      8  C   UNL     1     119.846 174.722 127.876  1.00  0.00     0.053 C 
BRANCH   8   9
ATOM      9  C   UNL     1     119.413 173.342 127.489  1.00  0.00     0.041 C 
ATOM     10  O   UNL     1     119.886 172.795 126.458  1.00  0.00    -0.550 OA
ATOM     11  O   UNL     1     118.449 172.681 128.239  1.00  0.00    -0.550 OA
ENDBRANCH   8   9
ENDBRANCH   7   8
ENDBRANCH   6   7
ENDBRANCH   5   6
ENDBRANCH   4   5
ENDBRANCH   3   4
ENDBRANCH   2   3
ENDBRANCH   1   2
BRANCH   1  12
ATOM     12  C   UNL     1     122.948 177.677 124.907  1.00  0.00     0.000 C 
BRANCH  12  13
ATOM     13  C   UNL     1     122.091 176.430 125.178  1.00  0.00    -0.000 C 
BRANCH  13  14
ATOM     14  C   UNL     1     120.602 176.654 124.857  1.00  0.00    -0.000 C 
BRANCH  14  15
ATOM     15  C   UNL     1     120.296 178.111 124.475  1.00  0.00    -0.000 C 
BRANCH  15  16
ATOM     16  C   UNL     1     119.192 178.734 125.346  1.00  0.00    -0.000 C 
BRANCH  16  17
ATOM     17  C   UNL     1     118.271 177.682 125.990  1.00  0.00    -0.000 C 
BRANCH  17  18
ATOM     18  C   UNL     1     116.818 177.695 125.479  1.00  0.00    -0.000 C 
BRANCH  18  19
ATOM     19  C   UNL     1     115.857 178.422 126.430  1.00  0.00    -0.003 C 
ATOM     20  C   UNL     1     114.761 179.148 125.655  1.00  0.00     0.004 C 
ENDBRANCH  18  19
ENDBRANCH  17  18
ENDBRANCH  16  17
ENDBRANCH  15  16
ENDBRANCH  14  15
ENDBRANCH  13  14
ENDBRANCH  12  13
ENDBRANCH   1  12
TORSDOF 16
ENDMDL
