MODEL 1
REMARK VINA RESULT:     2.586      0.000      0.000
REMARK INTER + INTRA:           2.982
REMARK INTER:                   3.266
REMARK INTRA:                  -0.284
REMARK UNBOUND:                -0.284
REMARK SMILES CC(C)=CCCC(C)=CCO
REMARK SMILES IDX 7 1 9 2 8 3 6 4 5 5 4 6 1 7 2 8 3 9 10 10 11 11
REMARK H PARENT 11 12
REMARK Flexibility Score: inf
ROOT
ATOM      1  C   UNL     1      16.859  19.470  50.206  1.00  0.00    -0.075 C 
ATOM      2  C   UNL     1      17.997  19.890  49.607  1.00  0.00    -0.000 C 
ATOM      3  C   UNL     1      16.004  20.489  50.916  1.00  0.00     0.039 C 
ENDROOT
BRANCH   1   4
ATOM      4  C   UNL     1      16.382  18.032  50.146  1.00  0.00     0.034 C 
BRANCH   4   5
ATOM      5  C   UNL     1      16.092  17.497  51.552  1.00  0.00     0.032 C 
BRANCH   5   6
ATOM      6  C   UNL     1      17.182  16.560  52.009  1.00  0.00    -0.028 C 
ATOM      7  C   UNL     1      15.910  15.795  54.028  1.00  0.00     0.039 C 
ATOM      8  C   UNL     1      17.109  15.777  53.109  1.00  0.00    -0.080 C 
ATOM      9  C   UNL     1      18.274  14.875  53.426  1.00  0.00     0.039 C 
ENDBRANCH   5   6
ENDBRANCH   4   5
ENDBRANCH   1   4
BRANCH   2  10
ATOM     10  C   UNL     1      18.943  18.995  48.855  1.00  0.00     0.183 C 
BRANCH  10  11
ATOM     11  O   UNL     1      19.610  19.733  47.868  1.00  0.00    -0.392 OA
ATOM     12  H   UNL     1      18.908  20.227  47.372  1.00  0.00     0.210 HD
ENDBRANCH  10  11
ENDBRANCH   2  10
TORSDOF 5
ENDMDL
MODEL 2
REMARK VINA RESULT:     5.545     20.828     22.512
REMARK INTER + INTRA:           6.719
REMARK INTER:                   6.108
REMARK INTRA:                   0.612
REMARK UNBOUND:                -0.284
REMARK SMILES CC(C)=CCCC(C)=CCO
REMARK SMILES IDX 7 1 9 2 8 3 6 4 5 5 4 6 1 7 2 8 3 9 10 10 11 11
REMARK H PARENT 11 12
REMARK Flexibility Score: inf
ROOT
ATOM      1  C   UNL     1      35.489  32.099  54.218  1.00  0.00    -0.075 C 
ATOM      2  C   UNL     1      35.952  33.314  54.591  1.00  0.00    -0.000 C 
ATOM      3  C   UNL     1      35.400  31.788  52.745  1.00  0.00     0.039 C 
ENDROOT
BRANCH   1   4
ATOM      4  C   UNL     1      35.109  31.022  55.215  1.00  0.00     0.034 C 
BRANCH   4   5
ATOM      5  C   UNL     1      33.683  30.524  54.960  1.00  0.00     0.032 C 
BRANCH   5   6
ATOM      6  C   UNL     1      33.030  31.302  53.845  1.00  0.00    -0.028 C 
ATOM      7  C   UNL     1      30.707  30.883  54.688  1.00  0.00     0.039 C 
ATOM      8  C   UNL     1      31.696  31.487  53.719  1.00  0.00    -0.080 C 
ATOM      9  C   UNL     1      31.193  32.307  52.560  1.00  0.00     0.039 C 
ENDBRANCH   5   6
ENDBRANCH   4   5
ENDBRANCH   1   4
BRANCH   2  10
ATOM     10  C   UNL     1      36.107  33.763  56.018  1.00  0.00     0.183 C 
BRANCH  10  11
ATOM     11  O   UNL     1      35.791  35.124  56.125  1.00  0.00    -0.392 OA
ATOM     12  H   UNL     1      36.407  35.496  56.808  1.00  0.00     0.210 HD
ENDBRANCH  10  11
ENDBRANCH   2  10
TORSDOF 5
ENDMDL
