MODEL 1
REMARK VINA RESULT:    -4.340      0.000      0.000
REMARK INTER + INTRA:          -5.898
REMARK INTER:                  -5.863
REMARK INTRA:                  -0.035
REMARK UNBOUND:                -0.035
REMARK SMILES O=C[C@@H](O)[C@@H](O)[C@@H](O)CO
REMARK SMILES IDX 7 1 9 2 10 3 5 5 3 6 2 7 1 8 4 9 6 11 8 13
REMARK H PARENT 10 4 4 10 6 12 8 14
REMARK Flexibility Score: inf
ROOT
ATOM      1  C   UNL     1       1.092   3.744  40.541  1.00  0.00     0.171 C 
ENDROOT
BRANCH   1   2
ATOM      2  C   UNL     1       1.838   4.615  39.514  1.00  0.00     0.190 C 
BRANCH   2   3
ATOM      3  O   UNL     1       2.231   5.829  40.095  1.00  0.00    -0.394 OA
ATOM      4  H   UNL     1       1.644   5.971  40.883  1.00  0.00     0.210 HD
ENDBRANCH   2   3
ENDBRANCH   1   2
BRANCH   1   5
ATOM      5  C   UNL     1       1.070   2.234  40.173  1.00  0.00     0.181 C 
BRANCH   5   6
ATOM      6  C   UNL     1       1.838   1.281  41.132  1.00  0.00     0.209 C 
BRANCH   6   7
ATOM      7  C   UNL     1       0.967   0.694  42.219  1.00  0.00     0.258 C 
ATOM      8  O   UNL     1       1.458   0.340  43.279  1.00  0.00    -0.300 OA
ENDBRANCH   6   7
BRANCH   6   9
ATOM      9  O   UNL     1       2.540   0.285  40.430  1.00  0.00    -0.383 OA
ATOM     10  H   UNL     1       2.971   0.704  39.640  1.00  0.00     0.211 HD
ENDBRANCH   6   9
ENDBRANCH   5   6
BRANCH   5  11
ATOM     11  O   UNL     1      -0.266   1.802  40.108  1.00  0.00    -0.387 OA
ATOM     12  H   UNL     1      -0.840   2.604  40.225  1.00  0.00     0.211 HD
ENDBRANCH   5  11
ENDBRANCH   1   5
BRANCH   1  13
ATOM     13  O   UNL     1       1.634   3.926  41.825  1.00  0.00    -0.388 OA
ATOM     14  H   UNL     1       2.106   4.800  41.820  1.00  0.00     0.211 HD
ENDBRANCH   1  13
TORSDOF 8
ENDMDL
MODEL 2
REMARK VINA RESULT:    -4.275      6.042      7.622
REMARK INTER + INTRA:          -5.810
REMARK INTER:                  -5.240
REMARK INTRA:                  -0.570
REMARK UNBOUND:                -0.035
REMARK SMILES O=C[C@@H](O)[C@@H](O)[C@@H](O)CO
REMARK SMILES IDX 7 1 9 2 10 3 5 5 3 6 2 7 1 8 4 9 6 11 8 13
REMARK H PARENT 10 4 4 10 6 12 8 14
REMARK Flexibility Score: inf
ROOT
ATOM      1  C   UNL     1       1.711  10.661  39.072  1.00  0.00     0.171 C 
ENDROOT
BRANCH   1   2
ATOM      2  C   UNL     1       2.372  10.176  40.375  1.00  0.00     0.190 C 
BRANCH   2   3
ATOM      3  O   UNL     1       1.600   9.169  40.970  1.00  0.00    -0.394 OA
ATOM      4  H   UNL     1       2.208   8.402  41.134  1.00  0.00     0.210 HD
ENDBRANCH   2   3
ENDBRANCH   1   2
BRANCH   1   5
ATOM      5  C   UNL     1       2.246   9.943  37.801  1.00  0.00     0.181 C 
BRANCH   5   6
ATOM      6  C   UNL     1       3.471   9.008  38.002  1.00  0.00     0.209 C 
BRANCH   6   7
ATOM      7  C   UNL     1       3.117   7.540  37.974  1.00  0.00     0.258 C 
ATOM      8  O   UNL     1       2.647   6.999  38.962  1.00  0.00    -0.300 OA
ENDBRANCH   6   7
BRANCH   6   9
ATOM      9  O   UNL     1       4.514   9.311  37.108  1.00  0.00    -0.383 OA
ATOM     10  H   UNL     1       5.173   9.884  37.580  1.00  0.00     0.211 HD
ENDBRANCH   6   9
ENDBRANCH   5   6
BRANCH   5  11
ATOM     11  O   UNL     1       1.205   9.182  37.239  1.00  0.00    -0.387 OA
ATOM     12  H   UNL     1       0.418   9.275  37.837  1.00  0.00     0.211 HD
ENDBRANCH   5  11
ENDBRANCH   1   5
BRANCH   1  13
ATOM     13  O   UNL     1       0.314  10.534  39.154  1.00  0.00    -0.388 OA
ATOM     14  H   UNL     1       0.014  10.079  38.324  1.00  0.00     0.211 HD
ENDBRANCH   1  13
TORSDOF 8
ENDMDL
MODEL 3
REMARK VINA RESULT:    -4.245      8.810      9.838
REMARK INTER + INTRA:          -5.768
REMARK INTER:                  -5.080
REMARK INTRA:                  -0.689
REMARK UNBOUND:                -0.035
REMARK SMILES O=C[C@@H](O)[C@@H](O)[C@@H](O)CO
REMARK SMILES IDX 7 1 9 2 10 3 5 5 3 6 2 7 1 8 4 9 6 11 8 13
REMARK H PARENT 10 4 4 10 6 12 8 14
REMARK Flexibility Score: inf
ROOT
ATOM      1  C   UNL     1       4.418   7.775  33.651  1.00  0.00     0.171 C 
ENDROOT
BRANCH   1   2
ATOM      2  C   UNL     1       5.558   8.072  32.661  1.00  0.00     0.190 C 
BRANCH   2   3
ATOM      3  O   UNL     1       6.719   8.449  33.351  1.00  0.00    -0.394 OA
ATOM      4  H   UNL     1       7.261   8.993  32.722  1.00  0.00     0.210 HD
ENDBRANCH   2   3
ENDBRANCH   1   2
BRANCH   1   5
ATOM      5  C   UNL     1       3.892   9.038  34.388  1.00  0.00     0.181 C 
BRANCH   5   6
ATOM      6  C   UNL     1       2.480   8.924  35.029  1.00  0.00     0.209 C 
BRANCH   6   7
ATOM      7  C   UNL     1       2.239   9.928  36.133  1.00  0.00     0.258 C 
ATOM      8  O   UNL     1       2.723   9.756  37.240  1.00  0.00    -0.300 OA
ENDBRANCH   6   7
BRANCH   6   9
ATOM      9  O   UNL     1       1.460   8.957  34.061  1.00  0.00    -0.383 OA
ATOM     10  H   UNL     1       1.836   8.636  33.200  1.00  0.00     0.211 HD
ENDBRANCH   6   9
ENDBRANCH   5   6
BRANCH   5  11
ATOM     11  O   UNL     1       4.803   9.385  35.402  1.00  0.00    -0.387 OA
ATOM     12  H   UNL     1       5.703   9.098  35.097  1.00  0.00     0.211 HD
ENDBRANCH   5  11
ENDBRANCH   1   5
BRANCH   1  13
ATOM     13  O   UNL     1       3.362   7.115  32.999  1.00  0.00    -0.388 OA
ATOM     14  H   UNL     1       3.527   6.140  33.091  1.00  0.00     0.211 HD
ENDBRANCH   1  13
TORSDOF 8
ENDMDL
MODEL 4
REMARK VINA RESULT:    -4.237      7.111      9.468
REMARK INTER + INTRA:          -5.758
REMARK INTER:                  -5.091
REMARK INTRA:                  -0.666
REMARK UNBOUND:                -0.035
REMARK SMILES O=C[C@@H](O)[C@@H](O)[C@@H](O)CO
REMARK SMILES IDX 7 1 9 2 10 3 5 5 3 6 2 7 1 8 4 9 6 11 8 13
REMARK H PARENT 10 4 4 10 6 12 8 14
REMARK Flexibility Score: inf
ROOT
ATOM      1  C   UNL     1       2.321   9.842  39.910  1.00  0.00     0.171 C 
ENDROOT
BRANCH   1   2
ATOM      2  C   UNL     1       2.902   8.727  39.022  1.00  0.00     0.190 C 
BRANCH   2   3
ATOM      3  O   UNL     1       4.171   9.090  38.548  1.00  0.00    -0.394 OA
ATOM      4  H   UNL     1       4.499   8.331  38.000  1.00  0.00     0.210 HD
ENDBRANCH   2   3
ENDBRANCH   1   2
BRANCH   1   5
ATOM      5  C   UNL     1       1.478  10.885  39.124  1.00  0.00     0.181 C 
BRANCH   5   6
ATOM      6  C   UNL     1       1.561  12.355  39.624  1.00  0.00     0.209 C 
BRANCH   6   7
ATOM      7  C   UNL     1       0.359  13.187  39.240  1.00  0.00     0.258 C 
ATOM      8  O   UNL     1      -0.304  12.897  38.257  1.00  0.00    -0.300 OA
ENDBRANCH   6   7
BRANCH   6   9
ATOM      9  O   UNL     1       1.826  12.425  41.003  1.00  0.00    -0.383 OA
ATOM     10  H   UNL     1       2.508  11.740  41.226  1.00  0.00     0.211 HD
ENDBRANCH   6   9
ENDBRANCH   5   6
BRANCH   5  11
ATOM     11  O   UNL     1       1.871  10.861  37.774  1.00  0.00    -0.387 OA
ATOM     12  H   UNL     1       1.890  11.803  37.458  1.00  0.00     0.211 HD
ENDBRANCH   5  11
ENDBRANCH   1   5
BRANCH   1  13
ATOM     13  O   UNL     1       1.562   9.290  40.957  1.00  0.00    -0.388 OA
ATOM     14  H   UNL     1       1.128   8.470  40.601  1.00  0.00     0.211 HD
ENDBRANCH   1  13
TORSDOF 8
ENDMDL
MODEL 5
REMARK VINA RESULT:    -4.204      6.211      8.128
REMARK INTER + INTRA:          -5.714
REMARK INTER:                  -4.990
REMARK INTRA:                  -0.724
REMARK UNBOUND:                -0.035
REMARK SMILES O=C[C@@H](O)[C@@H](O)[C@@H](O)CO
REMARK SMILES IDX 7 1 9 2 10 3 5 5 3 6 2 7 1 8 4 9 6 11 8 13
REMARK H PARENT 10 4 4 10 6 12 8 14
REMARK Flexibility Score: inf
ROOT
ATOM      1  C   UNL     1       1.196  11.425  38.867  1.00  0.00     0.171 C 
ENDROOT
BRANCH   1   2
ATOM      2  C   UNL     1       1.463  12.654  39.753  1.00  0.00     0.190 C 
BRANCH   2   3
ATOM      3  O   UNL     1       2.420  12.352  40.733  1.00  0.00    -0.394 OA
ATOM      4  H   UNL     1       2.534  11.367  40.727  1.00  0.00     0.210 HD
ENDBRANCH   2   3
ENDBRANCH   1   2
BRANCH   1   5
ATOM      5  C   UNL     1       2.308  10.343  38.955  1.00  0.00     0.181 C 
BRANCH   5   6
ATOM      6  C   UNL     1       1.950   9.049  39.739  1.00  0.00     0.209 C 
BRANCH   6   7
ATOM      7  C   UNL     1       3.017   7.982  39.655  1.00  0.00     0.258 C 
ATOM      8  O   UNL     1       3.168   7.340  38.628  1.00  0.00    -0.300 OA
ENDBRANCH   6   7
BRANCH   6   9
ATOM      9  O   UNL     1       1.590   9.325  41.071  1.00  0.00    -0.383 OA
ATOM     10  H   UNL     1       2.033  10.170  41.345  1.00  0.00     0.211 HD
ENDBRANCH   6   9
ENDBRANCH   5   6
BRANCH   5  11
ATOM     11  O   UNL     1       2.685   9.972  37.652  1.00  0.00    -0.387 OA
ATOM     12  H   UNL     1       2.476  10.739  37.057  1.00  0.00     0.211 HD
ENDBRANCH   5  11
ENDBRANCH   1   5
BRANCH   1  13
ATOM     13  O   UNL     1      -0.057  10.863  39.171  1.00  0.00    -0.388 OA
ATOM     14  H   UNL     1       0.109  10.089  39.770  1.00  0.00     0.211 HD
ENDBRANCH   1  13
TORSDOF 8
ENDMDL
MODEL 6
REMARK VINA RESULT:    -4.155      0.895      4.033
REMARK INTER + INTRA:          -5.648
REMARK INTER:                  -5.336
REMARK INTRA:                  -0.312
REMARK UNBOUND:                -0.035
REMARK SMILES O=C[C@@H](O)[C@@H](O)[C@@H](O)CO
REMARK SMILES IDX 7 1 9 2 10 3 5 5 3 6 2 7 1 8 4 9 6 11 8 13
REMARK H PARENT 10 4 4 10 6 12 8 14
REMARK Flexibility Score: inf
ROOT
ATOM      1  C   UNL     1       1.231   0.687  41.310  1.00  0.00     0.171 C 
ENDROOT
BRANCH   1   2
ATOM      2  C   UNL     1       1.416   0.450  42.820  1.00  0.00     0.190 C 
BRANCH   2   3
ATOM      3  O   UNL     1       2.570   1.100  43.280  1.00  0.00    -0.394 OA
ATOM      4  H   UNL     1       2.265   1.868  43.829  1.00  0.00     0.210 HD
ENDBRANCH   2   3
ENDBRANCH   1   2
BRANCH   1   5
ATOM      5  C   UNL     1       0.555   2.045  40.974  1.00  0.00     0.181 C 
BRANCH   5   6
ATOM      6  C   UNL     1       1.502   3.270  40.831  1.00  0.00     0.209 C 
BRANCH   6   7
ATOM      7  C   UNL     1       1.072   4.238  39.753  1.00  0.00     0.258 C 
ATOM      8  O   UNL     1       1.904   4.787  39.048  1.00  0.00    -0.300 OA
ENDBRANCH   6   7
BRANCH   6   9
ATOM      9  O   UNL     1       1.713   3.917  42.061  1.00  0.00    -0.383 OA
ATOM     10  H   UNL     1       1.103   4.699  42.111  1.00  0.00     0.211 HD
ENDBRANCH   6   9
ENDBRANCH   5   6
BRANCH   5  11
ATOM     11  O   UNL     1      -0.165   1.909  39.774  1.00  0.00    -0.387 OA
ATOM     12  H   UNL     1       0.361   2.361  39.064  1.00  0.00     0.211 HD
ENDBRANCH   5  11
ENDBRANCH   1   5
BRANCH   1  13
ATOM     13  O   UNL     1       2.463   0.576  40.642  1.00  0.00    -0.388 OA
ATOM     14  H   UNL     1       2.645   1.456  40.220  1.00  0.00     0.211 HD
ENDBRANCH   1  13
TORSDOF 8
ENDMDL
MODEL 7
REMARK VINA RESULT:    -4.141      7.605     10.336
REMARK INTER + INTRA:          -5.628
REMARK INTER:                  -5.372
REMARK INTRA:                  -0.256
REMARK UNBOUND:                -0.035
REMARK SMILES O=C[C@@H](O)[C@@H](O)[C@@H](O)CO
REMARK SMILES IDX 7 1 9 2 10 3 5 5 3 6 2 7 1 8 4 9 6 11 8 13
REMARK H PARENT 10 4 4 10 6 12 8 14
REMARK Flexibility Score: inf
ROOT
ATOM      1  C   UNL     1       1.415  11.017  39.136  1.00  0.00     0.171 C 
ENDROOT
BRANCH   1   2
ATOM      2  C   UNL     1       2.252   9.973  39.896  1.00  0.00     0.190 C 
BRANCH   2   3
ATOM      3  O   UNL     1       1.490   9.380  40.913  1.00  0.00    -0.394 OA
ATOM      4  H   UNL     1       0.765   8.871  40.466  1.00  0.00     0.210 HD
ENDBRANCH   2   3
ENDBRANCH   1   2
BRANCH   1   5
ATOM      5  C   UNL     1       1.591  12.464  39.675  1.00  0.00     0.181 C 
BRANCH   5   6
ATOM      6  C   UNL     1       0.302  13.329  39.757  1.00  0.00     0.209 C 
BRANCH   6   7
ATOM      7  C   UNL     1      -0.878  12.719  39.036  1.00  0.00     0.258 C 
ATOM      8  O   UNL     1      -2.017  12.964  39.398  1.00  0.00    -0.300 OA
ENDBRANCH   6   7
BRANCH   6   9
ATOM      9  O   UNL     1      -0.017  13.671  41.084  1.00  0.00    -0.383 OA
ATOM     10  H   UNL     1      -1.004  13.751  41.157  1.00  0.00     0.211 HD
ENDBRANCH   6   9
ENDBRANCH   5   6
BRANCH   5  11
ATOM     11  O   UNL     1       2.157  12.404  40.961  1.00  0.00    -0.387 OA
ATOM     12  H   UNL     1       2.919  13.042  40.975  1.00  0.00     0.211 HD
ENDBRANCH   5  11
ENDBRANCH   1   5
BRANCH   1  13
ATOM     13  O   UNL     1       1.703  10.970  37.761  1.00  0.00    -0.388 OA
ATOM     14  H   UNL     1       1.768  11.909  37.445  1.00  0.00     0.211 HD
ENDBRANCH   1  13
TORSDOF 8
ENDMDL
MODEL 8
REMARK VINA RESULT:    -4.110      8.162     10.172
REMARK INTER + INTRA:          -5.587
REMARK INTER:                  -4.900
REMARK INTRA:                  -0.687
REMARK UNBOUND:                -0.035
REMARK SMILES O=C[C@@H](O)[C@@H](O)[C@@H](O)CO
REMARK SMILES IDX 7 1 9 2 10 3 5 5 3 6 2 7 1 8 4 9 6 11 8 13
REMARK H PARENT 10 4 4 10 6 12 8 14
REMARK Flexibility Score: inf
ROOT
ATOM      1  C   UNL     1       2.695   6.822  33.661  1.00  0.00     0.171 C 
ENDROOT
BRANCH   1   2
ATOM      2  C   UNL     1       2.336   5.393  33.218  1.00  0.00     0.190 C 
BRANCH   2   3
ATOM      3  O   UNL     1       3.036   4.452  33.987  1.00  0.00    -0.394 OA
ATOM      4  H   UNL     1       2.745   4.578  34.927  1.00  0.00     0.210 HD
ENDBRANCH   2   3
ENDBRANCH   1   2
BRANCH   1   5
ATOM      5  C   UNL     1       4.037   7.336  33.069  1.00  0.00     0.181 C 
BRANCH   5   6
ATOM      6  C   UNL     1       4.770   8.442  33.880  1.00  0.00     0.209 C 
BRANCH   6   7
ATOM      7  C   UNL     1       5.889   9.107  33.112  1.00  0.00     0.258 C 
ATOM      8  O   UNL     1       6.470   8.506  32.223  1.00  0.00    -0.300 OA
ENDBRANCH   6   7
BRANCH   6   9
ATOM      9  O   UNL     1       3.871   9.383  34.414  1.00  0.00    -0.383 OA
ATOM     10  H   UNL     1       4.396  10.102  34.853  1.00  0.00     0.211 HD
ENDBRANCH   6   9
ENDBRANCH   5   6
BRANCH   5  11
ATOM     11  O   UNL     1       4.916   6.248  32.924  1.00  0.00    -0.387 OA
ATOM     12  H   UNL     1       5.828   6.622  32.800  1.00  0.00     0.211 HD
ENDBRANCH   5  11
ENDBRANCH   1   5
BRANCH   1  13
ATOM     13  O   UNL     1       1.651   7.710  33.346  1.00  0.00    -0.388 OA
ATOM     14  H   UNL     1       1.905   8.172  32.505  1.00  0.00     0.211 HD
ENDBRANCH   1  13
TORSDOF 8
ENDMDL
MODEL 9
REMARK VINA RESULT:    -4.047      7.195      8.347
REMARK INTER + INTRA:          -5.502
REMARK INTER:                  -4.863
REMARK INTRA:                  -0.639
REMARK UNBOUND:                -0.035
REMARK SMILES O=C[C@@H](O)[C@@H](O)[C@@H](O)CO
REMARK SMILES IDX 7 1 9 2 10 3 5 5 3 6 2 7 1 8 4 9 6 11 8 13
REMARK H PARENT 10 4 4 10 6 12 8 14
REMARK Flexibility Score: inf
ROOT
ATOM      1  C   UNL     1       2.988   8.999  39.080  1.00  0.00     0.171 C 
ENDROOT
BRANCH   1   2
ATOM      2  C   UNL     1       2.573   9.787  40.335  1.00  0.00     0.190 C 
BRANCH   2   3
ATOM      3  O   UNL     1       1.371   9.286  40.853  1.00  0.00    -0.394 OA
ATOM      4  H   UNL     1       1.598   8.460  41.355  1.00  0.00     0.210 HD
ENDBRANCH   2   3
ENDBRANCH   1   2
BRANCH   1   5
ATOM      5  C   UNL     1       2.577   9.689  37.750  1.00  0.00     0.181 C 
BRANCH   5   6
ATOM      6  C   UNL     1       3.112   9.038  36.443  1.00  0.00     0.209 C 
BRANCH   6   7
ATOM      7  C   UNL     1       2.241   9.311  35.237  1.00  0.00     0.258 C 
ATOM      8  O   UNL     1       1.300   8.579  34.978  1.00  0.00    -0.300 OA
ENDBRANCH   6   7
BRANCH   6   9
ATOM      9  O   UNL     1       4.457   9.373  36.202  1.00  0.00    -0.383 OA
ATOM     10  H   UNL     1       5.030   8.761  36.732  1.00  0.00     0.211 HD
ENDBRANCH   6   9
ENDBRANCH   5   6
BRANCH   5  11
ATOM     11  O   UNL     1       1.173   9.728  37.673  1.00  0.00    -0.387 OA
ATOM     12  H   UNL     1       0.933   9.763  36.710  1.00  0.00     0.211 HD
ENDBRANCH   5  11
ENDBRANCH   1   5
BRANCH   1  13
ATOM     13  O   UNL     1       4.371   8.748  39.093  1.00  0.00    -0.388 OA
ATOM     14  H   UNL     1       4.753   9.264  39.851  1.00  0.00     0.211 HD
ENDBRANCH   1  13
TORSDOF 8
ENDMDL
