MODEL 1
REMARK VINA RESULT:    -2.736      0.000      0.000
REMARK INTER + INTRA:          -3.890
REMARK INTER:                  -3.695
REMARK INTRA:                  -0.195
REMARK UNBOUND:                -0.195
REMARK SMILES CCCCCCCC(=O)[O-]
REMARK SMILES IDX 5 1 6 2 7 3 8 4 9 5 10 6 4 7 3 8 2 9 1 10
REMARK H PARENT
REMARK Flexibility Score: inf
ROOT
ATOM      1  C   UNL     1     -19.964   3.239  -0.340  1.00  0.00     0.000 C 
ENDROOT
BRANCH   1   2
ATOM      2  C   UNL     1     -20.512   3.374  -1.770  1.00  0.00     0.006 C 
BRANCH   2   3
ATOM      3  C   UNL     1     -21.052   4.780  -2.067  1.00  0.00     0.053 C 
BRANCH   3   4
ATOM      4  C   UNL     1     -20.861   5.116  -3.513  1.00  0.00     0.041 C 
ATOM      5  O   UNL     1     -21.115   4.260  -4.401  1.00  0.00    -0.550 OA
ATOM      6  O   UNL     1     -20.356   6.357  -3.877  1.00  0.00    -0.550 OA
ENDBRANCH   3   4
ENDBRANCH   2   3
ENDBRANCH   1   2
BRANCH   1   7
ATOM      7  C   UNL     1     -20.912   3.837   0.714  1.00  0.00     0.000 C 
BRANCH   7   8
ATOM      8  C   UNL     1     -20.694   3.247   2.119  1.00  0.00    -0.000 C 
BRANCH   8   9
ATOM      9  C   UNL     1     -20.685   4.277   3.263  1.00  0.00    -0.003 C 
ATOM     10  C   UNL     1     -21.051   5.687   2.802  1.00  0.00     0.004 C 
ENDBRANCH   8   9
ENDBRANCH   7   8
ENDBRANCH   1   7
TORSDOF 6
ENDMDL
MODEL 2
REMARK VINA RESULT:    -2.504      4.750      6.518
REMARK INTER + INTRA:          -3.578
REMARK INTER:                  -3.390
REMARK INTRA:                  -0.188
REMARK UNBOUND:                -0.195
REMARK SMILES CCCCCCCC(=O)[O-]
REMARK SMILES IDX 5 1 6 2 7 3 8 4 9 5 10 6 4 7 3 8 2 9 1 10
REMARK H PARENT
REMARK Flexibility Score: inf
ROOT
ATOM      1  C   UNL     1     -20.426   4.297   2.230  1.00  0.00     0.000 C 
ENDROOT
BRANCH   1   2
ATOM      2  C   UNL     1     -21.004   4.461   3.646  1.00  0.00     0.006 C 
BRANCH   2   3
ATOM      3  C   UNL     1     -20.833   5.885   4.193  1.00  0.00     0.053 C 
BRANCH   3   4
ATOM      4  C   UNL     1     -20.306   5.845   5.593  1.00  0.00     0.041 C 
ATOM      5  O   UNL     1     -20.648   4.916   6.372  1.00  0.00    -0.550 OA
ATOM      6  O   UNL     1     -19.477   6.860   6.053  1.00  0.00    -0.550 OA
ENDBRANCH   3   4
ENDBRANCH   2   3
ENDBRANCH   1   2
BRANCH   1   7
ATOM      7  C   UNL     1     -20.661   2.888   1.657  1.00  0.00     0.000 C 
BRANCH   7   8
ATOM      8  C   UNL     1     -20.620   2.854   0.118  1.00  0.00    -0.000 C 
BRANCH   8   9
ATOM      9  C   UNL     1     -20.097   4.139  -0.547  1.00  0.00    -0.003 C 
ATOM     10  C   UNL     1     -20.641   4.347  -1.960  1.00  0.00     0.004 C 
ENDBRANCH   8   9
ENDBRANCH   7   8
ENDBRANCH   1   7
TORSDOF 6
ENDMDL
MODEL 3
REMARK VINA RESULT:    -2.501     16.695     18.470
REMARK INTER + INTRA:          -3.573
REMARK INTER:                  -3.405
REMARK INTRA:                  -0.168
REMARK UNBOUND:                -0.195
REMARK SMILES CCCCCCCC(=O)[O-]
REMARK SMILES IDX 5 1 6 2 7 3 8 4 9 5 10 6 4 7 3 8 2 9 1 10
REMARK H PARENT
REMARK Flexibility Score: inf
ROOT
ATOM      1  C   UNL     1     -13.730  -8.231 -12.013  1.00  0.00     0.000 C 
ENDROOT
BRANCH   1   2
ATOM      2  C   UNL     1     -12.321  -8.651 -11.562  1.00  0.00     0.006 C 
BRANCH   2   3
ATOM      3  C   UNL     1     -12.343  -9.597 -10.355  1.00  0.00     0.053 C 
BRANCH   3   4
ATOM      4  C   UNL     1     -12.918 -10.924 -10.743  1.00  0.00     0.041 C 
ATOM      5  O   UNL     1     -13.972 -11.342 -10.195  1.00  0.00    -0.550 OA
ATOM      6  O   UNL     1     -12.262 -11.720 -11.673  1.00  0.00    -0.550 OA
ENDBRANCH   3   4
ENDBRANCH   2   3
ENDBRANCH   1   2
BRANCH   1   7
ATOM      7  C   UNL     1     -14.045  -6.763 -11.676  1.00  0.00     0.000 C 
BRANCH   7   8
ATOM      8  C   UNL     1     -15.471  -6.349 -12.081  1.00  0.00    -0.000 C 
BRANCH   8   9
ATOM      9  C   UNL     1     -15.904  -4.952 -11.599  1.00  0.00    -0.003 C 
ATOM     10  C   UNL     1     -17.421  -4.770 -11.576  1.00  0.00     0.004 C 
ENDBRANCH   8   9
ENDBRANCH   7   8
ENDBRANCH   1   7
TORSDOF 6
ENDMDL
MODEL 4
REMARK VINA RESULT:    -2.425      1.909      2.828
REMARK INTER + INTRA:          -3.470
REMARK INTER:                  -3.203
REMARK INTRA:                  -0.267
REMARK UNBOUND:                -0.195
REMARK SMILES CCCCCCCC(=O)[O-]
REMARK SMILES IDX 5 1 6 2 7 3 8 4 9 5 10 6 4 7 3 8 2 9 1 10
REMARK H PARENT
REMARK Flexibility Score: inf
ROOT
ATOM      1  C   UNL     1     -20.345   4.176   2.471  1.00  0.00     0.000 C 
ENDROOT
BRANCH   1   2
ATOM      2  C   UNL     1     -20.599   3.493   1.117  1.00  0.00     0.006 C 
BRANCH   2   3
ATOM      3  C   UNL     1     -21.046   4.479   0.031  1.00  0.00     0.053 C 
BRANCH   3   4
ATOM      4  C   UNL     1     -20.434   4.117  -1.286  1.00  0.00     0.041 C 
ATOM      5  O   UNL     1     -19.634   3.148  -1.368  1.00  0.00    -0.550 OA
ATOM      6  O   UNL     1     -20.706   4.882  -2.413  1.00  0.00    -0.550 OA
ENDBRANCH   3   4
ENDBRANCH   2   3
ENDBRANCH   1   2
BRANCH   1   7
ATOM      7  C   UNL     1     -21.060   5.533   2.590  1.00  0.00     0.000 C 
BRANCH   7   8
ATOM      8  C   UNL     1     -21.073   6.079   4.030  1.00  0.00    -0.000 C 
BRANCH   8   9
ATOM      9  C   UNL     1     -20.648   5.070   5.111  1.00  0.00    -0.003 C 
ATOM     10  C   UNL     1     -19.567   5.612   6.045  1.00  0.00     0.004 C 
ENDBRANCH   8   9
ENDBRANCH   7   8
ENDBRANCH   1   7
TORSDOF 6
ENDMDL
MODEL 5
REMARK VINA RESULT:    -2.389     18.233     19.029
REMARK INTER + INTRA:          -3.422
REMARK INTER:                  -3.254
REMARK INTRA:                  -0.168
REMARK UNBOUND:                -0.195
REMARK SMILES CCCCCCCC(=O)[O-]
REMARK SMILES IDX 5 1 6 2 7 3 8 4 9 5 10 6 4 7 3 8 2 9 1 10
REMARK H PARENT
REMARK Flexibility Score: inf
ROOT
ATOM      1  C   UNL     1      -1.755   6.153   2.250  1.00  0.00     0.000 C 
ENDROOT
BRANCH   1   2
ATOM      2  C   UNL     1      -1.131   5.188   3.272  1.00  0.00     0.006 C 
BRANCH   2   3
ATOM      3  C   UNL     1      -2.130   4.736   4.345  1.00  0.00     0.053 C 
BRANCH   3   4
ATOM      4  C   UNL     1      -1.637   3.498   5.028  1.00  0.00     0.041 C 
ATOM      5  O   UNL     1      -1.590   3.444   6.285  1.00  0.00    -0.550 OA
ATOM      6  O   UNL     1      -1.181   2.424   4.275  1.00  0.00    -0.550 OA
ENDBRANCH   3   4
ENDBRANCH   2   3
ENDBRANCH   1   2
BRANCH   1   7
ATOM      7  C   UNL     1      -3.285   6.244   2.382  1.00  0.00     0.000 C 
BRANCH   7   8
ATOM      8  C   UNL     1      -4.005   6.216   1.021  1.00  0.00    -0.000 C 
BRANCH   8   9
ATOM      9  C   UNL     1      -5.285   7.068   0.946  1.00  0.00    -0.003 C 
ATOM     10  C   UNL     1      -6.409   6.392   0.161  1.00  0.00     0.004 C 
ENDBRANCH   8   9
ENDBRANCH   7   8
ENDBRANCH   1   7
TORSDOF 6
ENDMDL
MODEL 6
REMARK VINA RESULT:    -2.278     16.197     17.978
REMARK INTER + INTRA:          -3.271
REMARK INTER:                  -3.080
REMARK INTRA:                  -0.192
REMARK UNBOUND:                -0.195
REMARK SMILES CCCCCCCC(=O)[O-]
REMARK SMILES IDX 5 1 6 2 7 3 8 4 9 5 10 6 4 7 3 8 2 9 1 10
REMARK H PARENT
REMARK Flexibility Score: inf
ROOT
ATOM      1  C   UNL     1     -14.004  -6.909 -11.271  1.00  0.00     0.000 C 
ENDROOT
BRANCH   1   2
ATOM      2  C   UNL     1     -13.378  -8.025 -12.124  1.00  0.00     0.006 C 
BRANCH   2   3
ATOM      3  C   UNL     1     -13.748  -9.429 -11.626  1.00  0.00     0.053 C 
BRANCH   3   4
ATOM      4  C   UNL     1     -12.523 -10.161 -11.174  1.00  0.00     0.041 C 
ATOM      5  O   UNL     1     -11.383  -9.652 -11.342  1.00  0.00    -0.550 OA
ATOM      6  O   UNL     1     -12.637 -11.427 -10.614  1.00  0.00    -0.550 OA
ENDBRANCH   3   4
ENDBRANCH   2   3
ENDBRANCH   1   2
BRANCH   1   7
ATOM      7  C   UNL     1     -14.558  -5.755 -12.123  1.00  0.00     0.000 C 
BRANCH   7   8
ATOM      8  C   UNL     1     -15.588  -4.895 -11.369  1.00  0.00    -0.000 C 
BRANCH   8   9
ATOM      9  C   UNL     1     -15.359  -3.375 -11.461  1.00  0.00    -0.003 C 
ATOM     10  C   UNL     1     -13.978  -3.010 -12.003  1.00  0.00     0.004 C 
ENDBRANCH   8   9
ENDBRANCH   7   8
ENDBRANCH   1   7
TORSDOF 6
ENDMDL
MODEL 7
REMARK VINA RESULT:    -2.245     17.933     18.509
REMARK INTER + INTRA:          -3.227
REMARK INTER:                  -2.966
REMARK INTRA:                  -0.261
REMARK UNBOUND:                -0.195
REMARK SMILES CCCCCCCC(=O)[O-]
REMARK SMILES IDX 5 1 6 2 7 3 8 4 9 5 10 6 4 7 3 8 2 9 1 10
REMARK H PARENT
REMARK Flexibility Score: inf
ROOT
ATOM      1  C   UNL     1      -1.454   5.827   2.911  1.00  0.00     0.000 C 
ENDROOT
BRANCH   1   2
ATOM      2  C   UNL     1      -2.323   6.957   2.334  1.00  0.00     0.006 C 
BRANCH   2   3
ATOM      3  C   UNL     1      -3.291   6.465   1.250  1.00  0.00     0.053 C 
BRANCH   3   4
ATOM      4  C   UNL     1      -4.707   6.740   1.653  1.00  0.00     0.041 C 
ATOM      5  O   UNL     1      -4.990   6.963   2.860  1.00  0.00    -0.550 OA
ATOM      6  O   UNL     1      -5.720   6.698   0.704  1.00  0.00    -0.550 OA
ENDBRANCH   3   4
ENDBRANCH   2   3
ENDBRANCH   1   2
BRANCH   1   7
ATOM      7  C   UNL     1      -2.190   5.006   3.984  1.00  0.00     0.000 C 
BRANCH   7   8
ATOM      8  C   UNL     1      -1.338   4.770   5.245  1.00  0.00    -0.000 C 
BRANCH   8   9
ATOM      9  C   UNL     1      -1.335   3.321   5.765  1.00  0.00    -0.003 C 
ATOM     10  C   UNL     1      -1.437   2.284   4.648  1.00  0.00     0.004 C 
ENDBRANCH   8   9
ENDBRANCH   7   8
ENDBRANCH   1   7
TORSDOF 6
ENDMDL
MODEL 8
REMARK VINA RESULT:    -2.207     18.599     19.400
REMARK INTER + INTRA:          -3.177
REMARK INTER:                  -2.693
REMARK INTRA:                  -0.484
REMARK UNBOUND:                -0.195
REMARK SMILES CCCCCCCC(=O)[O-]
REMARK SMILES IDX 5 1 6 2 7 3 8 4 9 5 10 6 4 7 3 8 2 9 1 10
REMARK H PARENT
REMARK Flexibility Score: inf
ROOT
ATOM      1  C   UNL     1      -1.145   5.711   2.092  1.00  0.00     0.000 C 
ENDROOT
BRANCH   1   2
ATOM      2  C   UNL     1      -0.887   5.595   3.604  1.00  0.00     0.006 C 
BRANCH   2   3
ATOM      3  C   UNL     1      -1.964   4.775   4.327  1.00  0.00     0.053 C 
BRANCH   3   4
ATOM      4  C   UNL     1      -2.317   5.415   5.633  1.00  0.00     0.041 C 
ATOM      5  O   UNL     1      -2.997   6.474   5.656  1.00  0.00    -0.550 OA
ATOM      6  O   UNL     1      -1.851   4.870   6.822  1.00  0.00    -0.550 OA
ENDBRANCH   3   4
ENDBRANCH   2   3
ENDBRANCH   1   2
BRANCH   1   7
ATOM      7  C   UNL     1      -1.842   7.028   1.712  1.00  0.00     0.000 C 
BRANCH   7   8
ATOM      8  C   UNL     1      -2.955   6.837   0.665  1.00  0.00    -0.000 C 
BRANCH   8   9
ATOM      9  C   UNL     1      -4.286   6.302   1.221  1.00  0.00    -0.003 C 
ATOM     10  C   UNL     1      -4.648   6.895   2.582  1.00  0.00     0.004 C 
ENDBRANCH   8   9
ENDBRANCH   7   8
ENDBRANCH   1   7
TORSDOF 6
ENDMDL
