MODEL 1
REMARK VINA RESULT:     0.100      0.000      0.000
REMARK INTER + INTRA:          -0.642
REMARK INTER:                   0.152
REMARK INTRA:                  -0.794
REMARK UNBOUND:                -0.794
REMARK SMILES OC[C@H]1O[C@H](O[C@@]2(CO)O[C@H](CO)[C@H](O)[C@H]2O)[C@@H](O)[C@H](O)[C@H]1O
REMARK SMILES IDX 6 1 5 2 3 3 22 4 4 5 20 6 18 7 2 8 1 9 23 11 21 13 19 15
REMARK SMILES IDX 7 17 16 18 10 19 14 20 11 21 8 22 9 23 17 25 15 27 12 29
REMARK SMILES IDX 13 30
REMARK H PARENT 1 10 23 12 21 14 19 16 9 24 17 26 15 28 13 31
REMARK Flexibility Score: inf
ROOT
ATOM      1  O   UNL     1      23.991   7.539  15.595  1.00  0.00    -0.313 OA
ENDROOT
BRANCH   1   2
ATOM      2  C   UNL     1      25.175   6.967  15.045  1.00  0.00     0.285 C 
ATOM      3  C   UNL     1      26.640   8.753  15.446  1.00  0.00     0.178 C 
ATOM      4  C   UNL     1      27.830   7.915  15.991  1.00  0.00     0.177 C 
ATOM      5  O   UNL     1      25.940   8.015  14.458  1.00  0.00    -0.341 OA
ATOM      6  C   UNL     1      27.501   6.405  15.917  1.00  0.00     0.179 C 
ATOM      7  C   UNL     1      25.992   6.156  16.104  1.00  0.00     0.202 C 
BRANCH   3   8
ATOM      8  C   UNL     1      27.073  10.105  14.853  1.00  0.00     0.191 C 
BRANCH   8   9
ATOM      9  O   UNL     1      28.100  10.688  15.611  1.00  0.00    -0.394 OA
ATOM     10  H   UNL     1      27.745  10.808  16.529  1.00  0.00     0.210 HD
ENDBRANCH   8   9
ENDBRANCH   3   8
BRANCH   4  11
ATOM     11  O   UNL     1      29.007   8.169  15.262  1.00  0.00    -0.387 OA
ATOM     12  H   UNL     1      29.686   7.516  15.574  1.00  0.00     0.211 HD
ENDBRANCH   4  11
BRANCH   6  13
ATOM     13  O   UNL     1      28.264   5.676  16.846  1.00  0.00    -0.387 OA
ATOM     14  H   UNL     1      28.949   5.167  16.337  1.00  0.00     0.211 HD
ENDBRANCH   6  13
BRANCH   7  15
ATOM     15  O   UNL     1      25.723   4.784  15.958  1.00  0.00    -0.385 OA
ATOM     16  H   UNL     1      24.893   4.594  16.460  1.00  0.00     0.211 HD
ENDBRANCH   7  15
ENDBRANCH   1   2
BRANCH   1  17
ATOM     17  C   UNL     1      22.831   6.703  15.580  1.00  0.00     0.224 C 
ATOM     18  C   UNL     1      21.576   7.606  15.399  1.00  0.00     0.208 C 
ATOM     19  O   UNL     1      22.698   6.013  16.813  1.00  0.00    -0.337 OA
ATOM     20  C   UNL     1      20.620   7.114  16.464  1.00  0.00     0.180 C 
ATOM     21  C   UNL     1      21.581   6.533  17.496  1.00  0.00     0.179 C 
BRANCH  17  22
ATOM     22  C   UNL     1      22.871   5.661  14.433  1.00  0.00     0.225 C 
BRANCH  22  23
ATOM     23  O   UNL     1      23.372   4.436  14.905  1.00  0.00    -0.391 OA
ATOM     24  H   UNL     1      23.823   4.622  15.768  1.00  0.00     0.210 HD
ENDBRANCH  22  23
ENDBRANCH  17  22
BRANCH  18  25
ATOM     25  O   UNL     1      21.863   8.977  15.580  1.00  0.00    -0.385 OA
ATOM     26  H   UNL     1      21.648   9.218  16.518  1.00  0.00     0.211 HD
ENDBRANCH  18  25
BRANCH  20  27
ATOM     27  O   UNL     1      19.781   6.115  15.937  1.00  0.00    -0.387 OA
ATOM     28  H   UNL     1      18.884   6.527  15.817  1.00  0.00     0.211 HD
ENDBRANCH  20  27
BRANCH  21  29
ATOM     29  C   UNL     1      20.959   5.446  18.386  1.00  0.00     0.191 C 
BRANCH  29  30
ATOM     30  O   UNL     1      19.633   5.759  18.710  1.00  0.00    -0.394 OA
ATOM     31  H   UNL     1      19.127   4.904  18.692  1.00  0.00     0.210 HD
ENDBRANCH  29  30
ENDBRANCH  21  29
ENDBRANCH   1  17
TORSDOF 13
ENDMDL
MODEL 2
REMARK VINA RESULT:     0.376      1.511      6.424
REMARK INTER + INTRA:          -0.220
REMARK INTER:                   0.731
REMARK INTRA:                  -0.951
REMARK UNBOUND:                -0.794
REMARK SMILES OC[C@H]1O[C@H](O[C@@]2(CO)O[C@H](CO)[C@H](O)[C@H]2O)[C@@H](O)[C@H](O)[C@H]1O
REMARK SMILES IDX 6 1 5 2 3 3 22 4 4 5 20 6 18 7 2 8 1 9 23 11 21 13 19 15
REMARK SMILES IDX 7 17 16 18 10 19 14 20 11 21 8 22 9 23 17 25 15 27 12 29
REMARK SMILES IDX 13 30
REMARK H PARENT 1 10 23 12 21 14 19 16 9 24 17 26 15 28 13 31
REMARK Flexibility Score: inf
ROOT
ATOM      1  O   UNL     1      24.037   7.164  16.102  1.00  0.00    -0.313 OA
ENDROOT
BRANCH   1   2
ATOM      2  C   UNL     1      23.016   6.175  15.998  1.00  0.00     0.285 C 
ATOM      3  C   UNL     1      22.774   5.687  18.278  1.00  0.00     0.178 C 
ATOM      4  C   UNL     1      21.220   5.681  18.316  1.00  0.00     0.177 C 
ATOM      5  O   UNL     1      23.230   5.210  17.022  1.00  0.00    -0.341 OA
ATOM      6  C   UNL     1      20.649   5.901  16.895  1.00  0.00     0.179 C 
ATOM      7  C   UNL     1      21.581   6.794  16.054  1.00  0.00     0.202 C 
BRANCH   3   8
ATOM      8  C   UNL     1      23.410   4.846  19.398  1.00  0.00     0.191 C 
BRANCH   8   9
ATOM      9  O   UNL     1      24.728   4.486  19.080  1.00  0.00    -0.394 OA
ATOM     10  H   UNL     1      25.133   5.265  18.617  1.00  0.00     0.210 HD
ENDBRANCH   8   9
ENDBRANCH   3   8
BRANCH   4  11
ATOM     11  O   UNL     1      20.729   4.466  18.830  1.00  0.00    -0.387 OA
ATOM     12  H   UNL     1      21.432   3.783  18.677  1.00  0.00     0.211 HD
ENDBRANCH   4  11
BRANCH   6  13
ATOM     13  O   UNL     1      19.344   6.423  16.951  1.00  0.00    -0.387 OA
ATOM     14  H   UNL     1      18.942   6.132  17.811  1.00  0.00     0.211 HD
ENDBRANCH   6  13
BRANCH   7  15
ATOM     15  O   UNL     1      21.065   6.910  14.751  1.00  0.00    -0.385 OA
ATOM     16  H   UNL     1      20.682   6.030  14.510  1.00  0.00     0.211 HD
ENDBRANCH   7  15
ENDBRANCH   1   2
BRANCH   1  17
ATOM     17  C   UNL     1      25.102   7.063  15.153  1.00  0.00     0.224 C 
ATOM     18  C   UNL     1      26.117   6.000  15.664  1.00  0.00     0.208 C 
ATOM     19  O   UNL     1      25.786   8.300  15.037  1.00  0.00    -0.337 OA
ATOM     20  C   UNL     1      27.460   6.680  15.512  1.00  0.00     0.180 C 
ATOM     21  C   UNL     1      27.071   8.153  15.597  1.00  0.00     0.179 C 
BRANCH  17  22
ATOM     22  C   UNL     1      24.599   6.644  13.747  1.00  0.00     0.225 C 
BRANCH  22  23
ATOM     23  O   UNL     1      23.686   7.592  13.254  1.00  0.00    -0.391 OA
ATOM     24  H   UNL     1      22.954   7.659  13.917  1.00  0.00     0.210 HD
ENDBRANCH  22  23
ENDBRANCH  17  22
BRANCH  18  25
ATOM     25  O   UNL     1      25.890   5.635  17.009  1.00  0.00    -0.385 OA
ATOM     26  H   UNL     1      25.110   5.022  17.037  1.00  0.00     0.211 HD
ENDBRANCH  18  25
BRANCH  20  27
ATOM     27  O   UNL     1      28.018   6.378  14.256  1.00  0.00    -0.387 OA
ATOM     28  H   UNL     1      27.386   5.759  13.803  1.00  0.00     0.211 HD
ENDBRANCH  20  27
BRANCH  21  29
ATOM     29  C   UNL     1      28.058   9.101  14.900  1.00  0.00     0.191 C 
BRANCH  29  30
ATOM     30  O   UNL     1      29.359   8.919  15.386  1.00  0.00    -0.394 OA
ATOM     31  H   UNL     1      29.326   8.136  15.998  1.00  0.00     0.210 HD
ENDBRANCH  29  30
ENDBRANCH  21  29
ENDBRANCH   1  17
TORSDOF 13
ENDMDL
MODEL 3
REMARK VINA RESULT:     1.055      1.640      2.266
REMARK INTER + INTRA:           0.815
REMARK INTER:                   1.548
REMARK INTRA:                  -0.732
REMARK UNBOUND:                -0.794
REMARK SMILES OC[C@H]1O[C@H](O[C@@]2(CO)O[C@H](CO)[C@H](O)[C@H]2O)[C@@H](O)[C@H](O)[C@H]1O
REMARK SMILES IDX 6 1 5 2 3 3 22 4 4 5 20 6 18 7 2 8 1 9 23 11 21 13 19 15
REMARK SMILES IDX 7 17 16 18 10 19 14 20 11 21 8 22 9 23 17 25 15 27 12 29
REMARK SMILES IDX 13 30
REMARK H PARENT 1 10 23 12 21 14 19 16 9 24 17 26 15 28 13 31
REMARK Flexibility Score: inf
ROOT
ATOM      1  O   UNL     1      24.568   7.215  15.387  1.00  0.00    -0.313 OA
ENDROOT
BRANCH   1   2
ATOM      2  C   UNL     1      25.126   5.940  15.694  1.00  0.00     0.285 C 
ATOM      3  C   UNL     1      27.318   6.627  16.164  1.00  0.00     0.178 C 
ATOM      4  C   UNL     1      27.520   5.781  17.451  1.00  0.00     0.177 C 
ATOM      5  O   UNL     1      26.480   5.933  15.254  1.00  0.00    -0.341 OA
ATOM      6  C   UNL     1      26.278   4.896  17.711  1.00  0.00     0.179 C 
ATOM      7  C   UNL     1      24.993   5.583  17.211  1.00  0.00     0.202 C 
BRANCH   3   8
ATOM      8  C   UNL     1      28.639   6.984  15.461  1.00  0.00     0.191 C 
BRANCH   8   9
ATOM      9  O   UNL     1      28.993   8.323  15.690  1.00  0.00    -0.394 OA
ATOM     10  H   UNL     1      29.977   8.380  15.585  1.00  0.00     0.210 HD
ENDBRANCH   8   9
ENDBRANCH   3   8
BRANCH   4  11
ATOM     11  O   UNL     1      28.660   4.961  17.347  1.00  0.00    -0.387 OA
ATOM     12  H   UNL     1      29.032   5.099  16.438  1.00  0.00     0.211 HD
ENDBRANCH   4  11
BRANCH   6  13
ATOM     13  O   UNL     1      26.182   4.547  19.070  1.00  0.00    -0.387 OA
ATOM     14  H   UNL     1      25.615   3.734  19.131  1.00  0.00     0.211 HD
ENDBRANCH   6  13
BRANCH   7  15
ATOM     15  O   UNL     1      23.899   4.719  17.398  1.00  0.00    -0.385 OA
ATOM     16  H   UNL     1      23.848   4.137  16.601  1.00  0.00     0.211 HD
ENDBRANCH   7  15
ENDBRANCH   1   2
BRANCH   1  17
ATOM     17  C   UNL     1      23.213   7.208  14.931  1.00  0.00     0.224 C 
ATOM     18  C   UNL     1      22.652   8.656  15.030  1.00  0.00     0.208 C 
ATOM     19  O   UNL     1      22.415   6.373  15.756  1.00  0.00    -0.337 OA
ATOM     20  C   UNL     1      21.313   8.480  15.713  1.00  0.00     0.180 C 
ATOM     21  C   UNL     1      21.534   7.188  16.494  1.00  0.00     0.179 C 
BRANCH  17  22
ATOM     22  C   UNL     1      23.087   6.717  13.465  1.00  0.00     0.225 C 
BRANCH  22  23
ATOM     23  O   UNL     1      24.026   7.373  12.651  1.00  0.00    -0.391 OA
ATOM     24  H   UNL     1      24.797   6.760  12.547  1.00  0.00     0.210 HD
ENDBRANCH  22  23
ENDBRANCH  17  22
BRANCH  18  25
ATOM     25  O   UNL     1      23.488   9.511  15.781  1.00  0.00    -0.385 OA
ATOM     26  H   UNL     1      23.078  10.415  15.791  1.00  0.00     0.211 HD
ENDBRANCH  18  25
BRANCH  20  27
ATOM     27  O   UNL     1      20.296   8.321  14.754  1.00  0.00    -0.387 OA
ATOM     28  H   UNL     1      20.247   9.173  14.244  1.00  0.00     0.211 HD
ENDBRANCH  20  27
BRANCH  21  29
ATOM     29  C   UNL     1      20.242   6.417  16.803  1.00  0.00     0.191 C 
BRANCH  29  30
ATOM     30  O   UNL     1      19.976   6.411  18.178  1.00  0.00    -0.394 OA
ATOM     31  H   UNL     1      19.825   7.358  18.442  1.00  0.00     0.210 HD
ENDBRANCH  29  30
ENDBRANCH  21  29
ENDBRANCH   1  17
TORSDOF 13
ENDMDL
MODEL 4
REMARK VINA RESULT:     1.190      1.210      6.589
REMARK INTER + INTRA:           1.022
REMARK INTER:                   0.922
REMARK INTRA:                   0.100
REMARK UNBOUND:                -0.794
REMARK SMILES OC[C@H]1O[C@H](O[C@@]2(CO)O[C@H](CO)[C@H](O)[C@H]2O)[C@@H](O)[C@H](O)[C@H]1O
REMARK SMILES IDX 6 1 5 2 3 3 22 4 4 5 20 6 18 7 2 8 1 9 23 11 21 13 19 15
REMARK SMILES IDX 7 17 16 18 10 19 14 20 11 21 8 22 9 23 17 25 15 27 12 29
REMARK SMILES IDX 13 30
REMARK H PARENT 1 10 23 12 21 14 19 16 9 24 17 26 15 28 13 31
REMARK Flexibility Score: inf
ROOT
ATOM      1  O   UNL     1      24.468   6.225  16.290  1.00  0.00    -0.313 OA
ENDROOT
BRANCH   1   2
ATOM      2  C   UNL     1      23.216   6.088  15.624  1.00  0.00     0.285 C 
ATOM      3  C   UNL     1      21.825   6.032  17.511  1.00  0.00     0.178 C 
ATOM      4  C   UNL     1      20.733   7.002  16.982  1.00  0.00     0.177 C 
ATOM      5  O   UNL     1      22.369   5.282  16.437  1.00  0.00    -0.341 OA
ATOM      6  C   UNL     1      21.050   7.424  15.528  1.00  0.00     0.179 C 
ATOM      7  C   UNL     1      22.570   7.471  15.281  1.00  0.00     0.202 C 
BRANCH   3   8
ATOM      8  C   UNL     1      21.305   5.065  18.588  1.00  0.00     0.191 C 
BRANCH   8   9
ATOM      9  O   UNL     1      20.405   5.703  19.454  1.00  0.00    -0.394 OA
ATOM     10  H   UNL     1      20.944   6.290  20.045  1.00  0.00     0.210 HD
ENDBRANCH   8   9
ENDBRANCH   3   8
BRANCH   4  11
ATOM     11  O   UNL     1      19.459   6.406  17.024  1.00  0.00    -0.387 OA
ATOM     12  H   UNL     1      19.197   6.353  17.980  1.00  0.00     0.211 HD
ENDBRANCH   4  11
BRANCH   6  13
ATOM     13  O   UNL     1      20.437   8.650  15.212  1.00  0.00    -0.387 OA
ATOM     14  H   UNL     1      20.057   9.020  16.052  1.00  0.00     0.211 HD
ENDBRANCH   6  13
BRANCH   7  15
ATOM     15  O   UNL     1      22.816   7.786  13.933  1.00  0.00    -0.385 OA
ATOM     16  H   UNL     1      22.469   7.035  13.391  1.00  0.00     0.211 HD
ENDBRANCH   7  15
ENDBRANCH   1   2
BRANCH   1  17
ATOM     17  C   UNL     1      25.603   6.436  15.446  1.00  0.00     0.224 C 
ATOM     18  C   UNL     1      26.861   5.859  16.157  1.00  0.00     0.208 C 
ATOM     19  O   UNL     1      25.817   7.823  15.236  1.00  0.00    -0.337 OA
ATOM     20  C   UNL     1      27.887   6.964  16.030  1.00  0.00     0.180 C 
ATOM     21  C   UNL     1      26.998   8.197  15.907  1.00  0.00     0.179 C 
BRANCH  17  22
ATOM     22  C   UNL     1      25.445   5.747  14.065  1.00  0.00     0.225 C 
BRANCH  22  23
ATOM     23  O   UNL     1      24.672   6.547  13.208  1.00  0.00    -0.391 OA
ATOM     24  H   UNL     1      23.987   5.957  12.802  1.00  0.00     0.210 HD
ENDBRANCH  22  23
ENDBRANCH  17  22
BRANCH  18  25
ATOM     25  O   UNL     1      26.623   5.552  17.515  1.00  0.00    -0.385 OA
ATOM     26  H   UNL     1      27.329   4.924  17.820  1.00  0.00     0.211 HD
ENDBRANCH  18  25
BRANCH  20  27
ATOM     27  O   UNL     1      28.656   6.779  14.867  1.00  0.00    -0.387 OA
ATOM     28  H   UNL     1      29.247   7.575  14.785  1.00  0.00     0.211 HD
ENDBRANCH  20  27
BRANCH  21  29
ATOM     29  C   UNL     1      27.662   9.376  15.180  1.00  0.00     0.191 C 
BRANCH  29  30
ATOM     30  O   UNL     1      29.041   9.405  15.424  1.00  0.00    -0.394 OA
ATOM     31  H   UNL     1      29.164   9.852  16.303  1.00  0.00     0.210 HD
ENDBRANCH  29  30
ENDBRANCH  21  29
ENDBRANCH   1  17
TORSDOF 13
ENDMDL
MODEL 5
REMARK VINA RESULT:     1.581      1.867      3.582
REMARK INTER + INTRA:           1.618
REMARK INTER:                   2.705
REMARK INTRA:                  -1.087
REMARK UNBOUND:                -0.794
REMARK SMILES OC[C@H]1O[C@H](O[C@@]2(CO)O[C@H](CO)[C@H](O)[C@H]2O)[C@@H](O)[C@H](O)[C@H]1O
REMARK SMILES IDX 6 1 5 2 3 3 22 4 4 5 20 6 18 7 2 8 1 9 23 11 21 13 19 15
REMARK SMILES IDX 7 17 16 18 10 19 14 20 11 21 8 22 9 23 17 25 15 27 12 29
REMARK SMILES IDX 13 30
REMARK H PARENT 1 10 23 12 21 14 19 16 9 24 17 26 15 28 13 31
REMARK Flexibility Score: inf
ROOT
ATOM      1  O   UNL     1      26.065   7.039  15.093  1.00  0.00    -0.313 OA
ENDROOT
BRANCH   1   2
ATOM      2  C   UNL     1      26.632   8.153  15.778  1.00  0.00     0.285 C 
ATOM      3  C   UNL     1      28.871   7.835  15.158  1.00  0.00     0.178 C 
ATOM      4  C   UNL     1      29.191   9.314  14.805  1.00  0.00     0.177 C 
ATOM      5  O   UNL     1      27.933   7.783  16.221  1.00  0.00    -0.341 OA
ATOM      6  C   UNL     1      27.969  10.213  15.106  1.00  0.00     0.179 C 
ATOM      7  C   UNL     1      26.650   9.445  14.897  1.00  0.00     0.202 C 
BRANCH   3   8
ATOM      8  C   UNL     1      30.118   7.021  15.545  1.00  0.00     0.191 C 
BRANCH   8   9
ATOM      9  O   UNL     1      29.773   5.883  16.288  1.00  0.00    -0.394 OA
ATOM     10  H   UNL     1      29.175   6.188  17.018  1.00  0.00     0.210 HD
ENDBRANCH   8   9
ENDBRANCH   3   8
BRANCH   4  11
ATOM     11  O   UNL     1      30.301   9.781  15.533  1.00  0.00    -0.387 OA
ATOM     12  H   UNL     1      29.946  10.313  16.292  1.00  0.00     0.211 HD
ENDBRANCH   4  11
BRANCH   6  13
ATOM     13  O   UNL     1      28.008  11.392  14.338  1.00  0.00    -0.387 OA
ATOM     14  H   UNL     1      27.566  12.107  14.866  1.00  0.00     0.211 HD
ENDBRANCH   6  13
BRANCH   7  15
ATOM     15  O   UNL     1      25.568  10.272  15.250  1.00  0.00    -0.385 OA
ATOM     16  H   UNL     1      25.826  10.753  16.074  1.00  0.00     0.211 HD
ENDBRANCH   7  15
ENDBRANCH   1   2
BRANCH   1  17
ATOM     17  C   UNL     1      24.774   6.621  15.547  1.00  0.00     0.224 C 
ATOM     18  C   UNL     1      23.994   6.031  14.336  1.00  0.00     0.208 C 
ATOM     19  O   UNL     1      24.038   7.728  16.042  1.00  0.00    -0.337 OA
ATOM     20  C   UNL     1      22.640   6.701  14.417  1.00  0.00     0.180 C 
ATOM     21  C   UNL     1      22.979   7.994  15.151  1.00  0.00     0.179 C 
BRANCH  17  22
ATOM     22  C   UNL     1      24.861   5.547  16.662  1.00  0.00     0.225 C 
BRANCH  22  23
ATOM     23  O   UNL     1      24.259   4.352  16.235  1.00  0.00    -0.391 OA
ATOM     24  H   UNL     1      24.098   3.804  17.044  1.00  0.00     0.210 HD
ENDBRANCH  22  23
ENDBRANCH  17  22
BRANCH  18  25
ATOM     25  O   UNL     1      24.618   6.311  13.100  1.00  0.00    -0.385 OA
ATOM     26  H   UNL     1      25.541   6.625  13.283  1.00  0.00     0.211 HD
ENDBRANCH  18  25
BRANCH  20  27
ATOM     27  O   UNL     1      21.752   5.911  15.171  1.00  0.00    -0.387 OA
ATOM     28  H   UNL     1      20.880   5.926  14.694  1.00  0.00     0.211 HD
ENDBRANCH  20  27
BRANCH  21  29
ATOM     29  C   UNL     1      21.796   8.609  15.914  1.00  0.00     0.191 C 
BRANCH  29  30
ATOM     30  O   UNL     1      21.194   9.630  15.168  1.00  0.00    -0.394 OA
ATOM     31  H   UNL     1      21.915  10.274  14.935  1.00  0.00     0.210 HD
ENDBRANCH  29  30
ENDBRANCH  21  29
ENDBRANCH   1  17
TORSDOF 13
ENDMDL
MODEL 6
REMARK VINA RESULT:     2.225      1.726      6.449
REMARK INTER + INTRA:           2.601
REMARK INTER:                   3.560
REMARK INTRA:                  -0.959
REMARK UNBOUND:                -0.794
REMARK SMILES OC[C@H]1O[C@H](O[C@@]2(CO)O[C@H](CO)[C@H](O)[C@H]2O)[C@@H](O)[C@H](O)[C@H]1O
REMARK SMILES IDX 6 1 5 2 3 3 22 4 4 5 20 6 18 7 2 8 1 9 23 11 21 13 19 15
REMARK SMILES IDX 7 17 16 18 10 19 14 20 11 21 8 22 9 23 17 25 15 27 12 29
REMARK SMILES IDX 13 30
REMARK H PARENT 1 10 23 12 21 14 19 16 9 24 17 26 15 28 13 31
REMARK Flexibility Score: inf
ROOT
ATOM      1  O   UNL     1      25.018   6.756  15.428  1.00  0.00    -0.313 OA
ENDROOT
BRANCH   1   2
ATOM      2  C   UNL     1      24.270   7.702  14.669  1.00  0.00     0.285 C 
ATOM      3  C   UNL     1      22.160   7.311  15.614  1.00  0.00     0.178 C 
ATOM      4  C   UNL     1      21.741   8.797  15.787  1.00  0.00     0.177 C 
ATOM      5  O   UNL     1      22.967   7.167  14.457  1.00  0.00    -0.341 OA
ATOM      6  C   UNL     1      22.827   9.732  15.203  1.00  0.00     0.179 C 
ATOM      7  C   UNL     1      24.230   9.111  15.347  1.00  0.00     0.202 C 
BRANCH   3   8
ATOM      8  C   UNL     1      20.961   6.352  15.515  1.00  0.00     0.191 C 
BRANCH   8   9
ATOM      9  O   UNL     1      19.996   6.640  16.492  1.00  0.00    -0.394 OA
ATOM     10  H   UNL     1      20.456   7.156  17.204  1.00  0.00     0.210 HD
ENDBRANCH   8   9
ENDBRANCH   3   8
BRANCH   4  11
ATOM     11  O   UNL     1      20.514   9.057  15.150  1.00  0.00    -0.387 OA
ATOM     12  H   UNL     1      19.957   9.569  15.793  1.00  0.00     0.211 HD
ENDBRANCH   4  11
BRANCH   6  13
ATOM     13  O   UNL     1      22.764  11.008  15.790  1.00  0.00    -0.387 OA
ATOM     14  H   UNL     1      23.690  11.272  16.033  1.00  0.00     0.211 HD
ENDBRANCH   6  13
BRANCH   7  15
ATOM     15  O   UNL     1      25.178   9.954  14.740  1.00  0.00    -0.385 OA
ATOM     16  H   UNL     1      25.939   9.386  14.465  1.00  0.00     0.211 HD
ENDBRANCH   7  15
ENDBRANCH   1   2
BRANCH   1  17
ATOM     17  C   UNL     1      26.409   6.663  15.108  1.00  0.00     0.224 C 
ATOM     18  C   UNL     1      27.144   5.980  16.298  1.00  0.00     0.208 C 
ATOM     19  O   UNL     1      26.968   7.955  14.933  1.00  0.00    -0.337 OA
ATOM     20  C   UNL     1      28.341   6.872  16.544  1.00  0.00     0.180 C 
ATOM     21  C   UNL     1      27.844   8.210  16.007  1.00  0.00     0.179 C 
BRANCH  17  22
ATOM     22  C   UNL     1      26.663   5.837  13.820  1.00  0.00     0.225 C 
BRANCH  22  23
ATOM     23  O   UNL     1      28.030   5.851  13.495  1.00  0.00    -0.391 OA
ATOM     24  H   UNL     1      28.173   5.143  12.817  1.00  0.00     0.210 HD
ENDBRANCH  22  23
ENDBRANCH  17  22
BRANCH  18  25
ATOM     25  O   UNL     1      26.338   5.896  17.456  1.00  0.00    -0.385 OA
ATOM     26  H   UNL     1      25.524   5.375  17.230  1.00  0.00     0.211 HD
ENDBRANCH  18  25
BRANCH  20  27
ATOM     27  O   UNL     1      29.447   6.412  15.805  1.00  0.00    -0.387 OA
ATOM     28  H   UNL     1      29.119   6.223  14.886  1.00  0.00     0.211 HD
ENDBRANCH  20  27
BRANCH  21  29
ATOM     29  C   UNL     1      28.966   9.157  15.553  1.00  0.00     0.191 C 
BRANCH  29  30
ATOM     30  O   UNL     1      28.443  10.378  15.108  1.00  0.00    -0.394 OA
ATOM     31  H   UNL     1      27.461  10.253  15.025  1.00  0.00     0.210 HD
ENDBRANCH  29  30
ENDBRANCH  21  29
ENDBRANCH   1  17
TORSDOF 13
ENDMDL
MODEL 7
REMARK VINA RESULT:     2.709      2.572      4.947
REMARK INTER + INTRA:           3.341
REMARK INTER:                   4.701
REMARK INTRA:                  -1.361
REMARK UNBOUND:                -0.794
REMARK SMILES OC[C@H]1O[C@H](O[C@@]2(CO)O[C@H](CO)[C@H](O)[C@H]2O)[C@@H](O)[C@H](O)[C@H]1O
REMARK SMILES IDX 6 1 5 2 3 3 22 4 4 5 20 6 18 7 2 8 1 9 23 11 21 13 19 15
REMARK SMILES IDX 7 17 16 18 10 19 14 20 11 21 8 22 9 23 17 25 15 27 12 29
REMARK SMILES IDX 13 30
REMARK H PARENT 1 10 23 12 21 14 19 16 9 24 17 26 15 28 13 31
REMARK Flexibility Score: inf
ROOT
ATOM      1  O   UNL     1      20.921   5.928  17.092  1.00  0.00    -0.313 OA
ENDROOT
BRANCH   1   2
ATOM      2  C   UNL     1      21.960   6.848  16.764  1.00  0.00     0.285 C 
ATOM      3  C   UNL     1      23.690   5.304  16.419  1.00  0.00     0.178 C 
ATOM      4  C   UNL     1      24.255   5.927  15.112  1.00  0.00     0.177 C 
ATOM      5  O   UNL     1      23.186   6.324  17.264  1.00  0.00    -0.341 OA
ATOM      6  C   UNL     1      23.491   7.226  14.765  1.00  0.00     0.179 C 
ATOM      7  C   UNL     1      22.024   7.150  15.232  1.00  0.00     0.202 C 
BRANCH   3   8
ATOM      8  C   UNL     1      24.730   4.475  17.193  1.00  0.00     0.191 C 
BRANCH   8   9
ATOM      9  O   UNL     1      24.470   4.490  18.571  1.00  0.00    -0.394 OA
ATOM     10  H   UNL     1      24.866   3.661  18.946  1.00  0.00     0.210 HD
ENDBRANCH   8   9
ENDBRANCH   3   8
BRANCH   4  11
ATOM     11  O   UNL     1      25.626   6.215  15.238  1.00  0.00    -0.387 OA
ATOM     12  H   UNL     1      26.030   5.473  15.760  1.00  0.00     0.211 HD
ENDBRANCH   4  11
BRANCH   6  13
ATOM     13  O   UNL     1      23.582   7.515  13.391  1.00  0.00    -0.387 OA
ATOM     14  H   UNL     1      24.401   7.070  13.046  1.00  0.00     0.211 HD
ENDBRANCH   6  13
BRANCH   7  15
ATOM     15  O   UNL     1      21.385   8.374  14.964  1.00  0.00    -0.385 OA
ATOM     16  H   UNL     1      22.042   9.091  15.145  1.00  0.00     0.211 HD
ENDBRANCH   7  15
ENDBRANCH   1   2
BRANCH   1  17
ATOM     17  C   UNL     1      20.292   6.127  18.361  1.00  0.00     0.224 C 
ATOM     18  C   UNL     1      20.714   4.965  19.307  1.00  0.00     0.208 C 
ATOM     19  O   UNL     1      18.880   6.091  18.229  1.00  0.00    -0.337 OA
ATOM     20  C   UNL     1      19.409   4.503  19.918  1.00  0.00     0.180 C 
ATOM     21  C   UNL     1      18.404   4.917  18.847  1.00  0.00     0.179 C 
BRANCH  17  22
ATOM     22  C   UNL     1      20.692   7.476  19.012  1.00  0.00     0.225 C 
BRANCH  22  23
ATOM     23  O   UNL     1      21.208   7.261  20.301  1.00  0.00    -0.391 OA
ATOM     24  H   UNL     1      20.595   7.709  20.937  1.00  0.00     0.210 HD
ENDBRANCH  22  23
ENDBRANCH  17  22
BRANCH  18  25
ATOM     25  O   UNL     1      21.345   3.906  18.617  1.00  0.00    -0.385 OA
ATOM     26  H   UNL     1      21.341   4.121  17.648  1.00  0.00     0.211 HD
ENDBRANCH  18  25
BRANCH  20  27
ATOM     27  O   UNL     1      19.170   5.186  21.124  1.00  0.00    -0.387 OA
ATOM     28  H   UNL     1      18.551   4.620  21.657  1.00  0.00     0.211 HD
ENDBRANCH  20  27
BRANCH  21  29
ATOM     29  C   UNL     1      16.982   5.146  19.381  1.00  0.00     0.191 C 
BRANCH  29  30
ATOM     30  O   UNL     1      16.563   4.071  20.174  1.00  0.00    -0.394 OA
ATOM     31  H   UNL     1      16.731   3.246  19.644  1.00  0.00     0.210 HD
ENDBRANCH  29  30
ENDBRANCH  21  29
ENDBRANCH   1  17
TORSDOF 13
ENDMDL
MODEL 8
REMARK VINA RESULT:     2.888      2.143      6.436
REMARK INTER + INTRA:           3.613
REMARK INTER:                   1.461
REMARK INTRA:                   2.152
REMARK UNBOUND:                -0.794
REMARK SMILES OC[C@H]1O[C@H](O[C@@]2(CO)O[C@H](CO)[C@H](O)[C@H]2O)[C@@H](O)[C@H](O)[C@H]1O
REMARK SMILES IDX 6 1 5 2 3 3 22 4 4 5 20 6 18 7 2 8 1 9 23 11 21 13 19 15
REMARK SMILES IDX 7 17 16 18 10 19 14 20 11 21 8 22 9 23 17 25 15 27 12 29
REMARK SMILES IDX 13 30
REMARK H PARENT 1 10 23 12 21 14 19 16 9 24 17 26 15 28 13 31
REMARK Flexibility Score: inf
ROOT
ATOM      1  O   UNL     1      21.425   7.877  16.722  1.00  0.00    -0.313 OA
ENDROOT
BRANCH   1   2
ATOM      2  C   UNL     1      20.778   6.607  16.725  1.00  0.00     0.285 C 
ATOM      3  C   UNL     1      21.554   5.829  18.796  1.00  0.00     0.178 C 
ATOM      4  C   UNL     1      20.202   5.268  19.317  1.00  0.00     0.177 C 
ATOM      5  O   UNL     1      21.630   5.679  17.388  1.00  0.00    -0.341 OA
ATOM      6  C   UNL     1      19.107   5.419  18.234  1.00  0.00     0.179 C 
ATOM      7  C   UNL     1      19.353   6.667  17.365  1.00  0.00     0.202 C 
BRANCH   3   8
ATOM      8  C   UNL     1      22.777   5.155  19.442  1.00  0.00     0.191 C 
BRANCH   8   9
ATOM      9  O   UNL     1      23.695   4.727  18.471  1.00  0.00    -0.394 OA
ATOM     10  H   UNL     1      23.173   4.258  17.770  1.00  0.00     0.210 HD
ENDBRANCH   8   9
ENDBRANCH   3   8
BRANCH   4  11
ATOM     11  O   UNL     1      20.317   3.912  19.674  1.00  0.00    -0.387 OA
ATOM     12  H   UNL     1      20.505   3.409  18.839  1.00  0.00     0.211 HD
ENDBRANCH   4  11
BRANCH   6  13
ATOM     13  O   UNL     1      17.824   5.436  18.812  1.00  0.00    -0.387 OA
ATOM     14  H   UNL     1      17.493   4.499  18.833  1.00  0.00     0.211 HD
ENDBRANCH   6  13
BRANCH   7  15
ATOM     15  O   UNL     1      18.381   6.728  16.350  1.00  0.00    -0.385 OA
ATOM     16  H   UNL     1      18.861   6.713  15.486  1.00  0.00     0.211 HD
ENDBRANCH   7  15
ENDBRANCH   1   2
BRANCH   1  17
ATOM     17  C   UNL     1      22.172   8.193  15.544  1.00  0.00     0.224 C 
ATOM     18  C   UNL     1      22.150   6.956  14.601  1.00  0.00     0.208 C 
ATOM     19  O   UNL     1      23.525   8.469  15.871  1.00  0.00    -0.337 OA
ATOM     20  C   UNL     1      23.598   6.783  14.195  1.00  0.00     0.180 C 
ATOM     21  C   UNL     1      24.326   7.420  15.375  1.00  0.00     0.179 C 
BRANCH  17  22
ATOM     22  C   UNL     1      21.589   9.415  14.787  1.00  0.00     0.225 C 
BRANCH  22  23
ATOM     23  O   UNL     1      22.540  10.447  14.725  1.00  0.00    -0.391 OA
ATOM     24  H   UNL     1      22.038  11.299  14.659  1.00  0.00     0.210 HD
ENDBRANCH  22  23
ENDBRANCH  17  22
BRANCH  18  25
ATOM     25  O   UNL     1      21.669   5.793  15.242  1.00  0.00    -0.385 OA
ATOM     26  H   UNL     1      22.344   5.074  15.129  1.00  0.00     0.211 HD
ENDBRANCH  18  25
BRANCH  20  27
ATOM     27  O   UNL     1      23.855   7.488  13.005  1.00  0.00    -0.387 OA
ATOM     28  H   UNL     1      22.986   7.863  12.701  1.00  0.00     0.211 HD
ENDBRANCH  20  27
BRANCH  21  29
ATOM     29  C   UNL     1      25.727   7.949  15.033  1.00  0.00     0.191 C 
BRANCH  29  30
ATOM     30  O   UNL     1      25.684   9.309  14.701  1.00  0.00    -0.394 OA
ATOM     31  H   UNL     1      26.377   9.758  15.255  1.00  0.00     0.210 HD
ENDBRANCH  29  30
ENDBRANCH  21  29
ENDBRANCH   1  17
TORSDOF 13
ENDMDL
MODEL 9
REMARK VINA RESULT:     2.993      1.686      5.654
REMARK INTER + INTRA:           3.773
REMARK INTER:                   3.303
REMARK INTRA:                   0.470
REMARK UNBOUND:                -0.794
REMARK SMILES OC[C@H]1O[C@H](O[C@@]2(CO)O[C@H](CO)[C@H](O)[C@H]2O)[C@@H](O)[C@H](O)[C@H]1O
REMARK SMILES IDX 6 1 5 2 3 3 22 4 4 5 20 6 18 7 2 8 1 9 23 11 21 13 19 15
REMARK SMILES IDX 7 17 16 18 10 19 14 20 11 21 8 22 9 23 17 25 15 27 12 29
REMARK SMILES IDX 13 30
REMARK H PARENT 1 10 23 12 21 14 19 16 9 24 17 26 15 28 13 31
REMARK Flexibility Score: inf
ROOT
ATOM      1  O   UNL     1      23.855   5.708  15.510  1.00  0.00    -0.313 OA
ENDROOT
BRANCH   1   2
ATOM      2  C   UNL     1      23.358   6.113  16.783  1.00  0.00     0.285 C 
ATOM      3  C   UNL     1      21.096   6.344  16.211  1.00  0.00     0.178 C 
ATOM      4  C   UNL     1      20.502   5.625  17.455  1.00  0.00     0.177 C 
ATOM      5  O   UNL     1      22.286   7.026  16.568  1.00  0.00    -0.341 OA
ATOM      6  C   UNL     1      21.633   5.221  18.430  1.00  0.00     0.179 C 
ATOM      7  C   UNL     1      22.933   4.897  17.669  1.00  0.00     0.202 C 
BRANCH   3   8
ATOM      8  C   UNL     1      20.118   7.340  15.564  1.00  0.00     0.191 C 
BRANCH   8   9
ATOM      9  O   UNL     1      20.783   8.494  15.124  1.00  0.00    -0.394 OA
ATOM     10  H   UNL     1      21.755   8.300  15.172  1.00  0.00     0.210 HD
ENDBRANCH   8   9
ENDBRANCH   3   8
BRANCH   4  11
ATOM     11  O   UNL     1      19.583   6.451  18.128  1.00  0.00    -0.387 OA
ATOM     12  H   UNL     1      18.769   6.498  17.563  1.00  0.00     0.211 HD
ENDBRANCH   4  11
BRANCH   6  13
ATOM     13  O   UNL     1      21.234   4.150  19.250  1.00  0.00    -0.387 OA
ATOM     14  H   UNL     1      21.154   3.345  18.674  1.00  0.00     0.211 HD
ENDBRANCH   6  13
BRANCH   7  15
ATOM     15  O   UNL     1      23.954   4.605  18.592  1.00  0.00    -0.385 OA
ATOM     16  H   UNL     1      23.522   4.206  19.386  1.00  0.00     0.211 HD
ENDBRANCH   7  15
ENDBRANCH   1   2
BRANCH   1  17
ATOM     17  C   UNL     1      24.383   6.753  14.687  1.00  0.00     0.224 C 
ATOM     18  C   UNL     1      25.849   7.033  15.127  1.00  0.00     0.208 C 
ATOM     19  O   UNL     1      23.639   7.948  14.861  1.00  0.00    -0.337 OA
ATOM     20  C   UNL     1      25.908   8.540  15.250  1.00  0.00     0.180 C 
ATOM     21  C   UNL     1      24.449   8.884  15.534  1.00  0.00     0.179 C 
BRANCH  17  22
ATOM     22  C   UNL     1      24.372   6.379  13.182  1.00  0.00     0.225 C 
BRANCH  22  23
ATOM     23  O   UNL     1      23.994   7.490  12.408  1.00  0.00    -0.391 OA
ATOM     24  H   UNL     1      23.081   7.309  12.069  1.00  0.00     0.210 HD
ENDBRANCH  22  23
ENDBRANCH  17  22
BRANCH  18  25
ATOM     25  O   UNL     1      26.173   6.419  16.357  1.00  0.00    -0.385 OA
ATOM     26  H   UNL     1      26.304   5.448  16.194  1.00  0.00     0.211 HD
ENDBRANCH  18  25
BRANCH  20  27
ATOM     27  O   UNL     1      26.332   9.109  14.035  1.00  0.00    -0.387 OA
ATOM     28  H   UNL     1      25.858   8.622  13.309  1.00  0.00     0.211 HD
ENDBRANCH  20  27
BRANCH  21  29
ATOM     29  C   UNL     1      24.052  10.310  15.125  1.00  0.00     0.191 C 
BRANCH  29  30
ATOM     30  O   UNL     1      22.662  10.428  14.997  1.00  0.00    -0.394 OA
ATOM     31  H   UNL     1      22.266  10.000  15.803  1.00  0.00     0.210 HD
ENDBRANCH  29  30
ENDBRANCH  21  29
ENDBRANCH   1  17
TORSDOF 13
ENDMDL
