MODEL 1
REMARK VINA RESULT:    -1.981      0.000      0.000
REMARK INTER + INTRA:          -6.263
REMARK INTER:                  -4.530
REMARK INTRA:                  -1.733
REMARK UNBOUND:                -1.733
REMARK SMILES CCCCCCCCCCCCCCCCCCCCCCCC(=O)[O-]
REMARK SMILES IDX 13 1 14 2 15 3 16 4 17 5 18 6 19 7 20 8 21 9 22 10 23 11
REMARK SMILES IDX 24 12 25 13 26 14 12 15 11 16 10 17 9 18 8 19 7 20 6 21 5 22
REMARK SMILES IDX 4 23 3 24 2 25 1 26
REMARK H PARENT
REMARK Flexibility Score: inf
ROOT
ATOM      1  C   UNL     1     -16.037  12.823   8.758  1.00  0.00     0.000 C 
ENDROOT
BRANCH   1   2
ATOM      2  C   UNL     1     -16.554  11.442   8.302  1.00  0.00     0.000 C 
BRANCH   2   3
ATOM      3  C   UNL     1     -15.415  10.521   7.828  1.00  0.00     0.000 C 
BRANCH   3   4
ATOM      4  C   UNL     1     -15.529  10.161   6.337  1.00  0.00     0.000 C 
BRANCH   4   5
ATOM      5  C   UNL     1     -14.215  10.390   5.573  1.00  0.00     0.000 C 
BRANCH   5   6
ATOM      6  C   UNL     1     -14.177   9.556   4.283  1.00  0.00     0.000 C 
BRANCH   6   7
ATOM      7  C   UNL     1     -12.986   9.917   3.379  1.00  0.00     0.000 C 
BRANCH   7   8
ATOM      8  C   UNL     1     -13.390  10.071   1.905  1.00  0.00     0.000 C 
BRANCH   8   9
ATOM      9  C   UNL     1     -12.923   8.863   1.077  1.00  0.00     0.000 C 
BRANCH   9  10
ATOM     10  C   UNL     1     -14.092   7.976   0.621  1.00  0.00     0.006 C 
BRANCH  10  11
ATOM     11  C   UNL     1     -13.621   6.679  -0.049  1.00  0.00     0.053 C 
BRANCH  11  12
ATOM     12  C   UNL     1     -14.796   5.842  -0.449  1.00  0.00     0.041 C 
ATOM     13  O   UNL     1     -15.883   5.932   0.180  1.00  0.00    -0.550 OA
ATOM     14  O   UNL     1     -14.705   4.996  -1.546  1.00  0.00    -0.550 OA
ENDBRANCH  11  12
ENDBRANCH  10  11
ENDBRANCH   9  10
ENDBRANCH   8   9
ENDBRANCH   7   8
ENDBRANCH   6   7
ENDBRANCH   5   6
ENDBRANCH   4   5
ENDBRANCH   3   4
ENDBRANCH   2   3
ENDBRANCH   1   2
BRANCH   1  15
ATOM     15  C   UNL     1     -14.522  12.861   9.021  1.00  0.00     0.000 C 
BRANCH  15  16
ATOM     16  C   UNL     1     -14.167  13.495  10.376  1.00  0.00     0.000 C 
BRANCH  16  17
ATOM     17  C   UNL     1     -15.338  13.460  11.368  1.00  0.00     0.000 C 
BRANCH  17  18
ATOM     18  C   UNL     1     -15.247  12.274  12.345  1.00  0.00    -0.000 C 
BRANCH  18  19
ATOM     19  C   UNL     1     -16.197  11.126  11.965  1.00  0.00    -0.000 C 
BRANCH  19  20
ATOM     20  C   UNL     1     -15.927   9.846  12.779  1.00  0.00    -0.000 C 
BRANCH  20  21
ATOM     21  C   UNL     1     -16.637   8.616  12.194  1.00  0.00    -0.000 C 
BRANCH  21  22
ATOM     22  C   UNL     1     -16.091   8.208  10.814  1.00  0.00    -0.000 C 
BRANCH  22  23
ATOM     23  C   UNL     1     -15.446   6.805  10.838  1.00  0.00    -0.000 C 
BRANCH  23  24
ATOM     24  C   UNL     1     -14.229   6.700  11.776  1.00  0.00    -0.000 C 
BRANCH  24  25
ATOM     25  C   UNL     1     -13.581   5.309  11.765  1.00  0.00    -0.003 C 
ATOM     26  C   UNL     1     -14.636   4.208  11.759  1.00  0.00     0.004 C 
ENDBRANCH  24  25
ENDBRANCH  23  24
ENDBRANCH  22  23
ENDBRANCH  21  22
ENDBRANCH  20  21
ENDBRANCH  19  20
ENDBRANCH  18  19
ENDBRANCH  17  18
ENDBRANCH  16  17
ENDBRANCH  15  16
ENDBRANCH   1  15
TORSDOF 22
ENDMDL
MODEL 2
REMARK VINA RESULT:    -1.789      1.327      2.272
REMARK INTER + INTRA:          -5.824
REMARK INTER:                  -3.618
REMARK INTRA:                  -2.206
REMARK UNBOUND:                -1.733
REMARK SMILES CCCCCCCCCCCCCCCCCCCCCCCC(=O)[O-]
REMARK SMILES IDX 13 1 14 2 15 3 16 4 17 5 18 6 19 7 20 8 21 9 22 10 23 11
REMARK SMILES IDX 24 12 25 13 26 14 12 15 11 16 10 17 9 18 8 19 7 20 6 21 5 22
REMARK SMILES IDX 4 23 3 24 2 25 1 26
REMARK H PARENT
REMARK Flexibility Score: inf
ROOT
ATOM      1  C   UNL     1     -14.299  12.776   8.826  1.00  0.00     0.000 C 
ENDROOT
BRANCH   1   2
ATOM      2  C   UNL     1     -15.255  13.186   7.685  1.00  0.00     0.000 C 
BRANCH   2   3
ATOM      3  C   UNL     1     -16.655  12.570   7.847  1.00  0.00     0.000 C 
BRANCH   3   4
ATOM      4  C   UNL     1     -16.902  11.402   6.878  1.00  0.00     0.000 C 
BRANCH   4   5
ATOM      5  C   UNL     1     -16.564  10.038   7.498  1.00  0.00     0.000 C 
BRANCH   5   6
ATOM      6  C   UNL     1     -15.242   9.492   6.938  1.00  0.00     0.000 C 
BRANCH   6   7
ATOM      7  C   UNL     1     -14.697  10.338   5.774  1.00  0.00     0.000 C 
BRANCH   7   8
ATOM      8  C   UNL     1     -14.211   9.480   4.597  1.00  0.00     0.000 C 
BRANCH   8   9
ATOM      9  C   UNL     1     -13.006  10.131   3.900  1.00  0.00     0.000 C 
BRANCH   9  10
ATOM     10  C   UNL     1     -13.117  10.086   2.368  1.00  0.00     0.006 C 
BRANCH  10  11
ATOM     11  C   UNL     1     -14.062   8.982   1.878  1.00  0.00     0.053 C 
BRANCH  11  12
ATOM     12  C   UNL     1     -13.471   8.276   0.698  1.00  0.00     0.041 C 
ATOM     13  O   UNL     1     -13.860   7.119   0.390  1.00  0.00    -0.550 OA
ATOM     14  O   UNL     1     -12.521   8.914  -0.089  1.00  0.00    -0.550 OA
ENDBRANCH  11  12
ENDBRANCH  10  11
ENDBRANCH   9  10
ENDBRANCH   8   9
ENDBRANCH   7   8
ENDBRANCH   6   7
ENDBRANCH   5   6
ENDBRANCH   4   5
ENDBRANCH   3   4
ENDBRANCH   2   3
ENDBRANCH   1   2
BRANCH   1  15
ATOM     15  C   UNL     1     -13.935  13.932   9.773  1.00  0.00     0.000 C 
BRANCH  15  16
ATOM     16  C   UNL     1     -14.363  13.672  11.226  1.00  0.00     0.000 C 
BRANCH  16  17
ATOM     17  C   UNL     1     -15.879  13.472  11.367  1.00  0.00     0.000 C 
BRANCH  17  18
ATOM     18  C   UNL     1     -16.262  12.782  12.688  1.00  0.00    -0.000 C 
BRANCH  18  19
ATOM     19  C   UNL     1     -16.245  11.249  12.576  1.00  0.00    -0.000 C 
BRANCH  19  20
ATOM     20  C   UNL     1     -16.448  10.764  11.127  1.00  0.00    -0.000 C 
BRANCH  20  21
ATOM     21  C   UNL     1     -16.896   9.296  11.055  1.00  0.00    -0.000 C 
BRANCH  21  22
ATOM     22  C   UNL     1     -16.370   8.450  12.228  1.00  0.00    -0.000 C 
BRANCH  22  23
ATOM     23  C   UNL     1     -16.207   6.964  11.842  1.00  0.00    -0.000 C 
BRANCH  23  24
ATOM     24  C   UNL     1     -15.003   6.693  10.921  1.00  0.00    -0.000 C 
BRANCH  24  25
ATOM     25  C   UNL     1     -13.747   6.257  11.689  1.00  0.00    -0.003 C 
ATOM     26  C   UNL     1     -13.594   4.739  11.681  1.00  0.00     0.004 C 
ENDBRANCH  24  25
ENDBRANCH  23  24
ENDBRANCH  22  23
ENDBRANCH  21  22
ENDBRANCH  20  21
ENDBRANCH  19  20
ENDBRANCH  18  19
ENDBRANCH  17  18
ENDBRANCH  16  17
ENDBRANCH  15  16
ENDBRANCH   1  15
TORSDOF 22
ENDMDL
MODEL 3
REMARK VINA RESULT:    -1.746      3.609      9.812
REMARK INTER + INTRA:          -5.725
REMARK INTER:                  -3.663
REMARK INTRA:                  -2.062
REMARK UNBOUND:                -1.733
REMARK SMILES CCCCCCCCCCCCCCCCCCCCCCCC(=O)[O-]
REMARK SMILES IDX 13 1 14 2 15 3 16 4 17 5 18 6 19 7 20 8 21 9 22 10 23 11
REMARK SMILES IDX 24 12 25 13 26 14 12 15 11 16 10 17 9 18 8 19 7 20 6 21 5 22
REMARK SMILES IDX 4 23 3 24 2 25 1 26
REMARK H PARENT
REMARK Flexibility Score: inf
ROOT
ATOM      1  C   UNL     1     -15.890   7.906   9.306  1.00  0.00     0.000 C 
ENDROOT
BRANCH   1   2
ATOM      2  C   UNL     1     -16.919   6.982   9.991  1.00  0.00     0.000 C 
BRANCH   2   3
ATOM      3  C   UNL     1     -16.278   6.098  11.075  1.00  0.00     0.000 C 
BRANCH   3   4
ATOM      4  C   UNL     1     -15.010   6.727  11.677  1.00  0.00     0.000 C 
BRANCH   4   5
ATOM      5  C   UNL     1     -15.236   7.268  13.097  1.00  0.00     0.000 C 
BRANCH   5   6
ATOM      6  C   UNL     1     -15.326   8.801  13.094  1.00  0.00     0.000 C 
BRANCH   6   7
ATOM      7  C   UNL     1     -16.776   9.310  13.015  1.00  0.00     0.000 C 
BRANCH   7   8
ATOM      8  C   UNL     1     -17.006  10.251  11.824  1.00  0.00     0.000 C 
BRANCH   8   9
ATOM      9  C   UNL     1     -16.856  11.721  12.245  1.00  0.00     0.000 C 
BRANCH   9  10
ATOM     10  C   UNL     1     -15.582  12.368  11.680  1.00  0.00     0.006 C 
BRANCH  10  11
ATOM     11  C   UNL     1     -15.771  12.890  10.250  1.00  0.00     0.053 C 
BRANCH  11  12
ATOM     12  C   UNL     1     -14.501  13.502   9.746  1.00  0.00     0.041 C 
ATOM     13  O   UNL     1     -14.150  13.343   8.547  1.00  0.00    -0.550 OA
ATOM     14  O   UNL     1     -13.727  14.287  10.590  1.00  0.00    -0.550 OA
ENDBRANCH  11  12
ENDBRANCH  10  11
ENDBRANCH   9  10
ENDBRANCH   8   9
ENDBRANCH   7   8
ENDBRANCH   6   7
ENDBRANCH   5   6
ENDBRANCH   4   5
ENDBRANCH   3   4
ENDBRANCH   2   3
ENDBRANCH   1   2
BRANCH   1  15
ATOM     15  C   UNL     1     -16.523   8.950   8.370  1.00  0.00     0.000 C 
BRANCH  15  16
ATOM     16  C   UNL     1     -15.518  10.009   7.888  1.00  0.00     0.000 C 
BRANCH  16  17
ATOM     17  C   UNL     1     -15.584  10.237   6.371  1.00  0.00     0.000 C 
BRANCH  17  18
ATOM     18  C   UNL     1     -14.193  10.230   5.713  1.00  0.00    -0.000 C 
BRANCH  18  19
ATOM     19  C   UNL     1     -14.196   9.530   4.344  1.00  0.00    -0.000 C 
BRANCH  19  20
ATOM     20  C   UNL     1     -12.995   9.943   3.471  1.00  0.00    -0.000 C 
BRANCH  20  21
ATOM     21  C   UNL     1     -13.247   9.706   1.973  1.00  0.00    -0.000 C 
BRANCH  21  22
ATOM     22  C   UNL     1     -14.370   8.688   1.708  1.00  0.00    -0.000 C 
BRANCH  22  23
ATOM     23  C   UNL     1     -14.014   7.720   0.559  1.00  0.00    -0.000 C 
BRANCH  23  24
ATOM     24  C   UNL     1     -15.136   6.721   0.222  1.00  0.00    -0.000 C 
BRANCH  24  25
ATOM     25  C   UNL     1     -14.683   5.611  -0.737  1.00  0.00    -0.003 C 
ATOM     26  C   UNL     1     -13.164   5.577  -0.865  1.00  0.00     0.004 C 
ENDBRANCH  24  25
ENDBRANCH  23  24
ENDBRANCH  22  23
ENDBRANCH  21  22
ENDBRANCH  20  21
ENDBRANCH  19  20
ENDBRANCH  18  19
ENDBRANCH  17  18
ENDBRANCH  16  17
ENDBRANCH  15  16
ENDBRANCH   1  15
TORSDOF 22
ENDMDL
MODEL 4
REMARK VINA RESULT:    -1.699      1.175      4.279
REMARK INTER + INTRA:          -5.617
REMARK INTER:                  -3.549
REMARK INTRA:                  -2.068
REMARK UNBOUND:                -1.733
REMARK SMILES CCCCCCCCCCCCCCCCCCCCCCCC(=O)[O-]
REMARK SMILES IDX 13 1 14 2 15 3 16 4 17 5 18 6 19 7 20 8 21 9 22 10 23 11
REMARK SMILES IDX 24 12 25 13 26 14 12 15 11 16 10 17 9 18 8 19 7 20 6 21 5 22
REMARK SMILES IDX 4 23 3 24 2 25 1 26
REMARK H PARENT
REMARK Flexibility Score: inf
ROOT
ATOM      1  C   UNL     1     -15.682   8.780   9.066  1.00  0.00     0.000 C 
ENDROOT
BRANCH   1   2
ATOM      2  C   UNL     1     -16.327  10.092   8.571  1.00  0.00     0.000 C 
BRANCH   2   3
ATOM      3  C   UNL     1     -15.399  10.879   7.628  1.00  0.00     0.000 C 
BRANCH   3   4
ATOM      4  C   UNL     1     -15.594  10.495   6.152  1.00  0.00     0.000 C 
BRANCH   4   5
ATOM      5  C   UNL     1     -14.501   9.544   5.640  1.00  0.00     0.000 C 
BRANCH   5   6
ATOM      6  C   UNL     1     -13.750  10.160   4.450  1.00  0.00     0.000 C 
BRANCH   6   7
ATOM      7  C   UNL     1     -13.878   9.318   3.169  1.00  0.00     0.000 C 
BRANCH   7   8
ATOM      8  C   UNL     1     -13.129   9.937   1.979  1.00  0.00     0.000 C 
BRANCH   8   9
ATOM      9  C   UNL     1     -13.075   8.961   0.793  1.00  0.00     0.000 C 
BRANCH   9  10
ATOM     10  C   UNL     1     -14.274   8.000   0.767  1.00  0.00     0.006 C 
BRANCH  10  11
ATOM     11  C   UNL     1     -13.970   6.698   0.015  1.00  0.00     0.053 C 
BRANCH  11  12
ATOM     12  C   UNL     1     -15.236   5.950  -0.264  1.00  0.00     0.041 C 
ATOM     13  O   UNL     1     -15.203   4.854  -0.885  1.00  0.00    -0.550 OA
ATOM     14  O   UNL     1     -16.449   6.439   0.203  1.00  0.00    -0.550 OA
ENDBRANCH  11  12
ENDBRANCH  10  11
ENDBRANCH   9  10
ENDBRANCH   8   9
ENDBRANCH   7   8
ENDBRANCH   6   7
ENDBRANCH   5   6
ENDBRANCH   4   5
ENDBRANCH   3   4
ENDBRANCH   2   3
ENDBRANCH   1   2
BRANCH   1  15
ATOM     15  C   UNL     1     -16.526   7.528   8.776  1.00  0.00     0.000 C 
BRANCH  15  16
ATOM     16  C   UNL     1     -16.678   6.613  10.003  1.00  0.00     0.000 C 
BRANCH  16  17
ATOM     17  C   UNL     1     -15.452   6.659  10.927  1.00  0.00     0.000 C 
BRANCH  17  18
ATOM     18  C   UNL     1     -15.827   6.965  12.388  1.00  0.00    -0.000 C 
BRANCH  18  19
ATOM     19  C   UNL     1     -15.706   8.461  12.723  1.00  0.00    -0.000 C 
BRANCH  19  20
ATOM     20  C   UNL     1     -17.051   9.202  12.593  1.00  0.00    -0.000 C 
BRANCH  20  21
ATOM     21  C   UNL     1     -16.930  10.702  12.906  1.00  0.00    -0.000 C 
BRANCH  21  22
ATOM     22  C   UNL     1     -16.016  11.449  11.918  1.00  0.00    -0.000 C 
BRANCH  22  23
ATOM     23  C   UNL     1     -16.566  12.847  11.565  1.00  0.00    -0.000 C 
BRANCH  23  24
ATOM     24  C   UNL     1     -15.498  13.956  11.587  1.00  0.00    -0.000 C 
BRANCH  24  25
ATOM     25  C   UNL     1     -14.151  13.503  11.007  1.00  0.00    -0.003 C 
ATOM     26  C   UNL     1     -14.119  13.670   9.491  1.00  0.00     0.004 C 
ENDBRANCH  24  25
ENDBRANCH  23  24
ENDBRANCH  22  23
ENDBRANCH  21  22
ENDBRANCH  20  21
ENDBRANCH  19  20
ENDBRANCH  18  19
ENDBRANCH  17  18
ENDBRANCH  16  17
ENDBRANCH  15  16
ENDBRANCH   1  15
TORSDOF 22
ENDMDL
MODEL 5
REMARK VINA RESULT:    -1.330      3.388      8.918
REMARK INTER + INTRA:          -4.773
REMARK INTER:                  -3.110
REMARK INTRA:                  -1.663
REMARK UNBOUND:                -1.733
REMARK SMILES CCCCCCCCCCCCCCCCCCCCCCCC(=O)[O-]
REMARK SMILES IDX 13 1 14 2 15 3 16 4 17 5 18 6 19 7 20 8 21 9 22 10 23 11
REMARK SMILES IDX 24 12 25 13 26 14 12 15 11 16 10 17 9 18 8 19 7 20 6 21 5 22
REMARK SMILES IDX 4 23 3 24 2 25 1 26
REMARK H PARENT
REMARK Flexibility Score: inf
ROOT
ATOM      1  C   UNL     1     -13.903  13.619   8.299  1.00  0.00     0.000 C 
ENDROOT
BRANCH   1   2
ATOM      2  C   UNL     1     -14.101  13.256   9.786  1.00  0.00     0.000 C 
BRANCH   2   3
ATOM      3  C   UNL     1     -14.258  14.502  10.675  1.00  0.00     0.000 C 
BRANCH   3   4
ATOM      4  C   UNL     1     -14.258  14.161  12.174  1.00  0.00     0.000 C 
BRANCH   4   5
ATOM      5  C   UNL     1     -15.073  12.898  12.493  1.00  0.00     0.000 C 
BRANCH   5   6
ATOM      6  C   UNL     1     -16.470  12.970  11.858  1.00  0.00     0.000 C 
BRANCH   6   7
ATOM      7  C   UNL     1     -17.033  11.582  11.506  1.00  0.00     0.000 C 
BRANCH   7   8
ATOM      8  C   UNL     1     -16.277  10.444  12.208  1.00  0.00     0.000 C 
BRANCH   8   9
ATOM      9  C   UNL     1     -16.717   9.074  11.666  1.00  0.00     0.000 C 
BRANCH   9  10
ATOM     10  C   UNL     1     -16.696   9.014  10.131  1.00  0.00     0.006 C 
BRANCH  10  11
ATOM     11  C   UNL     1     -15.651   8.027   9.594  1.00  0.00     0.053 C 
BRANCH  11  12
ATOM     12  C   UNL     1     -15.494   6.873  10.534  1.00  0.00     0.041 C 
ATOM     13  O   UNL     1     -16.416   6.024  10.657  1.00  0.00    -0.550 OA
ATOM     14  O   UNL     1     -14.310   6.709  11.241  1.00  0.00    -0.550 OA
ENDBRANCH  11  12
ENDBRANCH  10  11
ENDBRANCH   9  10
ENDBRANCH   8   9
ENDBRANCH   7   8
ENDBRANCH   6   7
ENDBRANCH   5   6
ENDBRANCH   4   5
ENDBRANCH   3   4
ENDBRANCH   2   3
ENDBRANCH   1   2
BRANCH   1  15
ATOM     15  C   UNL     1     -14.941  12.980   7.362  1.00  0.00     0.000 C 
BRANCH  15  16
ATOM     16  C   UNL     1     -15.542  11.684   7.930  1.00  0.00     0.000 C 
BRANCH  16  17
ATOM     17  C   UNL     1     -16.244  10.840   6.857  1.00  0.00     0.000 C 
BRANCH  17  18
ATOM     18  C   UNL     1     -15.351   9.705   6.323  1.00  0.00    -0.000 C 
BRANCH  18  19
ATOM     19  C   UNL     1     -14.184  10.229   5.470  1.00  0.00    -0.000 C 
BRANCH  19  20
ATOM     20  C   UNL     1     -14.037   9.464   4.141  1.00  0.00    -0.000 C 
BRANCH  20  21
ATOM     21  C   UNL     1     -13.021  10.119   3.193  1.00  0.00    -0.000 C 
BRANCH  21  22
ATOM     22  C   UNL     1     -13.085   9.554   1.763  1.00  0.00    -0.000 C 
BRANCH  22  23
ATOM     23  C   UNL     1     -14.236   8.539   1.592  1.00  0.00    -0.000 C 
BRANCH  23  24
ATOM     24  C   UNL     1     -14.260   7.858   0.212  1.00  0.00    -0.000 C 
BRANCH  24  25
ATOM     25  C   UNL     1     -14.280   6.326   0.298  1.00  0.00    -0.003 C 
ATOM     26  C   UNL     1     -13.666   5.694  -0.947  1.00  0.00     0.004 C 
ENDBRANCH  24  25
ENDBRANCH  23  24
ENDBRANCH  22  23
ENDBRANCH  21  22
ENDBRANCH  20  21
ENDBRANCH  19  20
ENDBRANCH  18  19
ENDBRANCH  17  18
ENDBRANCH  16  17
ENDBRANCH  15  16
ENDBRANCH   1  15
TORSDOF 22
ENDMDL
MODEL 6
REMARK VINA RESULT:    -1.303      3.504      9.754
REMARK INTER + INTRA:          -4.712
REMARK INTER:                  -3.186
REMARK INTRA:                  -1.526
REMARK UNBOUND:                -1.733
REMARK SMILES CCCCCCCCCCCCCCCCCCCCCCCC(=O)[O-]
REMARK SMILES IDX 13 1 14 2 15 3 16 4 17 5 18 6 19 7 20 8 21 9 22 10 23 11
REMARK SMILES IDX 24 12 25 13 26 14 12 15 11 16 10 17 9 18 8 19 7 20 6 21 5 22
REMARK SMILES IDX 4 23 3 24 2 25 1 26
REMARK H PARENT
REMARK Flexibility Score: inf
ROOT
ATOM      1  C   UNL     1     -14.856  11.323   8.679  1.00  0.00     0.000 C 
ENDROOT
BRANCH   1   2
ATOM      2  C   UNL     1     -14.705  12.831   8.388  1.00  0.00     0.000 C 
BRANCH   2   3
ATOM      3  C   UNL     1     -14.443  13.649   9.665  1.00  0.00     0.000 C 
BRANCH   3   4
ATOM      4  C   UNL     1     -14.948  12.940  10.933  1.00  0.00     0.000 C 
BRANCH   4   5
ATOM      5  C   UNL     1     -16.353  13.404  11.349  1.00  0.00     0.000 C 
BRANCH   5   6
ATOM      6  C   UNL     1     -17.104  12.287  12.090  1.00  0.00     0.000 C 
BRANCH   6   7
ATOM      7  C   UNL     1     -16.223  11.053  12.350  1.00  0.00     0.000 C 
BRANCH   7   8
ATOM      8  C   UNL     1     -17.021   9.867  12.911  1.00  0.00     0.000 C 
BRANCH   8   9
ATOM      9  C   UNL     1     -17.122   8.732  11.879  1.00  0.00     0.000 C 
BRANCH   9  10
ATOM     10  C   UNL     1     -15.785   8.001  11.676  1.00  0.00     0.006 C 
BRANCH  10  11
ATOM     11  C   UNL     1     -15.664   6.743  12.546  1.00  0.00     0.053 C 
BRANCH  11  12
ATOM     12  C   UNL     1     -14.931   5.667  11.807  1.00  0.00     0.041 C 
ATOM     13  O   UNL     1     -13.782   5.887  11.341  1.00  0.00    -0.550 OA
ATOM     14  O   UNL     1     -15.498   4.406  11.672  1.00  0.00    -0.550 OA
ENDBRANCH  11  12
ENDBRANCH  10  11
ENDBRANCH   9  10
ENDBRANCH   8   9
ENDBRANCH   7   8
ENDBRANCH   6   7
ENDBRANCH   5   6
ENDBRANCH   4   5
ENDBRANCH   3   4
ENDBRANCH   2   3
ENDBRANCH   1   2
BRANCH   1  15
ATOM     15  C   UNL     1     -15.741  10.583   7.662  1.00  0.00     0.000 C 
BRANCH  15  16
ATOM     16  C   UNL     1     -15.327  10.846   6.205  1.00  0.00     0.000 C 
BRANCH  16  17
ATOM     17  C   UNL     1     -14.814   9.581   5.501  1.00  0.00     0.000 C 
BRANCH  17  18
ATOM     18  C   UNL     1     -13.685   9.882   4.499  1.00  0.00    -0.000 C 
BRANCH  18  19
ATOM     19  C   UNL     1     -13.993   9.348   3.090  1.00  0.00    -0.000 C 
BRANCH  19  20
ATOM     20  C   UNL     1     -12.996   9.866   2.036  1.00  0.00    -0.000 C 
BRANCH  20  21
ATOM     21  C   UNL     1     -13.138   9.143   0.687  1.00  0.00    -0.000 C 
BRANCH  21  22
ATOM     22  C   UNL     1     -14.064   7.915   0.759  1.00  0.00    -0.000 C 
BRANCH  22  23
ATOM     23  C   UNL     1     -13.598   6.782  -0.180  1.00  0.00    -0.000 C 
BRANCH  23  24
ATOM     24  C   UNL     1     -14.655   5.685  -0.397  1.00  0.00    -0.000 C 
BRANCH  24  25
ATOM     25  C   UNL     1     -16.071   6.129  -0.004  1.00  0.00    -0.003 C 
ATOM     26  C   UNL     1     -17.125   5.191  -0.583  1.00  0.00     0.004 C 
ENDBRANCH  24  25
ENDBRANCH  23  24
ENDBRANCH  22  23
ENDBRANCH  21  22
ENDBRANCH  20  21
ENDBRANCH  19  20
ENDBRANCH  18  19
ENDBRANCH  17  18
ENDBRANCH  16  17
ENDBRANCH  15  16
ENDBRANCH   1  15
TORSDOF 22
ENDMDL
MODEL 7
REMARK VINA RESULT:    -1.125      1.066      1.568
REMARK INTER + INTRA:          -4.304
REMARK INTER:                  -2.873
REMARK INTRA:                  -1.431
REMARK UNBOUND:                -1.733
REMARK SMILES CCCCCCCCCCCCCCCCCCCCCCCC(=O)[O-]
REMARK SMILES IDX 13 1 14 2 15 3 16 4 17 5 18 6 19 7 20 8 21 9 22 10 23 11
REMARK SMILES IDX 24 12 25 13 26 14 12 15 11 16 10 17 9 18 8 19 7 20 6 21 5 22
REMARK SMILES IDX 4 23 3 24 2 25 1 26
REMARK H PARENT
REMARK Flexibility Score: inf
ROOT
ATOM      1  C   UNL     1     -15.569  12.646   7.895  1.00  0.00     0.000 C 
ENDROOT
BRANCH   1   2
ATOM      2  C   UNL     1     -15.528  11.964   6.511  1.00  0.00     0.000 C 
BRANCH   2   3
ATOM      3  C   UNL     1     -14.120  11.458   6.151  1.00  0.00     0.000 C 
BRANCH   3   4
ATOM      4  C   UNL     1     -14.151  10.169   5.314  1.00  0.00     0.000 C 
BRANCH   4   5
ATOM      5  C   UNL     1     -13.184  10.216   4.121  1.00  0.00     0.000 C 
BRANCH   5   6
ATOM      6  C   UNL     1     -13.781   9.497   2.901  1.00  0.00     0.000 C 
BRANCH   6   7
ATOM      7  C   UNL     1     -12.728   9.179   1.826  1.00  0.00     0.000 C 
BRANCH   7   8
ATOM      8  C   UNL     1     -13.356   8.728   0.500  1.00  0.00     0.000 C 
BRANCH   8   9
ATOM      9  C   UNL     1     -12.370   7.876  -0.316  1.00  0.00     0.000 C 
BRANCH   9  10
ATOM     10  C   UNL     1     -12.978   6.536  -0.760  1.00  0.00     0.006 C 
BRANCH  10  11
ATOM     11  C   UNL     1     -14.320   6.243  -0.077  1.00  0.00     0.053 C 
BRANCH  11  12
ATOM     12  C   UNL     1     -15.091   5.226  -0.859  1.00  0.00     0.041 C 
ATOM     13  O   UNL     1     -14.566   4.657  -1.852  1.00  0.00    -0.550 OA
ATOM     14  O   UNL     1     -16.374   4.872  -0.462  1.00  0.00    -0.550 OA
ENDBRANCH  11  12
ENDBRANCH  10  11
ENDBRANCH   9  10
ENDBRANCH   8   9
ENDBRANCH   7   8
ENDBRANCH   6   7
ENDBRANCH   5   6
ENDBRANCH   4   5
ENDBRANCH   3   4
ENDBRANCH   2   3
ENDBRANCH   1   2
BRANCH   1  15
ATOM     15  C   UNL     1     -14.225  13.259   8.323  1.00  0.00     0.000 C 
BRANCH  15  16
ATOM     16  C   UNL     1     -14.127  13.482   9.841  1.00  0.00     0.000 C 
BRANCH  16  17
ATOM     17  C   UNL     1     -15.505  13.575  10.513  1.00  0.00     0.000 C 
BRANCH  17  18
ATOM     18  C   UNL     1     -15.668  12.565  11.663  1.00  0.00    -0.000 C 
BRANCH  18  19
ATOM     19  C   UNL     1     -16.599  11.399  11.291  1.00  0.00    -0.000 C 
BRANCH  19  20
ATOM     20  C   UNL     1     -16.765  10.389  12.443  1.00  0.00    -0.000 C 
BRANCH  20  21
ATOM     21  C   UNL     1     -16.543   8.938  11.991  1.00  0.00    -0.000 C 
BRANCH  21  22
ATOM     22  C   UNL     1     -16.084   8.830  10.525  1.00  0.00    -0.000 C 
BRANCH  22  23
ATOM     23  C   UNL     1     -15.667   7.390  10.154  1.00  0.00    -0.000 C 
BRANCH  23  24
ATOM     24  C   UNL     1     -15.344   6.506  11.372  1.00  0.00    -0.000 C 
BRANCH  24  25
ATOM     25  C   UNL     1     -13.882   6.042  11.406  1.00  0.00    -0.003 C 
ATOM     26  C   UNL     1     -13.144   6.626  12.607  1.00  0.00     0.004 C 
ENDBRANCH  24  25
ENDBRANCH  23  24
ENDBRANCH  22  23
ENDBRANCH  21  22
ENDBRANCH  20  21
ENDBRANCH  19  20
ENDBRANCH  18  19
ENDBRANCH  17  18
ENDBRANCH  16  17
ENDBRANCH  15  16
ENDBRANCH   1  15
TORSDOF 22
ENDMDL
MODEL 8
REMARK VINA RESULT:    -0.968      1.390      2.338
REMARK INTER + INTRA:          -3.946
REMARK INTER:                  -2.202
REMARK INTRA:                  -1.744
REMARK UNBOUND:                -1.733
REMARK SMILES CCCCCCCCCCCCCCCCCCCCCCCC(=O)[O-]
REMARK SMILES IDX 13 1 14 2 15 3 16 4 17 5 18 6 19 7 20 8 21 9 22 10 23 11
REMARK SMILES IDX 24 12 25 13 26 14 12 15 11 16 10 17 9 18 8 19 7 20 6 21 5 22
REMARK SMILES IDX 4 23 3 24 2 25 1 26
REMARK H PARENT
REMARK Flexibility Score: inf
ROOT
ATOM      1  C   UNL     1     -14.869  12.813   7.954  1.00  0.00     0.000 C 
ENDROOT
BRANCH   1   2
ATOM      2  C   UNL     1     -14.464  13.057   6.485  1.00  0.00     0.000 C 
BRANCH   2   3
ATOM      3  C   UNL     1     -13.362  12.091   6.015  1.00  0.00     0.000 C 
BRANCH   3   4
ATOM      4  C   UNL     1     -13.925  10.876   5.260  1.00  0.00     0.000 C 
BRANCH   4   5
ATOM      5  C   UNL     1     -12.951  10.335   4.201  1.00  0.00     0.000 C 
BRANCH   5   6
ATOM      6  C   UNL     1     -13.700   9.541   3.120  1.00  0.00     0.000 C 
BRANCH   6   7
ATOM      7  C   UNL     1     -12.902   9.426   1.810  1.00  0.00     0.000 C 
BRANCH   7   8
ATOM      8  C   UNL     1     -13.666   8.662   0.718  1.00  0.00     0.000 C 
BRANCH   8   9
ATOM      9  C   UNL     1     -14.884   7.931   1.306  1.00  0.00     0.000 C 
BRANCH   9  10
ATOM     10  C   UNL     1     -15.542   6.978   0.296  1.00  0.00     0.006 C 
BRANCH  10  11
ATOM     11  C   UNL     1     -14.546   5.980  -0.307  1.00  0.00     0.053 C 
BRANCH  11  12
ATOM     12  C   UNL     1     -15.273   4.914  -1.067  1.00  0.00     0.041 C 
ATOM     13  O   UNL     1     -16.480   4.662  -0.811  1.00  0.00    -0.550 OA
ATOM     14  O   UNL     1     -14.630   4.231  -2.092  1.00  0.00    -0.550 OA
ENDBRANCH  11  12
ENDBRANCH  10  11
ENDBRANCH   9  10
ENDBRANCH   8   9
ENDBRANCH   7   8
ENDBRANCH   6   7
ENDBRANCH   5   6
ENDBRANCH   4   5
ENDBRANCH   3   4
ENDBRANCH   2   3
ENDBRANCH   1   2
BRANCH   1  15
ATOM     15  C   UNL     1     -14.120  13.705   8.958  1.00  0.00     0.000 C 
BRANCH  15  16
ATOM     16  C   UNL     1     -14.313  13.255  10.416  1.00  0.00     0.000 C 
BRANCH  16  17
ATOM     17  C   UNL     1     -15.558  12.376  10.602  1.00  0.00     0.000 C 
BRANCH  17  18
ATOM     18  C   UNL     1     -15.811  12.016  12.077  1.00  0.00    -0.000 C 
BRANCH  18  19
ATOM     19  C   UNL     1     -17.011  11.071  12.253  1.00  0.00    -0.000 C 
BRANCH  19  20
ATOM     20  C   UNL     1     -16.613   9.733  12.904  1.00  0.00    -0.000 C 
BRANCH  20  21
ATOM     21  C   UNL     1     -16.918   8.526  12.003  1.00  0.00    -0.000 C 
BRANCH  21  22
ATOM     22  C   UNL     1     -15.648   7.796  11.529  1.00  0.00    -0.000 C 
BRANCH  22  23
ATOM     23  C   UNL     1     -15.956   6.747  10.439  1.00  0.00    -0.000 C 
BRANCH  23  24
ATOM     24  C   UNL     1     -16.432   7.358   9.109  1.00  0.00    -0.000 C 
BRANCH  24  25
ATOM     25  C   UNL     1     -15.684   8.647   8.739  1.00  0.00    -0.003 C 
ATOM     26  C   UNL     1     -16.650   9.733   8.277  1.00  0.00     0.004 C 
ENDBRANCH  24  25
ENDBRANCH  23  24
ENDBRANCH  22  23
ENDBRANCH  21  22
ENDBRANCH  20  21
ENDBRANCH  19  20
ENDBRANCH  18  19
ENDBRANCH  17  18
ENDBRANCH  16  17
ENDBRANCH  15  16
ENDBRANCH   1  15
TORSDOF 22
ENDMDL
MODEL 9
REMARK VINA RESULT:    -0.862      4.644      7.102
REMARK INTER + INTRA:          -3.703
REMARK INTER:                  -2.809
REMARK INTRA:                  -0.894
REMARK UNBOUND:                -1.733
REMARK SMILES CCCCCCCCCCCCCCCCCCCCCCCC(=O)[O-]
REMARK SMILES IDX 13 1 14 2 15 3 16 4 17 5 18 6 19 7 20 8 21 9 22 10 23 11
REMARK SMILES IDX 24 12 25 13 26 14 12 15 11 16 10 17 9 18 8 19 7 20 6 21 5 22
REMARK SMILES IDX 4 23 3 24 2 25 1 26
REMARK H PARENT
REMARK Flexibility Score: inf
ROOT
ATOM      1  C   UNL     1     -16.480   9.437   8.983  1.00  0.00     0.000 C 
ENDROOT
BRANCH   1   2
ATOM      2  C   UNL     1     -16.363  10.807   8.283  1.00  0.00     0.000 C 
BRANCH   2   3
ATOM      3  C   UNL     1     -16.986  11.942   9.115  1.00  0.00     0.000 C 
BRANCH   3   4
ATOM      4  C   UNL     1     -17.125  11.577  10.602  1.00  0.00     0.000 C 
BRANCH   4   5
ATOM      5  C   UNL     1     -16.441  12.595  11.528  1.00  0.00     0.000 C 
BRANCH   5   6
ATOM      6  C   UNL     1     -14.914  12.434  11.490  1.00  0.00     0.000 C 
BRANCH   6   7
ATOM      7  C   UNL     1     -14.176  13.625  12.126  1.00  0.00     0.000 C 
BRANCH   7   8
ATOM      8  C   UNL     1     -13.418  14.470  11.092  1.00  0.00     0.000 C 
BRANCH   8   9
ATOM      9  C   UNL     1     -14.088  14.384   9.711  1.00  0.00     0.000 C 
BRANCH   9  10
ATOM     10  C   UNL     1     -13.296  13.508   8.727  1.00  0.00     0.006 C 
BRANCH  10  11
ATOM     11  C   UNL     1     -13.405  14.003   7.279  1.00  0.00     0.053 C 
BRANCH  11  12
ATOM     12  C   UNL     1     -14.446  13.223   6.539  1.00  0.00     0.041 C 
ATOM     13  O   UNL     1     -15.447  13.807   6.045  1.00  0.00    -0.550 OA
ATOM     14  O   UNL     1     -14.288  11.856   6.353  1.00  0.00    -0.550 OA
ENDBRANCH  11  12
ENDBRANCH  10  11
ENDBRANCH   9  10
ENDBRANCH   8   9
ENDBRANCH   7   8
ENDBRANCH   6   7
ENDBRANCH   5   6
ENDBRANCH   4   5
ENDBRANCH   3   4
ENDBRANCH   2   3
ENDBRANCH   1   2
BRANCH   1  15
ATOM     15  C   UNL     1     -16.481   8.244   8.012  1.00  0.00     0.000 C 
BRANCH  15  16
ATOM     16  C   UNL     1     -17.091   6.973   8.626  1.00  0.00     0.000 C 
BRANCH  16  17
ATOM     17  C   UNL     1     -16.328   6.497   9.872  1.00  0.00     0.000 C 
BRANCH  17  18
ATOM     18  C   UNL     1     -17.051   5.352  10.603  1.00  0.00    -0.000 C 
BRANCH  18  19
ATOM     19  C   UNL     1     -16.542   5.160  12.040  1.00  0.00    -0.000 C 
BRANCH  19  20
ATOM     20  C   UNL     1     -15.539   3.996  12.158  1.00  0.00    -0.000 C 
BRANCH  20  21
ATOM     21  C   UNL     1     -14.294   4.201  11.282  1.00  0.00    -0.000 C 
BRANCH  21  22
ATOM     22  C   UNL     1     -13.325   5.252  11.853  1.00  0.00    -0.000 C 
BRANCH  22  23
ATOM     23  C   UNL     1     -13.886   5.925  13.125  1.00  0.00    -0.000 C 
BRANCH  23  24
ATOM     24  C   UNL     1     -14.162   7.430  12.957  1.00  0.00    -0.000 C 
BRANCH  24  25
ATOM     25  C   UNL     1     -15.645   7.791  13.125  1.00  0.00    -0.003 C 
ATOM     26  C   UNL     1     -15.990   9.073  12.374  1.00  0.00     0.004 C 
ENDBRANCH  24  25
ENDBRANCH  23  24
ENDBRANCH  22  23
ENDBRANCH  21  22
ENDBRANCH  20  21
ENDBRANCH  19  20
ENDBRANCH  18  19
ENDBRANCH  17  18
ENDBRANCH  16  17
ENDBRANCH  15  16
ENDBRANCH   1  15
TORSDOF 22
ENDMDL
