MODEL 1
REMARK VINA RESULT:    -7.281      0.000      0.000
REMARK INTER + INTRA:         -11.871
REMARK INTER:                  -9.835
REMARK INTRA:                  -2.036
REMARK UNBOUND:                -2.036
REMARK SMILES CC[C@@H](CC[C@H](C)[C@@H]1CC[C@H]2[C@H]3CC(=O)C4=CC(=O)CC[C@@]4(C)[C@H]3CC[C@]21C)C(C)C
REMARK SMILES IDX 4 1 3 2 2 3 1 4 29 5 30 6 31 7 5 8 6 9 7 10 8 11 9 12 27 13
REMARK SMILES IDX 10 14 11 15 26 16 28 17 12 18 25 19 24 20 13 21 22 22 14 23
REMARK SMILES IDX 16 24 21 25 23 26 15 27 17 28 20 29 18 30 19 31
REMARK H PARENT
REMARK Flexibility Score: inf
ROOT
ATOM      1  C   UNL     1       7.038 -15.149  23.134  1.00  0.00     0.004 C 
ENDROOT
BRANCH   1   2
ATOM      2  C   UNL     1       7.376 -16.259  22.095  1.00  0.00    -0.009 C 
BRANCH   2   3
ATOM      3  C   UNL     1       6.971 -15.780  20.669  1.00  0.00     0.000 C 
ATOM      4  C   UNL     1       6.108 -14.518  20.643  1.00  0.00     0.004 C 
ENDBRANCH   2   3
BRANCH   2   5
ATOM      5  C   UNL     1       6.743 -17.626  22.539  1.00  0.00    -0.014 C 
ATOM      6  C   UNL     1       6.246 -17.625  23.995  1.00  0.00     0.007 C 
ATOM      7  C   UNL     1       7.644 -18.842  22.268  1.00  0.00     0.007 C 
ENDBRANCH   2   5
ENDBRANCH   1   2
BRANCH   1   8
ATOM      8  C   UNL     1       8.287 -14.585  23.844  1.00  0.00     0.004 C 
BRANCH   8   9
ATOM      9  C   UNL     1       9.056 -15.673  24.642  1.00  0.00    -0.011 C 
ATOM     10  C   UNL     1       8.888 -15.505  26.167  1.00  0.00     0.008 C 
BRANCH   9  11
ATOM     11  C   UNL     1      10.534 -15.893  24.143  1.00  0.00    -0.002 C 
ATOM     12  C   UNL     1      10.757 -15.218  22.784  1.00  0.00     0.005 C 
ATOM     13  C   UNL     1      11.143 -17.341  23.968  1.00  0.00    -0.026 C 
ATOM     14  C   UNL     1      10.637 -16.317  21.747  1.00  0.00     0.005 C 
ATOM     15  C   UNL     1      11.137 -17.605  22.422  1.00  0.00    -0.001 C 
ATOM     16  C   UNL     1      12.599 -17.326  24.514  1.00  0.00     0.007 C 
ATOM     17  C   UNL     1      10.383 -18.460  24.733  1.00  0.00     0.012 C 
ATOM     18  C   UNL     1      12.470 -18.183  21.812  1.00  0.00     0.004 C 
ATOM     19  C   UNL     1      13.431 -18.573  24.161  1.00  0.00     0.005 C 
ATOM     20  C   UNL     1      13.100 -19.220  22.783  1.00  0.00     0.003 C 
ATOM     21  C   UNL     1      13.512 -17.135  21.311  1.00  0.00     0.085 C 
ATOM     22  C   UNL     1      14.342 -19.953  22.158  1.00  0.00    -0.000 C 
ATOM     23  C   UNL     1      14.896 -17.686  21.071  1.00  0.00     0.159 C 
ATOM     24  C   UNL     1      15.374 -18.891  21.786  1.00  0.00     0.005 C 
ATOM     25  C   UNL     1      14.886 -21.071  23.133  1.00  0.00     0.020 C 
ATOM     26  C   UNL     1      13.938 -20.678  20.844  1.00  0.00     0.017 C 
ATOM     27  O   UNL     1      15.680 -17.048  20.318  1.00  0.00    -0.295 OA
ATOM     28  C   UNL     1      16.671 -19.002  22.114  1.00  0.00     0.055 C 
ATOM     29  C   UNL     1      16.126 -20.687  23.943  1.00  0.00     0.081 C 
ATOM     30  C   UNL     1      17.125 -20.016  23.064  1.00  0.00     0.156 C 
ATOM     31  O   UNL     1      18.357 -20.238  23.214  1.00  0.00    -0.295 OA
ENDBRANCH   9  11
ENDBRANCH   8   9
ENDBRANCH   1   8
TORSDOF 6
ENDMDL
MODEL 2
REMARK VINA RESULT:    -7.181      3.640      5.095
REMARK INTER + INTRA:         -11.735
REMARK INTER:                  -9.426
REMARK INTRA:                  -2.309
REMARK UNBOUND:                -2.036
REMARK SMILES CC[C@@H](CC[C@H](C)[C@@H]1CC[C@H]2[C@H]3CC(=O)C4=CC(=O)CC[C@@]4(C)[C@H]3CC[C@]21C)C(C)C
REMARK SMILES IDX 4 1 3 2 2 3 1 4 29 5 30 6 31 7 5 8 6 9 7 10 8 11 9 12 27 13
REMARK SMILES IDX 10 14 11 15 26 16 28 17 12 18 25 19 24 20 13 21 22 22 14 23
REMARK SMILES IDX 16 24 21 25 23 26 15 27 17 28 20 29 18 30 19 31
REMARK H PARENT
REMARK Flexibility Score: inf
ROOT
ATOM      1  C   UNL     1       5.866 -17.221  24.071  1.00  0.00     0.004 C 
ENDROOT
BRANCH   1   2
ATOM      2  C   UNL     1       6.903 -18.383  24.107  1.00  0.00    -0.009 C 
BRANCH   2   3
ATOM      3  C   UNL     1       6.334 -19.614  23.340  1.00  0.00     0.000 C 
ATOM      4  C   UNL     1       7.369 -20.389  22.524  1.00  0.00     0.004 C 
ENDBRANCH   2   3
BRANCH   2   5
ATOM      5  C   UNL     1       7.343 -18.669  25.587  1.00  0.00    -0.014 C 
ATOM      6  C   UNL     1       8.856 -18.510  25.817  1.00  0.00     0.007 C 
ATOM      7  C   UNL     1       6.844 -20.017  26.132  1.00  0.00     0.007 C 
ENDBRANCH   2   5
ENDBRANCH   1   2
BRANCH   1   8
ATOM      8  C   UNL     1       6.381 -15.974  23.321  1.00  0.00     0.004 C 
BRANCH   8   9
ATOM      9  C   UNL     1       7.932 -15.899  23.293  1.00  0.00    -0.011 C 
ATOM     10  C   UNL     1       8.480 -14.814  24.245  1.00  0.00     0.008 C 
BRANCH   9  11
ATOM     11  C   UNL     1       8.537 -15.891  21.838  1.00  0.00    -0.002 C 
ATOM     12  C   UNL     1       7.424 -15.796  20.786  1.00  0.00     0.005 C 
ATOM     13  C   UNL     1       9.468 -17.058  21.321  1.00  0.00    -0.026 C 
ATOM     14  C   UNL     1       7.199 -17.208  20.286  1.00  0.00     0.005 C 
ATOM     15  C   UNL     1       8.560 -17.920  20.375  1.00  0.00    -0.001 C 
ATOM     16  C   UNL     1      10.643 -16.426  20.522  1.00  0.00     0.007 C 
ATOM     17  C   UNL     1      10.098 -17.930  22.443  1.00  0.00     0.012 C 
ATOM     18  C   UNL     1       9.183 -18.308  18.981  1.00  0.00     0.004 C 
ATOM     19  C   UNL     1      11.483 -17.430  19.711  1.00  0.00     0.005 C 
ATOM     20  C   UNL     1      10.692 -18.646  19.142  1.00  0.00     0.003 C 
ATOM     21  C   UNL     1       8.923 -17.315  17.807  1.00  0.00     0.085 C 
ATOM     22  C   UNL     1      11.329 -19.201  17.817  1.00  0.00    -0.000 C 
ATOM     23  C   UNL     1       9.808 -17.516  16.601  1.00  0.00     0.159 C 
ATOM     24  C   UNL     1      11.142 -18.145  16.729  1.00  0.00     0.005 C 
ATOM     25  C   UNL     1      12.832 -19.631  18.051  1.00  0.00     0.020 C 
ATOM     26  C   UNL     1      10.578 -20.478  17.348  1.00  0.00     0.017 C 
ATOM     27  O   UNL     1       9.434 -17.053  15.490  1.00  0.00    -0.295 OA
ATOM     28  C   UNL     1      12.145 -17.754  15.925  1.00  0.00     0.055 C 
ATOM     29  C   UNL     1      13.883 -18.628  17.569  1.00  0.00     0.081 C 
ATOM     30  C   UNL     1      13.529 -18.128  16.210  1.00  0.00     0.156 C 
ATOM     31  O   UNL     1      14.429 -17.925  15.351  1.00  0.00    -0.295 OA
ENDBRANCH   9  11
ENDBRANCH   8   9
ENDBRANCH   1   8
TORSDOF 6
ENDMDL
MODEL 3
REMARK VINA RESULT:    -6.998      2.780      8.337
REMARK INTER + INTRA:         -11.488
REMARK INTER:                  -9.803
REMARK INTRA:                  -1.685
REMARK UNBOUND:                -2.036
REMARK SMILES CC[C@@H](CC[C@H](C)[C@@H]1CC[C@H]2[C@H]3CC(=O)C4=CC(=O)CC[C@@]4(C)[C@H]3CC[C@]21C)C(C)C
REMARK SMILES IDX 4 1 3 2 2 3 1 4 29 5 30 6 31 7 5 8 6 9 7 10 8 11 9 12 27 13
REMARK SMILES IDX 10 14 11 15 26 16 28 17 12 18 25 19 24 20 13 21 22 22 14 23
REMARK SMILES IDX 16 24 21 25 23 26 15 27 17 28 20 29 18 30 19 31
REMARK H PARENT
REMARK Flexibility Score: inf
ROOT
ATOM      1  C   UNL     1      16.867 -19.842  22.587  1.00  0.00     0.004 C 
ENDROOT
BRANCH   1   2
ATOM      2  C   UNL     1      16.634 -20.724  23.850  1.00  0.00    -0.009 C 
BRANCH   2   3
ATOM      3  C   UNL     1      17.073 -22.189  23.552  1.00  0.00     0.000 C 
ATOM      4  C   UNL     1      17.900 -22.844  24.658  1.00  0.00     0.004 C 
ENDBRANCH   2   3
BRANCH   2   5
ATOM      5  C   UNL     1      15.155 -20.564  24.356  1.00  0.00    -0.014 C 
ATOM      6  C   UNL     1      15.006 -20.752  25.875  1.00  0.00     0.007 C 
ATOM      7  C   UNL     1      14.143 -21.434  23.594  1.00  0.00     0.007 C 
ENDBRANCH   2   5
ENDBRANCH   1   2
BRANCH   1   8
ATOM      8  C   UNL     1      16.086 -18.512  22.627  1.00  0.00     0.004 C 
BRANCH   8   9
ATOM      9  C   UNL     1      15.085 -18.377  21.447  1.00  0.00    -0.011 C 
ATOM     10  C   UNL     1      15.803 -18.145  20.099  1.00  0.00     0.008 C 
BRANCH   9  11
ATOM     11  C   UNL     1      13.881 -17.408  21.749  1.00  0.00    -0.002 C 
ATOM     12  C   UNL     1      13.896 -16.960  23.216  1.00  0.00     0.005 C 
ATOM     13  C   UNL     1      12.384 -17.838  21.484  1.00  0.00    -0.026 C 
ATOM     14  C   UNL     1      12.887 -17.836  23.931  1.00  0.00     0.005 C 
ATOM     15  C   UNL     1      11.794 -18.166  22.901  1.00  0.00    -0.001 C 
ATOM     16  C   UNL     1      11.636 -16.633  20.846  1.00  0.00     0.007 C 
ATOM     17  C   UNL     1      12.217 -19.041  20.514  1.00  0.00     0.012 C 
ATOM     18  C   UNL     1      10.385 -17.541  23.226  1.00  0.00     0.004 C 
ATOM     19  C   UNL     1      10.104 -16.785  20.788  1.00  0.00     0.005 C 
ATOM     20  C   UNL     1       9.474 -17.584  21.967  1.00  0.00     0.003 C 
ATOM     21  C   UNL     1      10.392 -16.134  23.901  1.00  0.00     0.085 C 
ATOM     22  C   UNL     1       8.001 -17.127  22.274  1.00  0.00    -0.000 C 
ATOM     23  C   UNL     1       9.066 -15.414  23.875  1.00  0.00     0.159 C 
ATOM     24  C   UNL     1       8.058 -15.706  22.830  1.00  0.00     0.005 C 
ATOM     25  C   UNL     1       7.085 -17.287  20.997  1.00  0.00     0.020 C 
ATOM     26  C   UNL     1       7.374 -18.025  23.377  1.00  0.00     0.017 C 
ATOM     27  O   UNL     1       8.862 -14.487  24.704  1.00  0.00    -0.295 OA
ATOM     28  C   UNL     1       7.259 -14.725  22.380  1.00  0.00     0.055 C 
ATOM     29  C   UNL     1       6.812 -15.997  20.220  1.00  0.00     0.081 C 
ATOM     30  C   UNL     1       6.469 -14.894  21.162  1.00  0.00     0.156 C 
ATOM     31  O   UNL     1       5.581 -14.051  20.860  1.00  0.00    -0.295 OA
ENDBRANCH   9  11
ENDBRANCH   8   9
ENDBRANCH   1   8
TORSDOF 6
ENDMDL
MODEL 4
REMARK VINA RESULT:    -6.941      2.342      3.378
REMARK INTER + INTRA:         -11.411
REMARK INTER:                  -9.074
REMARK INTRA:                  -2.337
REMARK UNBOUND:                -2.036
REMARK SMILES CC[C@@H](CC[C@H](C)[C@@H]1CC[C@H]2[C@H]3CC(=O)C4=CC(=O)CC[C@@]4(C)[C@H]3CC[C@]21C)C(C)C
REMARK SMILES IDX 4 1 3 2 2 3 1 4 29 5 30 6 31 7 5 8 6 9 7 10 8 11 9 12 27 13
REMARK SMILES IDX 10 14 11 15 26 16 28 17 12 18 25 19 24 20 13 21 22 22 14 23
REMARK SMILES IDX 16 24 21 25 23 26 15 27 17 28 20 29 18 30 19 31
REMARK H PARENT
REMARK Flexibility Score: inf
ROOT
ATOM      1  C   UNL     1       7.706 -16.933  25.483  1.00  0.00     0.004 C 
ENDROOT
BRANCH   1   2
ATOM      2  C   UNL     1       7.546 -17.591  24.080  1.00  0.00    -0.009 C 
BRANCH   2   3
ATOM      3  C   UNL     1       6.793 -16.614  23.128  1.00  0.00     0.000 C 
ATOM      4  C   UNL     1       7.163 -16.753  21.652  1.00  0.00     0.004 C 
ENDBRANCH   2   3
BRANCH   2   5
ATOM      5  C   UNL     1       6.893 -19.013  24.222  1.00  0.00    -0.014 C 
ATOM      6  C   UNL     1       7.057 -19.623  25.624  1.00  0.00     0.007 C 
ATOM      7  C   UNL     1       7.333 -20.007  23.136  1.00  0.00     0.007 C 
ENDBRANCH   2   5
ENDBRANCH   1   2
BRANCH   1   8
ATOM      8  C   UNL     1       9.169 -16.568  25.816  1.00  0.00     0.004 C 
BRANCH   8   9
ATOM      9  C   UNL     1      10.172 -17.657  25.346  1.00  0.00    -0.011 C 
ATOM     10  C   UNL     1      10.685 -18.519  26.520  1.00  0.00     0.008 C 
BRANCH   9  11
ATOM     11  C   UNL     1      11.281 -17.113  24.369  1.00  0.00    -0.002 C 
ATOM     12  C   UNL     1      11.071 -15.621  24.082  1.00  0.00     0.005 C 
ATOM     13  C   UNL     1      11.520 -17.757  22.946  1.00  0.00    -0.026 C 
ATOM     14  C   UNL     1      10.374 -15.547  22.738  1.00  0.00     0.005 C 
ATOM     15  C   UNL     1      10.871 -16.755  21.927  1.00  0.00    -0.001 C 
ATOM     16  C   UNL     1      13.054 -17.859  22.709  1.00  0.00     0.007 C 
ATOM     17  C   UNL     1      10.938 -19.188  22.776  1.00  0.00     0.012 C 
ATOM     18  C   UNL     1      11.745 -16.381  20.672  1.00  0.00     0.004 C 
ATOM     19  C   UNL     1      13.459 -18.199  21.263  1.00  0.00     0.005 C 
ATOM     20  C   UNL     1      12.516 -17.630  20.161  1.00  0.00     0.003 C 
ATOM     21  C   UNL     1      12.673 -15.135  20.822  1.00  0.00     0.085 C 
ATOM     22  C   UNL     1      13.276 -17.358  18.811  1.00  0.00    -0.000 C 
ATOM     23  C   UNL     1      13.741 -15.012  19.763  1.00  0.00     0.159 C 
ATOM     24  C   UNL     1      14.247 -16.203  19.045  1.00  0.00     0.005 C 
ATOM     25  C   UNL     1      13.957 -18.679  18.273  1.00  0.00     0.020 C 
ATOM     26  C   UNL     1      12.278 -16.902  17.711  1.00  0.00     0.017 C 
ATOM     27  O   UNL     1      14.268 -13.884  19.562  1.00  0.00    -0.295 OA
ATOM     28  C   UNL     1      15.531 -16.253  18.656  1.00  0.00     0.055 C 
ATOM     29  C   UNL     1      15.459 -18.796  18.538  1.00  0.00     0.081 C 
ATOM     30  C   UNL     1      16.139 -17.508  18.217  1.00  0.00     0.156 C 
ATOM     31  O   UNL     1      17.275 -17.505  17.671  1.00  0.00    -0.295 OA
ENDBRANCH   9  11
ENDBRANCH   8   9
ENDBRANCH   1   8
TORSDOF 6
ENDMDL
MODEL 5
REMARK VINA RESULT:    -6.881      2.283      4.294
REMARK INTER + INTRA:         -11.330
REMARK INTER:                  -9.601
REMARK INTRA:                  -1.729
REMARK UNBOUND:                -2.036
REMARK SMILES CC[C@@H](CC[C@H](C)[C@@H]1CC[C@H]2[C@H]3CC(=O)C4=CC(=O)CC[C@@]4(C)[C@H]3CC[C@]21C)C(C)C
REMARK SMILES IDX 4 1 3 2 2 3 1 4 29 5 30 6 31 7 5 8 6 9 7 10 8 11 9 12 27 13
REMARK SMILES IDX 10 14 11 15 26 16 28 17 12 18 25 19 24 20 13 21 22 22 14 23
REMARK SMILES IDX 16 24 21 25 23 26 15 27 17 28 20 29 18 30 19 31
REMARK H PARENT
REMARK Flexibility Score: inf
ROOT
ATOM      1  C   UNL     1       7.649 -16.624  25.709  1.00  0.00     0.004 C 
ENDROOT
BRANCH   1   2
ATOM      2  C   UNL     1       6.796 -17.876  25.347  1.00  0.00    -0.009 C 
BRANCH   2   3
ATOM      3  C   UNL     1       7.606 -19.169  25.666  1.00  0.00     0.000 C 
ATOM      4  C   UNL     1       6.854 -20.199  26.509  1.00  0.00     0.004 C 
ENDBRANCH   2   3
BRANCH   2   5
ATOM      5  C   UNL     1       6.276 -17.767  23.869  1.00  0.00    -0.014 C 
ATOM      6  C   UNL     1       6.943 -18.769  22.911  1.00  0.00     0.007 C 
ATOM      7  C   UNL     1       6.332 -16.342  23.297  1.00  0.00     0.007 C 
ENDBRANCH   2   5
ENDBRANCH   1   2
BRANCH   1   8
ATOM      8  C   UNL     1       9.166 -16.907  25.714  1.00  0.00     0.004 C 
BRANCH   8   9
ATOM      9  C   UNL     1       9.936 -16.027  24.692  1.00  0.00    -0.011 C 
ATOM     10  C   UNL     1       9.221 -14.684  24.426  1.00  0.00     0.008 C 
BRANCH   9  11
ATOM     11  C   UNL     1      10.401 -16.812  23.408  1.00  0.00    -0.002 C 
ATOM     12  C   UNL     1      10.546 -18.309  23.708  1.00  0.00     0.005 C 
ATOM     13  C   UNL     1      11.730 -16.434  22.641  1.00  0.00    -0.026 C 
ATOM     14  C   UNL     1      12.025 -18.549  23.938  1.00  0.00     0.005 C 
ATOM     15  C   UNL     1      12.769 -17.535  23.052  1.00  0.00    -0.001 C 
ATOM     16  C   UNL     1      11.445 -16.496  21.113  1.00  0.00     0.007 C 
ATOM     17  C   UNL     1      12.270 -15.009  22.945  1.00  0.00     0.012 C 
ATOM     18  C   UNL     1      13.595 -18.182  21.877  1.00  0.00     0.004 C 
ATOM     19  C   UNL     1      12.700 -16.434  20.222  1.00  0.00     0.005 C 
ATOM     20  C   UNL     1      13.972 -17.100  20.826  1.00  0.00     0.003 C 
ATOM     21  C   UNL     1      12.980 -19.455  21.219  1.00  0.00     0.085 C 
ATOM     22  C   UNL     1      14.938 -17.652  19.715  1.00  0.00    -0.000 C 
ATOM     23  C   UNL     1      13.589 -19.838  19.892  1.00  0.00     0.159 C 
ATOM     24  C   UNL     1      14.242 -18.826  19.031  1.00  0.00     0.005 C 
ATOM     25  C   UNL     1      15.380 -16.498  18.730  1.00  0.00     0.020 C 
ATOM     26  C   UNL     1      16.242 -18.203  20.355  1.00  0.00     0.017 C 
ATOM     27  O   UNL     1      13.453 -21.022  19.481  1.00  0.00    -0.295 OA
ATOM     28  C   UNL     1      14.176 -18.945  17.695  1.00  0.00     0.055 C 
ATOM     29  C   UNL     1      14.640 -16.460  17.391  1.00  0.00     0.081 C 
ATOM     30  C   UNL     1      14.543 -17.833  16.819  1.00  0.00     0.156 C 
ATOM     31  O   UNL     1      14.666 -18.017  15.579  1.00  0.00    -0.295 OA
ENDBRANCH   9  11
ENDBRANCH   8   9
ENDBRANCH   1   8
TORSDOF 6
ENDMDL
MODEL 6
REMARK VINA RESULT:    -6.858      3.507      8.017
REMARK INTER + INTRA:         -11.299
REMARK INTER:                  -9.634
REMARK INTRA:                  -1.666
REMARK UNBOUND:                -2.036
REMARK SMILES CC[C@@H](CC[C@H](C)[C@@H]1CC[C@H]2[C@H]3CC(=O)C4=CC(=O)CC[C@@]4(C)[C@H]3CC[C@]21C)C(C)C
REMARK SMILES IDX 4 1 3 2 2 3 1 4 29 5 30 6 31 7 5 8 6 9 7 10 8 11 9 12 27 13
REMARK SMILES IDX 10 14 11 15 26 16 28 17 12 18 25 19 24 20 13 21 22 22 14 23
REMARK SMILES IDX 16 24 21 25 23 26 15 27 17 28 20 29 18 30 19 31
REMARK H PARENT
REMARK Flexibility Score: inf
ROOT
ATOM      1  C   UNL     1      13.852 -19.314  18.947  1.00  0.00     0.004 C 
ENDROOT
BRANCH   1   2
ATOM      2  C   UNL     1      14.353 -18.121  19.816  1.00  0.00    -0.009 C 
BRANCH   2   3
ATOM      3  C   UNL     1      15.624 -17.498  19.165  1.00  0.00     0.000 C 
ATOM      4  C   UNL     1      16.945 -18.099  19.644  1.00  0.00     0.004 C 
ENDBRANCH   2   3
BRANCH   2   5
ATOM      5  C   UNL     1      14.530 -18.577  21.309  1.00  0.00    -0.014 C 
ATOM      6  C   UNL     1      13.832 -19.910  21.627  1.00  0.00     0.007 C 
ATOM      7  C   UNL     1      14.146 -17.499  22.335  1.00  0.00     0.007 C 
ENDBRANCH   2   5
ENDBRANCH   1   2
BRANCH   1   8
ATOM      8  C   UNL     1      13.251 -18.867  17.598  1.00  0.00     0.004 C 
BRANCH   8   9
ATOM      9  C   UNL     1      11.757 -19.267  17.454  1.00  0.00    -0.011 C 
ATOM     10  C   UNL     1      11.074 -18.547  16.272  1.00  0.00     0.008 C 
BRANCH   9  11
ATOM     11  C   UNL     1      10.964 -19.239  18.815  1.00  0.00    -0.002 C 
ATOM     12  C   UNL     1       9.698 -20.101  18.725  1.00  0.00     0.005 C 
ATOM     13  C   UNL     1      10.471 -17.883  19.459  1.00  0.00    -0.026 C 
ATOM     14  C   UNL     1       8.555 -19.141  18.465  1.00  0.00     0.005 C 
ATOM     15  C   UNL     1       8.931 -17.823  19.163  1.00  0.00    -0.001 C 
ATOM     16  C   UNL     1      10.730 -17.950  20.991  1.00  0.00     0.007 C 
ATOM     17  C   UNL     1      11.195 -16.613  18.931  1.00  0.00     0.012 C 
ATOM     18  C   UNL     1       8.005 -17.444  20.379  1.00  0.00     0.004 C 
ATOM     19  C   UNL     1      10.051 -16.833  21.807  1.00  0.00     0.005 C 
ATOM     20  C   UNL     1       8.681 -16.345  21.247  1.00  0.00     0.003 C 
ATOM     21  C   UNL     1       7.474 -18.632  21.240  1.00  0.00     0.085 C 
ATOM     22  C   UNL     1       7.734 -15.808  22.381  1.00  0.00    -0.000 C 
ATOM     23  C   UNL     1       6.901 -18.236  22.578  1.00  0.00     0.159 C 
ATOM     24  C   UNL     1       7.332 -16.993  23.257  1.00  0.00     0.005 C 
ATOM     25  C   UNL     1       8.418 -14.622  23.170  1.00  0.00     0.020 C 
ATOM     26  C   UNL     1       6.429 -15.228  21.768  1.00  0.00     0.017 C 
ATOM     27  O   UNL     1       6.113 -19.030  23.160  1.00  0.00    -0.295 OA
ATOM     28  C   UNL     1       7.391 -16.950  24.598  1.00  0.00     0.055 C 
ATOM     29  C   UNL     1       9.028 -15.000  24.522  1.00  0.00     0.081 C 
ATOM     30  C   UNL     1       8.083 -15.862  25.288  1.00  0.00     0.156 C 
ATOM     31  O   UNL     1       7.964 -15.727  26.535  1.00  0.00    -0.295 OA
ENDBRANCH   9  11
ENDBRANCH   8   9
ENDBRANCH   1   8
TORSDOF 6
ENDMDL
MODEL 7
REMARK VINA RESULT:    -6.828      2.658      8.887
REMARK INTER + INTRA:         -11.259
REMARK INTER:                 -10.106
REMARK INTRA:                  -1.153
REMARK UNBOUND:                -2.036
REMARK SMILES CC[C@@H](CC[C@H](C)[C@@H]1CC[C@H]2[C@H]3CC(=O)C4=CC(=O)CC[C@@]4(C)[C@H]3CC[C@]21C)C(C)C
REMARK SMILES IDX 4 1 3 2 2 3 1 4 29 5 30 6 31 7 5 8 6 9 7 10 8 11 9 12 27 13
REMARK SMILES IDX 10 14 11 15 26 16 28 17 12 18 25 19 24 20 13 21 22 22 14 23
REMARK SMILES IDX 16 24 21 25 23 26 15 27 17 28 20 29 18 30 19 31
REMARK H PARENT
REMARK Flexibility Score: inf
ROOT
ATOM      1  C   UNL     1      18.183 -21.496  24.423  1.00  0.00     0.004 C 
ENDROOT
BRANCH   1   2
ATOM      2  C   UNL     1      19.444 -21.637  23.518  1.00  0.00    -0.009 C 
BRANCH   2   3
ATOM      3  C   UNL     1      20.422 -22.676  24.144  1.00  0.00     0.000 C 
ATOM      4  C   UNL     1      21.058 -22.236  25.462  1.00  0.00     0.004 C 
ENDBRANCH   2   3
BRANCH   2   5
ATOM      5  C   UNL     1      20.068 -20.223  23.238  1.00  0.00    -0.014 C 
ATOM      6  C   UNL     1      19.057 -19.209  22.678  1.00  0.00     0.007 C 
ATOM      7  C   UNL     1      21.337 -20.268  22.372  1.00  0.00     0.007 C 
ENDBRANCH   2   5
ENDBRANCH   1   2
BRANCH   1   8
ATOM      8  C   UNL     1      16.895 -22.016  23.750  1.00  0.00     0.004 C 
BRANCH   8   9
ATOM      9  C   UNL     1      15.619 -21.656  24.559  1.00  0.00    -0.011 C 
ATOM     10  C   UNL     1      15.140 -22.828  25.443  1.00  0.00     0.008 C 
BRANCH   9  11
ATOM     11  C   UNL     1      14.501 -20.959  23.695  1.00  0.00    -0.002 C 
ATOM     12  C   UNL     1      14.985 -20.734  22.256  1.00  0.00     0.005 C 
ATOM     13  C   UNL     1      13.869 -19.574  24.118  1.00  0.00    -0.026 C 
ATOM     14  C   UNL     1      15.424 -19.285  22.184  1.00  0.00     0.005 C 
ATOM     15  C   UNL     1      14.530 -18.513  23.169  1.00  0.00    -0.001 C 
ATOM     16  C   UNL     1      12.334 -19.644  23.874  1.00  0.00     0.007 C 
ATOM     17  C   UNL     1      14.074 -19.197  25.612  1.00  0.00     0.012 C 
ATOM     18  C   UNL     1      13.549 -17.486  22.488  1.00  0.00     0.004 C 
ATOM     19  C   UNL     1      11.607 -18.289  23.964  1.00  0.00     0.005 C 
ATOM     20  C   UNL     1      12.437 -17.060  23.488  1.00  0.00     0.003 C 
ATOM     21  C   UNL     1      12.967 -17.901  21.101  1.00  0.00     0.085 C 
ATOM     22  C   UNL     1      11.526 -15.911  22.921  1.00  0.00    -0.000 C 
ATOM     23  C   UNL     1      11.780 -17.088  20.645  1.00  0.00     0.159 C 
ATOM     24  C   UNL     1      10.898 -16.411  21.622  1.00  0.00     0.005 C 
ATOM     25  C   UNL     1      10.480 -15.436  24.006  1.00  0.00     0.020 C 
ATOM     26  C   UNL     1      12.383 -14.665  22.565  1.00  0.00     0.017 C 
ATOM     27  O   UNL     1      11.492 -17.072  19.418  1.00  0.00    -0.295 OA
ATOM     28  C   UNL     1       9.586 -16.285  21.361  1.00  0.00     0.055 C 
ATOM     29  C   UNL     1       9.063 -15.989  23.836  1.00  0.00     0.081 C 
ATOM     30  C   UNL     1       8.643 -15.896  22.408  1.00  0.00     0.156 C 
ATOM     31  O   UNL     1       7.457 -15.591  22.112  1.00  0.00    -0.295 OA
ENDBRANCH   9  11
ENDBRANCH   8   9
ENDBRANCH   1   8
TORSDOF 6
ENDMDL
MODEL 8
REMARK VINA RESULT:    -6.767      3.161      8.439
REMARK INTER + INTRA:         -11.176
REMARK INTER:                 -10.128
REMARK INTRA:                  -1.048
REMARK UNBOUND:                -2.036
REMARK SMILES CC[C@@H](CC[C@H](C)[C@@H]1CC[C@H]2[C@H]3CC(=O)C4=CC(=O)CC[C@@]4(C)[C@H]3CC[C@]21C)C(C)C
REMARK SMILES IDX 4 1 3 2 2 3 1 4 29 5 30 6 31 7 5 8 6 9 7 10 8 11 9 12 27 13
REMARK SMILES IDX 10 14 11 15 26 16 28 17 12 18 25 19 24 20 13 21 22 22 14 23
REMARK SMILES IDX 16 24 21 25 23 26 15 27 17 28 20 29 18 30 19 31
REMARK H PARENT
REMARK Flexibility Score: inf
ROOT
ATOM      1  C   UNL     1      15.711 -18.614  22.221  1.00  0.00     0.004 C 
ENDROOT
BRANCH   1   2
ATOM      2  C   UNL     1      16.928 -19.321  22.889  1.00  0.00    -0.009 C 
BRANCH   2   3
ATOM      3  C   UNL     1      18.210 -19.066  22.041  1.00  0.00     0.000 C 
ATOM      4  C   UNL     1      19.486 -18.871  22.860  1.00  0.00     0.004 C 
ENDBRANCH   2   3
BRANCH   2   5
ATOM      5  C   UNL     1      16.597 -20.834  23.152  1.00  0.00    -0.014 C 
ATOM      6  C   UNL     1      15.089 -21.121  23.245  1.00  0.00     0.007 C 
ATOM      7  C   UNL     1      17.345 -21.432  24.354  1.00  0.00     0.007 C 
ENDBRANCH   2   5
ENDBRANCH   1   2
BRANCH   1   8
ATOM      8  C   UNL     1      15.925 -18.334  20.718  1.00  0.00     0.004 C 
BRANCH   8   9
ATOM      9  C   UNL     1      14.936 -19.128  19.822  1.00  0.00    -0.011 C 
ATOM     10  C   UNL     1      14.863 -18.557  18.389  1.00  0.00     0.008 C 
BRANCH   9  11
ATOM     11  C   UNL     1      13.548 -19.411  20.511  1.00  0.00    -0.002 C 
ATOM     12  C   UNL     1      12.942 -20.722  19.997  1.00  0.00     0.005 C 
ATOM     13  C   UNL     1      12.360 -18.372  20.437  1.00  0.00    -0.026 C 
ATOM     14  C   UNL     1      11.922 -20.328  18.946  1.00  0.00     0.005 C 
ATOM     15  C   UNL     1      11.363 -18.962  19.378  1.00  0.00    -0.001 C 
ATOM     16  C   UNL     1      11.688 -18.301  21.838  1.00  0.00     0.007 C 
ATOM     17  C   UNL     1      12.786 -16.925  20.063  1.00  0.00     0.012 C 
ATOM     18  C   UNL     1       9.844 -18.983  19.792  1.00  0.00     0.004 C 
ATOM     19  C   UNL     1      10.341 -17.554  21.867  1.00  0.00     0.005 C 
ATOM     20  C   UNL     1       9.482 -17.689  20.574  1.00  0.00     0.003 C 
ATOM     21  C   UNL     1       9.342 -20.270  20.517  1.00  0.00     0.085 C 
ATOM     22  C   UNL     1       7.942 -17.575  20.870  1.00  0.00    -0.000 C 
ATOM     23  C   UNL     1       8.009 -20.127  21.210  1.00  0.00     0.159 C 
ATOM     24  C   UNL     1       7.527 -18.806  21.673  1.00  0.00     0.005 C 
ATOM     25  C   UNL     1       7.603 -16.200  21.570  1.00  0.00     0.020 C 
ATOM     26  C   UNL     1       7.132 -17.601  19.544  1.00  0.00     0.017 C 
ATOM     27  O   UNL     1       7.348 -21.167  21.474  1.00  0.00    -0.295 OA
ATOM     28  C   UNL     1       6.781 -18.721  22.787  1.00  0.00     0.055 C 
ATOM     29  C   UNL     1       7.401 -16.269  23.086  1.00  0.00     0.081 C 
ATOM     30  C   UNL     1       6.538 -17.434  23.435  1.00  0.00     0.156 C 
ATOM     31  O   UNL     1       5.683 -17.339  24.357  1.00  0.00    -0.295 OA
ENDBRANCH   9  11
ENDBRANCH   8   9
ENDBRANCH   1   8
TORSDOF 6
ENDMDL
MODEL 9
REMARK VINA RESULT:    -6.762      2.239      3.616
REMARK INTER + INTRA:         -11.170
REMARK INTER:                  -9.186
REMARK INTRA:                  -1.984
REMARK UNBOUND:                -2.036
REMARK SMILES CC[C@@H](CC[C@H](C)[C@@H]1CC[C@H]2[C@H]3CC(=O)C4=CC(=O)CC[C@@]4(C)[C@H]3CC[C@]21C)C(C)C
REMARK SMILES IDX 4 1 3 2 2 3 1 4 29 5 30 6 31 7 5 8 6 9 7 10 8 11 9 12 27 13
REMARK SMILES IDX 10 14 11 15 26 16 28 17 12 18 25 19 24 20 13 21 22 22 14 23
REMARK SMILES IDX 16 24 21 25 23 26 15 27 17 28 20 29 18 30 19 31
REMARK H PARENT
REMARK Flexibility Score: inf
ROOT
ATOM      1  C   UNL     1       6.024 -17.309  23.947  1.00  0.00     0.004 C 
ENDROOT
BRANCH   1   2
ATOM      2  C   UNL     1       6.969 -18.540  24.083  1.00  0.00    -0.009 C 
BRANCH   2   3
ATOM      3  C   UNL     1       6.361 -19.753  23.316  1.00  0.00     0.000 C 
ATOM      4  C   UNL     1       7.374 -20.574  22.519  1.00  0.00     0.004 C 
ENDBRANCH   2   3
BRANCH   2   5
ATOM      5  C   UNL     1       7.292 -18.808  25.597  1.00  0.00    -0.014 C 
ATOM      6  C   UNL     1       8.785 -18.664  25.937  1.00  0.00     0.007 C 
ATOM      7  C   UNL     1       6.736 -20.141  26.122  1.00  0.00     0.007 C 
ENDBRANCH   2   5
ENDBRANCH   1   2
BRANCH   1   8
ATOM      8  C   UNL     1       6.662 -16.141  23.165  1.00  0.00     0.004 C 
BRANCH   8   9
ATOM      9  C   UNL     1       8.164 -15.950  23.509  1.00  0.00    -0.011 C 
ATOM     10  C   UNL     1       8.398 -14.737  24.436  1.00  0.00     0.008 C 
BRANCH   9  11
ATOM     11  C   UNL     1       9.114 -16.038  22.256  1.00  0.00    -0.002 C 
ATOM     12  C   UNL     1       8.327 -16.439  21.002  1.00  0.00     0.005 C 
ATOM     13  C   UNL     1      10.382 -16.980  22.242  1.00  0.00    -0.026 C 
ATOM     14  C   UNL     1       8.560 -17.926  20.820  1.00  0.00     0.005 C 
ATOM     15  C   UNL     1       9.971 -18.212  21.362  1.00  0.00    -0.001 C 
ATOM     16  C   UNL     1      11.558 -16.205  21.581  1.00  0.00     0.007 C 
ATOM     17  C   UNL     1      10.870 -17.431  23.648  1.00  0.00     0.012 C 
ATOM     18  C   UNL     1      11.010 -18.658  20.266  1.00  0.00     0.004 C 
ATOM     19  C   UNL     1      12.783 -17.071  21.231  1.00  0.00     0.005 C 
ATOM     20  C   UNL     1      12.458 -18.537  20.817  1.00  0.00     0.003 C 
ATOM     21  C   UNL     1      10.857 -18.001  18.859  1.00  0.00     0.085 C 
ATOM     22  C   UNL     1      13.529 -19.126  19.828  1.00  0.00    -0.000 C 
ATOM     23  C   UNL     1      12.051 -18.165  17.952  1.00  0.00     0.159 C 
ATOM     24  C   UNL     1      13.409 -18.373  18.505  1.00  0.00     0.005 C 
ATOM     25  C   UNL     1      14.973 -19.081  20.470  1.00  0.00     0.020 C 
ATOM     26  C   UNL     1      13.230 -20.622  19.532  1.00  0.00     0.017 C 
ATOM     27  O   UNL     1      11.892 -18.029  16.708  1.00  0.00    -0.295 OA
ATOM     28  C   UNL     1      14.476 -17.875  17.860  1.00  0.00     0.055 C 
ATOM     29  C   UNL     1      15.866 -17.933  19.993  1.00  0.00     0.081 C 
ATOM     30  C   UNL     1      15.783 -17.800  18.510  1.00  0.00     0.156 C 
ATOM     31  O   UNL     1      16.811 -17.517  17.838  1.00  0.00    -0.295 OA
ENDBRANCH   9  11
ENDBRANCH   8   9
ENDBRANCH   1   8
TORSDOF 6
ENDMDL
