MODEL 1
REMARK VINA RESULT:    -3.005      0.000      0.000
REMARK INTER + INTRA:          -3.577
REMARK INTER:                  -3.532
REMARK INTRA:                  -0.045
REMARK UNBOUND:                -0.045
REMARK SMILES O=C([O-])CCC(=O)[O-]
REMARK SMILES IDX 4 1 2 2 1 3 3 4 5 5 6 6 7 7 8 8
REMARK H PARENT
REMARK Flexibility Score: inf
ROOT
ATOM      1  C   UNL     1     -43.990 -38.171  14.723  1.00  0.00     0.059 C 
ENDROOT
BRANCH   1   2
ATOM      2  C   UNL     1     -44.566 -37.913  13.363  1.00  0.00     0.042 C 
ATOM      3  O   UNL     1     -44.375 -36.806  12.794  1.00  0.00    -0.550 OA
ATOM      4  O   UNL     1     -45.348 -38.880  12.743  1.00  0.00    -0.550 OA
ENDBRANCH   1   2
BRANCH   1   5
ATOM      5  C   UNL     1     -44.532 -37.185  15.763  1.00  0.00     0.059 C 
BRANCH   5   6
ATOM      6  C   UNL     1     -44.903 -37.876  17.040  1.00  0.00     0.042 C 
ATOM      7  O   UNL     1     -45.860 -38.693  17.062  1.00  0.00    -0.550 OA
ATOM      8  O   UNL     1     -44.216 -37.586  18.212  1.00  0.00    -0.550 OA
ENDBRANCH   5   6
ENDBRANCH   1   5
TORSDOF 3
ENDMDL
MODEL 2
REMARK VINA RESULT:    -2.969      0.816      4.199
REMARK INTER + INTRA:          -3.534
REMARK INTER:                  -3.490
REMARK INTRA:                  -0.045
REMARK UNBOUND:                -0.045
REMARK SMILES O=C([O-])CCC(=O)[O-]
REMARK SMILES IDX 4 1 2 2 1 3 3 4 5 5 6 6 7 7 8 8
REMARK H PARENT
REMARK Flexibility Score: inf
ROOT
ATOM      1  C   UNL     1     -44.105 -37.890  15.498  1.00  0.00     0.059 C 
ENDROOT
BRANCH   1   2
ATOM      2  C   UNL     1     -44.804 -38.106  16.807  1.00  0.00     0.042 C 
ATOM      3  O   UNL     1     -45.978 -38.560  16.832  1.00  0.00    -0.550 OA
ATOM      4  O   UNL     1     -44.172 -37.767  17.998  1.00  0.00    -0.550 OA
ENDBRANCH   1   2
BRANCH   1   5
ATOM      5  C   UNL     1     -44.877 -36.918  14.600  1.00  0.00     0.059 C 
BRANCH   5   6
ATOM      6  C   UNL     1     -44.580 -37.152  13.150  1.00  0.00     0.042 C 
ATOM      7  O   UNL     1     -44.331 -38.314  12.735  1.00  0.00    -0.550 OA
ATOM      8  O   UNL     1     -44.538 -36.080  12.267  1.00  0.00    -0.550 OA
ENDBRANCH   5   6
ENDBRANCH   1   5
TORSDOF 3
ENDMDL
MODEL 3
REMARK VINA RESULT:    -2.955     12.160     14.053
REMARK INTER + INTRA:          -3.518
REMARK INTER:                  -3.406
REMARK INTRA:                  -0.112
REMARK UNBOUND:                -0.045
REMARK SMILES O=C([O-])CCC(=O)[O-]
REMARK SMILES IDX 4 1 2 2 1 3 3 4 5 5 6 6 7 7 8 8
REMARK H PARENT
REMARK Flexibility Score: inf
ROOT
ATOM      1  C   UNL     1     -37.951 -34.109  25.989  1.00  0.00     0.059 C 
ENDROOT
BRANCH   1   2
ATOM      2  C   UNL     1     -37.736 -33.466  27.326  1.00  0.00     0.042 C 
ATOM      3  O   UNL     1     -36.699 -32.786  27.543  1.00  0.00    -0.550 OA
ATOM      4  O   UNL     1     -38.663 -33.652  28.345  1.00  0.00    -0.550 OA
ENDBRANCH   1   2
BRANCH   1   5
ATOM      5  C   UNL     1     -38.545 -33.123  24.977  1.00  0.00     0.059 C 
BRANCH   5   6
ATOM      6  C   UNL     1     -37.523 -32.672  23.979  1.00  0.00     0.042 C 
ATOM      7  O   UNL     1     -37.603 -33.045  22.779  1.00  0.00    -0.550 OA
ATOM      8  O   UNL     1     -36.459 -31.876  24.384  1.00  0.00    -0.550 OA
ENDBRANCH   5   6
ENDBRANCH   1   5
TORSDOF 3
ENDMDL
MODEL 4
REMARK VINA RESULT:    -2.889     12.154     13.457
REMARK INTER + INTRA:          -3.440
REMARK INTER:                  -3.319
REMARK INTRA:                  -0.121
REMARK UNBOUND:                -0.045
REMARK SMILES O=C([O-])CCC(=O)[O-]
REMARK SMILES IDX 4 1 2 2 1 3 3 4 5 5 6 6 7 7 8 8
REMARK H PARENT
REMARK Flexibility Score: inf
ROOT
ATOM      1  C   UNL     1     -38.631 -32.983  24.869  1.00  0.00     0.059 C 
ENDROOT
BRANCH   1   2
ATOM      2  C   UNL     1     -37.496 -32.596  23.969  1.00  0.00     0.042 C 
ATOM      3  O   UNL     1     -36.560 -31.875  24.404  1.00  0.00    -0.550 OA
ATOM      4  O   UNL     1     -37.494 -32.999  22.639  1.00  0.00    -0.550 OA
ENDBRANCH   1   2
BRANCH   1   5
ATOM      5  C   UNL     1     -38.209 -34.053  25.881  1.00  0.00     0.059 C 
BRANCH   5   6
ATOM      6  C   UNL     1     -38.002 -33.471  27.247  1.00  0.00     0.042 C 
ATOM      7  O   UNL     1     -38.970 -33.373  28.046  1.00  0.00    -0.550 OA
ATOM      8  O   UNL     1     -36.749 -33.001  27.620  1.00  0.00    -0.550 OA
ENDBRANCH   5   6
ENDBRANCH   1   5
TORSDOF 3
ENDMDL
MODEL 5
REMARK VINA RESULT:    -2.771      1.785      2.169
REMARK INTER + INTRA:          -3.302
REMARK INTER:                  -3.186
REMARK INTRA:                  -0.116
REMARK UNBOUND:                -0.045
REMARK SMILES O=C([O-])CCC(=O)[O-]
REMARK SMILES IDX 4 1 2 2 1 3 3 4 5 5 6 6 7 7 8 8
REMARK H PARENT
REMARK Flexibility Score: inf
ROOT
ATOM      1  C   UNL     1     -45.668 -36.356  14.497  1.00  0.00     0.059 C 
ENDROOT
BRANCH   1   2
ATOM      2  C   UNL     1     -45.307 -36.217  13.049  1.00  0.00     0.042 C 
ATOM      3  O   UNL     1     -44.290 -36.801  12.590  1.00  0.00    -0.550 OA
ATOM      4  O   UNL     1     -46.071 -35.410  12.215  1.00  0.00    -0.550 OA
ENDBRANCH   1   2
BRANCH   1   5
ATOM      5  C   UNL     1     -45.730 -37.826  14.925  1.00  0.00     0.059 C 
BRANCH   5   6
ATOM      6  C   UNL     1     -44.619 -38.174  15.868  1.00  0.00     0.042 C 
ATOM      7  O   UNL     1     -43.432 -38.233  15.453  1.00  0.00    -0.550 OA
ATOM      8  O   UNL     1     -44.901 -38.474  17.195  1.00  0.00    -0.550 OA
ENDBRANCH   5   6
ENDBRANCH   1   5
TORSDOF 3
ENDMDL
MODEL 6
REMARK VINA RESULT:    -2.765      1.584      4.209
REMARK INTER + INTRA:          -3.295
REMARK INTER:                  -3.212
REMARK INTRA:                  -0.083
REMARK UNBOUND:                -0.045
REMARK SMILES O=C([O-])CCC(=O)[O-]
REMARK SMILES IDX 4 1 2 2 1 3 3 4 5 5 6 6 7 7 8 8
REMARK H PARENT
REMARK Flexibility Score: inf
ROOT
ATOM      1  C   UNL     1     -44.932 -38.326  17.116  1.00  0.00     0.059 C 
ENDROOT
BRANCH   1   2
ATOM      2  C   UNL     1     -44.678 -37.100  17.941  1.00  0.00     0.042 C 
ATOM      3  O   UNL     1     -44.174 -37.203  19.090  1.00  0.00    -0.550 OA
ATOM      4  O   UNL     1     -45.036 -35.848  17.457  1.00  0.00    -0.550 OA
ENDBRANCH   1   2
BRANCH   1   5
ATOM      5  C   UNL     1     -45.290 -37.968  15.669  1.00  0.00     0.059 C 
BRANCH   5   6
ATOM      6  C   UNL     1     -44.112 -38.120  14.755  1.00  0.00     0.042 C 
ATOM      7  O   UNL     1     -42.986 -38.437  15.221  1.00  0.00    -0.550 OA
ATOM      8  O   UNL     1     -44.250 -37.871  13.396  1.00  0.00    -0.550 OA
ENDBRANCH   5   6
ENDBRANCH   1   5
TORSDOF 3
ENDMDL
MODEL 7
REMARK VINA RESULT:    -2.749      1.595      2.113
REMARK INTER + INTRA:          -3.276
REMARK INTER:                  -3.173
REMARK INTRA:                  -0.103
REMARK UNBOUND:                -0.045
REMARK SMILES O=C([O-])CCC(=O)[O-]
REMARK SMILES IDX 4 1 2 2 1 3 3 4 5 5 6 6 7 7 8 8
REMARK H PARENT
REMARK Flexibility Score: inf
ROOT
ATOM      1  C   UNL     1     -45.369 -37.915  15.687  1.00  0.00     0.059 C 
ENDROOT
BRANCH   1   2
ATOM      2  C   UNL     1     -44.178 -37.979  14.779  1.00  0.00     0.042 C 
ATOM      3  O   UNL     1     -43.072 -38.396  15.213  1.00  0.00    -0.550 OA
ATOM      4  O   UNL     1     -44.280 -37.542  13.464  1.00  0.00    -0.550 OA
ENDBRANCH   1   2
BRANCH   1   5
ATOM      5  C   UNL     1     -45.025 -38.381  17.105  1.00  0.00     0.059 C 
BRANCH   5   6
ATOM      6  C   UNL     1     -45.157 -37.268  18.100  1.00  0.00     0.042 C 
ATOM      7  O   UNL     1     -44.715 -36.121  17.828  1.00  0.00    -0.550 OA
ATOM      8  O   UNL     1     -45.730 -37.510  19.342  1.00  0.00    -0.550 OA
ENDBRANCH   5   6
ENDBRANCH   1   5
TORSDOF 3
ENDMDL
MODEL 8
REMARK VINA RESULT:    -2.729     11.997     13.056
REMARK INTER + INTRA:          -3.253
REMARK INTER:                  -3.134
REMARK INTRA:                  -0.119
REMARK UNBOUND:                -0.045
REMARK SMILES O=C([O-])CCC(=O)[O-]
REMARK SMILES IDX 4 1 2 2 1 3 3 4 5 5 6 6 7 7 8 8
REMARK H PARENT
REMARK Flexibility Score: inf
ROOT
ATOM      1  C   UNL     1     -37.517 -32.866  25.258  1.00  0.00     0.059 C 
ENDROOT
BRANCH   1   2
ATOM      2  C   UNL     1     -38.190 -32.660  23.935  1.00  0.00     0.042 C 
ATOM      3  O   UNL     1     -37.576 -32.911  22.865  1.00  0.00    -0.550 OA
ATOM      4  O   UNL     1     -39.483 -32.153  23.883  1.00  0.00    -0.550 OA
ENDBRANCH   1   2
BRANCH   1   5
ATOM      5  C   UNL     1     -38.185 -33.984  26.065  1.00  0.00     0.059 C 
BRANCH   5   6
ATOM      6  C   UNL     1     -39.012 -33.436  27.188  1.00  0.00     0.042 C 
ATOM      7  O   UNL     1     -38.507 -33.289  28.332  1.00  0.00    -0.550 OA
ATOM      8  O   UNL     1     -40.350 -33.127  26.980  1.00  0.00    -0.550 OA
ENDBRANCH   5   6
ENDBRANCH   1   5
TORSDOF 3
ENDMDL
MODEL 9
REMARK VINA RESULT:    -2.566      2.241      4.914
REMARK INTER + INTRA:          -3.062
REMARK INTER:                  -2.960
REMARK INTRA:                  -0.102
REMARK UNBOUND:                -0.045
REMARK SMILES O=C([O-])CCC(=O)[O-]
REMARK SMILES IDX 4 1 2 2 1 3 3 4 5 5 6 6 7 7 8 8
REMARK H PARENT
REMARK Flexibility Score: inf
ROOT
ATOM      1  C   UNL     1     -45.479 -37.192  18.459  1.00  0.00     0.059 C 
ENDROOT
BRANCH   1   2
ATOM      2  C   UNL     1     -44.630 -37.141  19.693  1.00  0.00     0.042 C 
ATOM      3  O   UNL     1     -43.421 -36.800  19.618  1.00  0.00    -0.550 OA
ATOM      4  O   UNL     1     -45.165 -37.510  20.921  1.00  0.00    -0.550 OA
ENDBRANCH   1   2
BRANCH   1   5
ATOM      5  C   UNL     1     -44.958 -38.229  17.458  1.00  0.00     0.059 C 
BRANCH   5   6
ATOM      6  C   UNL     1     -44.446 -37.582  16.207  1.00  0.00     0.042 C 
ATOM      7  O   UNL     1     -43.859 -38.271  15.333  1.00  0.00    -0.550 OA
ATOM      8  O   UNL     1     -44.580 -36.211  16.029  1.00  0.00    -0.550 OA
ENDBRANCH   5   6
ENDBRANCH   1   5
TORSDOF 3
ENDMDL
