MODEL 1
REMARK VINA RESULT:    -3.602      0.000      0.000
REMARK INTER + INTRA:          -5.985
REMARK INTER:                  -5.497
REMARK INTRA:                  -0.488
REMARK UNBOUND:                -0.488
REMARK SMILES O=C([O-])CCCCCCCCC(=O)[O-]
REMARK SMILES IDX 7 1 6 2 5 3 4 4 2 5 1 6 3 7 8 8 9 9 10 10 11 11 12 12 13 13
REMARK SMILES IDX 14 14
REMARK H PARENT
REMARK Flexibility Score: inf
ROOT
ATOM      1  C   UNL     1      62.246  32.740  60.640  1.00  0.00     0.000 C 
ENDROOT
BRANCH   1   2
ATOM      2  C   UNL     1      61.656  34.142  60.419  1.00  0.00     0.000 C 
BRANCH   2   3
ATOM      3  C   UNL     1      62.598  35.264  60.892  1.00  0.00     0.006 C 
BRANCH   3   4
ATOM      4  C   UNL     1      63.978  34.728  61.296  1.00  0.00     0.053 C 
BRANCH   4   5
ATOM      5  C   UNL     1      64.991  35.825  61.411  1.00  0.00     0.041 C 
ATOM      6  O   UNL     1      65.846  35.996  60.502  1.00  0.00    -0.550 OA
ATOM      7  O   UNL     1      64.973  36.679  62.507  1.00  0.00    -0.550 OA
ENDBRANCH   4   5
ENDBRANCH   3   4
ENDBRANCH   2   3
ENDBRANCH   1   2
BRANCH   1   8
ATOM      8  C   UNL     1      61.163  31.670  60.865  1.00  0.00     0.000 C 
BRANCH   8   9
ATOM      9  C   UNL     1      61.695  30.440  61.619  1.00  0.00     0.000 C 
BRANCH   9  10
ATOM     10  C   UNL     1      63.228  30.445  61.753  1.00  0.00     0.006 C 
BRANCH  10  11
ATOM     11  C   UNL     1      63.888  29.362  60.888  1.00  0.00     0.053 C 
BRANCH  11  12
ATOM     12  C   UNL     1      65.335  29.655  60.636  1.00  0.00     0.041 C 
ATOM     13  O   UNL     1      65.666  30.620  59.898  1.00  0.00    -0.550 OA
ATOM     14  O   UNL     1      66.317  28.844  61.191  1.00  0.00    -0.550 OA
ENDBRANCH  11  12
ENDBRANCH  10  11
ENDBRANCH   9  10
ENDBRANCH   8   9
ENDBRANCH   1   8
TORSDOF 9
ENDMDL
MODEL 2
REMARK VINA RESULT:    -3.598      1.217      1.466
REMARK INTER + INTRA:          -5.979
REMARK INTER:                  -5.386
REMARK INTRA:                  -0.593
REMARK UNBOUND:                -0.488
REMARK SMILES O=C([O-])CCCCCCCCC(=O)[O-]
REMARK SMILES IDX 7 1 6 2 5 3 4 4 2 5 1 6 3 7 8 8 9 9 10 10 11 11 12 12 13 13
REMARK SMILES IDX 14 14
REMARK H PARENT
REMARK Flexibility Score: inf
ROOT
ATOM      1  C   UNL     1      61.158  32.614  59.555  1.00  0.00     0.000 C 
ENDROOT
BRANCH   1   2
ATOM      2  C   UNL     1      61.667  34.050  59.351  1.00  0.00     0.000 C 
BRANCH   2   3
ATOM      3  C   UNL     1      61.913  34.786  60.680  1.00  0.00     0.006 C 
BRANCH   3   4
ATOM      4  C   UNL     1      63.163  35.675  60.628  1.00  0.00     0.053 C 
BRANCH   4   5
ATOM      5  C   UNL     1      64.313  35.064  61.367  1.00  0.00     0.041 C 
ATOM      6  O   UNL     1      64.533  33.826  61.285  1.00  0.00    -0.550 OA
ATOM      7  O   UNL     1      65.161  35.864  62.122  1.00  0.00    -0.550 OA
ENDBRANCH   4   5
ENDBRANCH   3   4
ENDBRANCH   2   3
ENDBRANCH   1   2
BRANCH   1   8
ATOM      8  C   UNL     1      61.395  32.099  60.986  1.00  0.00     0.000 C 
BRANCH   8   9
ATOM      9  C   UNL     1      61.050  30.608  61.142  1.00  0.00     0.000 C 
BRANCH   9  10
ATOM     10  C   UNL     1      62.206  29.793  61.748  1.00  0.00     0.006 C 
BRANCH  10  11
ATOM     11  C   UNL     1      63.570  30.455  61.510  1.00  0.00     0.053 C 
BRANCH  11  12
ATOM     12  C   UNL     1      64.577  29.483  60.977  1.00  0.00     0.041 C 
ATOM     13  O   UNL     1      64.279  28.265  60.858  1.00  0.00    -0.550 OA
ATOM     14  O   UNL     1      65.853  29.916  60.639  1.00  0.00    -0.550 OA
ENDBRANCH  11  12
ENDBRANCH  10  11
ENDBRANCH   9  10
ENDBRANCH   8   9
ENDBRANCH   1   8
TORSDOF 9
ENDMDL
MODEL 3
REMARK VINA RESULT:    -3.560     12.888     14.495
REMARK INTER + INTRA:          -5.921
REMARK INTER:                  -5.122
REMARK INTRA:                  -0.799
REMARK UNBOUND:                -0.488
REMARK SMILES O=C([O-])CCCCCCCCC(=O)[O-]
REMARK SMILES IDX 7 1 6 2 5 3 4 4 2 5 1 6 3 7 8 8 9 9 10 10 11 11 12 12 13 13
REMARK SMILES IDX 14 14
REMARK H PARENT
REMARK Flexibility Score: inf
ROOT
ATOM      1  C   UNL     1      57.702  29.045  51.599  1.00  0.00     0.000 C 
ENDROOT
BRANCH   1   2
ATOM      2  C   UNL     1      56.632  28.546  50.614  1.00  0.00     0.000 C 
BRANCH   2   3
ATOM      3  C   UNL     1      56.017  27.201  51.039  1.00  0.00     0.006 C 
BRANCH   3   4
ATOM      4  C   UNL     1      55.806  26.258  49.847  1.00  0.00     0.053 C 
BRANCH   4   5
ATOM      5  C   UNL     1      54.353  26.055  49.546  1.00  0.00     0.041 C 
ATOM      6  O   UNL     1      53.890  24.891  49.417  1.00  0.00    -0.550 OA
ATOM      7  O   UNL     1      53.504  27.149  49.437  1.00  0.00    -0.550 OA
ENDBRANCH   4   5
ENDBRANCH   3   4
ENDBRANCH   2   3
ENDBRANCH   1   2
BRANCH   1   8
ATOM      8  C   UNL     1      59.076  29.237  50.932  1.00  0.00     0.000 C 
BRANCH   8   9
ATOM      9  C   UNL     1      59.084  28.796  49.459  1.00  0.00     0.000 C 
BRANCH   9  10
ATOM     10  C   UNL     1      60.096  27.670  49.182  1.00  0.00     0.006 C 
BRANCH  10  11
ATOM     11  C   UNL     1      59.488  26.278  49.406  1.00  0.00     0.053 C 
BRANCH  11  12
ATOM     12  C   UNL     1      60.445  25.357  50.098  1.00  0.00     0.041 C 
ATOM     13  O   UNL     1      61.484  25.815  50.642  1.00  0.00    -0.550 OA
ATOM     14  O   UNL     1      60.205  23.989  50.115  1.00  0.00    -0.550 OA
ENDBRANCH  11  12
ENDBRANCH  10  11
ENDBRANCH   9  10
ENDBRANCH   8   9
ENDBRANCH   1   8
TORSDOF 9
ENDMDL
MODEL 4
REMARK VINA RESULT:    -3.533      0.984      5.503
REMARK INTER + INTRA:          -5.880
REMARK INTER:                  -5.177
REMARK INTRA:                  -0.703
REMARK UNBOUND:                -0.488
REMARK SMILES O=C([O-])CCCCCCCCC(=O)[O-]
REMARK SMILES IDX 7 1 6 2 5 3 4 4 2 5 1 6 3 7 8 8 9 9 10 10 11 11 12 12 13 13
REMARK SMILES IDX 14 14
REMARK H PARENT
REMARK Flexibility Score: inf
ROOT
ATOM      1  C   UNL     1      61.715  32.139  60.275  1.00  0.00     0.000 C 
ENDROOT
BRANCH   1   2
ATOM      2  C   UNL     1      61.122  31.156  61.298  1.00  0.00     0.000 C 
BRANCH   2   3
ATOM      3  C   UNL     1      62.169  30.175  61.853  1.00  0.00     0.006 C 
BRANCH   3   4
ATOM      4  C   UNL     1      63.598  30.559  61.443  1.00  0.00     0.053 C 
BRANCH   4   5
ATOM      5  C   UNL     1      64.416  29.359  61.079  1.00  0.00     0.041 C 
ATOM      6  O   UNL     1      65.664  29.461  60.941  1.00  0.00    -0.550 OA
ATOM      7  O   UNL     1      63.806  28.121  60.920  1.00  0.00    -0.550 OA
ENDBRANCH   4   5
ENDBRANCH   3   4
ENDBRANCH   2   3
ENDBRANCH   1   2
BRANCH   1   8
ATOM      8  C   UNL     1      61.455  33.610  60.648  1.00  0.00     0.000 C 
BRANCH   8   9
ATOM      9  C   UNL     1      62.514  34.562  60.068  1.00  0.00     0.000 C 
BRANCH   9  10
ATOM     10  C   UNL     1      63.949  34.044  60.266  1.00  0.00     0.006 C 
BRANCH  10  11
ATOM     11  C   UNL     1      64.555  34.512  61.597  1.00  0.00     0.053 C 
BRANCH  11  12
ATOM     12  C   UNL     1      65.142  35.886  61.490  1.00  0.00     0.041 C 
ATOM     13  O   UNL     1      66.042  36.125  60.641  1.00  0.00    -0.550 OA
ATOM     14  O   UNL     1      64.719  36.893  62.347  1.00  0.00    -0.550 OA
ENDBRANCH  11  12
ENDBRANCH  10  11
ENDBRANCH   9  10
ENDBRANCH   8   9
ENDBRANCH   1   8
TORSDOF 9
ENDMDL
MODEL 5
REMARK VINA RESULT:    -3.514      1.822      5.484
REMARK INTER + INTRA:          -5.851
REMARK INTER:                  -5.257
REMARK INTRA:                  -0.594
REMARK UNBOUND:                -0.488
REMARK SMILES O=C([O-])CCCCCCCCC(=O)[O-]
REMARK SMILES IDX 7 1 6 2 5 3 4 4 2 5 1 6 3 7 8 8 9 9 10 10 11 11 12 12 13 13
REMARK SMILES IDX 14 14
REMARK H PARENT
REMARK Flexibility Score: inf
ROOT
ATOM      1  C   UNL     1      61.207  33.548  58.975  1.00  0.00     0.000 C 
ENDROOT
BRANCH   1   2
ATOM      2  C   UNL     1      61.703  32.800  60.222  1.00  0.00     0.000 C 
BRANCH   2   3
ATOM      3  C   UNL     1      60.850  31.562  60.551  1.00  0.00     0.006 C 
BRANCH   3   4
ATOM      4  C   UNL     1      61.221  30.947  61.907  1.00  0.00     0.053 C 
BRANCH   4   5
ATOM      5  C   UNL     1      62.336  29.956  61.784  1.00  0.00     0.041 C 
ATOM      6  O   UNL     1      62.082  28.730  61.641  1.00  0.00    -0.550 OA
ATOM      7  O   UNL     1      63.657  30.387  61.798  1.00  0.00    -0.550 OA
ENDBRANCH   4   5
ENDBRANCH   3   4
ENDBRANCH   2   3
ENDBRANCH   1   2
BRANCH   1   8
ATOM      8  C   UNL     1      61.448  35.066  59.059  1.00  0.00     0.000 C 
BRANCH   8   9
ATOM      9  C   UNL     1      61.081  35.646  60.435  1.00  0.00     0.000 C 
BRANCH   9  10
ATOM     10  C   UNL     1      62.250  36.404  61.089  1.00  0.00     0.006 C 
BRANCH  10  11
ATOM     11  C   UNL     1      63.597  36.066  60.436  1.00  0.00     0.053 C 
BRANCH  11  12
ATOM     12  C   UNL     1      64.520  35.370  61.388  1.00  0.00     0.041 C 
ATOM     13  O   UNL     1      65.246  36.040  62.170  1.00  0.00    -0.550 OA
ATOM     14  O   UNL     1      64.603  33.983  61.392  1.00  0.00    -0.550 OA
ENDBRANCH  11  12
ENDBRANCH  10  11
ENDBRANCH   9  10
ENDBRANCH   8   9
ENDBRANCH   1   8
TORSDOF 9
ENDMDL
MODEL 6
REMARK VINA RESULT:    -3.502      2.528      5.922
REMARK INTER + INTRA:          -5.833
REMARK INTER:                  -4.864
REMARK INTRA:                  -0.968
REMARK UNBOUND:                -0.488
REMARK SMILES O=C([O-])CCCCCCCCC(=O)[O-]
REMARK SMILES IDX 7 1 6 2 5 3 4 4 2 5 1 6 3 7 8 8 9 9 10 10 11 11 12 12 13 13
REMARK SMILES IDX 14 14
REMARK H PARENT
REMARK Flexibility Score: inf
ROOT
ATOM      1  C   UNL     1      64.230  31.269  61.372  1.00  0.00     0.000 C 
ENDROOT
BRANCH   1   2
ATOM      2  C   UNL     1      63.392  29.995  61.179  1.00  0.00     0.000 C 
BRANCH   2   3
ATOM      3  C   UNL     1      62.047  30.050  61.924  1.00  0.00     0.006 C 
BRANCH   3   4
ATOM      4  C   UNL     1      61.162  31.206  61.436  1.00  0.00     0.053 C 
BRANCH   4   5
ATOM      5  C   UNL     1      60.780  31.047  59.997  1.00  0.00     0.041 C 
ATOM      6  O   UNL     1      61.122  31.916  59.151  1.00  0.00    -0.550 OA
ATOM      7  O   UNL     1      60.072  29.926  59.583  1.00  0.00    -0.550 OA
ENDBRANCH   4   5
ENDBRANCH   3   4
ENDBRANCH   2   3
ENDBRANCH   1   2
BRANCH   1   8
ATOM      8  C   UNL     1      64.784  31.820  60.046  1.00  0.00     0.000 C 
BRANCH   8   9
ATOM      9  C   UNL     1      64.219  33.208  59.702  1.00  0.00     0.000 C 
BRANCH   9  10
ATOM     10  C   UNL     1      63.714  33.967  60.941  1.00  0.00     0.006 C 
BRANCH  10  11
ATOM     11  C   UNL     1      62.450  34.787  60.644  1.00  0.00     0.053 C 
BRANCH  11  12
ATOM     12  C   UNL     1      62.558  36.187  61.164  1.00  0.00     0.041 C 
ATOM     13  O   UNL     1      61.573  36.968  61.089  1.00  0.00    -0.550 OA
ATOM     14  O   UNL     1      63.755  36.640  61.704  1.00  0.00    -0.550 OA
ENDBRANCH  11  12
ENDBRANCH  10  11
ENDBRANCH   9  10
ENDBRANCH   8   9
ENDBRANCH   1   8
TORSDOF 9
ENDMDL
MODEL 7
REMARK VINA RESULT:    -3.386     13.052     14.710
REMARK INTER + INTRA:          -5.656
REMARK INTER:                  -5.115
REMARK INTRA:                  -0.540
REMARK UNBOUND:                -0.488
REMARK SMILES O=C([O-])CCCCCCCCC(=O)[O-]
REMARK SMILES IDX 7 1 6 2 5 3 4 4 2 5 1 6 3 7 8 8 9 9 10 10 11 11 12 12 13 13
REMARK SMILES IDX 14 14
REMARK H PARENT
REMARK Flexibility Score: inf
ROOT
ATOM      1  C   UNL     1      57.301  29.022  51.565  1.00  0.00     0.000 C 
ENDROOT
BRANCH   1   2
ATOM      2  C   UNL     1      58.646  29.289  50.869  1.00  0.00     0.000 C 
BRANCH   2   3
ATOM      3  C   UNL     1      58.713  28.683  49.456  1.00  0.00     0.006 C 
BRANCH   3   4
ATOM      4  C   UNL     1      60.012  27.898  49.225  1.00  0.00     0.053 C 
BRANCH   4   5
ATOM      5  C   UNL     1      59.859  26.450  49.574  1.00  0.00     0.041 C 
ATOM      6  O   UNL     1      60.877  25.738  49.785  1.00  0.00    -0.550 OA
ATOM      7  O   UNL     1      58.592  25.892  49.697  1.00  0.00    -0.550 OA
ENDBRANCH   4   5
ENDBRANCH   3   4
ENDBRANCH   2   3
ENDBRANCH   1   2
BRANCH   1   8
ATOM      8  C   UNL     1      56.313  28.254  50.668  1.00  0.00     0.000 C 
BRANCH   8   9
ATOM      9  C   UNL     1      54.996  29.017  50.452  1.00  0.00     0.000 C 
BRANCH   9  10
ATOM     10  C   UNL     1      53.757  28.165  50.779  1.00  0.00     0.006 C 
BRANCH  10  11
ATOM     11  C   UNL     1      53.481  27.107  49.701  1.00  0.00     0.053 C 
BRANCH  11  12
ATOM     12  C   UNL     1      53.740  25.720  50.202  1.00  0.00     0.041 C 
ATOM     13  O   UNL     1      53.710  24.744  49.406  1.00  0.00    -0.550 OA
ATOM     14  O   UNL     1      53.983  25.500  51.552  1.00  0.00    -0.550 OA
ENDBRANCH  11  12
ENDBRANCH  10  11
ENDBRANCH   9  10
ENDBRANCH   8   9
ENDBRANCH   1   8
TORSDOF 9
ENDMDL
MODEL 8
REMARK VINA RESULT:    -3.383      1.319      2.090
REMARK INTER + INTRA:          -5.650
REMARK INTER:                  -5.055
REMARK INTRA:                  -0.595
REMARK UNBOUND:                -0.488
REMARK SMILES O=C([O-])CCCCCCCCC(=O)[O-]
REMARK SMILES IDX 7 1 6 2 5 3 4 4 2 5 1 6 3 7 8 8 9 9 10 10 11 11 12 12 13 13
REMARK SMILES IDX 14 14
REMARK H PARENT
REMARK Flexibility Score: inf
ROOT
ATOM      1  C   UNL     1      61.104  31.174  61.455  1.00  0.00     0.000 C 
ENDROOT
BRANCH   1   2
ATOM      2  C   UNL     1      61.315  32.080  60.232  1.00  0.00     0.000 C 
BRANCH   2   3
ATOM      3  C   UNL     1      61.694  33.521  60.620  1.00  0.00     0.006 C 
BRANCH   3   4
ATOM      4  C   UNL     1      63.209  33.758  60.558  1.00  0.00     0.053 C 
BRANCH   4   5
ATOM      5  C   UNL     1      63.599  35.046  61.214  1.00  0.00     0.041 C 
ATOM      6  O   UNL     1      62.780  36.001  61.271  1.00  0.00    -0.550 OA
ATOM      7  O   UNL     1      64.857  35.183  61.789  1.00  0.00    -0.550 OA
ENDBRANCH   4   5
ENDBRANCH   3   4
ENDBRANCH   2   3
ENDBRANCH   1   2
BRANCH   1   8
ATOM      8  C   UNL     1      62.339  30.313  61.774  1.00  0.00     0.000 C 
BRANCH   8   9
ATOM      9  C   UNL     1      63.056  29.816  60.508  1.00  0.00     0.000 C 
BRANCH   9  10
ATOM     10  C   UNL     1      64.561  30.139  60.513  1.00  0.00     0.006 C 
BRANCH  10  11
ATOM     11  C   UNL     1      65.399  28.983  61.075  1.00  0.00     0.053 C 
BRANCH  11  12
ATOM     12  C   UNL     1      66.848  29.121  60.721  1.00  0.00     0.041 C 
ATOM     13  O   UNL     1      67.734  28.674  61.497  1.00  0.00    -0.550 OA
ATOM     14  O   UNL     1      67.222  29.770  59.551  1.00  0.00    -0.550 OA
ENDBRANCH  11  12
ENDBRANCH  10  11
ENDBRANCH   9  10
ENDBRANCH   8   9
ENDBRANCH   1   8
TORSDOF 9
ENDMDL
MODEL 9
REMARK VINA RESULT:    -3.352     13.295     14.851
REMARK INTER + INTRA:          -5.603
REMARK INTER:                  -5.167
REMARK INTRA:                  -0.436
REMARK UNBOUND:                -0.488
REMARK SMILES O=C([O-])CCCCCCCCC(=O)[O-]
REMARK SMILES IDX 7 1 6 2 5 3 4 4 2 5 1 6 3 7 8 8 9 9 10 10 11 11 12 12 13 13
REMARK SMILES IDX 14 14
REMARK H PARENT
REMARK Flexibility Score: inf
ROOT
ATOM      1  C   UNL     1      59.838  27.402  49.331  1.00  0.00     0.000 C 
ENDROOT
BRANCH   1   2
ATOM      2  C   UNL     1      61.338  27.425  49.665  1.00  0.00     0.000 C 
BRANCH   2   3
ATOM      3  C   UNL     1      61.875  26.042  50.078  1.00  0.00     0.006 C 
BRANCH   3   4
ATOM      4  C   UNL     1      60.782  24.965  50.048  1.00  0.00     0.053 C 
BRANCH   4   5
ATOM      5  C   UNL     1      61.358  23.585  50.128  1.00  0.00     0.041 C 
ATOM      6  O   UNL     1      62.249  23.318  50.978  1.00  0.00    -0.550 OA
ATOM      7  O   UNL     1      60.890  22.584  49.285  1.00  0.00    -0.550 OA
ENDBRANCH   4   5
ENDBRANCH   3   4
ENDBRANCH   2   3
ENDBRANCH   1   2
BRANCH   1   8
ATOM      8  C   UNL     1      59.230  28.813  49.244  1.00  0.00     0.000 C 
BRANCH   8   9
ATOM      9  C   UNL     1      57.953  28.960  50.089  1.00  0.00     0.000 C 
BRANCH   9  10
ATOM     10  C   UNL     1      57.166  27.643  50.206  1.00  0.00     0.006 C 
BRANCH  10  11
ATOM     11  C   UNL     1      55.889  27.804  51.042  1.00  0.00     0.053 C 
BRANCH  11  12
ATOM     12  C   UNL     1      54.666  27.897  50.182  1.00  0.00     0.041 C 
ATOM     13  O   UNL     1      54.082  29.003  50.030  1.00  0.00    -0.550 OA
ATOM     14  O   UNL     1      54.154  26.759  49.573  1.00  0.00    -0.550 OA
ENDBRANCH  11  12
ENDBRANCH  10  11
ENDBRANCH   9  10
ENDBRANCH   8   9
ENDBRANCH   1   8
TORSDOF 9
ENDMDL
