MODEL 1
REMARK VINA RESULT:    -4.694      0.000      0.000
REMARK INTER + INTRA:          -5.515
REMARK INTER:                  -5.380
REMARK INTRA:                  -0.134
REMARK UNBOUND:                -0.134
REMARK SMILES O=C([O-])C=Cc1ccc(O)cc1
REMARK SMILES IDX 6 1 7 2 12 3 8 4 11 5 9 6 5 7 4 8 2 9 1 10 3 11 10 12
REMARK H PARENT 10 13
REMARK Flexibility Score: inf
ROOT
ATOM      1  C   UNL     1       8.659  -5.332 -10.530  1.00  0.00    -0.025 A 
ATOM      2  C   UNL     1      10.007  -5.728 -10.539  1.00  0.00     0.012 A 
ATOM      3  C   UNL     1       7.968  -5.299  -9.301  1.00  0.00     0.012 A 
ATOM      4  C   UNL     1      10.660  -6.059  -9.347  1.00  0.00     0.047 A 
ATOM      5  C   UNL     1       8.623  -5.631  -8.112  1.00  0.00     0.047 A 
ATOM      6  C   UNL     1       9.969  -6.008  -8.130  1.00  0.00     0.115 A 
ENDROOT
BRANCH   1   7
ATOM      7  C   UNL     1       8.008  -5.000 -11.822  1.00  0.00     0.010 C 
ATOM      8  C   UNL     1       7.795  -3.747 -12.251  1.00  0.00     0.025 C 
BRANCH   8   9
ATOM      9  C   UNL     1       7.156  -3.458 -13.545  1.00  0.00     0.064 C 
ATOM     10  O   UNL     1       6.513  -2.391 -13.732  1.00  0.00    -0.545 OA
ATOM     11  O   UNL     1       7.267  -4.378 -14.580  1.00  0.00    -0.545 OA
ENDBRANCH   8   9
ENDBRANCH   1   7
BRANCH   6  12
ATOM     12  O   UNL     1      10.609  -6.335  -6.936  1.00  0.00    -0.508 OA
ATOM     13  H   UNL     1      11.178  -7.169  -6.851  1.00  0.00     0.293 HD
ENDBRANCH   6  12
TORSDOF 3
ENDMDL
MODEL 2
REMARK VINA RESULT:    -4.691      1.673      5.823
REMARK INTER + INTRA:          -5.511
REMARK INTER:                  -5.368
REMARK INTRA:                  -0.142
REMARK UNBOUND:                -0.134
REMARK SMILES O=C([O-])C=Cc1ccc(O)cc1
REMARK SMILES IDX 6 1 7 2 12 3 8 4 11 5 9 6 5 7 4 8 2 9 1 10 3 11 10 12
REMARK H PARENT 10 13
REMARK Flexibility Score: inf
ROOT
ATOM      1  C   UNL     1       8.361  -5.890  -9.954  1.00  0.00    -0.025 A 
ATOM      2  C   UNL     1       8.006  -4.609 -10.408  1.00  0.00     0.012 A 
ATOM      3  C   UNL     1       8.355  -6.962 -10.871  1.00  0.00     0.012 A 
ATOM      4  C   UNL     1       7.677  -4.394 -11.750  1.00  0.00     0.047 A 
ATOM      5  C   UNL     1       8.025  -6.744 -12.212  1.00  0.00     0.047 A 
ATOM      6  C   UNL     1       7.688  -5.462 -12.656  1.00  0.00     0.115 A 
ENDROOT
BRANCH   1   7
ATOM      7  C   UNL     1       8.692  -6.069  -8.518  1.00  0.00     0.010 C 
ATOM      8  C   UNL     1       7.934  -5.603  -7.515  1.00  0.00     0.025 C 
BRANCH   8   9
ATOM      9  C   UNL     1       8.288  -5.811  -6.101  1.00  0.00     0.064 C 
ATOM     10  O   UNL     1       9.016  -4.989  -5.483  1.00  0.00    -0.545 OA
ATOM     11  O   UNL     1       7.810  -6.933  -5.437  1.00  0.00    -0.545 OA
ENDBRANCH   8   9
ENDBRANCH   1   7
BRANCH   6  12
ATOM     12  O   UNL     1       7.363  -5.260 -13.996  1.00  0.00    -0.508 OA
ATOM     13  H   UNL     1       7.449  -4.349 -14.431  1.00  0.00     0.293 HD
ENDBRANCH   6  12
TORSDOF 3
ENDMDL
MODEL 3
REMARK VINA RESULT:    -4.656      2.739      3.829
REMARK INTER + INTRA:          -5.471
REMARK INTER:                  -5.319
REMARK INTRA:                  -0.152
REMARK UNBOUND:                -0.134
REMARK SMILES O=C([O-])C=Cc1ccc(O)cc1
REMARK SMILES IDX 6 1 7 2 12 3 8 4 11 5 9 6 5 7 4 8 2 9 1 10 3 11 10 12
REMARK H PARENT 10 13
REMARK Flexibility Score: inf
ROOT
ATOM      1  C   UNL     1       8.007  -6.572  -7.455  1.00  0.00    -0.025 A 
ATOM      2  C   UNL     1       8.317  -5.426  -6.704  1.00  0.00     0.012 A 
ATOM      3  C   UNL     1       7.713  -7.772  -6.774  1.00  0.00     0.012 A 
ATOM      4  C   UNL     1       8.308  -5.466  -5.306  1.00  0.00     0.047 A 
ATOM      5  C   UNL     1       7.706  -7.809  -5.377  1.00  0.00     0.047 A 
ATOM      6  C   UNL     1       8.000  -6.658  -4.639  1.00  0.00     0.115 A 
ENDROOT
BRANCH   1   7
ATOM      7  C   UNL     1       8.040  -6.482  -8.936  1.00  0.00     0.010 C 
ATOM      8  C   UNL     1       8.124  -5.326  -9.611  1.00  0.00     0.025 C 
BRANCH   8   9
ATOM      9  C   UNL     1       8.167  -5.277 -11.082  1.00  0.00     0.064 C 
ATOM     10  O   UNL     1       8.732  -6.184 -11.749  1.00  0.00    -0.545 OA
ATOM     11  O   UNL     1       7.573  -4.211 -11.745  1.00  0.00    -0.545 OA
ENDBRANCH   8   9
ENDBRANCH   1   7
BRANCH   6  12
ATOM     12  O   UNL     1       7.988  -6.710  -3.247  1.00  0.00    -0.508 OA
ATOM     13  H   UNL     1       7.700  -7.545  -2.750  1.00  0.00     0.293 HD
ENDBRANCH   6  12
TORSDOF 3
ENDMDL
MODEL 4
REMARK VINA RESULT:    -4.643      1.620      5.765
REMARK INTER + INTRA:          -5.456
REMARK INTER:                  -5.322
REMARK INTRA:                  -0.133
REMARK UNBOUND:                -0.134
REMARK SMILES O=C([O-])C=Cc1ccc(O)cc1
REMARK SMILES IDX 6 1 7 2 12 3 8 4 11 5 9 6 5 7 4 8 2 9 1 10 3 11 10 12
REMARK H PARENT 10 13
REMARK Flexibility Score: inf
ROOT
ATOM      1  C   UNL     1       8.327  -5.765 -10.008  1.00  0.00    -0.025 A 
ATOM      2  C   UNL     1       8.358  -6.859 -10.889  1.00  0.00     0.012 A 
ATOM      3  C   UNL     1       7.983  -4.494 -10.513  1.00  0.00     0.012 A 
ATOM      4  C   UNL     1       8.028  -6.696 -12.238  1.00  0.00     0.047 A 
ATOM      5  C   UNL     1       7.655  -4.335 -11.863  1.00  0.00     0.047 A 
ATOM      6  C   UNL     1       7.673  -5.433 -12.728  1.00  0.00     0.115 A 
ENDROOT
BRANCH   1   7
ATOM      7  C   UNL     1       8.696  -5.986  -8.587  1.00  0.00     0.010 C 
ATOM      8  C   UNL     1       7.934  -5.605  -7.551  1.00  0.00     0.025 C 
BRANCH   8   9
ATOM      9  C   UNL     1       8.328  -5.854  -6.154  1.00  0.00     0.064 C 
ATOM     10  O   UNL     1       9.179  -5.126  -5.576  1.00  0.00    -0.545 OA
ATOM     11  O   UNL     1       7.749  -6.909  -5.461  1.00  0.00    -0.545 OA
ENDBRANCH   8   9
ENDBRANCH   1   7
BRANCH   6  12
ATOM     12  O   UNL     1       7.342  -5.259 -14.070  1.00  0.00    -0.508 OA
ATOM     13  H   UNL     1       6.826  -5.963 -14.584  1.00  0.00     0.293 HD
ENDBRANCH   6  12
TORSDOF 3
ENDMDL
MODEL 5
REMARK VINA RESULT:    -4.638     15.097     15.851
REMARK INTER + INTRA:          -5.450
REMARK INTER:                  -5.311
REMARK INTRA:                  -0.139
REMARK UNBOUND:                -0.134
REMARK SMILES O=C([O-])C=Cc1ccc(O)cc1
REMARK SMILES IDX 6 1 7 2 12 3 8 4 11 5 9 6 5 7 4 8 2 9 1 10 3 11 10 12
REMARK H PARENT 10 13
REMARK Flexibility Score: inf
ROOT
ATOM      1  C   UNL     1      20.285  -0.005 -19.149  1.00  0.00    -0.025 A 
ATOM      2  C   UNL     1      19.014  -0.565 -18.943  1.00  0.00     0.012 A 
ATOM      3  C   UNL     1      20.959   0.576 -18.054  1.00  0.00     0.012 A 
ATOM      4  C   UNL     1      18.437  -0.572 -17.669  1.00  0.00     0.047 A 
ATOM      5  C   UNL     1      20.378   0.568 -16.783  1.00  0.00     0.047 A 
ATOM      6  C   UNL     1      19.119  -0.007 -16.585  1.00  0.00     0.115 A 
ENDROOT
BRANCH   1   7
ATOM      7  C   UNL     1      20.851  -0.013 -20.522  1.00  0.00     0.010 C 
ATOM      8  C   UNL     1      21.310   1.082 -21.146  1.00  0.00     0.025 C 
BRANCH   8   9
ATOM      9  C   UNL     1      21.876   1.032 -22.504  1.00  0.00     0.064 C 
ATOM     10  O   UNL     1      22.016  -0.061 -23.114  1.00  0.00    -0.545 OA
ATOM     11  O   UNL     1      22.261   2.214 -23.125  1.00  0.00    -0.545 OA
ENDBRANCH   8   9
ENDBRANCH   1   7
BRANCH   6  12
ATOM     12  O   UNL     1      18.554  -0.008 -15.311  1.00  0.00    -0.508 OA
ATOM     13  H   UNL     1      17.570  -0.200 -15.168  1.00  0.00     0.293 HD
ENDBRANCH   6  12
TORSDOF 3
ENDMDL
MODEL 6
REMARK VINA RESULT:    -4.620      9.429     11.261
REMARK INTER + INTRA:          -5.429
REMARK INTER:                  -5.276
REMARK INTRA:                  -0.153
REMARK UNBOUND:                -0.134
REMARK SMILES O=C([O-])C=Cc1ccc(O)cc1
REMARK SMILES IDX 6 1 7 2 12 3 8 4 11 5 9 6 5 7 4 8 2 9 1 10 3 11 10 12
REMARK H PARENT 10 13
REMARK Flexibility Score: inf
ROOT
ATOM      1  C   UNL     1       5.227   3.797  -7.166  1.00  0.00    -0.025 A 
ATOM      2  C   UNL     1       6.419   3.393  -7.790  1.00  0.00     0.012 A 
ATOM      3  C   UNL     1       4.321   4.602  -7.887  1.00  0.00     0.012 A 
ATOM      4  C   UNL     1       6.691   3.759  -9.112  1.00  0.00     0.047 A 
ATOM      5  C   UNL     1       4.596   4.967  -9.208  1.00  0.00     0.047 A 
ATOM      6  C   UNL     1       5.777   4.546  -9.825  1.00  0.00     0.115 A 
ENDROOT
BRANCH   1   7
ATOM      7  C   UNL     1       4.990   3.391  -5.758  1.00  0.00     0.010 C 
ATOM      8  C   UNL     1       5.858   2.671  -5.033  1.00  0.00     0.025 C 
BRANCH   8   9
ATOM      9  C   UNL     1       5.593   2.298  -3.633  1.00  0.00     0.064 C 
ATOM     10  O   UNL     1       4.917   3.043  -2.876  1.00  0.00    -0.545 OA
ATOM     11  O   UNL     1       6.097   1.101  -3.140  1.00  0.00    -0.545 OA
ENDBRANCH   8   9
ENDBRANCH   1   7
BRANCH   6  12
ATOM     12  O   UNL     1       6.036   4.917 -11.143  1.00  0.00    -0.508 OA
ATOM     13  H   UNL     1       5.363   4.754 -11.881  1.00  0.00     0.293 HD
ENDBRANCH   6  12
TORSDOF 3
ENDMDL
MODEL 7
REMARK VINA RESULT:    -4.588     10.596     11.572
REMARK INTER + INTRA:          -5.393
REMARK INTER:                  -5.258
REMARK INTRA:                  -0.135
REMARK UNBOUND:                -0.134
REMARK SMILES O=C([O-])C=Cc1ccc(O)cc1
REMARK SMILES IDX 6 1 7 2 12 3 8 4 11 5 9 6 5 7 4 8 2 9 1 10 3 11 10 12
REMARK H PARENT 10 13
REMARK Flexibility Score: inf
ROOT
ATOM      1  C   UNL     1       4.836   5.338  -8.817  1.00  0.00    -0.025 A 
ATOM      2  C   UNL     1       6.025   4.594  -8.907  1.00  0.00     0.012 A 
ATOM      3  C   UNL     1       3.946   5.072  -7.756  1.00  0.00     0.012 A 
ATOM      4  C   UNL     1       6.334   3.627  -7.945  1.00  0.00     0.047 A 
ATOM      5  C   UNL     1       4.258   4.104  -6.797  1.00  0.00     0.047 A 
ATOM      6  C   UNL     1       5.451   3.381  -6.886  1.00  0.00     0.115 A 
ENDROOT
BRANCH   1   7
ATOM      7  C   UNL     1       4.548   6.346  -9.868  1.00  0.00     0.010 C 
ATOM      8  C   UNL     1       4.923   7.632  -9.790  1.00  0.00     0.025 C 
BRANCH   8   9
ATOM      9  C   UNL     1       4.629   8.601 -10.859  1.00  0.00     0.064 C 
ATOM     10  O   UNL     1       5.050   9.786 -10.799  1.00  0.00    -0.545 OA
ATOM     11  O   UNL     1       3.876   8.199 -11.955  1.00  0.00    -0.545 OA
ENDBRANCH   8   9
ENDBRANCH   1   7
BRANCH   6  12
ATOM     12  O   UNL     1       5.748   2.420  -5.922  1.00  0.00    -0.508 OA
ATOM     13  H   UNL     1       5.476   1.451  -6.039  1.00  0.00     0.293 HD
ENDBRANCH   6  12
TORSDOF 3
ENDMDL
MODEL 8
REMARK VINA RESULT:    -4.553      3.765      4.313
REMARK INTER + INTRA:          -5.353
REMARK INTER:                  -5.216
REMARK INTRA:                  -0.137
REMARK UNBOUND:                -0.134
REMARK SMILES O=C([O-])C=Cc1ccc(O)cc1
REMARK SMILES IDX 6 1 7 2 12 3 8 4 11 5 9 6 5 7 4 8 2 9 1 10 3 11 10 12
REMARK H PARENT 10 13
REMARK Flexibility Score: inf
ROOT
ATOM      1  C   UNL     1       8.454  -7.443  -8.431  1.00  0.00    -0.025 A 
ATOM      2  C   UNL     1       7.782  -6.802  -7.377  1.00  0.00     0.012 A 
ATOM      3  C   UNL     1       9.828  -7.188  -8.618  1.00  0.00     0.012 A 
ATOM      4  C   UNL     1       8.470  -5.945  -6.511  1.00  0.00     0.047 A 
ATOM      5  C   UNL     1      10.512  -6.330  -7.751  1.00  0.00     0.047 A 
ATOM      6  C   UNL     1       9.838  -5.709  -6.696  1.00  0.00     0.115 A 
ENDROOT
BRANCH   1   7
ATOM      7  C   UNL     1       7.678  -8.336  -9.328  1.00  0.00     0.010 C 
ATOM      8  C   UNL     1       7.584  -8.160 -10.655  1.00  0.00     0.025 C 
BRANCH   8   9
ATOM      9  C   UNL     1       6.815  -9.074 -11.515  1.00  0.00     0.064 C 
ATOM     10  O   UNL     1       7.161  -9.297 -12.706  1.00  0.00    -0.545 OA
ATOM     11  O   UNL     1       5.687  -9.703 -11.003  1.00  0.00    -0.545 OA
ENDBRANCH   8   9
ENDBRANCH   1   7
BRANCH   6  12
ATOM     12  O   UNL     1      10.534  -4.857  -5.840  1.00  0.00    -0.508 OA
ATOM     13  H   UNL     1      11.546  -4.828  -5.830  1.00  0.00     0.293 HD
ENDBRANCH   6  12
TORSDOF 3
ENDMDL
MODEL 9
REMARK VINA RESULT:    -4.528     15.520     16.752
REMARK INTER + INTRA:          -5.324
REMARK INTER:                  -5.187
REMARK INTRA:                  -0.137
REMARK UNBOUND:                -0.134
REMARK SMILES O=C([O-])C=Cc1ccc(O)cc1
REMARK SMILES IDX 6 1 7 2 12 3 8 4 11 5 9 6 5 7 4 8 2 9 1 10 3 11 10 12
REMARK H PARENT 10 13
REMARK Flexibility Score: inf
ROOT
ATOM      1  C   UNL     1      21.074   0.367 -18.482  1.00  0.00    -0.025 A 
ATOM      2  C   UNL     1      20.571  -0.934 -18.658  1.00  0.00     0.012 A 
ATOM      3  C   UNL     1      21.396   1.131 -19.623  1.00  0.00     0.012 A 
ATOM      4  C   UNL     1      20.370  -1.452 -19.941  1.00  0.00     0.047 A 
ATOM      5  C   UNL     1      21.194   0.609 -20.904  1.00  0.00     0.047 A 
ATOM      6  C   UNL     1      20.679  -0.680 -21.068  1.00  0.00     0.115 A 
ENDROOT
BRANCH   1   7
ATOM      7  C   UNL     1      21.280   0.868 -17.100  1.00  0.00     0.010 C 
ATOM      8  C   UNL     1      22.481   1.182 -16.592  1.00  0.00     0.025 C 
BRANCH   8   9
ATOM      9  C   UNL     1      22.644   1.689 -15.220  1.00  0.00     0.064 C 
ATOM     10  O   UNL     1      23.760   1.645 -14.636  1.00  0.00    -0.545 OA
ATOM     11  O   UNL     1      21.548   2.225 -14.557  1.00  0.00    -0.545 OA
ENDBRANCH   8   9
ENDBRANCH   1   7
BRANCH   6  12
ATOM     12  O   UNL     1      20.482  -1.186 -22.351  1.00  0.00    -0.508 OA
ATOM     13  H   UNL     1      20.796  -0.683 -23.172  1.00  0.00     0.293 HD
ENDBRANCH   6  12
TORSDOF 3
ENDMDL
