MODEL 1
REMARK VINA RESULT:    -4.415      0.000      0.000
REMARK INTER + INTRA:          -4.833
REMARK INTER:                  -4.802
REMARK INTRA:                  -0.031
REMARK UNBOUND:                -0.031
REMARK SMILES O=C([O-])c1ccc(O)cc1
REMARK SMILES IDX 4 1 5 2 10 3 6 4 9 5 7 6 2 7 1 8 3 9 8 10
REMARK H PARENT 8 11
REMARK Flexibility Score: inf
ROOT
ATOM      1  C   UNL     1      20.728   0.366 -20.351  1.00  0.00    -0.003 A 
ATOM      2  C   UNL     1      21.154   0.711 -19.057  1.00  0.00     0.014 A 
ATOM      3  C   UNL     1      19.633  -0.507 -20.498  1.00  0.00     0.014 A 
ATOM      4  C   UNL     1      20.500   0.196 -17.934  1.00  0.00     0.047 A 
ATOM      5  C   UNL     1      18.981  -1.020 -19.374  1.00  0.00     0.047 A 
ATOM      6  C   UNL     1      19.411  -0.671 -18.090  1.00  0.00     0.115 A 
ENDROOT
BRANCH   1   7
ATOM      7  C   UNL     1      21.421   0.913 -21.538  1.00  0.00     0.071 C 
ATOM      8  O   UNL     1      21.669   2.145 -21.625  1.00  0.00    -0.545 OA
ATOM      9  O   UNL     1      21.811   0.073 -22.576  1.00  0.00    -0.545 OA
ENDBRANCH   1   7
BRANCH   6  10
ATOM     10  O   UNL     1      18.751  -1.192 -16.979  1.00  0.00    -0.508 OA
ATOM     11  H   UNL     1      19.005  -0.918 -16.037  1.00  0.00     0.293 HD
ENDBRANCH   6  10
TORSDOF 2
ENDMDL
MODEL 2
REMARK VINA RESULT:    -4.412      0.049      1.532
REMARK INTER + INTRA:          -4.829
REMARK INTER:                  -4.799
REMARK INTRA:                  -0.031
REMARK UNBOUND:                -0.031
REMARK SMILES O=C([O-])c1ccc(O)cc1
REMARK SMILES IDX 4 1 5 2 10 3 6 4 9 5 7 6 2 7 1 8 3 9 8 10
REMARK H PARENT 8 11
REMARK Flexibility Score: inf
ROOT
ATOM      1  C   UNL     1      20.738   0.378 -20.347  1.00  0.00    -0.003 A 
ATOM      2  C   UNL     1      19.664  -0.511 -20.525  1.00  0.00     0.014 A 
ATOM      3  C   UNL     1      21.134   0.715 -19.039  1.00  0.00     0.014 A 
ATOM      4  C   UNL     1      19.000  -1.050 -19.420  1.00  0.00     0.047 A 
ATOM      5  C   UNL     1      20.468   0.174 -17.936  1.00  0.00     0.047 A 
ATOM      6  C   UNL     1      19.400  -0.710 -18.122  1.00  0.00     0.115 A 
ENDROOT
BRANCH   1   7
ATOM      7  C   UNL     1      21.440   0.948 -21.518  1.00  0.00     0.071 C 
ATOM      8  O   UNL     1      21.675   2.184 -21.586  1.00  0.00    -0.545 OA
ATOM      9  O   UNL     1      21.850   0.126 -22.562  1.00  0.00    -0.545 OA
ENDBRANCH   1   7
BRANCH   6  10
ATOM     10  O   UNL     1      18.746  -1.241 -17.013  1.00  0.00    -0.508 OA
ATOM     11  H   UNL     1      18.903  -2.197 -16.714  1.00  0.00     0.293 HD
ENDBRANCH   6  10
TORSDOF 2
ENDMDL
MODEL 3
REMARK VINA RESULT:    -4.267     18.908     19.945
REMARK INTER + INTRA:          -4.672
REMARK INTER:                  -4.643
REMARK INTRA:                  -0.029
REMARK UNBOUND:                -0.031
REMARK SMILES O=C([O-])c1ccc(O)cc1
REMARK SMILES IDX 4 1 5 2 10 3 6 4 9 5 7 6 2 7 1 8 3 9 8 10
REMARK H PARENT 8 11
REMARK Flexibility Score: inf
ROOT
ATOM      1  C   UNL     1       4.720   5.423  -8.838  1.00  0.00    -0.003 A 
ATOM      2  C   UNL     1       3.944   4.977  -7.754  1.00  0.00     0.014 A 
ATOM      3  C   UNL     1       5.990   4.855  -9.047  1.00  0.00     0.014 A 
ATOM      4  C   UNL     1       4.429   3.984  -6.898  1.00  0.00     0.047 A 
ATOM      5  C   UNL     1       6.472   3.863  -8.189  1.00  0.00     0.047 A 
ATOM      6  C   UNL     1       5.694   3.424  -7.113  1.00  0.00     0.115 A 
ENDROOT
BRANCH   1   7
ATOM      7  C   UNL     1       4.206   6.475  -9.743  1.00  0.00     0.071 C 
ATOM      8  O   UNL     1       4.003   6.228 -10.962  1.00  0.00    -0.545 OA
ATOM      9  O   UNL     1       3.939   7.751  -9.261  1.00  0.00    -0.545 OA
ENDBRANCH   1   7
BRANCH   6  10
ATOM     10  O   UNL     1       6.187   2.434  -6.267  1.00  0.00    -0.508 OA
ATOM     11  H   UNL     1       5.566   1.815  -5.758  1.00  0.00     0.293 HD
ENDBRANCH   6  10
TORSDOF 2
ENDMDL
MODEL 4
REMARK VINA RESULT:    -4.240      1.756      4.080
REMARK INTER + INTRA:          -4.643
REMARK INTER:                  -4.614
REMARK INTRA:                  -0.029
REMARK UNBOUND:                -0.031
REMARK SMILES O=C([O-])c1ccc(O)cc1
REMARK SMILES IDX 4 1 5 2 10 3 6 4 9 5 7 6 2 7 1 8 3 9 8 10
REMARK H PARENT 8 11
REMARK Flexibility Score: inf
ROOT
ATOM      1  C   UNL     1      20.800   0.221 -18.435  1.00  0.00    -0.003 A 
ATOM      2  C   UNL     1      20.361  -1.086 -18.710  1.00  0.00     0.014 A 
ATOM      3  C   UNL     1      21.187   1.050 -19.504  1.00  0.00     0.014 A 
ATOM      4  C   UNL     1      20.309  -1.553 -20.026  1.00  0.00     0.047 A 
ATOM      5  C   UNL     1      21.134   0.579 -20.819  1.00  0.00     0.047 A 
ATOM      6  C   UNL     1      20.695  -0.722 -21.085  1.00  0.00     0.115 A 
ENDROOT
BRANCH   1   7
ATOM      7  C   UNL     1      20.854   0.714 -17.040  1.00  0.00     0.071 C 
ATOM      8  O   UNL     1      21.952   1.046 -16.519  1.00  0.00    -0.545 OA
ATOM      9  O   UNL     1      19.691   0.817 -16.284  1.00  0.00    -0.545 OA
ENDBRANCH   1   7
BRANCH   6  10
ATOM     10  O   UNL     1      20.648  -1.176 -22.400  1.00  0.00    -0.508 OA
ATOM     11  H   UNL     1      20.287  -2.095 -22.630  1.00  0.00     0.293 HD
ENDBRANCH   6  10
TORSDOF 2
ENDMDL
MODEL 5
REMARK VINA RESULT:    -4.216     18.805     19.784
REMARK INTER + INTRA:          -4.617
REMARK INTER:                  -4.588
REMARK INTRA:                  -0.029
REMARK UNBOUND:                -0.031
REMARK SMILES O=C([O-])c1ccc(O)cc1
REMARK SMILES IDX 4 1 5 2 10 3 6 4 9 5 7 6 2 7 1 8 3 9 8 10
REMARK H PARENT 8 11
REMARK Flexibility Score: inf
ROOT
ATOM      1  C   UNL     1       4.805   5.212  -8.873  1.00  0.00    -0.003 A 
ATOM      2  C   UNL     1       6.086   4.651  -9.018  1.00  0.00     0.014 A 
ATOM      3  C   UNL     1       4.016   4.834  -7.771  1.00  0.00     0.014 A 
ATOM      4  C   UNL     1       6.567   3.731  -8.083  1.00  0.00     0.047 A 
ATOM      5  C   UNL     1       4.500   3.914  -6.837  1.00  0.00     0.047 A 
ATOM      6  C   UNL     1       5.775   3.360  -6.989  1.00  0.00     0.115 A 
ENDROOT
BRANCH   1   7
ATOM      7  C   UNL     1       4.298   6.186  -9.865  1.00  0.00     0.071 C 
ATOM      8  O   UNL     1       3.991   7.357  -9.515  1.00  0.00    -0.545 OA
ATOM      9  O   UNL     1       4.154   5.822 -11.199  1.00  0.00    -0.545 OA
ENDBRANCH   1   7
BRANCH   6  10
ATOM     10  O   UNL     1       6.243   2.445  -6.049  1.00  0.00    -0.508 OA
ATOM     11  H   UNL     1       5.834   2.380  -5.124  1.00  0.00     0.293 HD
ENDBRANCH   6  10
TORSDOF 2
ENDMDL
MODEL 6
REMARK VINA RESULT:    -4.140     17.291     17.882
REMARK INTER + INTRA:          -4.534
REMARK INTER:                  -4.507
REMARK INTRA:                  -0.027
REMARK UNBOUND:                -0.031
REMARK SMILES O=C([O-])c1ccc(O)cc1
REMARK SMILES IDX 4 1 5 2 10 3 6 4 9 5 7 6 2 7 1 8 3 9 8 10
REMARK H PARENT 8 11
REMARK Flexibility Score: inf
ROOT
ATOM      1  C   UNL     1       8.430  -7.476  -9.153  1.00  0.00    -0.003 A 
ATOM      2  C   UNL     1       9.751  -7.795  -8.790  1.00  0.00     0.014 A 
ATOM      3  C   UNL     1       7.801  -6.378  -8.537  1.00  0.00     0.014 A 
ATOM      4  C   UNL     1      10.426  -7.034  -7.833  1.00  0.00     0.047 A 
ATOM      5  C   UNL     1       8.479  -5.618  -7.580  1.00  0.00     0.047 A 
ATOM      6  C   UNL     1       9.793  -5.942  -7.225  1.00  0.00     0.115 A 
ENDROOT
BRANCH   1   7
ATOM      7  C   UNL     1       7.717  -8.284 -10.167  1.00  0.00     0.071 C 
ATOM      8  O   UNL     1       7.208  -9.394  -9.860  1.00  0.00    -0.545 OA
ATOM      9  O   UNL     1       7.598  -7.827 -11.475  1.00  0.00    -0.545 OA
ENDBRANCH   1   7
BRANCH   6  10
ATOM     10  O   UNL     1      10.456  -5.176  -6.270  1.00  0.00    -0.508 OA
ATOM     11  H   UNL     1      10.031  -4.963  -5.374  1.00  0.00     0.293 HD
ENDBRANCH   6  10
TORSDOF 2
ENDMDL
MODEL 7
REMARK VINA RESULT:    -4.097      2.323      3.198
REMARK INTER + INTRA:          -4.486
REMARK INTER:                  -4.453
REMARK INTRA:                  -0.033
REMARK UNBOUND:                -0.031
REMARK SMILES O=C([O-])c1ccc(O)cc1
REMARK SMILES IDX 4 1 5 2 10 3 6 4 9 5 7 6 2 7 1 8 3 9 8 10
REMARK H PARENT 8 11
REMARK Flexibility Score: inf
ROOT
ATOM      1  C   UNL     1      21.446   0.778 -18.260  1.00  0.00    -0.003 A 
ATOM      2  C   UNL     1      21.195   0.768 -19.643  1.00  0.00     0.014 A 
ATOM      3  C   UNL     1      20.568   0.089 -17.403  1.00  0.00     0.014 A 
ATOM      4  C   UNL     1      20.089   0.086 -20.157  1.00  0.00     0.047 A 
ATOM      5  C   UNL     1      19.463  -0.592 -17.920  1.00  0.00     0.047 A 
ATOM      6  C   UNL     1      19.220  -0.597 -19.297  1.00  0.00     0.115 A 
ENDROOT
BRANCH   1   7
ATOM      7  C   UNL     1      22.618   1.501 -17.717  1.00  0.00     0.071 C 
ATOM      8  O   UNL     1      23.031   2.557 -18.267  1.00  0.00    -0.545 OA
ATOM      9  O   UNL     1      23.280   1.025 -16.591  1.00  0.00    -0.545 OA
ENDBRANCH   1   7
BRANCH   6  10
ATOM     10  O   UNL     1      18.116  -1.281 -19.798  1.00  0.00    -0.508 OA
ATOM     11  H   UNL     1      17.197  -0.854 -19.827  1.00  0.00     0.293 HD
ENDBRANCH   6  10
TORSDOF 2
ENDMDL
MODEL 8
REMARK VINA RESULT:    -3.969     17.687     19.373
REMARK INTER + INTRA:          -4.348
REMARK INTER:                  -4.312
REMARK INTRA:                  -0.036
REMARK UNBOUND:                -0.031
REMARK SMILES O=C([O-])c1ccc(O)cc1
REMARK SMILES IDX 4 1 5 2 10 3 6 4 9 5 7 6 2 7 1 8 3 9 8 10
REMARK H PARENT 8 11
REMARK Flexibility Score: inf
ROOT
ATOM      1  C   UNL     1       8.009  -6.784  -7.448  1.00  0.00    -0.003 A 
ATOM      2  C   UNL     1       7.669  -7.923  -6.697  1.00  0.00     0.014 A 
ATOM      3  C   UNL     1       8.340  -5.596  -6.772  1.00  0.00     0.014 A 
ATOM      4  C   UNL     1       7.661  -7.875  -5.301  1.00  0.00     0.047 A 
ATOM      5  C   UNL     1       8.331  -5.550  -5.375  1.00  0.00     0.047 A 
ATOM      6  C   UNL     1       7.992  -6.688  -4.635  1.00  0.00     0.115 A 
ENDROOT
BRANCH   1   7
ATOM      7  C   UNL     1       8.017  -6.838  -8.927  1.00  0.00     0.071 C 
ATOM      8  O   UNL     1       7.693  -7.894  -9.532  1.00  0.00    -0.545 OA
ATOM      9  O   UNL     1       8.384  -5.721  -9.670  1.00  0.00    -0.545 OA
ENDBRANCH   1   7
BRANCH   6  10
ATOM     10  O   UNL     1       7.987  -6.627  -3.244  1.00  0.00    -0.508 OA
ATOM     11  H   UNL     1       8.847  -6.681  -2.709  1.00  0.00     0.293 HD
ENDBRANCH   6  10
TORSDOF 2
ENDMDL
