MODEL 1
REMARK VINA RESULT:    -3.827      0.000      0.000
REMARK INTER + INTRA:          -6.273
REMARK INTER:                  -5.616
REMARK INTRA:                  -0.656
REMARK UNBOUND:                -0.656
REMARK SMILES C=C1C=C[C@H](C(C)C)CCC(C)=CCC1
REMARK SMILES IDX 3 1 4 2 5 3 9 4 10 5 11 6 12 7 13 8 6 10 7 11 8 12 2 13 1 14
REMARK SMILES IDX 15 15 14 16
REMARK H PARENT
REMARK Flexibility Score: 70.00
ROOT
ATOM      1  C   UNL     1      32.377   7.697  32.813  1.00  0.00    -0.001 C 
ATOM      2  C   UNL     1      32.851   8.943  32.637  1.00  0.00    -0.023 C 
ENDROOT
BRANCH   2   3
ATOM      3  C   UNL     1      32.058  10.246  32.639  1.00  0.00     0.014 C 
BRANCH   3   4
ATOM      4  C   UNL     1      32.187  11.061  33.955  1.00  0.00     0.012 C 
BRANCH   4   5
ATOM      5  C   UNL     1      30.888  11.125  34.781  1.00  0.00     0.031 C 
BRANCH   5   6
ATOM      6  C   UNL     1      30.907  10.221  36.000  1.00  0.00    -0.077 C 
ATOM      7  C   UNL     1      31.616  10.709  37.240  1.00  0.00     0.039 C 
ATOM      8  C   UNL     1      30.230   9.046  36.089  1.00  0.00    -0.028 CG0
ATOM      9  G   UNL     1      29.572   8.257  34.971  1.00  0.00     0.000 G0
ENDBRANCH   5   6
ENDBRANCH   4   5
ENDBRANCH   3   4
BRANCH   3  10
ATOM     10  C   UNL     1      32.371  11.112  31.377  1.00  0.00    -0.010 C 
ATOM     11  C   UNL     1      31.760  10.502  30.101  1.00  0.00     0.008 C 
ATOM     12  C   UNL     1      31.864  12.556  31.531  1.00  0.00     0.008 C 
ENDBRANCH   3  10
ENDBRANCH   2   3
BRANCH   1  13
ATOM     13  C   UNL     1      30.961   7.344  33.011  1.00  0.00    -0.055 C 
ATOM     14  C   UNL     1      30.104   7.498  31.998  1.00  0.00     0.012 C 
BRANCH  13  15
ATOM     15  C   UNL     1      30.448   7.077  34.412  1.00  0.00     0.039 C 
BRANCH  15  16
ATOM     16  C   UNL     1      29.594   8.239  34.969  1.00  0.00     0.032 CG0
ATOM     17  G   UNL     1      30.218   9.051  36.089  1.00  0.00     0.000 G0
ENDBRANCH  15  16
ENDBRANCH  13  15
ENDBRANCH   1  13
TORSDOF 1
ENDMDL
MODEL 2
REMARK VINA RESULT:    -3.604      3.716      6.305
REMARK INTER + INTRA:          -5.946
REMARK INTER:                  -5.310
REMARK INTRA:                  -0.636
REMARK UNBOUND:                -0.656
REMARK SMILES C=C1C=C[C@H](C(C)C)CCC(C)=CCC1
REMARK SMILES IDX 3 1 4 2 5 3 9 4 10 5 11 6 12 7 13 8 6 10 7 11 8 12 2 13 1 14
REMARK SMILES IDX 15 15 14 16
REMARK H PARENT
REMARK Flexibility Score: 70.00
ROOT
ATOM      1  C   UNL     1      29.127   9.049  29.543  1.00  0.00    -0.001 C 
ATOM      2  C   UNL     1      29.707   9.971  30.332  1.00  0.00    -0.023 C 
ENDROOT
BRANCH   2   3
ATOM      3  C   UNL     1      31.189  10.104  30.669  1.00  0.00     0.014 C 
BRANCH   3   4
ATOM      4  C   UNL     1      31.837  11.422  30.162  1.00  0.00     0.012 C 
BRANCH   4   5
ATOM      5  C   UNL     1      32.789  11.231  28.967  1.00  0.00     0.031 C 
BRANCH   5   6
ATOM      6  C   UNL     1      32.086  11.298  27.623  1.00  0.00    -0.077 C 
ATOM      7  C   UNL     1      31.868  12.654  26.998  1.00  0.00     0.039 C 
ATOM      8  C   UNL     1      31.740  10.208  26.888  1.00  0.00    -0.028 CG0
ATOM      9  G   UNL     1      31.706   8.755  27.327  1.00  0.00     0.000 G0
ENDBRANCH   5   6
ENDBRANCH   4   5
ENDBRANCH   3   4
BRANCH   3  10
ATOM     10  C   UNL     1      31.456   9.863  32.190  1.00  0.00    -0.010 C 
ATOM     11  C   UNL     1      31.364   8.370  32.556  1.00  0.00     0.008 C 
ATOM     12  C   UNL     1      32.832  10.399  32.623  1.00  0.00     0.008 C 
ENDBRANCH   3  10
ENDBRANCH   2   3
BRANCH   1  13
ATOM     13  C   UNL     1      29.828   7.944  28.868  1.00  0.00    -0.055 C 
ATOM     14  C   UNL     1      30.262   6.909  29.592  1.00  0.00     0.012 C 
BRANCH  13  15
ATOM     15  C   UNL     1      30.283   8.117  27.432  1.00  0.00     0.039 C 
BRANCH  15  16
ATOM     16  C   UNL     1      31.692   8.744  27.322  1.00  0.00     0.032 CG0
ATOM     17  G   UNL     1      31.744  10.198  26.888  1.00  0.00     0.000 G0
ENDBRANCH  15  16
ENDBRANCH  13  15
ENDBRANCH   1  13
TORSDOF 1
ENDMDL
MODEL 3
REMARK VINA RESULT:    -3.567      2.609      5.585
REMARK INTER + INTRA:          -5.892
REMARK INTER:                  -5.192
REMARK INTRA:                  -0.700
REMARK UNBOUND:                -0.656
REMARK SMILES C=C1C=C[C@H](C(C)C)CCC(C)=CCC1
REMARK SMILES IDX 3 1 4 2 5 3 9 4 10 5 11 6 12 7 13 8 6 10 7 11 8 12 2 13 1 14
REMARK SMILES IDX 15 15 14 16
REMARK H PARENT
REMARK Flexibility Score: 70.00
ROOT
ATOM      1  C   UNL     1      32.924   9.658  32.632  1.00  0.00    -0.001 C 
ATOM      2  C   UNL     1      32.027   8.681  32.412  1.00  0.00    -0.023 C 
ENDROOT
BRANCH   2   3
ATOM      3  C   UNL     1      30.508   8.813  32.349  1.00  0.00     0.014 C 
BRANCH   3   4
ATOM      4  C   UNL     1      29.901   8.459  30.963  1.00  0.00     0.012 C 
BRANCH   4   5
ATOM      5  C   UNL     1      30.854   8.712  29.780  1.00  0.00     0.031 C 
BRANCH   5   6
ATOM      6  C   UNL     1      30.654  10.068  29.127  1.00  0.00    -0.077 C 
ATOM      7  C   UNL     1      29.546  10.215  28.113  1.00  0.00     0.039 C 
ATOM      8  C   UNL     1      31.332  11.192  29.479  1.00  0.00    -0.028 CG0
ATOM      9  G   UNL     1      32.576  11.303  30.344  1.00  0.00     0.000 G0
ENDBRANCH   5   6
ENDBRANCH   4   5
ENDBRANCH   3   4
BRANCH   3  10
ATOM     10  C   UNL     1      29.816   8.033  33.512  1.00  0.00    -0.010 C 
ATOM     11  C   UNL     1      30.770   7.016  34.165  1.00  0.00     0.008 C 
ATOM     12  C   UNL     1      29.280   8.982  34.599  1.00  0.00     0.008 C 
ENDBRANCH   3  10
ENDBRANCH   2   3
BRANCH   1  13
ATOM     13  C   UNL     1      32.598  11.070  32.895  1.00  0.00    -0.055 C 
ATOM     14  C   UNL     1      32.267  11.443  34.134  1.00  0.00     0.012 C 
BRANCH  13  15
ATOM     15  C   UNL     1      32.378  12.014  31.729  1.00  0.00     0.039 C 
BRANCH  15  16
ATOM     16  C   UNL     1      32.577  11.330  30.358  1.00  0.00     0.032 CG0
ATOM     17  G   UNL     1      31.332  11.170  29.503  1.00  0.00     0.000 G0
ENDBRANCH  15  16
ENDBRANCH  13  15
ENDBRANCH   1  13
TORSDOF 1
ENDMDL
MODEL 4
REMARK VINA RESULT:    -3.555      4.133      6.819
REMARK INTER + INTRA:          -5.874
REMARK INTER:                  -5.192
REMARK INTRA:                  -0.682
REMARK UNBOUND:                -0.656
REMARK SMILES C=C1C=C[C@H](C(C)C)CCC(C)=CCC1
REMARK SMILES IDX 3 1 4 2 5 3 9 4 10 5 11 6 12 7 13 8 6 10 7 11 8 12 2 13 1 14
REMARK SMILES IDX 15 15 14 16
REMARK H PARENT
REMARK Flexibility Score: 70.00
ROOT
ATOM      1  C   UNL     1      29.351   9.809  29.792  1.00  0.00    -0.001 C 
ATOM      2  C   UNL     1      30.292  10.727  30.073  1.00  0.00    -0.023 C 
ENDROOT
BRANCH   2   3
ATOM      3  C   UNL     1      31.794  10.622  29.824  1.00  0.00     0.014 C 
BRANCH   3   4
ATOM      4  C   UNL     1      32.260  11.269  28.491  1.00  0.00     0.012 C 
BRANCH   4   5
ATOM      5  C   UNL     1      31.135  11.980  27.715  1.00  0.00     0.031 C 
BRANCH   5   6
ATOM      6  C   UNL     1      30.934  11.432  26.313  1.00  0.00    -0.077 C 
ATOM      7  C   UNL     1      31.677  12.089  25.176  1.00  0.00     0.039 C 
ATOM      8  C   UNL     1      30.217  10.313  26.028  1.00  0.00    -0.028 CG0
ATOM      9  G   UNL     1      29.264   9.554  26.934  1.00  0.00     0.000 G0
ENDBRANCH   5   6
ENDBRANCH   4   5
ENDBRANCH   3   4
BRANCH   3  10
ATOM     10  C   UNL     1      32.616  11.138  31.048  1.00  0.00    -0.010 C 
ATOM     11  C   UNL     1      32.165  12.544  31.486  1.00  0.00     0.008 C 
ATOM     12  C   UNL     1      32.513  10.184  32.252  1.00  0.00     0.008 C 
ENDBRANCH   3  10
ENDBRANCH   2   3
BRANCH   1  13
ATOM     13  C   UNL     1      29.605   8.480  29.209  1.00  0.00    -0.055 C 
ATOM     14  C   UNL     1      29.862   7.450  30.020  1.00  0.00     0.012 C 
BRANCH  13  15
ATOM     15  C   UNL     1      29.838   8.354  27.716  1.00  0.00     0.039 C 
BRANCH  15  16
ATOM     16  C   UNL     1      29.248   9.537  26.915  1.00  0.00     0.032 CG0
ATOM     17  G   UNL     1      30.222  10.304  26.040  1.00  0.00     0.000 G0
ENDBRANCH  15  16
ENDBRANCH  13  15
ENDBRANCH   1  13
TORSDOF 1
ENDMDL
MODEL 5
REMARK VINA RESULT:    -3.499      2.420      4.730
REMARK INTER + INTRA:          -5.792
REMARK INTER:                  -5.083
REMARK INTRA:                  -0.709
REMARK UNBOUND:                -0.656
REMARK SMILES C=C1C=C[C@H](C(C)C)CCC(C)=CCC1
REMARK SMILES IDX 3 1 4 2 5 3 9 4 10 5 11 6 12 7 13 8 6 10 7 11 8 12 2 13 1 14
REMARK SMILES IDX 15 15 14 16
REMARK H PARENT
REMARK Flexibility Score: 70.00
ROOT
ATOM      1  C   UNL     1      29.915  10.420  29.561  1.00  0.00    -0.001 C 
ATOM      2  C   UNL     1      29.696   9.244  30.175  1.00  0.00    -0.023 C 
ENDROOT
BRANCH   2   3
ATOM      3  C   UNL     1      30.737   8.290  30.754  1.00  0.00     0.014 C 
BRANCH   3   4
ATOM      4  C   UNL     1      30.739   8.224  32.306  1.00  0.00     0.012 C 
BRANCH   4   5
ATOM      5  C   UNL     1      32.050   8.710  32.951  1.00  0.00     0.031 C 
BRANCH   5   6
ATOM      6  C   UNL     1      31.987  10.151  33.427  1.00  0.00    -0.077 C 
ATOM      7  C   UNL     1      31.498  10.418  34.830  1.00  0.00     0.039 C 
ATOM      8  C   UNL     1      32.450  11.211  32.714  1.00  0.00    -0.028 CG0
ATOM      9  G   UNL     1      32.849  11.253  31.250  1.00  0.00     0.000 G0
ENDBRANCH   5   6
ENDBRANCH   4   5
ENDBRANCH   3   4
BRANCH   3  10
ATOM     10  C   UNL     1      30.642   6.873  30.104  1.00  0.00    -0.010 C 
ATOM     11  C   UNL     1      29.276   6.214  30.370  1.00  0.00     0.008 C 
ATOM     12  C   UNL     1      30.885   6.921  28.585  1.00  0.00     0.008 C 
ENDBRANCH   3  10
ENDBRANCH   2   3
BRANCH   1  13
ATOM     13  C   UNL     1      31.239  11.007  29.295  1.00  0.00    -0.055 C 
ATOM     14  C   UNL     1      31.982  10.514  28.300  1.00  0.00     0.012 C 
BRANCH  13  15
ATOM     15  C   UNL     1      31.849  11.961  30.303  1.00  0.00     0.039 C 
BRANCH  15  16
ATOM     16  C   UNL     1      32.848  11.266  31.256  1.00  0.00     0.032 CG0
ATOM     17  G   UNL     1      32.447  11.209  32.719  1.00  0.00     0.000 G0
ENDBRANCH  15  16
ENDBRANCH  13  15
ENDBRANCH   1  13
TORSDOF 1
ENDMDL
MODEL 6
REMARK VINA RESULT:    -3.473      2.431      3.961
REMARK INTER + INTRA:          -5.754
REMARK INTER:                  -5.116
REMARK INTRA:                  -0.637
REMARK UNBOUND:                -0.656
REMARK SMILES C=C1C=C[C@H](C(C)C)CCC(C)=CCC1
REMARK SMILES IDX 3 1 4 2 5 3 9 4 10 5 11 6 12 7 13 8 6 10 7 11 8 12 2 13 1 14
REMARK SMILES IDX 15 15 14 16
REMARK H PARENT
REMARK Flexibility Score: 70.00
ROOT
ATOM      1  C   UNL     1      33.045  11.454  32.163  1.00  0.00    -0.001 C 
ATOM      2  C   UNL     1      32.785  11.803  30.890  1.00  0.00    -0.023 C 
ENDROOT
BRANCH   2   3
ATOM      3  C   UNL     1      31.714  11.224  29.970  1.00  0.00     0.014 C 
BRANCH   3   4
ATOM      4  C   UNL     1      30.342  11.949  30.064  1.00  0.00     0.012 C 
BRANCH   4   5
ATOM      5  C   UNL     1      29.154  11.005  30.330  1.00  0.00     0.031 C 
BRANCH   5   6
ATOM      6  C   UNL     1      28.398  11.337  31.604  1.00  0.00    -0.077 C 
ATOM      7  C   UNL     1      27.203  12.254  31.507  1.00  0.00     0.039 C 
ATOM      8  C   UNL     1      28.656  10.772  32.813  1.00  0.00    -0.028 CG0
ATOM      9  G   UNL     1      29.864   9.949  33.224  1.00  0.00     0.000 G0
ENDBRANCH   5   6
ENDBRANCH   4   5
ENDBRANCH   3   4
BRANCH   3  10
ATOM     10  C   UNL     1      32.222  11.113  28.497  1.00  0.00    -0.010 C 
ATOM     11  C   UNL     1      31.670   9.856  27.797  1.00  0.00     0.008 C 
ATOM     12  C   UNL     1      31.845  12.352  27.665  1.00  0.00     0.008 C 
ENDBRANCH   3  10
ENDBRANCH   2   3
BRANCH   1  13
ATOM     13  C   UNL     1      32.350  10.396  32.915  1.00  0.00    -0.055 C 
ATOM     14  C   UNL     1      32.679   9.119  32.699  1.00  0.00     0.012 C 
BRANCH  13  15
ATOM     15  C   UNL     1      31.104  10.740  33.707  1.00  0.00     0.039 C 
BRANCH  15  16
ATOM     16  C   UNL     1      29.864   9.939  33.252  1.00  0.00     0.032 CG0
ATOM     17  G   UNL     1      28.664  10.757  32.810  1.00  0.00     0.000 G0
ENDBRANCH  15  16
ENDBRANCH  13  15
ENDBRANCH   1  13
TORSDOF 1
ENDMDL
MODEL 7
REMARK VINA RESULT:    -3.378      4.943      8.029
REMARK INTER + INTRA:          -5.615
REMARK INTER:                  -5.031
REMARK INTRA:                  -0.584
REMARK UNBOUND:                -0.656
REMARK SMILES C=C1C=C[C@H](C(C)C)CCC(C)=CCC1
REMARK SMILES IDX 3 1 4 2 5 3 9 4 10 5 11 6 12 7 13 8 6 10 7 11 8 12 2 13 1 14
REMARK SMILES IDX 15 15 14 16
REMARK H PARENT
REMARK Flexibility Score: 70.00
ROOT
ATOM      1  C   UNL     1      32.218  11.887  26.356  1.00  0.00    -0.001 C 
ATOM      2  C   UNL     1      32.617  11.213  27.448  1.00  0.00    -0.023 C 
ENDROOT
BRANCH   2   3
ATOM      3  C   UNL     1      31.736  10.576  28.519  1.00  0.00     0.014 C 
BRANCH   3   4
ATOM      4  C   UNL     1      31.353   9.099  28.227  1.00  0.00     0.012 C 
BRANCH   4   5
ATOM      5  C   UNL     1      29.849   8.881  27.977  1.00  0.00     0.031 C 
BRANCH   5   6
ATOM      6  C   UNL     1      29.544   8.338  26.592  1.00  0.00    -0.077 C 
ATOM      7  C   UNL     1      29.705   6.856  26.354  1.00  0.00     0.039 C 
ATOM      8  C   UNL     1      29.023   9.080  25.580  1.00  0.00    -0.028 CG0
ATOM      9  G   UNL     1      28.901  10.591  25.493  1.00  0.00     0.000 G0
ENDBRANCH   5   6
ENDBRANCH   4   5
ENDBRANCH   3   4
BRANCH   3  10
ATOM     10  C   UNL     1      32.347  10.755  29.946  1.00  0.00    -0.010 C 
ATOM     11  C   UNL     1      32.427  12.239  30.350  1.00  0.00     0.008 C 
ATOM     12  C   UNL     1      31.544   9.991  31.014  1.00  0.00     0.008 C 
ENDBRANCH   3  10
ENDBRANCH   2   3
BRANCH   1  13
ATOM     13  C   UNL     1      30.819  12.175  25.997  1.00  0.00    -0.055 C 
ATOM     14  C   UNL     1      30.105  13.000  26.769  1.00  0.00     0.012 C 
BRANCH  13  15
ATOM     15  C   UNL     1      30.133  11.338  24.935  1.00  0.00     0.039 C 
BRANCH  15  16
ATOM     16  C   UNL     1      28.894  10.586  25.472  1.00  0.00     0.032 CG0
ATOM     17  G   UNL     1      29.025   9.077  25.584  1.00  0.00     0.000 G0
ENDBRANCH  15  16
ENDBRANCH  13  15
ENDBRANCH   1  13
TORSDOF 1
ENDMDL
MODEL 8
REMARK VINA RESULT:    -3.340      1.685      4.337
REMARK INTER + INTRA:          -5.558
REMARK INTER:                  -4.904
REMARK INTRA:                  -0.654
REMARK UNBOUND:                -0.656
REMARK SMILES C=C1C=C[C@H](C(C)C)CCC(C)=CCC1
REMARK SMILES IDX 3 1 4 2 5 3 9 4 10 5 11 6 12 7 13 8 6 10 7 11 8 12 2 13 1 14
REMARK SMILES IDX 15 15 14 16
REMARK H PARENT
REMARK Flexibility Score: 70.00
ROOT
ATOM      1  C   UNL     1      28.944   8.913  34.198  1.00  0.00    -0.001 C 
ATOM      2  C   UNL     1      29.657   9.958  34.653  1.00  0.00    -0.023 C 
ENDROOT
BRANCH   2   3
ATOM      3  C   UNL     1      31.132   9.976  35.042  1.00  0.00     0.014 C 
BRANCH   3   4
ATOM      4  C   UNL     1      32.024  10.830  34.099  1.00  0.00     0.012 C 
BRANCH   4   5
ATOM      5  C   UNL     1      32.769  10.009  33.030  1.00  0.00     0.031 C 
BRANCH   5   6
ATOM      6  C   UNL     1      31.969   9.820  31.753  1.00  0.00    -0.077 C 
ATOM      7  C   UNL     1      31.877  10.979  30.790  1.00  0.00     0.039 C 
ATOM      8  C   UNL     1      31.424   8.638  31.363  1.00  0.00    -0.028 CG0
ATOM      9  G   UNL     1      31.238   7.375  32.185  1.00  0.00     0.000 G0
ENDBRANCH   5   6
ENDBRANCH   4   5
ENDBRANCH   3   4
BRANCH   3  10
ATOM     10  C   UNL     1      31.326  10.361  36.544  1.00  0.00    -0.010 C 
ATOM     11  C   UNL     1      30.307  11.425  36.995  1.00  0.00     0.008 C 
ATOM     12  C   UNL     1      31.210   9.137  37.469  1.00  0.00     0.008 C 
ENDBRANCH   3  10
ENDBRANCH   2   3
BRANCH   1  13
ATOM     13  C   UNL     1      29.459   7.544  34.019  1.00  0.00    -0.055 C 
ATOM     14  C   UNL     1      29.852   6.850  35.091  1.00  0.00     0.012 C 
BRANCH  13  15
ATOM     15  C   UNL     1      29.788   7.048  32.625  1.00  0.00     0.039 C 
BRANCH  15  16
ATOM     16  C   UNL     1      31.240   7.367  32.204  1.00  0.00     0.032 CG0
ATOM     17  G   UNL     1      31.435   8.620  31.369  1.00  0.00     0.000 G0
ENDBRANCH  15  16
ENDBRANCH  13  15
ENDBRANCH   1  13
TORSDOF 1
ENDMDL
MODEL 9
REMARK VINA RESULT:    -3.220      1.684      3.625
REMARK INTER + INTRA:          -5.383
REMARK INTER:                  -4.738
REMARK INTRA:                  -0.645
REMARK UNBOUND:                -0.656
REMARK SMILES C=C1C=C[C@H](C(C)C)CCC(C)=CCC1
REMARK SMILES IDX 3 1 4 2 5 3 9 4 10 5 11 6 12 7 13 8 6 10 7 11 8 12 2 13 1 14
REMARK SMILES IDX 15 15 14 16
REMARK H PARENT
REMARK Flexibility Score: 70.00
ROOT
ATOM      1  C   UNL     1      30.593  11.389  31.859  1.00  0.00    -0.001 C 
ATOM      2  C   UNL     1      30.158  10.200  31.409  1.00  0.00    -0.023 C 
ENDROOT
BRANCH   2   3
ATOM      3  C   UNL     1      30.977   8.929  31.202  1.00  0.00     0.014 C 
BRANCH   3   4
ATOM      4  C   UNL     1      30.780   7.862  32.314  1.00  0.00     0.012 C 
BRANCH   4   5
ATOM      5  C   UNL     1      29.947   8.354  33.512  1.00  0.00     0.031 C 
BRANCH   5   6
ATOM      6  C   UNL     1      30.737   8.421  34.806  1.00  0.00    -0.077 C 
ATOM      7  C   UNL     1      30.782   7.190  35.679  1.00  0.00     0.039 C 
ATOM      8  C   UNL     1      31.504   9.479  35.178  1.00  0.00    -0.028 CG0
ATOM      9  G   UNL     1      31.528  10.875  34.580  1.00  0.00     0.000 G0
ENDBRANCH   5   6
ENDBRANCH   4   5
ENDBRANCH   3   4
BRANCH   3  10
ATOM     10  C   UNL     1      30.766   8.337  29.772  1.00  0.00    -0.010 C 
ATOM     11  C   UNL     1      29.288   7.989  29.512  1.00  0.00     0.008 C 
ATOM     12  C   UNL     1      31.252   9.299  28.674  1.00  0.00     0.008 C 
ENDBRANCH   3  10
ENDBRANCH   2   3
BRANCH   1  13
ATOM     13  C   UNL     1      31.987  11.708  32.212  1.00  0.00    -0.055 C 
ATOM     14  C   UNL     1      32.769  12.304  31.307  1.00  0.00     0.012 C 
BRANCH  13  15
ATOM     15  C   UNL     1      32.590  11.121  33.473  1.00  0.00     0.039 C 
BRANCH  15  16
ATOM     16  C   UNL     1      31.541  10.878  34.582  1.00  0.00     0.032 CG0
ATOM     17  G   UNL     1      31.508   9.482  35.178  1.00  0.00     0.000 G0
ENDBRANCH  15  16
ENDBRANCH  13  15
ENDBRANCH   1  13
TORSDOF 1
ENDMDL
