MODEL 1
REMARK VINA RESULT:    -2.879      0.000      0.000
REMARK INTER + INTRA:          -3.131
REMARK INTER:                  -3.131
REMARK INTRA:                   0.000
REMARK UNBOUND:                 0.000
REMARK SMILES [NH3+]CC(=O)[O-]
REMARK SMILES IDX 2 1 1 2 3 6 4 7 5 8
REMARK H PARENT 1 3 1 4 1 5
REMARK Flexibility Score: inf
ROOT
ATOM      1  C   UNL     1     159.627 150.260 167.249  1.00  0.00     0.312 C 
ENDROOT
BRANCH   1   2
ATOM      2  N   UNL     1     159.579 148.876 166.781  1.00  0.00    -0.353 N 
ATOM      3  H   UNL     1     158.586 148.579 166.644  1.00  0.00     0.344 HD
ATOM      4  H   UNL     1     160.045 148.247 167.473  1.00  0.00     0.344 HD
ATOM      5  H   UNL     1     160.082 148.807 165.866  1.00  0.00     0.344 HD
ENDBRANCH   1   2
BRANCH   1   6
ATOM      6  C   UNL     1     160.873 150.505 168.044  1.00  0.00     0.096 C 
ATOM      7  O   UNL     1     160.884 151.381 168.947  1.00  0.00    -0.544 OA
ATOM      8  O   UNL     1     162.004 149.731 167.820  1.00  0.00    -0.544 OA
ENDBRANCH   1   6
TORSDOF 2
ENDMDL
MODEL 2
REMARK VINA RESULT:    -2.847     17.651     18.025
REMARK INTER + INTRA:          -3.096
REMARK INTER:                  -3.096
REMARK INTRA:                   0.000
REMARK UNBOUND:                 0.000
REMARK SMILES [NH3+]CC(=O)[O-]
REMARK SMILES IDX 2 1 1 2 3 6 4 7 5 8
REMARK H PARENT 1 3 1 4 1 5
REMARK Flexibility Score: inf
ROOT
ATOM      1  C   UNL     1     158.369 150.281 150.700  1.00  0.00     0.312 C 
ENDROOT
BRANCH   1   2
ATOM      2  N   UNL     1     158.375 148.876 151.104  1.00  0.00    -0.353 N 
ATOM      3  H   UNL     1     157.459 148.431 150.868  1.00  0.00     0.344 HD
ATOM      4  H   UNL     1     158.552 148.799 152.131  1.00  0.00     0.344 HD
ATOM      5  H   UNL     1     159.137 148.376 150.590  1.00  0.00     0.344 HD
ENDBRANCH   1   2
BRANCH   1   6
ATOM      6  C   UNL     1     157.125 150.605 149.932  1.00  0.00     0.096 C 
ATOM      7  O   UNL     1     156.054 149.991 150.176  1.00  0.00    -0.544 OA
ATOM      8  O   UNL     1     157.137 151.620 148.984  1.00  0.00    -0.544 OA
ENDBRANCH   1   6
TORSDOF 2
ENDMDL
MODEL 3
REMARK VINA RESULT:    -2.844     24.853     24.926
REMARK INTER + INTRA:          -3.093
REMARK INTER:                  -3.093
REMARK INTRA:                   0.000
REMARK UNBOUND:                 0.000
REMARK SMILES [NH3+]CC(=O)[O-]
REMARK SMILES IDX 2 1 1 2 3 6 4 7 5 8
REMARK H PARENT 1 3 1 4 1 5
REMARK Flexibility Score: inf
ROOT
ATOM      1  C   UNL     1     159.657 167.702 150.796  1.00  0.00     0.312 C 
ENDROOT
BRANCH   1   2
ATOM      2  N   UNL     1     159.576 169.125 151.122  1.00  0.00    -0.353 N 
ATOM      3  H   UNL     1     160.270 169.663 150.555  1.00  0.00     0.344 HD
ATOM      4  H   UNL     1     159.762 169.271 152.140  1.00  0.00     0.344 HD
ATOM      5  H   UNL     1     158.615 169.473 150.899  1.00  0.00     0.344 HD
ENDBRANCH   1   2
BRANCH   1   6
ATOM      6  C   UNL     1     160.879 167.415 149.981  1.00  0.00     0.096 C 
ATOM      7  O   UNL     1     161.964 168.000 150.239  1.00  0.00    -0.544 OA
ATOM      8  O   UNL     1     160.832 166.465 148.968  1.00  0.00    -0.544 OA
ENDBRANCH   1   6
TORSDOF 2
ENDMDL
MODEL 4
REMARK VINA RESULT:    -2.800     23.941     24.074
REMARK INTER + INTRA:          -3.046
REMARK INTER:                  -3.046
REMARK INTRA:                   0.000
REMARK UNBOUND:                 0.000
REMARK SMILES [NH3+]CC(=O)[O-]
REMARK SMILES IDX 2 1 1 2 3 6 4 7 5 8
REMARK H PARENT 1 3 1 4 1 5
REMARK Flexibility Score: inf
ROOT
ATOM      1  C   UNL     1     159.249 168.127 151.157  1.00  0.00     0.312 C 
ENDROOT
BRANCH   1   2
ATOM      2  N   UNL     1     157.859 167.677 151.099  1.00  0.00    -0.353 N 
ATOM      3  H   UNL     1     157.404 168.028 150.225  1.00  0.00     0.344 HD
ATOM      4  H   UNL     1     157.334 168.024 151.934  1.00  0.00     0.344 HD
ATOM      5  H   UNL     1     157.837 166.632 151.096  1.00  0.00     0.344 HD
ENDBRANCH   1   2
BRANCH   1   6
ATOM      6  C   UNL     1     160.181 167.006 150.816  1.00  0.00     0.096 C 
ATOM      7  O   UNL     1     160.302 166.025 151.594  1.00  0.00    -0.544 OA
ATOM      8  O   UNL     1     160.877 167.023 149.614  1.00  0.00    -0.544 OA
ENDBRANCH   1   6
TORSDOF 2
ENDMDL
MODEL 5
REMARK VINA RESULT:    -2.797     16.929     17.265
REMARK INTER + INTRA:          -3.042
REMARK INTER:                  -3.042
REMARK INTRA:                   0.000
REMARK UNBOUND:                 0.000
REMARK SMILES [NH3+]CC(=O)[O-]
REMARK SMILES IDX 2 1 1 2 3 6 4 7 5 8
REMARK H PARENT 1 3 1 4 1 5
REMARK Flexibility Score: inf
ROOT
ATOM      1  C   UNL     1     158.711 149.868 151.139  1.00  0.00     0.312 C 
ENDROOT
BRANCH   1   2
ATOM      2  N   UNL     1     160.111 150.287 151.111  1.00  0.00    -0.353 N 
ATOM      3  H   UNL     1     160.347 150.690 150.176  1.00  0.00     0.344 HD
ATOM      4  H   UNL     1     160.733 149.470 151.312  1.00  0.00     0.344 HD
ATOM      5  H   UNL     1     160.264 151.017 151.844  1.00  0.00     0.344 HD
ENDBRANCH   1   2
BRANCH   1   6
ATOM      6  C   UNL     1     157.812 151.004 150.758  1.00  0.00     0.096 C 
ATOM      7  O   UNL     1     157.658 151.978 151.540  1.00  0.00    -0.544 OA
ATOM      8  O   UNL     1     157.186 151.009 149.518  1.00  0.00    -0.544 OA
ENDBRANCH   1   6
TORSDOF 2
ENDMDL
MODEL 6
REMARK VINA RESULT:    -2.795      1.650      1.859
REMARK INTER + INTRA:          -3.040
REMARK INTER:                  -3.040
REMARK INTRA:                   0.000
REMARK UNBOUND:                 0.000
REMARK SMILES [NH3+]CC(=O)[O-]
REMARK SMILES IDX 2 1 1 2 3 6 4 7 5 8
REMARK H PARENT 1 3 1 4 1 5
REMARK Flexibility Score: inf
ROOT
ATOM      1  C   UNL     1     159.261 149.906 166.879  1.00  0.00     0.312 C 
ENDROOT
BRANCH   1   2
ATOM      2  N   UNL     1     157.865 150.340 166.924  1.00  0.00    -0.353 N 
ATOM      3  H   UNL     1     157.684 151.043 166.172  1.00  0.00     0.344 HD
ATOM      4  H   UNL     1     157.649 150.757 167.858  1.00  0.00     0.344 HD
ATOM      5  H   UNL     1     157.245 149.512 166.770  1.00  0.00     0.344 HD
ENDBRANCH   1   2
BRANCH   1   6
ATOM      6  C   UNL     1     160.176 151.033 167.246  1.00  0.00     0.096 C 
ATOM      7  O   UNL     1     160.325 152.007 166.463  1.00  0.00    -0.544 OA
ATOM      8  O   UNL     1     160.823 151.031 168.475  1.00  0.00    -0.544 OA
ENDBRANCH   1   6
TORSDOF 2
ENDMDL
MODEL 7
REMARK VINA RESULT:    -2.773     16.864     17.189
REMARK INTER + INTRA:          -3.016
REMARK INTER:                  -3.016
REMARK INTRA:                   0.000
REMARK UNBOUND:                 0.000
REMARK SMILES [NH3+]CC(=O)[O-]
REMARK SMILES IDX 2 1 1 2 3 6 4 7 5 8
REMARK H PARENT 1 3 1 4 1 5
REMARK Flexibility Score: inf
ROOT
ATOM      1  C   UNL     1     158.748 168.021 166.877  1.00  0.00     0.312 C 
ENDROOT
BRANCH   1   2
ATOM      2  N   UNL     1     160.162 167.654 166.922  1.00  0.00    -0.353 N 
ATOM      3  H   UNL     1     160.264 166.653 167.209  1.00  0.00     0.344 HD
ATOM      4  H   UNL     1     160.671 168.269 167.597  1.00  0.00     0.344 HD
ATOM      5  H   UNL     1     160.578 167.777 165.971  1.00  0.00     0.344 HD
ENDBRANCH   1   2
BRANCH   1   6
ATOM      6  C   UNL     1     157.885 166.840 167.198  1.00  0.00     0.096 C 
ATOM      7  O   UNL     1     157.411 166.699 168.356  1.00  0.00    -0.544 OA
ATOM      8  O   UNL     1     157.563 165.924 166.205  1.00  0.00    -0.544 OA
ENDBRANCH   1   6
TORSDOF 2
ENDMDL
MODEL 8
REMARK VINA RESULT:    -2.450     24.088     24.230
REMARK INTER + INTRA:          -2.665
REMARK INTER:                  -2.665
REMARK INTRA:                   0.000
REMARK UNBOUND:                 0.000
REMARK SMILES [NH3+]CC(=O)[O-]
REMARK SMILES IDX 2 1 1 2 3 6 4 7 5 8
REMARK H PARENT 1 3 1 4 1 5
REMARK Flexibility Score: inf
ROOT
ATOM      1  C   UNL     1     159.896 166.416 150.644  1.00  0.00     0.312 C 
ENDROOT
BRANCH   1   2
ATOM      2  N   UNL     1     160.143 165.899 151.989  1.00  0.00    -0.353 N 
ATOM      3  H   UNL     1     159.478 165.121 152.202  1.00  0.00     0.344 HD
ATOM      4  H   UNL     1     160.030 166.664 152.693  1.00  0.00     0.344 HD
ATOM      5  H   UNL     1     161.121 165.532 152.041  1.00  0.00     0.344 HD
ENDBRANCH   1   2
BRANCH   1   6
ATOM      6  C   UNL     1     160.397 167.822 150.518  1.00  0.00     0.096 C 
ATOM      7  O   UNL     1     159.648 168.789 150.817  1.00  0.00    -0.544 OA
ATOM      8  O   UNL     1     161.706 168.060 150.120  1.00  0.00    -0.544 OA
ENDBRANCH   1   6
TORSDOF 2
ENDMDL
