MODEL 1
REMARK VINA RESULT:    -3.791      0.000      0.000
REMARK INTER + INTRA:          -5.062
REMARK INTER:                  -4.899
REMARK INTRA:                  -0.163
REMARK UNBOUND:                -0.163
REMARK SMILES CCCCCCC(=O)[O-]
REMARK SMILES IDX 5 1 6 2 7 3 8 4 9 5 4 6 3 7 2 8 1 9
REMARK H PARENT
REMARK Flexibility Score: inf
ROOT
ATOM      1  C   UNL     1      10.669  15.266  23.759  1.00  0.00     0.006 C 
ENDROOT
BRANCH   1   2
ATOM      2  C   UNL     1      11.809  14.239  23.772  1.00  0.00     0.053 C 
BRANCH   2   3
ATOM      3  C   UNL     1      12.326  14.051  25.164  1.00  0.00     0.041 C 
ATOM      4  O   UNL     1      13.560  14.131  25.398  1.00  0.00    -0.550 OA
ATOM      5  O   UNL     1      11.438  13.838  26.212  1.00  0.00    -0.550 OA
ENDBRANCH   2   3
ENDBRANCH   1   2
BRANCH   1   6
ATOM      6  C   UNL     1       9.306  14.637  23.424  1.00  0.00     0.000 C 
BRANCH   6   7
ATOM      7  C   UNL     1       8.376  14.558  24.647  1.00  0.00    -0.000 C 
BRANCH   7   8
ATOM      8  C   UNL     1       6.891  14.505  24.254  1.00  0.00    -0.003 C 
ATOM      9  C   UNL     1       6.011  15.388  25.139  1.00  0.00     0.004 C 
ENDBRANCH   7   8
ENDBRANCH   6   7
ENDBRANCH   1   6
TORSDOF 5
ENDMDL
MODEL 2
REMARK VINA RESULT:    -3.716     11.266     13.026
REMARK INTER + INTRA:          -4.965
REMARK INTER:                  -4.778
REMARK INTRA:                  -0.187
REMARK UNBOUND:                -0.163
REMARK SMILES CCCCCCC(=O)[O-]
REMARK SMILES IDX 5 1 6 2 7 3 8 4 9 5 4 6 3 7 2 8 1 9
REMARK H PARENT
REMARK Flexibility Score: inf
ROOT
ATOM      1  C   UNL     1       2.152  20.268  33.189  1.00  0.00     0.006 C 
ENDROOT
BRANCH   1   2
ATOM      2  C   UNL     1       3.560  19.955  32.663  1.00  0.00     0.053 C 
BRANCH   2   3
ATOM      3  C   UNL     1       4.057  18.667  33.239  1.00  0.00     0.041 C 
ATOM      4  O   UNL     1       3.490  18.160  34.242  1.00  0.00    -0.550 OA
ATOM      5  O   UNL     1       5.117  18.000  32.637  1.00  0.00    -0.550 OA
ENDBRANCH   2   3
ENDBRANCH   1   2
BRANCH   1   6
ATOM      6  C   UNL     1       1.070  20.135  32.105  1.00  0.00     0.000 C 
BRANCH   6   7
ATOM      7  C   UNL     1      -0.022  21.213  32.225  1.00  0.00    -0.000 C 
BRANCH   7   8
ATOM      8  C   UNL     1       0.213  22.158  33.415  1.00  0.00    -0.003 C 
ATOM      9  C   UNL     1      -0.822  23.279  33.495  1.00  0.00     0.004 C 
ENDBRANCH   7   8
ENDBRANCH   6   7
ENDBRANCH   1   6
TORSDOF 5
ENDMDL
MODEL 3
REMARK VINA RESULT:    -3.672     12.992     13.502
REMARK INTER + INTRA:          -4.909
REMARK INTER:                  -4.772
REMARK INTRA:                  -0.136
REMARK UNBOUND:                -0.163
REMARK SMILES CCCCCCC(=O)[O-]
REMARK SMILES IDX 5 1 6 2 7 3 8 4 9 5 4 6 3 7 2 8 1 9
REMARK H PARENT
REMARK Flexibility Score: inf
ROOT
ATOM      1  C   UNL     1       0.124   9.665  17.477  1.00  0.00     0.006 C 
ENDROOT
BRANCH   1   2
ATOM      2  C   UNL     1       0.272   8.627  16.356  1.00  0.00     0.053 C 
BRANCH   2   3
ATOM      3  C   UNL     1       1.674   8.623  15.831  1.00  0.00     0.041 C 
ATOM      4  O   UNL     1       1.990   7.867  14.875  1.00  0.00    -0.550 OA
ATOM      5  O   UNL     1       2.618   9.491  16.364  1.00  0.00    -0.550 OA
ENDBRANCH   2   3
ENDBRANCH   1   2
BRANCH   1   6
ATOM      6  C   UNL     1      -1.245   9.597  18.172  1.00  0.00     0.000 C 
BRANCH   6   7
ATOM      7  C   UNL     1      -1.574  10.880  18.956  1.00  0.00    -0.000 C 
BRANCH   7   8
ATOM      8  C   UNL     1      -2.213  10.587  20.322  1.00  0.00    -0.003 C 
ATOM      9  C   UNL     1      -1.520   9.449  21.070  1.00  0.00     0.004 C 
ENDBRANCH   7   8
ENDBRANCH   6   7
ENDBRANCH   1   6
TORSDOF 5
ENDMDL
MODEL 4
REMARK VINA RESULT:    -3.623     12.701     14.092
REMARK INTER + INTRA:          -4.845
REMARK INTER:                  -4.728
REMARK INTRA:                  -0.118
REMARK UNBOUND:                -0.163
REMARK SMILES CCCCCCC(=O)[O-]
REMARK SMILES IDX 5 1 6 2 7 3 8 4 9 5 4 6 3 7 2 8 1 9
REMARK H PARENT
REMARK Flexibility Score: inf
ROOT
ATOM      1  C   UNL     1      -1.084   9.384  17.821  1.00  0.00     0.006 C 
ENDROOT
BRANCH   1   2
ATOM      2  C   UNL     1      -1.311  10.537  18.807  1.00  0.00     0.053 C 
BRANCH   2   3
ATOM      3  C   UNL     1      -1.973  10.037  20.052  1.00  0.00     0.041 C 
ATOM      4  O   UNL     1      -3.200   9.759  20.050  1.00  0.00    -0.550 OA
ATOM      5  O   UNL     1      -1.222   9.828  21.202  1.00  0.00    -0.550 OA
ENDBRANCH   2   3
ENDBRANCH   1   2
BRANCH   1   6
ATOM      6  C   UNL     1       0.300   9.436  17.153  1.00  0.00     0.000 C 
BRANCH   6   7
ATOM      7  C   UNL     1       0.474   8.358  16.069  1.00  0.00    -0.000 C 
BRANCH   7   8
ATOM      8  C   UNL     1       1.829   8.459  15.351  1.00  0.00    -0.003 C 
ATOM      9  C   UNL     1       2.823   9.361  16.083  1.00  0.00     0.004 C 
ENDBRANCH   7   8
ENDBRANCH   6   7
ENDBRANCH   1   6
TORSDOF 5
ENDMDL
MODEL 5
REMARK VINA RESULT:    -3.613      3.185      4.943
REMARK INTER + INTRA:          -4.831
REMARK INTER:                  -4.593
REMARK INTRA:                  -0.238
REMARK UNBOUND:                -0.163
REMARK SMILES CCCCCCC(=O)[O-]
REMARK SMILES IDX 5 1 6 2 7 3 8 4 9 5 4 6 3 7 2 8 1 9
REMARK H PARENT
REMARK Flexibility Score: inf
ROOT
ATOM      1  C   UNL     1       9.008  14.650  23.505  1.00  0.00     0.006 C 
ENDROOT
BRANCH   1   2
ATOM      2  C   UNL     1       8.259  14.654  24.845  1.00  0.00     0.053 C 
BRANCH   2   3
ATOM      3  C   UNL     1       6.782  14.719  24.616  1.00  0.00     0.041 C 
ATOM      4  O   UNL     1       6.226  13.910  23.829  1.00  0.00    -0.550 OA
ATOM      5  O   UNL     1       6.010  15.640  25.314  1.00  0.00    -0.550 OA
ENDBRANCH   2   3
ENDBRANCH   1   2
BRANCH   1   6
ATOM      6  C   UNL     1      10.404  15.286  23.603  1.00  0.00     0.000 C 
BRANCH   6   7
ATOM      7  C   UNL     1      11.534  14.245  23.523  1.00  0.00    -0.000 C 
BRANCH   7   8
ATOM      8  C   UNL     1      12.482  14.312  24.730  1.00  0.00    -0.003 C 
ATOM      9  C   UNL     1      11.822  13.848  26.029  1.00  0.00     0.004 C 
ENDBRANCH   7   8
ENDBRANCH   6   7
ENDBRANCH   1   6
TORSDOF 5
ENDMDL
MODEL 6
REMARK VINA RESULT:    -3.564     11.064     12.537
REMARK INTER + INTRA:          -4.769
REMARK INTER:                  -4.676
REMARK INTRA:                  -0.093
REMARK UNBOUND:                -0.163
REMARK SMILES CCCCCCC(=O)[O-]
REMARK SMILES IDX 5 1 6 2 7 3 8 4 9 5 4 6 3 7 2 8 1 9
REMARK H PARENT
REMARK Flexibility Score: inf
ROOT
ATOM      1  C   UNL     1       3.235  19.824  32.811  1.00  0.00     0.006 C 
ENDROOT
BRANCH   1   2
ATOM      2  C   UNL     1       3.404  18.669  33.808  1.00  0.00     0.053 C 
BRANCH   2   3
ATOM      3  C   UNL     1       4.738  18.016  33.627  1.00  0.00     0.041 C 
ATOM      4  O   UNL     1       5.147  17.170  34.464  1.00  0.00    -0.550 OA
ATOM      5  O   UNL     1       5.507  18.304  32.507  1.00  0.00    -0.550 OA
ENDBRANCH   2   3
ENDBRANCH   1   2
BRANCH   1   6
ATOM      6  C   UNL     1       1.794  19.952  32.289  1.00  0.00     0.000 C 
BRANCH   6   7
ATOM      7  C   UNL     1       0.897  20.778  33.228  1.00  0.00    -0.000 C 
BRANCH   7   8
ATOM      8  C   UNL     1      -0.127  21.631  32.463  1.00  0.00    -0.003 C 
ATOM      9  C   UNL     1      -0.563  22.874  33.240  1.00  0.00     0.004 C 
ENDBRANCH   7   8
ENDBRANCH   6   7
ENDBRANCH   1   6
TORSDOF 5
ENDMDL
MODEL 7
REMARK VINA RESULT:    -3.558     11.691     13.634
REMARK INTER + INTRA:          -4.760
REMARK INTER:                  -4.666
REMARK INTRA:                  -0.094
REMARK UNBOUND:                -0.163
REMARK SMILES CCCCCCC(=O)[O-]
REMARK SMILES IDX 5 1 6 2 7 3 8 4 9 5 4 6 3 7 2 8 1 9
REMARK H PARENT
REMARK Flexibility Score: inf
ROOT
ATOM      1  C   UNL     1       1.760  19.848  32.626  1.00  0.00     0.006 C 
ENDROOT
BRANCH   1   2
ATOM      2  C   UNL     1       1.103  20.990  33.413  1.00  0.00     0.053 C 
BRANCH   2   3
ATOM      3  C   UNL     1      -0.009  21.599  32.618  1.00  0.00     0.041 C 
ATOM      4  O   UNL     1      -0.459  21.008  31.602  1.00  0.00    -0.550 OA
ATOM      5  O   UNL     1      -0.583  22.795  33.030  1.00  0.00    -0.550 OA
ENDBRANCH   2   3
ENDBRANCH   1   2
BRANCH   1   6
ATOM      6  C   UNL     1       3.294  19.956  32.592  1.00  0.00     0.000 C 
BRANCH   6   7
ATOM      7  C   UNL     1       3.979  18.906  33.484  1.00  0.00    -0.000 C 
BRANCH   7   8
ATOM      8  C   UNL     1       5.258  18.339  32.848  1.00  0.00    -0.003 C 
ATOM      9  C   UNL     1       5.467  16.856  33.156  1.00  0.00     0.004 C 
ENDBRANCH   7   8
ENDBRANCH   6   7
ENDBRANCH   1   6
TORSDOF 5
ENDMDL
MODEL 8
REMARK VINA RESULT:    -3.518      9.443     10.123
REMARK INTER + INTRA:          -4.709
REMARK INTER:                  -4.548
REMARK INTRA:                  -0.161
REMARK UNBOUND:                -0.163
REMARK SMILES CCCCCCC(=O)[O-]
REMARK SMILES IDX 5 1 6 2 7 3 8 4 9 5 4 6 3 7 2 8 1 9
REMARK H PARENT
REMARK Flexibility Score: inf
ROOT
ATOM      1  C   UNL     1       6.130  10.387  16.482  1.00  0.00     0.006 C 
ENDROOT
BRANCH   1   2
ATOM      2  C   UNL     1       7.003  11.642  16.348  1.00  0.00     0.053 C 
BRANCH   2   3
ATOM      3  C   UNL     1       8.164  11.572  17.289  1.00  0.00     0.041 C 
ATOM      4  O   UNL     1       8.747  10.476  17.498  1.00  0.00    -0.550 OA
ATOM      5  O   UNL     1       8.636  12.729  17.897  1.00  0.00    -0.550 OA
ENDBRANCH   2   3
ENDBRANCH   1   2
BRANCH   1   6
ATOM      6  C   UNL     1       5.594   9.889  15.130  1.00  0.00     0.000 C 
BRANCH   6   7
ATOM      7  C   UNL     1       4.071  10.069  14.997  1.00  0.00    -0.000 C 
BRANCH   7   8
ATOM      8  C   UNL     1       3.319   9.680  16.279  1.00  0.00    -0.003 C 
ATOM      9  C   UNL     1       1.988   8.982  15.998  1.00  0.00     0.004 C 
ENDBRANCH   7   8
ENDBRANCH   6   7
ENDBRANCH   1   6
TORSDOF 5
ENDMDL
MODEL 9
REMARK VINA RESULT:    -3.498     10.141     10.855
REMARK INTER + INTRA:          -4.684
REMARK INTER:                  -4.620
REMARK INTRA:                  -0.064
REMARK UNBOUND:                -0.163
REMARK SMILES CCCCCCC(=O)[O-]
REMARK SMILES IDX 5 1 6 2 7 3 8 4 9 5 4 6 3 7 2 8 1 9
REMARK H PARENT
REMARK Flexibility Score: inf
ROOT
ATOM      1  C   UNL     1       5.503  10.110  16.301  1.00  0.00     0.006 C 
ENDROOT
BRANCH   1   2
ATOM      2  C   UNL     1       6.585  10.793  15.453  1.00  0.00     0.053 C 
BRANCH   2   3
ATOM      3  C   UNL     1       7.704  11.273  16.322  1.00  0.00     0.041 C 
ATOM      4  O   UNL     1       8.268  12.371  16.080  1.00  0.00    -0.550 OA
ATOM      5  O   UNL     1       8.089  10.531  17.432  1.00  0.00    -0.550 OA
ENDBRANCH   2   3
ENDBRANCH   1   2
BRANCH   1   6
ATOM      6  C   UNL     1       4.263   9.721  15.480  1.00  0.00     0.000 C 
BRANCH   6   7
ATOM      7  C   UNL     1       3.022   9.487  16.360  1.00  0.00    -0.000 C 
BRANCH   7   8
ATOM      8  C   UNL     1       1.893   8.767  15.606  1.00  0.00    -0.003 C 
ATOM      9  C   UNL     1       0.562   8.800  16.357  1.00  0.00     0.004 C 
ENDBRANCH   7   8
ENDBRANCH   6   7
ENDBRANCH   1   6
TORSDOF 5
ENDMDL
