MODEL 1
REMARK VINA RESULT:    -3.434      0.000      0.000
REMARK INTER + INTRA:          -8.198
REMARK INTER:                  -6.043
REMARK INTRA:                  -2.155
REMARK UNBOUND:                -2.155
REMARK SMILES CCCCCCC=CCCCCCCCC(=O)[O-]
REMARK SMILES IDX 10 1 11 2 12 3 13 4 14 5 15 6 16 7 17 8 18 9 9 10 8 11 7 12
REMARK SMILES IDX 6 13 5 14 4 15 3 16 2 17 1 18
REMARK H PARENT
REMARK Flexibility Score: inf
ROOT
ATOM      1  C   UNL     1      61.779  32.432  59.392  1.00  0.00     0.004 C 
ENDROOT
BRANCH   1   2
ATOM      2  C   UNL     1      61.279  32.146  60.824  1.00  0.00     0.000 C 
BRANCH   2   3
ATOM      3  C   UNL     1      61.046  30.661  61.155  1.00  0.00     0.000 C 
BRANCH   3   4
ATOM      4  C   UNL     1      62.189  30.046  61.983  1.00  0.00     0.000 C 
BRANCH   4   5
ATOM      5  C   UNL     1      62.995  29.002  61.193  1.00  0.00     0.006 C 
BRANCH   5   6
ATOM      6  C   UNL     1      64.362  29.530  60.735  1.00  0.00     0.053 C 
BRANCH   6   7
ATOM      7  C   UNL     1      65.388  28.443  60.803  1.00  0.00     0.041 C 
ATOM      8  O   UNL     1      65.096  27.272  60.444  1.00  0.00    -0.550 OA
ATOM      9  O   UNL     1      66.653  28.712  61.311  1.00  0.00    -0.550 OA
ENDBRANCH   6   7
ENDBRANCH   5   6
ENDBRANCH   4   5
ENDBRANCH   3   4
ENDBRANCH   2   3
ENDBRANCH   1   2
BRANCH   1  10
ATOM     10  C   UNL     1      63.238  32.912  59.308  1.00  0.00     0.027 C 
BRANCH  10  11
ATOM     11  C   UNL     1      63.822  33.188  60.672  1.00  0.00    -0.031 C 
ATOM     12  C   UNL     1      64.058  34.416  61.170  1.00  0.00    -0.031 C 
BRANCH  12  13
ATOM     13  C   UNL     1      63.676  35.708  60.487  1.00  0.00     0.027 C 
BRANCH  13  14
ATOM     14  C   UNL     1      62.471  36.377  61.164  1.00  0.00     0.004 C 
BRANCH  14  15
ATOM     15  C   UNL     1      61.141  35.974  60.511  1.00  0.00     0.000 C 
BRANCH  15  16
ATOM     16  C   UNL     1      61.213  36.122  58.983  1.00  0.00    -0.000 C 
BRANCH  16  17
ATOM     17  C   UNL     1      59.987  35.527  58.274  1.00  0.00    -0.003 C 
ATOM     18  C   UNL     1      60.346  34.815  56.969  1.00  0.00     0.004 C 
ENDBRANCH  16  17
ENDBRANCH  15  16
ENDBRANCH  14  15
ENDBRANCH  13  14
ENDBRANCH  12  13
ENDBRANCH  10  11
ENDBRANCH   1  10
TORSDOF 13
ENDMDL
MODEL 2
REMARK VINA RESULT:    -3.387      2.489      4.749
REMARK INTER + INTRA:          -8.115
REMARK INTER:                  -6.087
REMARK INTRA:                  -2.028
REMARK UNBOUND:                -2.155
REMARK SMILES CCCCCCC=CCCCCCCCC(=O)[O-]
REMARK SMILES IDX 10 1 11 2 12 3 13 4 14 5 15 6 16 7 17 8 18 9 9 10 8 11 7 12
REMARK SMILES IDX 6 13 5 14 4 15 3 16 2 17 1 18
REMARK H PARENT
REMARK Flexibility Score: inf
ROOT
ATOM      1  C   UNL     1      64.216  28.766  58.747  1.00  0.00     0.004 C 
ENDROOT
BRANCH   1   2
ATOM      2  C   UNL     1      64.993  30.090  58.905  1.00  0.00     0.000 C 
BRANCH   2   3
ATOM      3  C   UNL     1      65.747  30.256  60.237  1.00  0.00     0.000 C 
BRANCH   3   4
ATOM      4  C   UNL     1      65.940  28.925  60.984  1.00  0.00     0.000 C 
BRANCH   4   5
ATOM      5  C   UNL     1      67.342  28.329  60.777  1.00  0.00     0.006 C 
BRANCH   5   6
ATOM      6  C   UNL     1      68.377  28.889  61.764  1.00  0.00     0.053 C 
BRANCH   6   7
ATOM      7  C   UNL     1      69.694  29.086  61.081  1.00  0.00     0.041 C 
ATOM      8  O   UNL     1      70.068  28.286  60.183  1.00  0.00    -0.550 OA
ATOM      9  O   UNL     1      70.529  30.125  61.470  1.00  0.00    -0.550 OA
ENDBRANCH   6   7
ENDBRANCH   5   6
ENDBRANCH   4   5
ENDBRANCH   3   4
ENDBRANCH   2   3
ENDBRANCH   1   2
BRANCH   1  10
ATOM     10  C   UNL     1      62.706  28.875  59.018  1.00  0.00     0.027 C 
BRANCH  10  11
ATOM     11  C   UNL     1      62.306  28.161  60.286  1.00  0.00    -0.031 C 
ATOM     12  C   UNL     1      62.250  28.732  61.503  1.00  0.00    -0.031 C 
BRANCH  12  13
ATOM     13  C   UNL     1      62.475  30.201  61.773  1.00  0.00     0.027 C 
BRANCH  13  14
ATOM     14  C   UNL     1      61.155  30.983  61.816  1.00  0.00     0.004 C 
BRANCH  14  15
ATOM     15  C   UNL     1      60.970  31.875  60.580  1.00  0.00     0.000 C 
BRANCH  15  16
ATOM     16  C   UNL     1      62.321  32.407  60.079  1.00  0.00    -0.000 C 
BRANCH  16  17
ATOM     17  C   UNL     1      62.677  33.775  60.681  1.00  0.00    -0.003 C 
ATOM     18  C   UNL     1      64.155  33.891  61.056  1.00  0.00     0.004 C 
ENDBRANCH  16  17
ENDBRANCH  15  16
ENDBRANCH  14  15
ENDBRANCH  13  14
ENDBRANCH  12  13
ENDBRANCH  10  11
ENDBRANCH   1  10
TORSDOF 13
ENDMDL
MODEL 3
REMARK VINA RESULT:    -3.284     10.460     12.601
REMARK INTER + INTRA:          -7.935
REMARK INTER:                  -6.284
REMARK INTRA:                  -1.651
REMARK UNBOUND:                -2.155
REMARK SMILES CCCCCCC=CCCCCCCCC(=O)[O-]
REMARK SMILES IDX 10 1 11 2 12 3 13 4 14 5 15 6 16 7 17 8 18 9 9 10 8 11 7 12
REMARK SMILES IDX 6 13 5 14 4 15 3 16 2 17 1 18
REMARK H PARENT
REMARK Flexibility Score: inf
ROOT
ATOM      1  C   UNL     1      58.323  29.768  52.113  1.00  0.00     0.004 C 
ENDROOT
BRANCH   1   2
ATOM      2  C   UNL     1      58.287  28.506  51.226  1.00  0.00     0.000 C 
BRANCH   2   3
ATOM      3  C   UNL     1      58.502  28.754  49.721  1.00  0.00     0.000 C 
BRANCH   3   4
ATOM      4  C   UNL     1      59.815  28.148  49.196  1.00  0.00     0.000 C 
BRANCH   4   5
ATOM      5  C   UNL     1      60.348  27.022  50.096  1.00  0.00     0.006 C 
BRANCH   5   6
ATOM      6  C   UNL     1      60.019  25.623  49.556  1.00  0.00     0.053 C 
BRANCH   6   7
ATOM      7  C   UNL     1      59.262  24.835  50.579  1.00  0.00     0.041 C 
ATOM      8  O   UNL     1      58.051  25.091  50.806  1.00  0.00    -0.550 OA
ATOM      9  O   UNL     1      59.909  23.852  51.317  1.00  0.00    -0.550 OA
ENDBRANCH   6   7
ENDBRANCH   5   6
ENDBRANCH   4   5
ENDBRANCH   3   4
ENDBRANCH   2   3
ENDBRANCH   1   2
BRANCH   1  10
ATOM     10  C   UNL     1      57.455  29.683  53.381  1.00  0.00     0.027 C 
BRANCH  10  11
ATOM     11  C   UNL     1      56.367  30.728  53.393  1.00  0.00    -0.031 C 
ATOM     12  C   UNL     1      55.149  30.573  52.841  1.00  0.00    -0.031 C 
BRANCH  12  13
ATOM     13  C   UNL     1      54.644  29.293  52.219  1.00  0.00     0.027 C 
BRANCH  13  14
ATOM     14  C   UNL     1      54.670  29.354  50.685  1.00  0.00     0.004 C 
BRANCH  14  15
ATOM     15  C   UNL     1      54.106  28.077  50.045  1.00  0.00     0.000 C 
BRANCH  15  16
ATOM     16  C   UNL     1      55.158  26.958  50.035  1.00  0.00    -0.000 C 
BRANCH  16  17
ATOM     17  C   UNL     1      54.693  25.718  49.256  1.00  0.00    -0.003 C 
ATOM     18  C   UNL     1      53.198  25.746  48.935  1.00  0.00     0.004 C 
ENDBRANCH  16  17
ENDBRANCH  15  16
ENDBRANCH  14  15
ENDBRANCH  13  14
ENDBRANCH  12  13
ENDBRANCH  10  11
ENDBRANCH   1  10
TORSDOF 13
ENDMDL
MODEL 4
REMARK VINA RESULT:    -3.269      3.354      6.707
REMARK INTER + INTRA:          -7.909
REMARK INTER:                  -5.866
REMARK INTRA:                  -2.043
REMARK UNBOUND:                -2.155
REMARK SMILES CCCCCCC=CCCCCCCCC(=O)[O-]
REMARK SMILES IDX 10 1 11 2 12 3 13 4 14 5 15 6 16 7 17 8 18 9 9 10 8 11 7 12
REMARK SMILES IDX 6 13 5 14 4 15 3 16 2 17 1 18
REMARK H PARENT
REMARK Flexibility Score: inf
ROOT
ATOM      1  C   UNL     1      64.626  34.430  60.410  1.00  0.00     0.004 C 
ENDROOT
BRANCH   1   2
ATOM      2  C   UNL     1      64.572  35.423  61.589  1.00  0.00     0.000 C 
BRANCH   2   3
ATOM      3  C   UNL     1      63.477  36.501  61.491  1.00  0.00     0.000 C 
BRANCH   3   4
ATOM      4  C   UNL     1      62.597  36.349  60.238  1.00  0.00     0.000 C 
BRANCH   4   5
ATOM      5  C   UNL     1      61.169  35.889  60.571  1.00  0.00     0.006 C 
BRANCH   5   6
ATOM      6  C   UNL     1      60.128  36.411  59.569  1.00  0.00     0.053 C 
BRANCH   6   7
ATOM      7  C   UNL     1      60.221  35.655  58.281  1.00  0.00     0.041 C 
ATOM      8  O   UNL     1      60.739  36.193  57.267  1.00  0.00    -0.550 OA
ATOM      9  O   UNL     1      59.690  34.375  58.187  1.00  0.00    -0.550 OA
ENDBRANCH   6   7
ENDBRANCH   5   6
ENDBRANCH   4   5
ENDBRANCH   3   4
ENDBRANCH   2   3
ENDBRANCH   1   2
BRANCH   1  10
ATOM     10  C   UNL     1      64.029  33.045  60.712  1.00  0.00     0.027 C 
BRANCH  10  11
ATOM     11  C   UNL     1      63.160  32.545  59.584  1.00  0.00    -0.031 C 
ATOM     12  C   UNL     1      61.883  32.141  59.720  1.00  0.00    -0.031 C 
BRANCH  12  13
ATOM     13  C   UNL     1      61.088  32.228  61.001  1.00  0.00     0.027 C 
BRANCH  13  14
ATOM     14  C   UNL     1      61.187  30.935  61.824  1.00  0.00     0.004 C 
BRANCH  14  15
ATOM     15  C   UNL     1      61.285  29.688  60.933  1.00  0.00     0.000 C 
BRANCH  15  16
ATOM     16  C   UNL     1      62.361  28.724  61.455  1.00  0.00    -0.000 C 
BRANCH  16  17
ATOM     17  C   UNL     1      63.784  29.276  61.280  1.00  0.00    -0.003 C 
ATOM     18  C   UNL     1      64.338  29.049  59.873  1.00  0.00     0.004 C 
ENDBRANCH  16  17
ENDBRANCH  15  16
ENDBRANCH  14  15
ENDBRANCH  13  14
ENDBRANCH  12  13
ENDBRANCH  10  11
ENDBRANCH   1  10
TORSDOF 13
ENDMDL
MODEL 5
REMARK VINA RESULT:    -3.211      9.946     12.471
REMARK INTER + INTRA:          -7.807
REMARK INTER:                  -6.090
REMARK INTRA:                  -1.717
REMARK UNBOUND:                -2.155
REMARK SMILES CCCCCCC=CCCCCCCCC(=O)[O-]
REMARK SMILES IDX 10 1 11 2 12 3 13 4 14 5 15 6 16 7 17 8 18 9 9 10 8 11 7 12
REMARK SMILES IDX 6 13 5 14 4 15 3 16 2 17 1 18
REMARK H PARENT
REMARK Flexibility Score: inf
ROOT
ATOM      1  C   UNL     1      56.475  29.367  53.615  1.00  0.00     0.004 C 
ENDROOT
BRANCH   1   2
ATOM      2  C   UNL     1      57.304  30.581  53.146  1.00  0.00     0.000 C 
BRANCH   2   3
ATOM      3  C   UNL     1      58.560  30.241  52.323  1.00  0.00     0.000 C 
BRANCH   3   4
ATOM      4  C   UNL     1      58.460  28.880  51.612  1.00  0.00     0.000 C 
BRANCH   4   5
ATOM      5  C   UNL     1      58.031  29.011  50.142  1.00  0.00     0.006 C 
BRANCH   5   6
ATOM      6  C   UNL     1      59.221  28.981  49.172  1.00  0.00     0.053 C 
BRANCH   6   7
ATOM      7  C   UNL     1      60.025  27.735  49.374  1.00  0.00     0.041 C 
ATOM      8  O   UNL     1      59.482  26.605  49.263  1.00  0.00    -0.550 OA
ATOM      9  O   UNL     1      61.363  27.823  49.735  1.00  0.00    -0.550 OA
ENDBRANCH   6   7
ENDBRANCH   5   6
ENDBRANCH   4   5
ENDBRANCH   3   4
ENDBRANCH   2   3
ENDBRANCH   1   2
BRANCH   1  10
ATOM     10  C   UNL     1      55.028  29.698  54.017  1.00  0.00     0.027 C 
BRANCH  10  11
ATOM     11  C   UNL     1      54.576  31.027  53.464  1.00  0.00    -0.031 C 
ATOM     12  C   UNL     1      53.790  31.181  52.382  1.00  0.00    -0.031 C 
BRANCH  12  13
ATOM     13  C   UNL     1      53.150  30.046  51.618  1.00  0.00     0.027 C 
BRANCH  13  14
ATOM     14  C   UNL     1      53.982  29.640  50.393  1.00  0.00     0.004 C 
BRANCH  14  15
ATOM     15  C   UNL     1      54.643  28.266  50.572  1.00  0.00     0.000 C 
BRANCH  15  16
ATOM     16  C   UNL     1      53.809  27.164  49.899  1.00  0.00    -0.000 C 
BRANCH  16  17
ATOM     17  C   UNL     1      54.673  26.004  49.380  1.00  0.00    -0.003 C 
ATOM     18  C   UNL     1      56.042  25.936  50.057  1.00  0.00     0.004 C 
ENDBRANCH  16  17
ENDBRANCH  15  16
ENDBRANCH  14  15
ENDBRANCH  13  14
ENDBRANCH  12  13
ENDBRANCH  10  11
ENDBRANCH   1  10
TORSDOF 13
ENDMDL
MODEL 6
REMARK VINA RESULT:    -3.209      1.580      4.827
REMARK INTER + INTRA:          -7.803
REMARK INTER:                  -5.719
REMARK INTRA:                  -2.084
REMARK UNBOUND:                -2.155
REMARK SMILES CCCCCCC=CCCCCCCCC(=O)[O-]
REMARK SMILES IDX 10 1 11 2 12 3 13 4 14 5 15 6 16 7 17 8 18 9 9 10 8 11 7 12
REMARK SMILES IDX 6 13 5 14 4 15 3 16 2 17 1 18
REMARK H PARENT
REMARK Flexibility Score: inf
ROOT
ATOM      1  C   UNL     1      61.578  35.600  60.678  1.00  0.00     0.004 C 
ENDROOT
BRANCH   1   2
ATOM      2  C   UNL     1      62.725  36.624  60.808  1.00  0.00     0.000 C 
BRANCH   2   3
ATOM      3  C   UNL     1      64.132  36.019  60.972  1.00  0.00     0.000 C 
BRANCH   3   4
ATOM      4  C   UNL     1      64.101  34.531  61.364  1.00  0.00     0.000 C 
BRANCH   4   5
ATOM      5  C   UNL     1      64.389  33.602  60.174  1.00  0.00     0.006 C 
BRANCH   5   6
ATOM      6  C   UNL     1      64.519  32.129  60.590  1.00  0.00     0.053 C 
BRANCH   6   7
ATOM      7  C   UNL     1      65.254  31.356  59.540  1.00  0.00     0.041 C 
ATOM      8  O   UNL     1      65.401  31.837  58.386  1.00  0.00    -0.550 OA
ATOM      9  O   UNL     1      65.733  30.083  59.821  1.00  0.00    -0.550 OA
ENDBRANCH   6   7
ENDBRANCH   5   6
ENDBRANCH   4   5
ENDBRANCH   3   4
ENDBRANCH   2   3
ENDBRANCH   1   2
BRANCH   1  10
ATOM     10  C   UNL     1      60.771  35.705  59.374  1.00  0.00     0.027 C 
BRANCH  10  11
ATOM     11  C   UNL     1      61.472  35.033  58.218  1.00  0.00    -0.031 C 
ATOM     12  C   UNL     1      61.335  33.736  57.888  1.00  0.00    -0.031 C 
BRANCH  12  13
ATOM     13  C   UNL     1      60.378  32.776  58.554  1.00  0.00     0.027 C 
BRANCH  13  14
ATOM     14  C   UNL     1      61.110  31.771  59.455  1.00  0.00     0.004 C 
BRANCH  14  15
ATOM     15  C   UNL     1      60.990  32.131  60.942  1.00  0.00     0.000 C 
BRANCH  15  16
ATOM     16  C   UNL     1      61.086  30.875  61.821  1.00  0.00    -0.000 C 
BRANCH  16  17
ATOM     17  C   UNL     1      61.427  29.613  61.013  1.00  0.00    -0.003 C 
ATOM     18  C   UNL     1      62.735  28.960  61.459  1.00  0.00     0.004 C 
ENDBRANCH  16  17
ENDBRANCH  15  16
ENDBRANCH  14  15
ENDBRANCH  13  14
ENDBRANCH  12  13
ENDBRANCH  10  11
ENDBRANCH   1  10
TORSDOF 13
ENDMDL
MODEL 7
REMARK VINA RESULT:    -3.192      3.418      5.891
REMARK INTER + INTRA:          -7.772
REMARK INTER:                  -5.423
REMARK INTRA:                  -2.349
REMARK UNBOUND:                -2.155
REMARK SMILES CCCCCCC=CCCCCCCCC(=O)[O-]
REMARK SMILES IDX 10 1 11 2 12 3 13 4 14 5 15 6 16 7 17 8 18 9 9 10 8 11 7 12
REMARK SMILES IDX 6 13 5 14 4 15 3 16 2 17 1 18
REMARK H PARENT
REMARK Flexibility Score: inf
ROOT
ATOM      1  C   UNL     1      64.832  31.308  59.682  1.00  0.00     0.004 C 
ENDROOT
BRANCH   1   2
ATOM      2  C   UNL     1      64.539  32.823  59.686  1.00  0.00     0.000 C 
BRANCH   2   3
ATOM      3  C   UNL     1      64.070  33.399  61.034  1.00  0.00     0.000 C 
BRANCH   3   4
ATOM      4  C   UNL     1      64.354  34.905  61.173  1.00  0.00     0.000 C 
BRANCH   4   5
ATOM      5  C   UNL     1      63.077  35.756  61.104  1.00  0.00     0.006 C 
BRANCH   5   6
ATOM      6  C   UNL     1      61.848  34.948  60.662  1.00  0.00     0.053 C 
BRANCH   6   7
ATOM      7  C   UNL     1      61.407  35.377  59.298  1.00  0.00     0.041 C 
ATOM      8  O   UNL     1      62.086  35.065  58.285  1.00  0.00    -0.550 OA
ATOM      9  O   UNL     1      60.272  36.164  59.150  1.00  0.00    -0.550 OA
ENDBRANCH   6   7
ENDBRANCH   5   6
ENDBRANCH   4   5
ENDBRANCH   3   4
ENDBRANCH   2   3
ENDBRANCH   1   2
BRANCH   1  10
ATOM     10  C   UNL     1      64.671  30.622  61.049  1.00  0.00     0.027 C 
BRANCH  10  11
ATOM     11  C   UNL     1      63.751  29.428  60.979  1.00  0.00    -0.031 C 
ATOM     12  C   UNL     1      62.482  29.411  61.427  1.00  0.00    -0.031 C 
BRANCH  12  13
ATOM     13  C   UNL     1      61.746  30.613  61.970  1.00  0.00     0.027 C 
BRANCH  13  14
ATOM     14  C   UNL     1      61.048  31.408  60.857  1.00  0.00     0.004 C 
BRANCH  14  15
ATOM     15  C   UNL     1      60.491  30.494  59.756  1.00  0.00     0.000 C 
BRANCH  15  16
ATOM     16  C   UNL     1      60.729  31.102  58.365  1.00  0.00    -0.000 C 
BRANCH  16  17
ATOM     17  C   UNL     1      62.019  30.587  57.708  1.00  0.00    -0.003 C 
ATOM     18  C   UNL     1      62.090  29.061  57.659  1.00  0.00     0.004 C 
ENDBRANCH  16  17
ENDBRANCH  15  16
ENDBRANCH  14  15
ENDBRANCH  13  14
ENDBRANCH  12  13
ENDBRANCH  10  11
ENDBRANCH   1  10
TORSDOF 13
ENDMDL
MODEL 8
REMARK VINA RESULT:    -3.190      2.183      3.896
REMARK INTER + INTRA:          -7.770
REMARK INTER:                  -5.491
REMARK INTRA:                  -2.278
REMARK UNBOUND:                -2.155
REMARK SMILES CCCCCCC=CCCCCCCCC(=O)[O-]
REMARK SMILES IDX 10 1 11 2 12 3 13 4 14 5 15 6 16 7 17 8 18 9 9 10 8 11 7 12
REMARK SMILES IDX 6 13 5 14 4 15 3 16 2 17 1 18
REMARK H PARENT
REMARK Flexibility Score: inf
ROOT
ATOM      1  C   UNL     1      64.289  33.519  57.221  1.00  0.00     0.004 C 
ENDROOT
BRANCH   1   2
ATOM      2  C   UNL     1      65.368  33.114  58.246  1.00  0.00     0.000 C 
BRANCH   2   3
ATOM      3  C   UNL     1      64.867  32.263  59.428  1.00  0.00     0.000 C 
BRANCH   3   4
ATOM      4  C   UNL     1      64.838  30.758  59.111  1.00  0.00     0.000 C 
BRANCH   4   5
ATOM      5  C   UNL     1      64.298  29.919  60.280  1.00  0.00     0.006 C 
BRANCH   5   6
ATOM      6  C   UNL     1      63.555  30.764  61.325  1.00  0.00     0.053 C 
BRANCH   6   7
ATOM      7  C   UNL     1      62.267  30.105  61.707  1.00  0.00     0.041 C 
ATOM      8  O   UNL     1      61.270  30.802  62.030  1.00  0.00    -0.550 OA
ATOM      9  O   UNL     1      62.183  28.719  61.753  1.00  0.00    -0.550 OA
ENDBRANCH   6   7
ENDBRANCH   5   6
ENDBRANCH   4   5
ENDBRANCH   3   4
ENDBRANCH   2   3
ENDBRANCH   1   2
BRANCH   1  10
ATOM     10  C   UNL     1      63.174  34.415  57.786  1.00  0.00     0.027 C 
BRANCH  10  11
ATOM     11  C   UNL     1      61.871  33.670  57.938  1.00  0.00    -0.031 C 
ATOM     12  C   UNL     1      61.278  33.395  59.114  1.00  0.00    -0.031 C 
BRANCH  12  13
ATOM     13  C   UNL     1      61.767  33.881  60.458  1.00  0.00     0.027 C 
BRANCH  13  14
ATOM     14  C   UNL     1      61.512  35.383  60.649  1.00  0.00     0.004 C 
BRANCH  14  15
ATOM     15  C   UNL     1      62.789  36.142  61.039  1.00  0.00     0.000 C 
BRANCH  15  16
ATOM     16  C   UNL     1      63.922  35.167  61.393  1.00  0.00    -0.000 C 
BRANCH  16  17
ATOM     17  C   UNL     1      65.311  35.817  61.304  1.00  0.00    -0.003 C 
ATOM     18  C   UNL     1      65.579  36.456  59.941  1.00  0.00     0.004 C 
ENDBRANCH  16  17
ENDBRANCH  15  16
ENDBRANCH  14  15
ENDBRANCH  13  14
ENDBRANCH  12  13
ENDBRANCH  10  11
ENDBRANCH   1  10
TORSDOF 13
ENDMDL
MODEL 9
REMARK VINA RESULT:    -3.182      2.362      4.121
REMARK INTER + INTRA:          -7.755
REMARK INTER:                  -5.121
REMARK INTRA:                  -2.634
REMARK UNBOUND:                -2.155
REMARK SMILES CCCCCCC=CCCCCCCCC(=O)[O-]
REMARK SMILES IDX 10 1 11 2 12 3 13 4 14 5 15 6 16 7 17 8 18 9 9 10 8 11 7 12
REMARK SMILES IDX 6 13 5 14 4 15 3 16 2 17 1 18
REMARK H PARENT
REMARK Flexibility Score: inf
ROOT
ATOM      1  C   UNL     1      65.037  31.040  59.108  1.00  0.00     0.004 C 
ENDROOT
BRANCH   1   2
ATOM      2  C   UNL     1      64.615  31.344  60.561  1.00  0.00     0.000 C 
BRANCH   2   3
ATOM      3  C   UNL     1      64.227  30.115  61.404  1.00  0.00     0.000 C 
BRANCH   3   4
ATOM      4  C   UNL     1      64.801  28.801  60.846  1.00  0.00     0.000 C 
BRANCH   4   5
ATOM      5  C   UNL     1      63.718  27.739  60.602  1.00  0.00     0.006 C 
BRANCH   5   6
ATOM      6  C   UNL     1      62.470  27.953  61.472  1.00  0.00     0.053 C 
BRANCH   6   7
ATOM      7  C   UNL     1      61.841  26.638  61.810  1.00  0.00     0.041 C 
ATOM      8  O   UNL     1      61.740  26.274  63.011  1.00  0.00    -0.550 OA
ATOM      9  O   UNL     1      61.411  25.792  60.795  1.00  0.00    -0.550 OA
ENDBRANCH   6   7
ENDBRANCH   5   6
ENDBRANCH   4   5
ENDBRANCH   3   4
ENDBRANCH   2   3
ENDBRANCH   1   2
BRANCH   1  10
ATOM     10  C   UNL     1      63.945  31.302  58.057  1.00  0.00     0.027 C 
BRANCH  10  11
ATOM     11  C   UNL     1      63.108  30.075  57.791  1.00  0.00    -0.031 C 
ATOM     12  C   UNL     1      61.808  29.948  58.115  1.00  0.00    -0.031 C 
BRANCH  12  13
ATOM     13  C   UNL     1      60.956  31.052  58.695  1.00  0.00     0.027 C 
BRANCH  13  14
ATOM     14  C   UNL     1      60.791  30.908  60.215  1.00  0.00     0.004 C 
BRANCH  14  15
ATOM     15  C   UNL     1      61.079  32.222  60.955  1.00  0.00     0.000 C 
BRANCH  15  16
ATOM     16  C   UNL     1      61.535  33.316  59.977  1.00  0.00    -0.000 C 
BRANCH  16  17
ATOM     17  C   UNL     1      61.860  34.641  60.683  1.00  0.00    -0.003 C 
ATOM     18  C   UNL     1      63.359  34.935  60.731  1.00  0.00     0.004 C 
ENDBRANCH  16  17
ENDBRANCH  15  16
ENDBRANCH  14  15
ENDBRANCH  13  14
ENDBRANCH  12  13
ENDBRANCH  10  11
ENDBRANCH   1  10
TORSDOF 13
ENDMDL
