MODEL 1
REMARK VINA RESULT:    -6.996      0.000      0.000
REMARK INTER + INTRA:          -7.898
REMARK INTER:                  -8.018
REMARK INTRA:                   0.120
REMARK UNBOUND:                 0.120
REMARK SMILES C=C(C)[C@H]1CC[C@@]2(C(=O)[O-])CC[C@@]3(C)[C@H](CC[C@@H]4[C@@]5(C)CC[C@H](O)C(C)(C)[C@H]5CC[C@@]43C)[C@H]12
REMARK SMILES IDX 7 1 6 2 33 3 11 4 5 5 15 6 4 7 12 8 16 9 13 10 17 11 31 12
REMARK SMILES IDX 14 13 18 14 30 15 32 16 19 17 29 18 21 19 20 20 28 21 22 22
REMARK SMILES IDX 25 23 23 24 26 25 27 26 8 27 9 28 10 29 2 30 3 31 1 32 24 33
REMARK H PARENT 24 34
REMARK Flexibility Score: inf
ROOT
ATOM      1  C   UNL     1     108.693  42.150 138.677  1.00  0.00     0.014 C 
ATOM      2  C   UNL     1     109.747  41.025 138.619  1.00  0.00     0.014 C 
ATOM      3  C   UNL     1     108.400  42.315 137.183  1.00  0.00     0.012 C 
ATOM      4  C   UNL     1     109.230  43.509 139.242  1.00  0.00     0.014 C 
ATOM      5  C   UNL     1     109.278  40.080 137.490  1.00  0.00     0.009 C 
ATOM      6  C   UNL     1     107.348  43.391 136.817  1.00  0.00     0.000 C 
ATOM      7  C   UNL     1     108.319  40.901 136.593  1.00  0.00     0.018 C 
ATOM      8  C   UNL     1     109.017  44.752 138.323  1.00  0.00     0.008 C 
ATOM      9  C   UNL     1     105.881  42.984 136.970  1.00  0.00     0.005 C 
ATOM     10  C   UNL     1     107.700  44.829 137.427  1.00  0.00    -0.024 C 
ATOM     11  C   UNL     1     105.015  44.144 136.502  1.00  0.00     0.005 C 
ATOM     12  C   UNL     1     106.452  45.541 138.217  1.00  0.00    -0.024 C 
ATOM     13  C   UNL     1     108.124  45.706 136.203  1.00  0.00     0.012 C 
ATOM     14  C   UNL     1     105.010  45.299 137.541  1.00  0.00     0.002 C 
ATOM     15  C   UNL     1     106.690  47.070 138.384  1.00  0.00     0.008 C 
ATOM     16  C   UNL     1     106.394  44.976 139.678  1.00  0.00     0.012 C 
ATOM     17  C   UNL     1     104.087  46.560 137.093  1.00  0.00    -0.026 C 
ATOM     18  C   UNL     1     105.468  47.801 138.927  1.00  0.00     0.005 C 
ATOM     19  C   UNL     1     102.590  46.158 137.349  1.00  0.00     0.010 C 
ATOM     20  C   UNL     1     104.223  46.805 135.562  1.00  0.00     0.012 C 
ATOM     21  C   UNL     1     104.414  47.954 137.819  1.00  0.00     0.003 C 
ATOM     22  C   UNL     1     102.148  46.442 138.784  1.00  0.00     0.033 C 
ATOM     23  C   UNL     1     103.150  48.808 138.284  1.00  0.00    -0.006 C 
ATOM     24  C   UNL     1     102.153  47.943 139.132  1.00  0.00     0.120 C 
ATOM     25  C   UNL     1     103.577  50.027 139.152  1.00  0.00     0.014 C 
ATOM     26  C   UNL     1     102.453  49.443 137.040  1.00  0.00     0.014 C 
ENDROOT
BRANCH   1  27
ATOM     27  C   UNL     1     107.539  41.607 139.530  1.00  0.00     0.048 C 
ATOM     28  O   UNL     1     107.475  41.885 140.759  1.00  0.00    -0.550 OA
ATOM     29  O   UNL     1     106.652  40.661 139.034  1.00  0.00    -0.550 OA
ENDBRANCH   1  27
BRANCH   7  30
ATOM     30  C   UNL     1     108.671  40.847 135.109  1.00  0.00    -0.077 C 
ATOM     31  C   UNL     1     109.194  42.079 134.417  1.00  0.00     0.039 C 
ATOM     32  C   UNL     1     108.540  39.716 134.393  1.00  0.00     0.008 C 
ENDBRANCH   7  30
BRANCH  24  33
ATOM     33  O   UNL     1     100.847  48.462 139.036  1.00  0.00    -0.393 OA
ATOM     34  H   UNL     1     100.476  48.164 138.164  1.00  0.00     0.210 HD
ENDBRANCH  24  33
TORSDOF 3
ENDMDL
MODEL 2
REMARK VINA RESULT:    -6.924      2.271      4.084
REMARK INTER + INTRA:          -7.816
REMARK INTER:                  -8.101
REMARK INTRA:                   0.285
REMARK UNBOUND:                 0.120
REMARK SMILES C=C(C)[C@H]1CC[C@@]2(C(=O)[O-])CC[C@@]3(C)[C@H](CC[C@@H]4[C@@]5(C)CC[C@H](O)C(C)(C)[C@H]5CC[C@@]43C)[C@H]12
REMARK SMILES IDX 7 1 6 2 33 3 11 4 5 5 15 6 4 7 12 8 16 9 13 10 17 11 31 12
REMARK SMILES IDX 14 13 18 14 30 15 32 16 19 17 29 18 21 19 20 20 28 21 22 22
REMARK SMILES IDX 25 23 23 24 26 25 27 26 8 27 9 28 10 29 2 30 3 31 1 32 24 33
REMARK H PARENT 24 34
REMARK Flexibility Score: inf
ROOT
ATOM      1  C   UNL     1     107.197  41.169 136.191  1.00  0.00     0.014 C 
ATOM      2  C   UNL     1     108.293  40.102 136.387  1.00  0.00     0.014 C 
ATOM      3  C   UNL     1     107.521  42.100 137.364  1.00  0.00     0.012 C 
ATOM      4  C   UNL     1     105.735  40.632 136.358  1.00  0.00     0.014 C 
ATOM      5  C   UNL     1     109.546  40.878 136.847  1.00  0.00     0.009 C 
ATOM      6  C   UNL     1     106.609  43.342 137.511  1.00  0.00     0.000 C 
ATOM      7  C   UNL     1     109.049  42.233 137.408  1.00  0.00     0.018 C 
ATOM      8  C   UNL     1     104.853  41.390 137.400  1.00  0.00     0.008 C 
ATOM      9  C   UNL     1     106.927  44.528 136.598  1.00  0.00     0.005 C 
ATOM     10  C   UNL     1     105.055  42.961 137.579  1.00  0.00    -0.024 C 
ATOM     11  C   UNL     1     105.971  45.661 136.939  1.00  0.00     0.005 C 
ATOM     12  C   UNL     1     104.111  43.829 136.558  1.00  0.00    -0.024 C 
ATOM     13  C   UNL     1     104.626  43.233 139.059  1.00  0.00     0.012 C 
ATOM     14  C   UNL     1     104.542  45.374 136.402  1.00  0.00     0.002 C 
ATOM     15  C   UNL     1     102.614  43.755 136.974  1.00  0.00     0.008 C 
ATOM     16  C   UNL     1     104.172  43.172 135.136  1.00  0.00     0.012 C 
ATOM     17  C   UNL     1     103.483  46.563 136.730  1.00  0.00    -0.026 C 
ATOM     18  C   UNL     1     101.731  44.709 136.178  1.00  0.00     0.005 C 
ATOM     19  C   UNL     1     103.762  47.731 135.718  1.00  0.00     0.010 C 
ATOM     20  C   UNL     1     103.749  47.137 138.152  1.00  0.00     0.012 C 
ATOM     21  C   UNL     1     101.934  46.148 136.677  1.00  0.00     0.003 C 
ATOM     22  C   UNL     1     103.024  47.544 134.394  1.00  0.00     0.033 C 
ATOM     23  C   UNL     1     100.960  47.190 135.963  1.00  0.00    -0.006 C 
ATOM     24  C   UNL     1     101.491  47.594 134.543  1.00  0.00     0.120 C 
ATOM     25  C   UNL     1      99.531  46.601 135.784  1.00  0.00     0.014 C 
ATOM     26  C   UNL     1     100.753  48.436 136.880  1.00  0.00     0.014 C 
ENDROOT
BRANCH   1  27
ATOM     27  C   UNL     1     107.421  41.755 134.791  1.00  0.00     0.048 C 
ATOM     28  O   UNL     1     106.442  41.934 134.016  1.00  0.00    -0.550 OA
ATOM     29  O   UNL     1     108.697  41.926 134.271  1.00  0.00    -0.550 OA
ENDBRANCH   1  27
BRANCH   7  30
ATOM     30  C   UNL     1     109.584  42.554 138.801  1.00  0.00    -0.077 C 
ATOM     31  C   UNL     1     109.954  43.971 139.155  1.00  0.00     0.039 C 
ATOM     32  C   UNL     1     109.724  41.601 139.741  1.00  0.00     0.008 C 
ENDBRANCH   7  30
BRANCH  24  33
ATOM     33  O   UNL     1     101.016  48.870 134.184  1.00  0.00    -0.393 OA
ATOM     34  H   UNL     1     101.035  48.922 133.192  1.00  0.00     0.210 HD
ENDBRANCH  24  33
TORSDOF 3
ENDMDL
MODEL 3
REMARK VINA RESULT:    -6.666      2.576      4.137
REMARK INTER + INTRA:          -7.521
REMARK INTER:                  -7.462
REMARK INTRA:                  -0.059
REMARK UNBOUND:                 0.120
REMARK SMILES C=C(C)[C@H]1CC[C@@]2(C(=O)[O-])CC[C@@]3(C)[C@H](CC[C@@H]4[C@@]5(C)CC[C@H](O)C(C)(C)[C@H]5CC[C@@]43C)[C@H]12
REMARK SMILES IDX 7 1 6 2 33 3 11 4 5 5 15 6 4 7 12 8 16 9 13 10 17 11 31 12
REMARK SMILES IDX 14 13 18 14 30 15 32 16 19 17 29 18 21 19 20 20 28 21 22 22
REMARK SMILES IDX 25 23 23 24 26 25 27 26 8 27 9 28 10 29 2 30 3 31 1 32 24 33
REMARK H PARENT 24 34
REMARK Flexibility Score: inf
ROOT
ATOM      1  C   UNL     1     108.195  44.636 138.254  1.00  0.00     0.014 C 
ATOM      2  C   UNL     1     109.669  44.582 138.706  1.00  0.00     0.014 C 
ATOM      3  C   UNL     1     107.993  43.177 137.836  1.00  0.00     0.012 C 
ATOM      4  C   UNL     1     107.934  45.560 137.016  1.00  0.00     0.014 C 
ATOM      5  C   UNL     1     109.835  43.216 139.407  1.00  0.00     0.009 C 
ATOM      6  C   UNL     1     106.584  42.816 137.307  1.00  0.00     0.000 C 
ATOM      7  C   UNL     1     108.679  42.316 138.905  1.00  0.00     0.018 C 
ATOM      8  C   UNL     1     107.213  44.881 135.809  1.00  0.00     0.008 C 
ATOM      9  C   UNL     1     105.505  42.570 138.365  1.00  0.00     0.005 C 
ATOM     10  C   UNL     1     106.118  43.759 136.099  1.00  0.00    -0.024 C 
ATOM     11  C   UNL     1     104.223  42.168 137.652  1.00  0.00     0.005 C 
ATOM     12  C   UNL     1     104.617  44.390 136.287  1.00  0.00    -0.024 C 
ATOM     13  C   UNL     1     106.157  42.851 134.826  1.00  0.00     0.012 C 
ATOM     14  C   UNL     1     103.552  43.389 136.965  1.00  0.00     0.002 C 
ATOM     15  C   UNL     1     104.048  44.902 134.933  1.00  0.00     0.008 C 
ATOM     16  C   UNL     1     104.717  45.664 137.195  1.00  0.00     0.012 C 
ATOM     17  C   UNL     1     102.169  43.013 136.199  1.00  0.00    -0.026 C 
ATOM     18  C   UNL     1     102.581  45.307 135.024  1.00  0.00     0.005 C 
ATOM     19  C   UNL     1     101.053  42.861 137.294  1.00  0.00     0.010 C 
ATOM     20  C   UNL     1     102.301  41.626 135.507  1.00  0.00     0.012 C 
ATOM     21  C   UNL     1     101.694  44.053 135.072  1.00  0.00     0.003 C 
ATOM     22  C   UNL     1     100.403  44.196 137.653  1.00  0.00     0.033 C 
ATOM     23  C   UNL     1     100.138  44.399 135.057  1.00  0.00    -0.006 C 
ATOM     24  C   UNL     1      99.630  44.828 136.478  1.00  0.00     0.120 C 
ATOM     25  C   UNL     1      99.823  45.561 134.071  1.00  0.00     0.014 C 
ATOM     26  C   UNL     1      99.331  43.186 134.496  1.00  0.00     0.014 C 
ENDROOT
BRANCH   1  27
ATOM     27  C   UNL     1     107.393  45.100 139.476  1.00  0.00     0.048 C 
ATOM     28  O   UNL     1     107.080  46.315 139.604  1.00  0.00    -0.550 OA
ATOM     29  O   UNL     1     107.152  44.254 140.551  1.00  0.00    -0.550 OA
ENDBRANCH   1  27
BRANCH   7  30
ATOM     30  C   UNL     1     109.141  40.960 138.380  1.00  0.00    -0.077 C 
ATOM     31  C   UNL     1     109.691  40.844 136.982  1.00  0.00     0.039 C 
ATOM     32  C   UNL     1     109.085  39.851 139.140  1.00  0.00     0.008 C 
ENDBRANCH   7  30
BRANCH  24  33
ATOM     33  O   UNL     1      98.254  44.561 136.611  1.00  0.00    -0.393 OA
ATOM     34  H   UNL     1      98.154  43.881 137.330  1.00  0.00     0.210 HD
ENDBRANCH  24  33
TORSDOF 3
ENDMDL
MODEL 4
REMARK VINA RESULT:    -6.652      6.560      9.705
REMARK INTER + INTRA:          -7.504
REMARK INTER:                  -7.453
REMARK INTRA:                  -0.051
REMARK UNBOUND:                 0.120
REMARK SMILES C=C(C)[C@H]1CC[C@@]2(C(=O)[O-])CC[C@@]3(C)[C@H](CC[C@@H]4[C@@]5(C)CC[C@H](O)C(C)(C)[C@H]5CC[C@@]43C)[C@H]12
REMARK SMILES IDX 7 1 6 2 33 3 11 4 5 5 15 6 4 7 12 8 16 9 13 10 17 11 31 12
REMARK SMILES IDX 14 13 18 14 30 15 32 16 19 17 29 18 21 19 20 20 28 21 22 22
REMARK SMILES IDX 25 23 23 24 26 25 27 26 8 27 9 28 10 29 2 30 3 31 1 32 24 33
REMARK H PARENT 24 34
REMARK Flexibility Score: inf
ROOT
ATOM      1  C   UNL     1     103.088  50.456 139.128  1.00  0.00     0.014 C 
ATOM      2  C   UNL     1     103.603  51.152 140.405  1.00  0.00     0.014 C 
ATOM      3  C   UNL     1     102.389  51.636 138.446  1.00  0.00     0.012 C 
ATOM      4  C   UNL     1     102.036  49.325 139.390  1.00  0.00     0.014 C 
ATOM      5  C   UNL     1     104.038  52.564 139.956  1.00  0.00     0.009 C 
ATOM      6  C   UNL     1     101.724  51.329 137.083  1.00  0.00     0.000 C 
ATOM      7  C   UNL     1     103.311  52.850 138.619  1.00  0.00     0.018 C 
ATOM      8  C   UNL     1     100.684  49.472 138.624  1.00  0.00     0.008 C 
ATOM      9  C   UNL     1     102.654  51.292 135.868  1.00  0.00     0.005 C 
ATOM     10  C   UNL     1     100.694  50.105 137.160  1.00  0.00    -0.024 C 
ATOM     11  C   UNL     1     101.807  51.045 134.628  1.00  0.00     0.005 C 
ATOM     12  C   UNL     1     100.915  48.973 135.996  1.00  0.00    -0.024 C 
ATOM     13  C   UNL     1      99.275  50.747 137.014  1.00  0.00     0.012 C 
ATOM     14  C   UNL     1     101.330  49.568 134.557  1.00  0.00     0.002 C 
ATOM     15  C   UNL     1      99.654  48.076 135.834  1.00  0.00     0.008 C 
ATOM     16  C   UNL     1     102.054  47.997 136.452  1.00  0.00     0.012 C 
ATOM     17  C   UNL     1     100.431  49.249 133.241  1.00  0.00    -0.026 C 
ATOM     18  C   UNL     1      99.739  47.149 134.628  1.00  0.00     0.005 C 
ATOM     19  C   UNL     1     101.414  49.119 132.023  1.00  0.00     0.010 C 
ATOM     20  C   UNL     1      99.495  50.452 132.928  1.00  0.00     0.012 C 
ATOM     21  C   UNL     1      99.498  47.946 133.336  1.00  0.00     0.003 C 
ATOM     22  C   UNL     1     101.984  47.708 131.882  1.00  0.00     0.033 C 
ATOM     23  C   UNL     1      99.463  47.020 132.039  1.00  0.00    -0.006 C 
ATOM     24  C   UNL     1     100.910  46.651 131.556  1.00  0.00     0.120 C 
ATOM     25  C   UNL     1      98.701  45.691 132.310  1.00  0.00     0.014 C 
ATOM     26  C   UNL     1      98.637  47.717 130.912  1.00  0.00     0.014 C 
ENDROOT
BRANCH   1  27
ATOM     27  C   UNL     1     104.330  49.909 138.412  1.00  0.00     0.048 C 
ATOM     28  O   UNL     1     104.677  48.707 138.575  1.00  0.00    -0.550 OA
ATOM     29  O   UNL     1     105.202  50.747 137.729  1.00  0.00    -0.550 OA
ENDBRANCH   1  27
BRANCH   7  30
ATOM     30  C   UNL     1     102.563  54.180 138.600  1.00  0.00    -0.077 C 
ATOM     31  C   UNL     1     101.172  54.268 139.174  1.00  0.00     0.039 C 
ATOM     32  C   UNL     1     103.118  55.296 138.092  1.00  0.00     0.008 C 
ENDBRANCH   7  30
BRANCH  24  33
ATOM     33  O   UNL     1     100.913  46.374 130.176  1.00  0.00    -0.393 OA
ATOM     34  H   UNL     1     100.483  47.146 129.720  1.00  0.00     0.210 HD
ENDBRANCH  24  33
TORSDOF 3
ENDMDL
MODEL 5
REMARK VINA RESULT:    -6.376      1.839      3.077
REMARK INTER + INTRA:          -7.188
REMARK INTER:                  -7.462
REMARK INTRA:                   0.275
REMARK UNBOUND:                 0.120
REMARK SMILES C=C(C)[C@H]1CC[C@@]2(C(=O)[O-])CC[C@@]3(C)[C@H](CC[C@@H]4[C@@]5(C)CC[C@H](O)C(C)(C)[C@H]5CC[C@@]43C)[C@H]12
REMARK SMILES IDX 7 1 6 2 33 3 11 4 5 5 15 6 4 7 12 8 16 9 13 10 17 11 31 12
REMARK SMILES IDX 14 13 18 14 30 15 32 16 19 17 29 18 21 19 20 20 28 21 22 22
REMARK SMILES IDX 25 23 23 24 26 25 27 26 8 27 9 28 10 29 2 30 3 31 1 32 24 33
REMARK H PARENT 24 34
REMARK Flexibility Score: inf
ROOT
ATOM      1  C   UNL     1     108.527  41.981 136.727  1.00  0.00     0.014 C 
ATOM      2  C   UNL     1     109.530  40.819 136.578  1.00  0.00     0.014 C 
ATOM      3  C   UNL     1     107.267  41.196 137.104  1.00  0.00     0.012 C 
ATOM      4  C   UNL     1     108.255  42.771 135.402  1.00  0.00     0.014 C 
ATOM      5  C   UNL     1     109.166  39.815 137.695  1.00  0.00     0.009 C 
ATOM      6  C   UNL     1     105.994  42.042 137.349  1.00  0.00     0.000 C 
ATOM      7  C   UNL     1     107.705  40.120 138.107  1.00  0.00     0.018 C 
ATOM      8  C   UNL     1     106.757  42.883 134.979  1.00  0.00     0.008 C 
ATOM      9  C   UNL     1     105.880  42.713 138.720  1.00  0.00     0.005 C 
ATOM     10  C   UNL     1     105.644  43.001 136.116  1.00  0.00    -0.024 C 
ATOM     11  C   UNL     1     104.542  43.434 138.786  1.00  0.00     0.005 C 
ATOM     12  C   UNL     1     105.356  44.557 136.543  1.00  0.00    -0.024 C 
ATOM     13  C   UNL     1     104.365  42.384 135.461  1.00  0.00     0.012 C 
ATOM     14  C   UNL     1     104.558  44.731 137.932  1.00  0.00     0.002 C 
ATOM     15  C   UNL     1     104.597  45.319 135.418  1.00  0.00     0.008 C 
ATOM     16  C   UNL     1     106.727  45.302 136.686  1.00  0.00     0.012 C 
ATOM     17  C   UNL     1     103.153  45.546 137.980  1.00  0.00    -0.026 C 
ATOM     18  C   UNL     1     104.129  46.703 135.854  1.00  0.00     0.005 C 
ATOM     19  C   UNL     1     103.099  46.306 139.354  1.00  0.00     0.010 C 
ATOM     20  C   UNL     1     101.956  44.551 137.978  1.00  0.00     0.012 C 
ATOM     21  C   UNL     1     102.904  46.576 136.773  1.00  0.00     0.003 C 
ATOM     22  C   UNL     1     103.797  47.664 139.297  1.00  0.00     0.033 C 
ATOM     23  C   UNL     1     102.291  47.990 137.181  1.00  0.00    -0.006 C 
ATOM     24  C   UNL     1     103.110  48.658 138.341  1.00  0.00     0.120 C 
ATOM     25  C   UNL     1     102.286  48.975 135.977  1.00  0.00     0.014 C 
ATOM     26  C   UNL     1     100.785  47.827 137.555  1.00  0.00     0.014 C 
ENDROOT
BRANCH   1  27
ATOM     27  C   UNL     1     109.097  42.897 137.818  1.00  0.00     0.048 C 
ATOM     28  O   UNL     1     109.063  44.149 137.673  1.00  0.00    -0.550 OA
ATOM     29  O   UNL     1     109.822  42.388 138.887  1.00  0.00    -0.550 OA
ENDBRANCH   1  27
BRANCH   7  30
ATOM     30  C   UNL     1     106.798  38.893 138.106  1.00  0.00    -0.077 C 
ATOM     31  C   UNL     1     106.217  38.389 136.810  1.00  0.00     0.039 C 
ATOM     32  C   UNL     1     106.508  38.227 139.239  1.00  0.00     0.008 C 
ENDBRANCH   7  30
BRANCH  24  33
ATOM     33  O   UNL     1     102.293  49.541 139.074  1.00  0.00    -0.393 OA
ATOM     34  H   UNL     1     101.371  49.172 139.056  1.00  0.00     0.210 HD
ENDBRANCH  24  33
TORSDOF 3
ENDMDL
MODEL 6
REMARK VINA RESULT:    -6.198      2.800      8.111
REMARK INTER + INTRA:          -6.984
REMARK INTER:                  -6.934
REMARK INTRA:                  -0.050
REMARK UNBOUND:                 0.120
REMARK SMILES C=C(C)[C@H]1CC[C@@]2(C(=O)[O-])CC[C@@]3(C)[C@H](CC[C@@H]4[C@@]5(C)CC[C@H](O)C(C)(C)[C@H]5CC[C@@]43C)[C@H]12
REMARK SMILES IDX 7 1 6 2 33 3 11 4 5 5 15 6 4 7 12 8 16 9 13 10 17 11 31 12
REMARK SMILES IDX 14 13 18 14 30 15 32 16 19 17 29 18 21 19 20 20 28 21 22 22
REMARK SMILES IDX 25 23 23 24 26 25 27 26 8 27 9 28 10 29 2 30 3 31 1 32 24 33
REMARK H PARENT 24 34
REMARK Flexibility Score: inf
ROOT
ATOM      1  C   UNL     1     101.755  46.962 136.093  1.00  0.00     0.014 C 
ATOM      2  C   UNL     1     100.493  47.840 135.980  1.00  0.00     0.014 C 
ATOM      3  C   UNL     1     101.105  45.587 136.280  1.00  0.00     0.012 C 
ATOM      4  C   UNL     1     102.649  47.275 137.341  1.00  0.00     0.014 C 
ATOM      5  C   UNL     1      99.476  46.998 135.178  1.00  0.00     0.009 C 
ATOM      6  C   UNL     1     102.081  44.395 136.434  1.00  0.00     0.000 C 
ATOM      7  C   UNL     1      99.928  45.522 135.298  1.00  0.00     0.018 C 
ATOM      8  C   UNL     1     102.963  46.058 138.268  1.00  0.00     0.008 C 
ATOM      9  C   UNL     1     102.680  43.838 135.140  1.00  0.00     0.005 C 
ATOM     10  C   UNL     1     103.146  44.618 137.609  1.00  0.00    -0.024 C 
ATOM     11  C   UNL     1     103.550  42.642 135.495  1.00  0.00     0.005 C 
ATOM     12  C   UNL     1     104.698  44.330 137.166  1.00  0.00    -0.024 C 
ATOM     13  C   UNL     1     102.725  43.625 138.743  1.00  0.00     0.012 C 
ATOM     14  C   UNL     1     104.884  43.091 136.153  1.00  0.00     0.002 C 
ATOM     15  C   UNL     1     105.609  44.117 138.409  1.00  0.00     0.008 C 
ATOM     16  C   UNL     1     105.265  45.610 136.460  1.00  0.00     0.012 C 
ATOM     17  C   UNL     1     105.856  41.848 136.541  1.00  0.00    -0.026 C 
ATOM     18  C   UNL     1     107.011  43.645 138.039  1.00  0.00     0.005 C 
ATOM     19  C   UNL     1     106.535  41.353 135.213  1.00  0.00     0.010 C 
ATOM     20  C   UNL     1     105.012  40.655 137.076  1.00  0.00     0.012 C 
ATOM     21  C   UNL     1     106.977  42.160 137.647  1.00  0.00     0.003 C 
ATOM     22  C   UNL     1     107.801  42.140 134.877  1.00  0.00     0.033 C 
ATOM     23  C   UNL     1     108.428  41.568 137.353  1.00  0.00    -0.006 C 
ATOM     24  C   UNL     1     108.925  41.950 135.915  1.00  0.00     0.120 C 
ATOM     25  C   UNL     1     109.476  42.099 138.373  1.00  0.00     0.014 C 
ATOM     26  C   UNL     1     108.424  40.022 137.573  1.00  0.00     0.014 C 
ENDROOT
BRANCH   1  27
ATOM     27  C   UNL     1     102.532  47.162 134.785  1.00  0.00     0.048 C 
ATOM     28  O   UNL     1     103.478  47.995 134.733  1.00  0.00    -0.550 OA
ATOM     29  O   UNL     1     102.108  46.588 133.594  1.00  0.00    -0.550 OA
ENDBRANCH   1  27
BRANCH   7  30
ATOM     30  C   UNL     1      98.820  44.575 135.751  1.00  0.00    -0.077 C 
ATOM     31  C   UNL     1      98.251  43.569 134.785  1.00  0.00     0.039 C 
ATOM     32  C   UNL     1      98.338  44.602 137.007  1.00  0.00     0.008 C 
ENDBRANCH   7  30
BRANCH  24  33
ATOM     33  O   UNL     1     109.854  41.001 135.447  1.00  0.00    -0.393 OA
ATOM     34  H   UNL     1     109.364  40.144 135.327  1.00  0.00     0.210 HD
ENDBRANCH  24  33
TORSDOF 3
ENDMDL
MODEL 7
REMARK VINA RESULT:    -6.096      2.166      7.703
REMARK INTER + INTRA:          -6.866
REMARK INTER:                  -6.808
REMARK INTRA:                  -0.059
REMARK UNBOUND:                 0.120
REMARK SMILES C=C(C)[C@H]1CC[C@@]2(C(=O)[O-])CC[C@@]3(C)[C@H](CC[C@@H]4[C@@]5(C)CC[C@H](O)C(C)(C)[C@H]5CC[C@@]43C)[C@H]12
REMARK SMILES IDX 7 1 6 2 33 3 11 4 5 5 15 6 4 7 12 8 16 9 13 10 17 11 31 12
REMARK SMILES IDX 14 13 18 14 30 15 32 16 19 17 29 18 21 19 20 20 28 21 22 22
REMARK SMILES IDX 25 23 23 24 26 25 27 26 8 27 9 28 10 29 2 30 3 31 1 32 24 33
REMARK H PARENT 24 34
REMARK Flexibility Score: inf
ROOT
ATOM      1  C   UNL     1     101.112  46.339 137.042  1.00  0.00     0.014 C 
ATOM      2  C   UNL     1      99.777  46.988 136.624  1.00  0.00     0.014 C 
ATOM      3  C   UNL     1     101.698  46.028 135.662  1.00  0.00     0.012 C 
ATOM      4  C   UNL     1     100.956  45.001 137.841  1.00  0.00     0.014 C 
ATOM      5  C   UNL     1     100.101  47.823 135.365  1.00  0.00     0.009 C 
ATOM      6  C   UNL     1     103.089  45.347 135.658  1.00  0.00     0.000 C 
ATOM      7  C   UNL     1     101.416  47.251 134.779  1.00  0.00     0.018 C 
ATOM      8  C   UNL     1     101.719  43.772 137.254  1.00  0.00     0.008 C 
ATOM      9  C   UNL     1     104.294  46.268 135.864  1.00  0.00     0.005 C 
ATOM     10  C   UNL     1     103.123  44.010 136.538  1.00  0.00    -0.024 C 
ATOM     11  C   UNL     1     105.557  45.427 135.762  1.00  0.00     0.005 C 
ATOM     12  C   UNL     1     104.377  43.938 137.592  1.00  0.00    -0.024 C 
ATOM     13  C   UNL     1     103.228  42.838 135.507  1.00  0.00     0.012 C 
ATOM     14  C   UNL     1     105.757  44.552 137.030  1.00  0.00     0.002 C 
ATOM     15  C   UNL     1     104.625  42.480 138.075  1.00  0.00     0.008 C 
ATOM     16  C   UNL     1     103.994  44.736 138.885  1.00  0.00     0.012 C 
ATOM     17  C   UNL     1     107.103  43.642 136.975  1.00  0.00    -0.026 C 
ATOM     18  C   UNL     1     105.904  42.337 138.891  1.00  0.00     0.005 C 
ATOM     19  C   UNL     1     108.319  44.587 137.286  1.00  0.00     0.010 C 
ATOM     20  C   UNL     1     107.322  43.099 135.534  1.00  0.00     0.012 C 
ATOM     21  C   UNL     1     107.126  42.375 137.960  1.00  0.00     0.003 C 
ATOM     22  C   UNL     1     108.573  44.737 138.785  1.00  0.00     0.033 C 
ATOM     23  C   UNL     1     108.497  42.121 138.733  1.00  0.00    -0.006 C 
ATOM     24  C   UNL     1     108.996  43.418 139.462  1.00  0.00     0.120 C 
ATOM     25  C   UNL     1     108.346  41.004 139.806  1.00  0.00     0.014 C 
ATOM     26  C   UNL     1     109.569  41.565 137.743  1.00  0.00     0.014 C 
ENDROOT
BRANCH   1  27
ATOM     27  C   UNL     1     101.859  47.397 137.864  1.00  0.00     0.048 C 
ATOM     28  O   UNL     1     101.797  47.381 139.123  1.00  0.00    -0.550 OA
ATOM     29  O   UNL     1     102.460  48.494 137.260  1.00  0.00    -0.550 OA
ENDBRANCH   1  27
BRANCH   7  30
ATOM     30  C   UNL     1     101.330  46.913 133.293  1.00  0.00    -0.077 C 
ATOM     31  C   UNL     1     100.471  45.764 132.833  1.00  0.00     0.039 C 
ATOM     32  C   UNL     1     101.995  47.627 132.367  1.00  0.00     0.008 C 
ENDBRANCH   7  30
BRANCH  24  33
ATOM     33  O   UNL     1     110.395  43.387 139.619  1.00  0.00    -0.393 OA
ATOM     34  H   UNL     1     110.579  43.131 140.562  1.00  0.00     0.210 HD
ENDBRANCH  24  33
TORSDOF 3
ENDMDL
MODEL 8
REMARK VINA RESULT:    -6.068      3.166      5.541
REMARK INTER + INTRA:          -6.835
REMARK INTER:                  -6.785
REMARK INTRA:                  -0.050
REMARK UNBOUND:                 0.120
REMARK SMILES C=C(C)[C@H]1CC[C@@]2(C(=O)[O-])CC[C@@]3(C)[C@H](CC[C@@H]4[C@@]5(C)CC[C@H](O)C(C)(C)[C@H]5CC[C@@]43C)[C@H]12
REMARK SMILES IDX 7 1 6 2 33 3 11 4 5 5 15 6 4 7 12 8 16 9 13 10 17 11 31 12
REMARK SMILES IDX 14 13 18 14 30 15 32 16 19 17 29 18 21 19 20 20 28 21 22 22
REMARK SMILES IDX 25 23 23 24 26 25 27 26 8 27 9 28 10 29 2 30 3 31 1 32 24 33
REMARK H PARENT 24 34
REMARK Flexibility Score: inf
ROOT
ATOM      1  C   UNL     1     107.533  43.911 137.202  1.00  0.00     0.014 C 
ATOM      2  C   UNL     1     108.940  43.793 137.823  1.00  0.00     0.014 C 
ATOM      3  C   UNL     1     106.913  44.944 138.148  1.00  0.00     0.012 C 
ATOM      4  C   UNL     1     106.688  42.594 137.265  1.00  0.00     0.014 C 
ATOM      5  C   UNL     1     109.315  45.223 138.269  1.00  0.00     0.009 C 
ATOM      6  C   UNL     1     105.449  45.345 137.843  1.00  0.00     0.000 C 
ATOM      7  C   UNL     1     107.987  46.011 138.397  1.00  0.00     0.018 C 
ATOM      8  C   UNL     1     105.285  42.724 137.938  1.00  0.00     0.008 C 
ATOM      9  C   UNL     1     105.247  46.374 136.728  1.00  0.00     0.005 C 
ATOM     10  C   UNL     1     104.469  44.082 137.758  1.00  0.00    -0.024 C 
ATOM     11  C   UNL     1     103.760  46.681 136.629  1.00  0.00     0.005 C 
ATOM     12  C   UNL     1     103.521  44.062 136.420  1.00  0.00    -0.024 C 
ATOM     13  C   UNL     1     103.577  44.162 139.040  1.00  0.00     0.012 C 
ATOM     14  C   UNL     1     102.986  45.511 135.961  1.00  0.00     0.002 C 
ATOM     15  C   UNL     1     102.309  43.104 136.602  1.00  0.00     0.008 C 
ATOM     16  C   UNL     1     104.342  43.459 135.230  1.00  0.00     0.012 C 
ATOM     17  C   UNL     1     101.392  45.796 135.819  1.00  0.00    -0.026 C 
ATOM     18  C   UNL     1     101.295  43.212 135.469  1.00  0.00     0.005 C 
ATOM     19  C   UNL     1     101.198  46.778 134.608  1.00  0.00     0.010 C 
ATOM     20  C   UNL     1     100.868  46.541 137.081  1.00  0.00     0.012 C 
ATOM     21  C   UNL     1     100.468  44.498 135.627  1.00  0.00     0.003 C 
ATOM     22  C   UNL     1     101.108  46.044 133.271  1.00  0.00     0.033 C 
ATOM     23  C   UNL     1      99.312  44.623 134.537  1.00  0.00    -0.006 C 
ATOM     24  C   UNL     1      99.869  45.135 133.162  1.00  0.00     0.120 C 
ATOM     25  C   UNL     1      98.616  43.254 134.286  1.00  0.00     0.014 C 
ATOM     26  C   UNL     1      98.172  45.543 135.077  1.00  0.00     0.014 C 
ENDROOT
BRANCH   1  27
ATOM     27  C   UNL     1     107.744  44.372 135.754  1.00  0.00     0.048 C 
ATOM     28  O   UNL     1     107.833  43.521 134.827  1.00  0.00    -0.550 OA
ATOM     29  O   UNL     1     108.027  45.696 135.447  1.00  0.00    -0.550 OA
ENDBRANCH   1  27
BRANCH   7  30
ATOM     30  C   UNL     1     107.825  46.727 139.735  1.00  0.00    -0.077 C 
ATOM     31  C   UNL     1     107.352  45.962 140.944  1.00  0.00     0.039 C 
ATOM     32  C   UNL     1     108.108  48.035 139.875  1.00  0.00     0.008 C 
ENDBRANCH   7  30
BRANCH  24  33
ATOM     33  O   UNL     1      98.858  45.788 132.433  1.00  0.00    -0.393 OA
ATOM     34  H   UNL     1      98.103  45.148 132.339  1.00  0.00     0.210 HD
ENDBRANCH  24  33
TORSDOF 3
ENDMDL
MODEL 9
REMARK VINA RESULT:    -6.016      6.422      9.049
REMARK INTER + INTRA:          -6.775
REMARK INTER:                  -6.741
REMARK INTRA:                  -0.035
REMARK UNBOUND:                 0.120
REMARK SMILES C=C(C)[C@H]1CC[C@@]2(C(=O)[O-])CC[C@@]3(C)[C@H](CC[C@@H]4[C@@]5(C)CC[C@H](O)C(C)(C)[C@H]5CC[C@@]43C)[C@H]12
REMARK SMILES IDX 7 1 6 2 33 3 11 4 5 5 15 6 4 7 12 8 16 9 13 10 17 11 31 12
REMARK SMILES IDX 14 13 18 14 30 15 32 16 19 17 29 18 21 19 20 20 28 21 22 22
REMARK SMILES IDX 25 23 23 24 26 25 27 26 8 27 9 28 10 29 2 30 3 31 1 32 24 33
REMARK H PARENT 24 34
REMARK Flexibility Score: inf
ROOT
ATOM      1  C   UNL     1      99.908  48.910 132.167  1.00  0.00     0.014 C 
ATOM      2  C   UNL     1      99.159  48.387 130.924  1.00  0.00     0.014 C 
ATOM      3  C   UNL     1      99.777  47.692 133.087  1.00  0.00     0.012 C 
ATOM      4  C   UNL     1      99.230  50.142 132.857  1.00  0.00     0.014 C 
ATOM      5  C   UNL     1      99.538  46.893 130.814  1.00  0.00     0.009 C 
ATOM      6  C   UNL     1     100.429  47.829 134.484  1.00  0.00     0.000 C 
ATOM      7  C   UNL     1     100.032  46.455 132.215  1.00  0.00     0.018 C 
ATOM      8  C   UNL     1      98.918  49.976 134.378  1.00  0.00     0.008 C 
ATOM      9  C   UNL     1     101.942  47.606 134.551  1.00  0.00     0.005 C 
ATOM     10  C   UNL     1      99.919  49.122 135.279  1.00  0.00    -0.024 C 
ATOM     11  C   UNL     1     102.375  47.717 136.004  1.00  0.00     0.005 C 
ATOM     12  C   UNL     1     101.125  50.038 135.906  1.00  0.00    -0.024 C 
ATOM     13  C   UNL     1      99.016  48.571 136.432  1.00  0.00     0.012 C 
ATOM     14  C   UNL     1     102.372  49.195 136.482  1.00  0.00     0.002 C 
ATOM     15  C   UNL     1     100.593  50.988 137.017  1.00  0.00     0.008 C 
ATOM     16  C   UNL     1     101.671  50.987 134.785  1.00  0.00     0.012 C 
ATOM     17  C   UNL     1     102.841  49.369 138.029  1.00  0.00    -0.026 C 
ATOM     18  C   UNL     1     101.709  51.706 137.766  1.00  0.00     0.005 C 
ATOM     19  C   UNL     1     104.406  49.234 138.061  1.00  0.00     0.010 C 
ATOM     20  C   UNL     1     102.278  48.204 138.893  1.00  0.00     0.012 C 
ATOM     21  C   UNL     1     102.393  50.736 138.742  1.00  0.00     0.003 C 
ATOM     22  C   UNL     1     105.111  50.559 137.778  1.00  0.00     0.033 C 
ATOM     23  C   UNL     1     103.501  51.446 139.641  1.00  0.00    -0.006 C 
ATOM     24  C   UNL     1     104.849  51.628 138.857  1.00  0.00     0.120 C 
ATOM     25  C   UNL     1     103.034  52.854 140.111  1.00  0.00     0.014 C 
ATOM     26  C   UNL     1     103.705  50.644 140.964  1.00  0.00     0.014 C 
ENDROOT
BRANCH   1  27
ATOM     27  C   UNL     1     101.329  49.245 131.698  1.00  0.00     0.048 C 
ATOM     28  O   UNL     1     101.630  50.429 131.387  1.00  0.00    -0.550 OA
ATOM     29  O   UNL     1     102.257  48.248 131.425  1.00  0.00    -0.550 OA
ENDBRANCH   1  27
BRANCH   7  30
ATOM     30  C   UNL     1      99.346  45.197 132.741  1.00  0.00    -0.077 C 
ATOM     31  C   UNL     1     100.112  44.232 133.609  1.00  0.00     0.039 C 
ATOM     32  C   UNL     1      98.057  44.926 132.464  1.00  0.00     0.008 C 
ENDBRANCH   7  30
BRANCH  24  33
ATOM     33  O   UNL     1     105.935  51.683 139.751  1.00  0.00    -0.393 OA
ATOM     34  H   UNL     1     105.580  51.486 140.658  1.00  0.00     0.210 HD
ENDBRANCH  24  33
TORSDOF 3
ENDMDL
