MODEL 1
REMARK VINA RESULT:    -3.211      0.000      0.000
REMARK INTER + INTRA:          -6.595
REMARK INTER:                  -5.088
REMARK INTRA:                  -1.507
REMARK UNBOUND:                -1.507
REMARK SMILES CCCCCCCCCCCC(=O)[O-]
REMARK SMILES IDX 7 1 8 2 9 3 10 4 11 5 12 6 13 7 14 8 6 9 5 10 4 11 3 12 2 13
REMARK SMILES IDX 1 14
REMARK H PARENT
REMARK Flexibility Score: inf
ROOT
ATOM      1  C   UNL     1      60.670  30.943  60.138  1.00  0.00     0.000 C 
ENDROOT
BRANCH   1   2
ATOM      2  C   UNL     1      61.124  32.251  59.470  1.00  0.00     0.000 C 
BRANCH   2   3
ATOM      3  C   UNL     1      61.746  33.241  60.467  1.00  0.00     0.000 C 
BRANCH   3   4
ATOM      4  C   UNL     1      63.078  33.788  59.936  1.00  0.00     0.006 C 
BRANCH   4   5
ATOM      5  C   UNL     1      64.120  33.879  61.056  1.00  0.00     0.053 C 
BRANCH   5   6
ATOM      6  C   UNL     1      64.413  35.309  61.382  1.00  0.00     0.041 C 
ATOM      7  O   UNL     1      65.604  35.706  61.477  1.00  0.00    -0.550 OA
ATOM      8  O   UNL     1      63.372  36.216  61.534  1.00  0.00    -0.550 OA
ENDBRANCH   5   6
ENDBRANCH   4   5
ENDBRANCH   3   4
ENDBRANCH   2   3
ENDBRANCH   1   2
BRANCH   1   9
ATOM      9  C   UNL     1      61.136  30.833  61.600  1.00  0.00     0.000 C 
BRANCH   9  10
ATOM     10  C   UNL     1      62.168  29.713  61.810  1.00  0.00    -0.000 C 
BRANCH  10  11
ATOM     11  C   UNL     1      63.601  30.157  61.480  1.00  0.00    -0.000 C 
BRANCH  11  12
ATOM     12  C   UNL     1      64.299  29.129  60.576  1.00  0.00    -0.000 C 
BRANCH  12  13
ATOM     13  C   UNL     1      63.915  29.286  59.097  1.00  0.00    -0.003 C 
ATOM     14  C   UNL     1      64.364  30.623  58.508  1.00  0.00     0.004 C 
ENDBRANCH  12  13
ENDBRANCH  11  12
ENDBRANCH  10  11
ENDBRANCH   9  10
ENDBRANCH   1   9
TORSDOF 10
ENDMDL
MODEL 2
REMARK VINA RESULT:    -3.115      2.552      5.080
REMARK INTER + INTRA:          -6.443
REMARK INTER:                  -5.600
REMARK INTRA:                  -0.843
REMARK UNBOUND:                -1.507
REMARK SMILES CCCCCCCCCCCC(=O)[O-]
REMARK SMILES IDX 7 1 8 2 9 3 10 4 11 5 12 6 13 7 14 8 6 9 5 10 4 11 3 12 2 13
REMARK SMILES IDX 1 14
REMARK H PARENT
REMARK Flexibility Score: inf
ROOT
ATOM      1  C   UNL     1      60.841  31.269  60.024  1.00  0.00     0.000 C 
ENDROOT
BRANCH   1   2
ATOM      2  C   UNL     1      60.925  30.935  61.522  1.00  0.00     0.000 C 
BRANCH   2   3
ATOM      3  C   UNL     1      62.112  30.020  61.861  1.00  0.00     0.000 C 
BRANCH   3   4
ATOM      4  C   UNL     1      62.685  29.373  60.593  1.00  0.00     0.006 C 
BRANCH   4   5
ATOM      5  C   UNL     1      63.840  28.425  60.933  1.00  0.00     0.053 C 
BRANCH   5   6
ATOM      6  C   UNL     1      65.148  29.146  60.858  1.00  0.00     0.041 C 
ATOM      7  O   UNL     1      66.209  28.572  61.218  1.00  0.00    -0.550 OA
ATOM      8  O   UNL     1      65.203  30.435  60.344  1.00  0.00    -0.550 OA
ENDBRANCH   5   6
ENDBRANCH   4   5
ENDBRANCH   3   4
ENDBRANCH   2   3
ENDBRANCH   1   2
BRANCH   1   9
ATOM      9  C   UNL     1      61.250  32.721  59.719  1.00  0.00     0.000 C 
BRANCH   9  10
ATOM     10  C   UNL     1      62.773  32.895  59.606  1.00  0.00    -0.000 C 
BRANCH  10  11
ATOM     11  C   UNL     1      63.360  33.747  60.742  1.00  0.00    -0.000 C 
BRANCH  11  12
ATOM     12  C   UNL     1      62.678  35.123  60.803  1.00  0.00    -0.000 C 
BRANCH  12  13
ATOM     13  C   UNL     1      63.562  36.191  61.465  1.00  0.00    -0.003 C 
ATOM     14  C   UNL     1      64.994  35.711  61.701  1.00  0.00     0.004 C 
ENDBRANCH  12  13
ENDBRANCH  11  12
ENDBRANCH  10  11
ENDBRANCH   9  10
ENDBRANCH   1   9
TORSDOF 10
ENDMDL
MODEL 3
REMARK VINA RESULT:    -3.083     11.838     13.427
REMARK INTER + INTRA:          -6.393
REMARK INTER:                  -5.044
REMARK INTRA:                  -1.349
REMARK UNBOUND:                -1.507
REMARK SMILES CCCCCCCCCCCC(=O)[O-]
REMARK SMILES IDX 7 1 8 2 9 3 10 4 11 5 12 6 13 7 14 8 6 9 5 10 4 11 3 12 2 13
REMARK SMILES IDX 1 14
REMARK H PARENT
REMARK Flexibility Score: inf
ROOT
ATOM      1  C   UNL     1      57.406  28.838  50.171  1.00  0.00     0.000 C 
ENDROOT
BRANCH   1   2
ATOM      2  C   UNL     1      58.916  29.121  50.111  1.00  0.00     0.000 C 
BRANCH   2   3
ATOM      3  C   UNL     1      59.629  28.312  49.017  1.00  0.00     0.000 C 
BRANCH   3   4
ATOM      4  C   UNL     1      60.626  27.321  49.630  1.00  0.00     0.006 C 
BRANCH   4   5
ATOM      5  C   UNL     1      60.052  25.900  49.644  1.00  0.00     0.053 C 
BRANCH   5   6
ATOM      6  C   UNL     1      59.754  25.470  51.045  1.00  0.00     0.041 C 
ATOM      7  O   UNL     1      59.998  26.241  52.010  1.00  0.00    -0.550 OA
ATOM      8  O   UNL     1      59.162  24.236  51.283  1.00  0.00    -0.550 OA
ENDBRANCH   5   6
ENDBRANCH   4   5
ENDBRANCH   3   4
ENDBRANCH   2   3
ENDBRANCH   1   2
BRANCH   1   9
ATOM      9  C   UNL     1      56.961  28.293  51.540  1.00  0.00     0.000 C 
BRANCH   9  10
ATOM     10  C   UNL     1      56.371  26.876  51.449  1.00  0.00    -0.000 C 
BRANCH  10  11
ATOM     11  C   UNL     1      56.362  26.328  50.014  1.00  0.00    -0.000 C 
BRANCH  11  12
ATOM     12  C   UNL     1      54.923  26.118  49.517  1.00  0.00    -0.000 C 
BRANCH  12  13
ATOM     13  C   UNL     1      53.884  26.829  50.399  1.00  0.00    -0.003 C 
ATOM     14  C   UNL     1      53.283  28.062  49.726  1.00  0.00     0.004 C 
ENDBRANCH  12  13
ENDBRANCH  11  12
ENDBRANCH  10  11
ENDBRANCH   9  10
ENDBRANCH   1   9
TORSDOF 10
ENDMDL
MODEL 4
REMARK VINA RESULT:    -3.083     11.631     13.128
REMARK INTER + INTRA:          -6.393
REMARK INTER:                  -5.224
REMARK INTRA:                  -1.168
REMARK UNBOUND:                -1.507
REMARK SMILES CCCCCCCCCCCC(=O)[O-]
REMARK SMILES IDX 7 1 8 2 9 3 10 4 11 5 12 6 13 7 14 8 6 9 5 10 4 11 3 12 2 13
REMARK SMILES IDX 1 14
REMARK H PARENT
REMARK Flexibility Score: inf
ROOT
ATOM      1  C   UNL     1      57.462  28.321  51.484  1.00  0.00     0.000 C 
ENDROOT
BRANCH   1   2
ATOM      2  C   UNL     1      57.656  28.883  50.067  1.00  0.00     0.000 C 
BRANCH   2   3
ATOM      3  C   UNL     1      59.129  29.175  49.740  1.00  0.00     0.000 C 
BRANCH   3   4
ATOM      4  C   UNL     1      59.766  28.003  48.983  1.00  0.00     0.006 C 
BRANCH   4   5
ATOM      5  C   UNL     1      60.805  27.287  49.851  1.00  0.00     0.053 C 
BRANCH   5   6
ATOM      6  C   UNL     1      62.154  27.908  49.671  1.00  0.00     0.041 C 
ATOM      7  O   UNL     1      62.947  27.458  48.802  1.00  0.00    -0.550 OA
ATOM      8  O   UNL     1      62.518  29.013  50.429  1.00  0.00    -0.550 OA
ENDBRANCH   5   6
ENDBRANCH   4   5
ENDBRANCH   3   4
ENDBRANCH   2   3
ENDBRANCH   1   2
BRANCH   1   9
ATOM      9  C   UNL     1      56.828  26.919  51.482  1.00  0.00     0.000 C 
BRANCH   9  10
ATOM     10  C   UNL     1      56.674  26.342  50.065  1.00  0.00    -0.000 C 
BRANCH  10  11
ATOM     11  C   UNL     1      55.223  25.969  49.730  1.00  0.00    -0.000 C 
BRANCH  11  12
ATOM     12  C   UNL     1      54.236  26.839  50.524  1.00  0.00    -0.000 C 
BRANCH  12  13
ATOM     13  C   UNL     1      53.731  28.045  49.717  1.00  0.00    -0.003 C 
ATOM     14  C   UNL     1      53.944  29.373  50.443  1.00  0.00     0.004 C 
ENDBRANCH  12  13
ENDBRANCH  11  12
ENDBRANCH  10  11
ENDBRANCH   9  10
ENDBRANCH   1   9
TORSDOF 10
ENDMDL
MODEL 5
REMARK VINA RESULT:    -3.066     12.653     14.206
REMARK INTER + INTRA:          -6.365
REMARK INTER:                  -5.319
REMARK INTRA:                  -1.046
REMARK UNBOUND:                -1.507
REMARK SMILES CCCCCCCCCCCC(=O)[O-]
REMARK SMILES IDX 7 1 8 2 9 3 10 4 11 5 12 6 13 7 14 8 6 9 5 10 4 11 3 12 2 13
REMARK SMILES IDX 1 14
REMARK H PARENT
REMARK Flexibility Score: inf
ROOT
ATOM      1  C   UNL     1      58.111  29.025  51.244  1.00  0.00     0.000 C 
ENDROOT
BRANCH   1   2
ATOM      2  C   UNL     1      56.687  28.510  51.511  1.00  0.00     0.000 C 
BRANCH   2   3
ATOM      3  C   UNL     1      55.754  28.691  50.304  1.00  0.00     0.000 C 
BRANCH   3   4
ATOM      4  C   UNL     1      54.617  27.662  50.332  1.00  0.00     0.006 C 
BRANCH   4   5
ATOM      5  C   UNL     1      55.055  26.340  49.692  1.00  0.00     0.053 C 
BRANCH   5   6
ATOM      6  C   UNL     1      53.862  25.507  49.344  1.00  0.00     0.041 C 
ATOM      7  O   UNL     1      53.682  24.395  49.905  1.00  0.00    -0.550 OA
ATOM      8  O   UNL     1      52.924  25.980  48.435  1.00  0.00    -0.550 OA
ENDBRANCH   5   6
ENDBRANCH   4   5
ENDBRANCH   3   4
ENDBRANCH   2   3
ENDBRANCH   1   2
BRANCH   1   9
ATOM      9  C   UNL     1      58.414  29.171  49.742  1.00  0.00     0.000 C 
BRANCH   9  10
ATOM     10  C   UNL     1      59.551  28.247  49.276  1.00  0.00    -0.000 C 
BRANCH  10  11
ATOM     11  C   UNL     1      59.154  26.763  49.289  1.00  0.00    -0.000 C 
BRANCH  11  12
ATOM     12  C   UNL     1      60.331  25.885  49.739  1.00  0.00    -0.000 C 
BRANCH  12  13
ATOM     13  C   UNL     1      59.883  24.687  50.591  1.00  0.00    -0.003 C 
ATOM     14  C   UNL     1      58.563  24.939  51.318  1.00  0.00     0.004 C 
ENDBRANCH  12  13
ENDBRANCH  11  12
ENDBRANCH  10  11
ENDBRANCH   9  10
ENDBRANCH   1   9
TORSDOF 10
ENDMDL
MODEL 6
REMARK VINA RESULT:    -3.044      0.952      2.855
REMARK INTER + INTRA:          -6.330
REMARK INTER:                  -4.861
REMARK INTRA:                  -1.469
REMARK UNBOUND:                -1.507
REMARK SMILES CCCCCCCCCCCC(=O)[O-]
REMARK SMILES IDX 7 1 8 2 9 3 10 4 11 5 12 6 13 7 14 8 6 9 5 10 4 11 3 12 2 13
REMARK SMILES IDX 1 14
REMARK H PARENT
REMARK Flexibility Score: inf
ROOT
ATOM      1  C   UNL     1      65.243  30.418  60.356  1.00  0.00     0.000 C 
ENDROOT
BRANCH   1   2
ATOM      2  C   UNL     1      64.465  30.835  59.097  1.00  0.00     0.000 C 
BRANCH   2   3
ATOM      3  C   UNL     1      64.037  32.310  59.124  1.00  0.00     0.000 C 
BRANCH   3   4
ATOM      4  C   UNL     1      64.013  32.847  60.561  1.00  0.00     0.006 C 
BRANCH   4   5
ATOM      5  C   UNL     1      63.061  34.041  60.686  1.00  0.00     0.053 C 
BRANCH   5   6
ATOM      6  C   UNL     1      63.786  35.234  61.224  1.00  0.00     0.041 C 
ATOM      7  O   UNL     1      65.036  35.203  61.367  1.00  0.00    -0.550 OA
ATOM      8  O   UNL     1      63.087  36.397  61.521  1.00  0.00    -0.550 OA
ENDBRANCH   5   6
ENDBRANCH   4   5
ENDBRANCH   3   4
ENDBRANCH   2   3
ENDBRANCH   1   2
BRANCH   1   9
ATOM      9  C   UNL     1      64.640  29.178  61.039  1.00  0.00     0.000 C 
BRANCH   9  10
ATOM     10  C   UNL     1      63.421  28.622  60.285  1.00  0.00    -0.000 C 
BRANCH  10  11
ATOM     11  C   UNL     1      62.131  28.681  61.116  1.00  0.00    -0.000 C 
BRANCH  11  12
ATOM     12  C   UNL     1      62.040  30.004  61.893  1.00  0.00    -0.000 C 
BRANCH  12  13
ATOM     13  C   UNL     1      60.771  30.801  61.557  1.00  0.00    -0.003 C 
ATOM     14  C   UNL     1      60.678  31.168  60.076  1.00  0.00     0.004 C 
ENDBRANCH  12  13
ENDBRANCH  11  12
ENDBRANCH  10  11
ENDBRANCH   9  10
ENDBRANCH   1   9
TORSDOF 10
ENDMDL
MODEL 7
REMARK VINA RESULT:    -3.043      3.671      5.778
REMARK INTER + INTRA:          -6.329
REMARK INTER:                  -5.429
REMARK INTRA:                  -0.900
REMARK UNBOUND:                -1.507
REMARK SMILES CCCCCCCCCCCC(=O)[O-]
REMARK SMILES IDX 7 1 8 2 9 3 10 4 11 5 12 6 13 7 14 8 6 9 5 10 4 11 3 12 2 13
REMARK SMILES IDX 1 14
REMARK H PARENT
REMARK Flexibility Score: inf
ROOT
ATOM      1  C   UNL     1      60.891  31.005  61.405  1.00  0.00     0.000 C 
ENDROOT
BRANCH   1   2
ATOM      2  C   UNL     1      61.894  29.902  61.779  1.00  0.00     0.000 C 
BRANCH   2   3
ATOM      3  C   UNL     1      63.356  30.348  61.615  1.00  0.00     0.000 C 
BRANCH   3   4
ATOM      4  C   UNL     1      64.103  29.427  60.642  1.00  0.00     0.006 C 
BRANCH   4   5
ATOM      5  C   UNL     1      63.326  28.127  60.408  1.00  0.00     0.053 C 
BRANCH   5   6
ATOM      6  C   UNL     1      64.207  26.941  60.644  1.00  0.00     0.041 C 
ATOM      7  O   UNL     1      65.445  27.020  60.431  1.00  0.00    -0.550 OA
ATOM      8  O   UNL     1      63.668  25.764  61.147  1.00  0.00    -0.550 OA
ENDBRANCH   5   6
ENDBRANCH   4   5
ENDBRANCH   3   4
ENDBRANCH   2   3
ENDBRANCH   1   2
BRANCH   1   9
ATOM      9  C   UNL     1      60.764  31.198  59.884  1.00  0.00     0.000 C 
BRANCH   9  10
ATOM     10  C   UNL     1      61.309  32.557  59.413  1.00  0.00    -0.000 C 
BRANCH  10  11
ATOM     11  C   UNL     1      61.661  33.492  60.579  1.00  0.00    -0.000 C 
BRANCH  11  12
ATOM     12  C   UNL     1      63.155  33.851  60.561  1.00  0.00    -0.000 C 
BRANCH  12  13
ATOM     13  C   UNL     1      63.426  35.279  61.060  1.00  0.00    -0.003 C 
ATOM     14  C   UNL     1      64.793  35.423  61.728  1.00  0.00     0.004 C 
ENDBRANCH  12  13
ENDBRANCH  11  12
ENDBRANCH  10  11
ENDBRANCH   9  10
ENDBRANCH   1   9
TORSDOF 10
ENDMDL
MODEL 8
REMARK VINA RESULT:    -2.952      4.262      6.532
REMARK INTER + INTRA:          -6.185
REMARK INTER:                  -5.441
REMARK INTRA:                  -0.743
REMARK UNBOUND:                -1.507
REMARK SMILES CCCCCCCCCCCC(=O)[O-]
REMARK SMILES IDX 7 1 8 2 9 3 10 4 11 5 12 6 13 7 14 8 6 9 5 10 4 11 3 12 2 13
REMARK SMILES IDX 1 14
REMARK H PARENT
REMARK Flexibility Score: inf
ROOT
ATOM      1  C   UNL     1      61.897  32.215  60.492  1.00  0.00     0.000 C 
ENDROOT
BRANCH   1   2
ATOM      2  C   UNL     1      61.101  31.251  61.386  1.00  0.00     0.000 C 
BRANCH   2   3
ATOM      3  C   UNL     1      61.897  29.991  61.758  1.00  0.00     0.000 C 
BRANCH   3   4
ATOM      4  C   UNL     1      61.444  28.789  60.919  1.00  0.00     0.006 C 
BRANCH   4   5
ATOM      5  C   UNL     1      59.966  28.913  60.535  1.00  0.00     0.053 C 
BRANCH   5   6
ATOM      6  C   UNL     1      59.200  27.719  61.011  1.00  0.00     0.041 C 
ATOM      7  O   UNL     1      59.811  26.683  61.384  1.00  0.00    -0.550 OA
ATOM      8  O   UNL     1      57.814  27.767  61.088  1.00  0.00    -0.550 OA
ENDBRANCH   5   6
ENDBRANCH   4   5
ENDBRANCH   3   4
ENDBRANCH   2   3
ENDBRANCH   1   2
BRANCH   1   9
ATOM      9  C   UNL     1      63.411  32.156  60.761  1.00  0.00     0.000 C 
BRANCH   9  10
ATOM     10  C   UNL     1      64.040  33.551  60.908  1.00  0.00    -0.000 C 
BRANCH  10  11
ATOM     11  C   UNL     1      63.179  34.660  60.285  1.00  0.00    -0.000 C 
BRANCH  11  12
ATOM     12  C   UNL     1      63.170  35.912  61.175  1.00  0.00    -0.000 C 
BRANCH  12  13
ATOM     13  C   UNL     1      61.862  36.711  61.059  1.00  0.00    -0.003 C 
ATOM     14  C   UNL     1      60.748  35.923  60.371  1.00  0.00     0.004 C 
ENDBRANCH  12  13
ENDBRANCH  11  12
ENDBRANCH  10  11
ENDBRANCH   9  10
ENDBRANCH   1   9
TORSDOF 10
ENDMDL
MODEL 9
REMARK VINA RESULT:    -2.887      3.213      5.669
REMARK INTER + INTRA:          -6.082
REMARK INTER:                  -5.398
REMARK INTRA:                  -0.684
REMARK UNBOUND:                -1.507
REMARK SMILES CCCCCCCCCCCC(=O)[O-]
REMARK SMILES IDX 7 1 8 2 9 3 10 4 11 5 12 6 13 7 14 8 6 9 5 10 4 11 3 12 2 13
REMARK SMILES IDX 1 14
REMARK H PARENT
REMARK Flexibility Score: inf
ROOT
ATOM      1  C   UNL     1      62.312  32.393  59.651  1.00  0.00     0.000 C 
ENDROOT
BRANCH   1   2
ATOM      2  C   UNL     1      61.106  31.543  60.081  1.00  0.00     0.000 C 
BRANCH   2   3
ATOM      3  C   UNL     1      61.238  31.007  61.515  1.00  0.00     0.000 C 
BRANCH   3   4
ATOM      4  C   UNL     1      61.909  29.627  61.524  1.00  0.00     0.006 C 
BRANCH   4   5
ATOM      5  C   UNL     1      63.431  29.755  61.408  1.00  0.00     0.053 C 
BRANCH   5   6
ATOM      6  C   UNL     1      63.978  28.696  60.504  1.00  0.00     0.041 C 
ATOM      7  O   UNL     1      64.688  27.769  60.973  1.00  0.00    -0.550 OA
ATOM      8  O   UNL     1      63.662  28.705  59.152  1.00  0.00    -0.550 OA
ENDBRANCH   5   6
ENDBRANCH   4   5
ENDBRANCH   3   4
ENDBRANCH   2   3
ENDBRANCH   1   2
BRANCH   1   9
ATOM      9  C   UNL     1      62.602  33.543  60.630  1.00  0.00     0.000 C 
BRANCH   9  10
ATOM     10  C   UNL     1      64.090  33.635  61.009  1.00  0.00    -0.000 C 
BRANCH  10  11
ATOM     11  C   UNL     1      64.503  35.045  61.458  1.00  0.00    -0.000 C 
BRANCH  11  12
ATOM     12  C   UNL     1      63.835  36.116  60.583  1.00  0.00    -0.000 C 
BRANCH  12  13
ATOM     13  C   UNL     1      63.004  37.115  61.402  1.00  0.00    -0.003 C 
ATOM     14  C   UNL     1      61.528  37.125  61.004  1.00  0.00     0.004 C 
ENDBRANCH  12  13
ENDBRANCH  11  12
ENDBRANCH  10  11
ENDBRANCH   9  10
ENDBRANCH   1   9
TORSDOF 10
ENDMDL
