MODEL 1
REMARK VINA RESULT:    -6.432      0.000      0.000
REMARK INTER + INTRA:         -10.866
REMARK INTER:                  -8.876
REMARK INTRA:                  -1.990
REMARK UNBOUND:                -1.990
REMARK SMILES C=C(CC[C@H](C(=O)[O-])[C@@H]1CC[C@@]2(C)C3=C(CC[C@@]12C)[C@]1(C)CC[C@H](O)C(C)(C)[C@@H]1CC3)C(C)C
REMARK SMILES IDX 4 1 5 2 6 3 7 4 8 5 9 6 10 7 18 8 11 9 12 10 17 11 19 12
REMARK SMILES IDX 13 13 14 14 16 15 15 16 31 17 20 18 30 19 29 20 22 21 21 22
REMARK SMILES IDX 26 23 23 24 24 25 27 26 28 27 25 28 3 30 2 31 1 32 32 33
REMARK SMILES IDX 33 34 34 35
REMARK H PARENT 25 29
REMARK Flexibility Score: inf
ROOT
ATOM      1  C   UNL     1     129.828 145.651 107.797  1.00  0.00     0.014 C 
ENDROOT
BRANCH   1   2
ATOM      2  C   UNL     1     128.415 145.037 107.582  1.00  0.00     0.039 C 
BRANCH   2   3
ATOM      3  C   UNL     1     127.365 145.770 108.390  1.00  0.00     0.045 C 
ATOM      4  O   UNL     1     126.880 146.859 107.985  1.00  0.00    -0.550 OA
ATOM      5  O   UNL     1     126.875 145.217 109.565  1.00  0.00    -0.550 OA
ENDBRANCH   2   3
BRANCH   2   6
ATOM      6  C   UNL     1     128.313 143.461 107.644  1.00  0.00     0.004 C 
ATOM      7  C   UNL     1     129.310 142.893 108.663  1.00  0.00     0.006 C 
ATOM      8  C   UNL     1     128.460 142.568 106.345  1.00  0.00    -0.020 C 
ATOM      9  C   UNL     1     130.403 142.169 107.901  1.00  0.00     0.012 C 
ATOM     10  C   UNL     1     129.912 141.894 106.455  1.00  0.00    -0.006 C 
ATOM     11  C   UNL     1     127.319 141.493 106.332  1.00  0.00     0.012 C 
ATOM     12  C   UNL     1     128.230 143.357 105.021  1.00  0.00     0.012 C 
ATOM     13  C   UNL     1     130.926 142.559 105.469  1.00  0.00     0.017 C 
ATOM     14  C   UNL     1     129.927 140.349 106.235  1.00  0.00    -0.064 C 
ATOM     15  C   UNL     1     127.654 140.264 107.148  1.00  0.00     0.032 C 
ATOM     16  C   UNL     1     128.837 139.575 106.508  1.00  0.00    -0.064 C 
ATOM     17  C   UNL     1     131.240 139.690 105.875  1.00  0.00     0.032 C 
ATOM     18  C   UNL     1     128.750 138.056 106.168  1.00  0.00    -0.008 C 
ATOM     19  C   UNL     1     131.294 138.212 106.228  1.00  0.00     0.009 C 
ATOM     20  C   UNL     1     130.106 137.471 105.576  1.00  0.00     0.007 C 
ATOM     21  C   UNL     1     128.369 137.310 107.480  1.00  0.00     0.014 C 
ATOM     22  C   UNL     1     127.617 137.924 105.113  1.00  0.00     0.016 C 
ATOM     23  C   UNL     1     130.271 135.876 105.617  1.00  0.00    -0.006 C 
ATOM     24  C   UNL     1     128.389 135.791 107.358  1.00  0.00     0.033 C 
ATOM     25  C   UNL     1     129.776 135.275 106.969  1.00  0.00     0.120 C 
ATOM     26  C   UNL     1     129.501 135.205 104.437  1.00  0.00     0.014 C 
ATOM     27  C   UNL     1     131.752 135.440 105.402  1.00  0.00     0.014 C 
BRANCH  25  28
ATOM     28  O   UNL     1     130.671 135.576 108.015  1.00  0.00    -0.393 OA
ATOM     29  H   UNL     1     130.291 135.206 108.854  1.00  0.00     0.210 HD
ENDBRANCH  25  28
ENDBRANCH   2   6
ENDBRANCH   1   2
BRANCH   1  30
ATOM     30  C   UNL     1     130.572 146.009 106.500  1.00  0.00     0.031 C 
BRANCH  30  31
ATOM     31  C   UNL     1     132.070 145.880 106.676  1.00  0.00    -0.075 C 
ATOM     32  C   UNL     1     132.894 146.301 105.696  1.00  0.00     0.008 C 
BRANCH  31  33
ATOM     33  C   UNL     1     132.620 145.298 107.968  1.00  0.00     0.008 C 
ATOM     34  C   UNL     1     133.485 144.061 107.701  1.00  0.00     0.012 C 
ATOM     35  C   UNL     1     133.394 146.350 108.770  1.00  0.00     0.012 C 
ENDBRANCH  31  33
ENDBRANCH  30  31
ENDBRANCH   1  30
TORSDOF 7
ENDMDL
MODEL 2
REMARK VINA RESULT:    -5.980      4.309      8.821
REMARK INTER + INTRA:         -10.243
REMARK INTER:                  -8.691
REMARK INTRA:                  -1.552
REMARK UNBOUND:                -1.990
REMARK SMILES C=C(CC[C@H](C(=O)[O-])[C@@H]1CC[C@@]2(C)C3=C(CC[C@@]12C)[C@]1(C)CC[C@H](O)C(C)(C)[C@@H]1CC3)C(C)C
REMARK SMILES IDX 4 1 5 2 6 3 7 4 8 5 9 6 10 7 18 8 11 9 12 10 17 11 19 12
REMARK SMILES IDX 13 13 14 14 16 15 15 16 31 17 20 18 30 19 29 20 22 21 21 22
REMARK SMILES IDX 26 23 23 24 24 25 27 26 28 27 25 28 3 30 2 31 1 32 32 33
REMARK SMILES IDX 33 34 34 35
REMARK H PARENT 25 29
REMARK Flexibility Score: inf
ROOT
ATOM      1  C   UNL     1     130.137 145.786 107.562  1.00  0.00     0.014 C 
ENDROOT
BRANCH   1   2
ATOM      2  C   UNL     1     130.737 144.598 108.367  1.00  0.00     0.039 C 
BRANCH   2   3
ATOM      3  C   UNL     1     129.957 144.343 109.639  1.00  0.00     0.045 C 
ATOM      4  O   UNL     1     128.974 145.064 109.952  1.00  0.00    -0.550 OA
ATOM      5  O   UNL     1     130.278 143.264 110.451  1.00  0.00    -0.550 OA
ENDBRANCH   2   3
BRANCH   2   6
ATOM      6  C   UNL     1     132.308 144.586 108.542  1.00  0.00     0.004 C 
ATOM      7  C   UNL     1     132.807 145.949 109.040  1.00  0.00     0.006 C 
ATOM      8  C   UNL     1     133.271 144.173 107.356  1.00  0.00    -0.020 C 
ATOM      9  C   UNL     1     133.564 146.616 107.907  1.00  0.00     0.012 C 
ATOM     10  C   UNL     1     133.926 145.545 106.843  1.00  0.00    -0.006 C 
ATOM     11  C   UNL     1     134.355 143.180 107.902  1.00  0.00     0.012 C 
ATOM     12  C   UNL     1     132.562 143.356 106.235  1.00  0.00     0.012 C 
ATOM     13  C   UNL     1     133.310 145.997 105.480  1.00  0.00     0.017 C 
ATOM     14  C   UNL     1     135.481 145.513 106.713  1.00  0.00    -0.064 C 
ATOM     15  C   UNL     1     135.533 143.881 108.541  1.00  0.00     0.032 C 
ATOM     16  C   UNL     1     136.247 144.682 107.477  1.00  0.00    -0.064 C 
ATOM     17  C   UNL     1     136.148 146.553 105.840  1.00  0.00     0.032 C 
ATOM     18  C   UNL     1     137.784 144.503 107.283  1.00  0.00    -0.008 C 
ATOM     19  C   UNL     1     137.602 146.805 106.202  1.00  0.00     0.009 C 
ATOM     20  C   UNL     1     138.390 145.477 106.180  1.00  0.00     0.007 C 
ATOM     21  C   UNL     1     138.456 144.766 108.662  1.00  0.00     0.014 C 
ATOM     22  C   UNL     1     137.985 143.026 106.847  1.00  0.00     0.016 C 
ATOM     23  C   UNL     1     139.979 145.696 106.220  1.00  0.00    -0.006 C 
ATOM     24  C   UNL     1     139.980 144.781 108.616  1.00  0.00     0.033 C 
ATOM     25  C   UNL     1     140.506 145.869 107.678  1.00  0.00     0.120 C 
ATOM     26  C   UNL     1     140.723 144.506 105.536  1.00  0.00     0.014 C 
ATOM     27  C   UNL     1     140.413 146.943 105.391  1.00  0.00     0.014 C 
BRANCH  25  28
ATOM     28  O   UNL     1     140.138 147.123 108.204  1.00  0.00    -0.393 OA
ATOM     29  H   UNL     1     139.249 147.358 107.832  1.00  0.00     0.210 HD
ENDBRANCH  25  28
ENDBRANCH   2   6
ENDBRANCH   1   2
BRANCH   1  30
ATOM     30  C   UNL     1     129.812 145.464 106.094  1.00  0.00     0.031 C 
BRANCH  30  31
ATOM     31  C   UNL     1     128.358 145.081 105.927  1.00  0.00    -0.075 C 
ATOM     32  C   UNL     1     127.424 146.046 105.810  1.00  0.00     0.008 C 
BRANCH  31  33
ATOM     33  C   UNL     1     127.977 143.611 105.873  1.00  0.00     0.008 C 
ATOM     34  C   UNL     1     129.134 142.751 105.353  1.00  0.00     0.012 C 
ATOM     35  C   UNL     1     127.486 143.109 107.236  1.00  0.00     0.012 C 
ENDBRANCH  31  33
ENDBRANCH  30  31
ENDBRANCH   1  30
TORSDOF 7
ENDMDL
MODEL 3
REMARK VINA RESULT:    -5.951      3.763      8.305
REMARK INTER + INTRA:         -10.203
REMARK INTER:                  -8.839
REMARK INTRA:                  -1.364
REMARK UNBOUND:                -1.990
REMARK SMILES C=C(CC[C@H](C(=O)[O-])[C@@H]1CC[C@@]2(C)C3=C(CC[C@@]12C)[C@]1(C)CC[C@H](O)C(C)(C)[C@@H]1CC3)C(C)C
REMARK SMILES IDX 4 1 5 2 6 3 7 4 8 5 9 6 10 7 18 8 11 9 12 10 17 11 19 12
REMARK SMILES IDX 13 13 14 14 16 15 15 16 31 17 20 18 30 19 29 20 22 21 21 22
REMARK SMILES IDX 26 23 23 24 24 25 27 26 28 27 25 28 3 30 2 31 1 32 32 33
REMARK SMILES IDX 33 34 34 35
REMARK H PARENT 25 29
REMARK Flexibility Score: inf
ROOT
ATOM      1  C   UNL     1     128.936 145.652 105.844  1.00  0.00     0.014 C 
ENDROOT
BRANCH   1   2
ATOM      2  C   UNL     1     129.539 145.503 107.269  1.00  0.00     0.039 C 
BRANCH   2   3
ATOM      3  C   UNL     1     128.625 146.095 108.321  1.00  0.00     0.045 C 
ATOM      4  O   UNL     1     129.085 146.528 109.410  1.00  0.00    -0.550 OA
ATOM      5  O   UNL     1     127.266 146.227 108.071  1.00  0.00    -0.550 OA
ENDBRANCH   2   3
BRANCH   2   6
ATOM      6  C   UNL     1     131.065 145.880 107.434  1.00  0.00     0.004 C 
ATOM      7  C   UNL     1     131.647 146.375 106.103  1.00  0.00     0.006 C 
ATOM      8  C   UNL     1     132.116 144.849 108.014  1.00  0.00    -0.020 C 
ATOM      9  C   UNL     1     132.607 145.320 105.586  1.00  0.00     0.012 C 
ATOM     10  C   UNL     1     132.977 144.362 106.751  1.00  0.00    -0.006 C 
ATOM     11  C   UNL     1     133.008 145.575 109.080  1.00  0.00     0.012 C 
ATOM     12  C   UNL     1     131.465 143.684 108.819  1.00  0.00     0.012 C 
ATOM     13  C   UNL     1     132.587 142.911 106.319  1.00  0.00     0.017 C 
ATOM     14  C   UNL     1     134.523 144.435 106.951  1.00  0.00    -0.064 C 
ATOM     15  C   UNL     1     134.168 146.328 108.468  1.00  0.00     0.032 C 
ATOM     16  C   UNL     1     135.092 145.329 107.810  1.00  0.00    -0.064 C 
ATOM     17  C   UNL     1     135.403 143.609 106.040  1.00  0.00     0.032 C 
ATOM     18  C   UNL     1     136.612 145.344 108.159  1.00  0.00    -0.008 C 
ATOM     19  C   UNL     1     136.821 144.144 105.919  1.00  0.00     0.009 C 
ATOM     20  C   UNL     1     137.453 144.285 107.321  1.00  0.00     0.007 C 
ATOM     21  C   UNL     1     137.134 146.785 107.885  1.00  0.00     0.014 C 
ATOM     22  C   UNL     1     136.701 145.006 109.672  1.00  0.00     0.016 C 
ATOM     23  C   UNL     1     139.040 144.519 107.265  1.00  0.00    -0.006 C 
ATOM     24  C   UNL     1     138.644 146.935 108.031  1.00  0.00     0.033 C 
ATOM     25  C   UNL     1     139.399 146.023 107.061  1.00  0.00     0.120 C 
ATOM     26  C   UNL     1     139.726 143.992 108.564  1.00  0.00     0.014 C 
ATOM     27  C   UNL     1     139.708 143.697 106.122  1.00  0.00     0.014 C 
BRANCH  25  28
ATOM     28  O   UNL     1     139.109 146.439 105.746  1.00  0.00    -0.393 OA
ATOM     29  H   UNL     1     139.716 147.191 105.526  1.00  0.00     0.210 HD
ENDBRANCH  25  28
ENDBRANCH   2   6
ENDBRANCH   1   2
BRANCH   1  30
ATOM     30  C   UNL     1     127.795 144.671 105.527  1.00  0.00     0.031 C 
BRANCH  30  31
ATOM     31  C   UNL     1     128.167 143.257 105.916  1.00  0.00    -0.075 C 
ATOM     32  C   UNL     1     129.276 142.693 105.397  1.00  0.00     0.008 C 
BRANCH  31  33
ATOM     33  C   UNL     1     127.292 142.503 106.905  1.00  0.00     0.008 C 
ATOM     34  C   UNL     1     126.960 141.096 106.398  1.00  0.00     0.012 C 
ATOM     35  C   UNL     1     127.937 142.451 108.295  1.00  0.00     0.012 C 
ENDBRANCH  31  33
ENDBRANCH  30  31
ENDBRANCH   1  30
TORSDOF 7
ENDMDL
MODEL 4
REMARK VINA RESULT:    -5.870      2.381      9.501
REMARK INTER + INTRA:         -10.090
REMARK INTER:                  -8.597
REMARK INTRA:                  -1.494
REMARK UNBOUND:                -1.990
REMARK SMILES C=C(CC[C@H](C(=O)[O-])[C@@H]1CC[C@@]2(C)C3=C(CC[C@@]12C)[C@]1(C)CC[C@H](O)C(C)(C)[C@@H]1CC3)C(C)C
REMARK SMILES IDX 4 1 5 2 6 3 7 4 8 5 9 6 10 7 18 8 11 9 12 10 17 11 19 12
REMARK SMILES IDX 13 13 14 14 16 15 15 16 31 17 20 18 30 19 29 20 22 21 21 22
REMARK SMILES IDX 26 23 23 24 24 25 27 26 28 27 25 28 3 30 2 31 1 32 32 33
REMARK SMILES IDX 33 34 34 35
REMARK H PARENT 25 29
REMARK Flexibility Score: inf
ROOT
ATOM      1  C   UNL     1     127.521 133.961 107.766  1.00  0.00     0.014 C 
ENDROOT
BRANCH   1   2
ATOM      2  C   UNL     1     128.938 134.451 108.179  1.00  0.00     0.039 C 
BRANCH   2   3
ATOM      3  C   UNL     1     129.536 133.570 109.256  1.00  0.00     0.045 C 
ATOM      4  O   UNL     1     130.260 134.057 110.163  1.00  0.00    -0.550 OA
ATOM      5  O   UNL     1     129.240 132.214 109.293  1.00  0.00    -0.550 OA
ENDBRANCH   2   3
BRANCH   2   6
ATOM      6  C   UNL     1     129.103 136.003 108.430  1.00  0.00     0.004 C 
ATOM      7  C   UNL     1     127.825 136.591 109.042  1.00  0.00     0.006 C 
ATOM      8  C   UNL     1     129.526 136.991 107.268  1.00  0.00    -0.020 C 
ATOM      9  C   UNL     1     127.159 137.464 107.995  1.00  0.00     0.012 C 
ATOM     10  C   UNL     1     128.190 137.789 106.880  1.00  0.00    -0.006 C 
ATOM     11  C   UNL     1     130.645 137.953 107.798  1.00  0.00     0.012 C 
ATOM     12  C   UNL     1     130.205 136.275 106.061  1.00  0.00     0.012 C 
ATOM     13  C   UNL     1     127.600 137.290 105.522  1.00  0.00     0.017 C 
ATOM     14  C   UNL     1     128.354 139.340 106.825  1.00  0.00    -0.064 C 
ATOM     15  C   UNL     1     130.094 139.150 108.540  1.00  0.00     0.032 C 
ATOM     16  C   UNL     1     129.296 139.988 107.568  1.00  0.00    -0.064 C 
ATOM     17  C   UNL     1     127.326 140.142 106.057  1.00  0.00     0.032 C 
ATOM     18  C   UNL     1     129.601 141.512 107.438  1.00  0.00    -0.008 C 
ATOM     19  C   UNL     1     127.229 141.591 106.506  1.00  0.00     0.009 C 
ATOM     20  C   UNL     1     128.619 142.260 106.433  1.00  0.00     0.007 C 
ATOM     21  C   UNL     1     129.486 142.129 108.863  1.00  0.00     0.014 C 
ATOM     22  C   UNL     1     131.060 141.608 106.914  1.00  0.00     0.016 C 
ATOM     23  C   UNL     1     128.547 143.857 106.565  1.00  0.00    -0.006 C 
ATOM     24  C   UNL     1     129.606 143.648 108.892  1.00  0.00     0.033 C 
ATOM     25  C   UNL     1     128.513 144.317 108.056  1.00  0.00     0.120 C 
ATOM     26  C   UNL     1     129.754 144.531 105.840  1.00  0.00     0.014 C 
ATOM     27  C   UNL     1     127.295 144.443 105.844  1.00  0.00     0.014 C 
BRANCH  25  28
ATOM     28  O   UNL     1     127.266 144.031 108.646  1.00  0.00    -0.393 OA
ATOM     29  H   UNL     1     127.311 144.307 109.597  1.00  0.00     0.210 HD
ENDBRANCH  25  28
ENDBRANCH   2   6
ENDBRANCH   1   2
BRANCH   1  30
ATOM     30  C   UNL     1     127.347 133.707 106.260  1.00  0.00     0.031 C 
BRANCH  30  31
ATOM     31  C   UNL     1     127.824 132.321 105.881  1.00  0.00    -0.075 C 
ATOM     32  C   UNL     1     129.085 132.148 105.438  1.00  0.00     0.008 C 
BRANCH  31  33
ATOM     33  C   UNL     1     126.875 131.142 106.027  1.00  0.00     0.008 C 
ATOM     34  C   UNL     1     126.875 130.264 104.771  1.00  0.00     0.012 C 
ATOM     35  C   UNL     1     127.198 130.316 107.277  1.00  0.00     0.012 C 
ENDBRANCH  31  33
ENDBRANCH  30  31
ENDBRANCH   1  30
TORSDOF 7
ENDMDL
MODEL 5
REMARK VINA RESULT:    -5.866      2.083      3.130
REMARK INTER + INTRA:         -10.085
REMARK INTER:                  -8.247
REMARK INTRA:                  -1.839
REMARK UNBOUND:                -1.990
REMARK SMILES C=C(CC[C@H](C(=O)[O-])[C@@H]1CC[C@@]2(C)C3=C(CC[C@@]12C)[C@]1(C)CC[C@H](O)C(C)(C)[C@@H]1CC3)C(C)C
REMARK SMILES IDX 4 1 5 2 6 3 7 4 8 5 9 6 10 7 18 8 11 9 12 10 17 11 19 12
REMARK SMILES IDX 13 13 14 14 16 15 15 16 31 17 20 18 30 19 29 20 22 21 21 22
REMARK SMILES IDX 26 23 23 24 24 25 27 26 28 27 25 28 3 30 2 31 1 32 32 33
REMARK SMILES IDX 33 34 34 35
REMARK H PARENT 25 29
REMARK Flexibility Score: inf
ROOT
ATOM      1  C   UNL     1     133.518 145.602 109.131  1.00  0.00     0.014 C 
ENDROOT
BRANCH   1   2
ATOM      2  C   UNL     1     131.979 145.718 109.326  1.00  0.00     0.039 C 
BRANCH   2   3
ATOM      3  C   UNL     1     131.638 146.548 110.546  1.00  0.00     0.045 C 
ATOM      4  O   UNL     1     130.515 147.107 110.656  1.00  0.00    -0.550 OA
ATOM      5  O   UNL     1     132.541 146.653 111.595  1.00  0.00    -0.550 OA
ENDBRANCH   2   3
BRANCH   2   6
ATOM      6  C   UNL     1     131.146 144.382 109.184  1.00  0.00     0.004 C 
ATOM      7  C   UNL     1     131.965 143.179 109.671  1.00  0.00     0.006 C 
ATOM      8  C   UNL     1     130.509 143.946 107.802  1.00  0.00    -0.020 C 
ATOM      9  C   UNL     1     132.337 142.341 108.463  1.00  0.00     0.012 C 
ATOM     10  C   UNL     1     131.426 142.741 107.272  1.00  0.00    -0.006 C 
ATOM     11  C   UNL     1     129.029 143.487 108.045  1.00  0.00     0.012 C 
ATOM     12  C   UNL     1     130.362 145.120 106.788  1.00  0.00     0.012 C 
ATOM     13  C   UNL     1     132.347 143.200 106.096  1.00  0.00     0.017 C 
ATOM     14  C   UNL     1     130.635 141.469 106.832  1.00  0.00    -0.064 C 
ATOM     15  C   UNL     1     128.921 142.045 108.488  1.00  0.00     0.032 C 
ATOM     16  C   UNL     1     129.417 141.163 107.365  1.00  0.00    -0.064 C 
ATOM     17  C   UNL     1     131.325 140.476 105.923  1.00  0.00     0.032 C 
ATOM     18  C   UNL     1     128.522 139.992 106.855  1.00  0.00    -0.008 C 
ATOM     19  C   UNL     1     130.744 139.074 106.006  1.00  0.00     0.009 C 
ATOM     20  C   UNL     1     129.225 139.115 105.729  1.00  0.00     0.007 C 
ATOM     21  C   UNL     1     128.175 139.107 108.088  1.00  0.00     0.014 C 
ATOM     22  C   UNL     1     127.242 140.658 106.280  1.00  0.00     0.016 C 
ATOM     23  C   UNL     1     128.602 137.660 105.467  1.00  0.00    -0.006 C 
ATOM     24  C   UNL     1     127.425 137.826 107.740  1.00  0.00     0.033 C 
ATOM     25  C   UNL     1     128.238 136.935 106.799  1.00  0.00     0.120 C 
ATOM     26  C   UNL     1     127.333 137.752 104.562  1.00  0.00     0.014 C 
ATOM     27  C   UNL     1     129.577 136.748 104.663  1.00  0.00     0.014 C 
BRANCH  25  28
ATOM     28  O   UNL     1     129.398 136.514 107.480  1.00  0.00    -0.393 OA
ATOM     29  H   UNL     1     129.164 135.708 108.008  1.00  0.00     0.210 HD
ENDBRANCH  25  28
ENDBRANCH   2   6
ENDBRANCH   1   2
BRANCH   1  30
ATOM     30  C   UNL     1     134.028 146.105 107.771  1.00  0.00     0.031 C 
BRANCH  30  31
ATOM     31  C   UNL     1     135.175 145.254 107.269  1.00  0.00    -0.075 C 
ATOM     32  C   UNL     1     135.589 144.198 107.997  1.00  0.00     0.008 C 
BRANCH  31  33
ATOM     33  C   UNL     1     135.828 145.595 105.939  1.00  0.00     0.008 C 
ATOM     34  C   UNL     1     134.796 146.089 104.919  1.00  0.00     0.012 C 
ATOM     35  C   UNL     1     136.960 146.613 106.116  1.00  0.00     0.012 C 
ENDBRANCH  31  33
ENDBRANCH  30  31
ENDBRANCH   1  30
TORSDOF 7
ENDMDL
MODEL 6
REMARK VINA RESULT:    -5.837      2.968      7.559
REMARK INTER + INTRA:         -10.045
REMARK INTER:                  -8.006
REMARK INTRA:                  -2.040
REMARK UNBOUND:                -1.990
REMARK SMILES C=C(CC[C@H](C(=O)[O-])[C@@H]1CC[C@@]2(C)C3=C(CC[C@@]12C)[C@]1(C)CC[C@H](O)C(C)(C)[C@@H]1CC3)C(C)C
REMARK SMILES IDX 4 1 5 2 6 3 7 4 8 5 9 6 10 7 18 8 11 9 12 10 17 11 19 12
REMARK SMILES IDX 13 13 14 14 16 15 15 16 31 17 20 18 30 19 29 20 22 21 21 22
REMARK SMILES IDX 26 23 23 24 24 25 27 26 28 27 25 28 3 30 2 31 1 32 32 33
REMARK SMILES IDX 33 34 34 35
REMARK H PARENT 25 29
REMARK Flexibility Score: inf
ROOT
ATOM      1  C   UNL     1     127.702 142.774 105.541  1.00  0.00     0.014 C 
ENDROOT
BRANCH   1   2
ATOM      2  C   UNL     1     128.248 144.069 106.207  1.00  0.00     0.039 C 
BRANCH   2   3
ATOM      3  C   UNL     1     127.350 145.255 105.929  1.00  0.00     0.045 C 
ATOM      4  O   UNL     1     126.973 145.521 104.758  1.00  0.00    -0.550 OA
ATOM      5  O   UNL     1     126.875 146.033 106.976  1.00  0.00    -0.550 OA
ENDBRANCH   2   3
BRANCH   2   6
ATOM      6  C   UNL     1     129.793 144.356 106.032  1.00  0.00     0.004 C 
ATOM      7  C   UNL     1     130.466 143.229 105.236  1.00  0.00     0.006 C 
ATOM      8  C   UNL     1     130.731 144.633 107.276  1.00  0.00    -0.020 C 
ATOM      9  C   UNL     1     131.355 142.447 106.185  1.00  0.00     0.012 C 
ATOM     10  C   UNL     1     131.598 143.296 107.462  1.00  0.00    -0.006 C 
ATOM     11  C   UNL     1     131.638 145.874 106.964  1.00  0.00     0.012 C 
ATOM     12  C   UNL     1     129.954 145.064 108.556  1.00  0.00     0.012 C 
ATOM     13  C   UNL     1     131.106 142.464 108.691  1.00  0.00     0.017 C 
ATOM     14  C   UNL     1     133.135 143.531 107.589  1.00  0.00    -0.064 C 
ATOM     15  C   UNL     1     132.879 145.518 106.177  1.00  0.00     0.032 C 
ATOM     16  C   UNL     1     133.743 144.617 107.029  1.00  0.00    -0.064 C 
ATOM     17  C   UNL     1     133.979 142.435 108.201  1.00  0.00     0.032 C 
ATOM     18  C   UNL     1     135.243 144.977 107.252  1.00  0.00    -0.008 C 
ATOM     19  C   UNL     1     135.440 142.491 107.785  1.00  0.00     0.009 C 
ATOM     20  C   UNL     1     136.026 143.884 108.103  1.00  0.00     0.007 C 
ATOM     21  C   UNL     1     135.894 145.132 105.846  1.00  0.00     0.014 C 
ATOM     22  C   UNL     1     135.244 146.333 108.010  1.00  0.00     0.016 C 
ATOM     23  C   UNL     1     137.628 143.921 108.008  1.00  0.00    -0.006 C 
ATOM     24  C   UNL     1     137.404 145.337 105.881  1.00  0.00     0.033 C 
ATOM     25  C   UNL     1     138.118 144.159 106.546  1.00  0.00     0.120 C 
ATOM     26  C   UNL     1     138.216 145.026 108.940  1.00  0.00     0.014 C 
ATOM     27  C   UNL     1     138.270 142.600 108.531  1.00  0.00     0.014 C 
BRANCH  25  28
ATOM     28  O   UNL     1     137.916 143.012 105.752  1.00  0.00    -0.393 OA
ATOM     29  H   UNL     1     137.849 143.307 104.807  1.00  0.00     0.210 HD
ENDBRANCH  25  28
ENDBRANCH   2   6
ENDBRANCH   1   2
BRANCH   1  30
ATOM     30  C   UNL     1     126.964 141.825 106.499  1.00  0.00     0.031 C 
BRANCH  30  31
ATOM     31  C   UNL     1     127.926 140.867 107.168  1.00  0.00    -0.075 C 
ATOM     32  C   UNL     1     128.058 140.884 108.509  1.00  0.00     0.008 C 
BRANCH  31  33
ATOM     33  C   UNL     1     128.712 139.885 106.314  1.00  0.00     0.008 C 
ATOM     34  C   UNL     1     129.837 139.222 107.116  1.00  0.00     0.012 C 
ATOM     35  C   UNL     1     127.793 138.834 105.681  1.00  0.00     0.012 C 
ENDBRANCH  31  33
ENDBRANCH  30  31
ENDBRANCH   1  30
TORSDOF 7
ENDMDL
MODEL 7
REMARK VINA RESULT:    -5.785      4.066      7.940
REMARK INTER + INTRA:          -9.973
REMARK INTER:                  -8.098
REMARK INTRA:                  -1.875
REMARK UNBOUND:                -1.990
REMARK SMILES C=C(CC[C@H](C(=O)[O-])[C@@H]1CC[C@@]2(C)C3=C(CC[C@@]12C)[C@]1(C)CC[C@H](O)C(C)(C)[C@@H]1CC3)C(C)C
REMARK SMILES IDX 4 1 5 2 6 3 7 4 8 5 9 6 10 7 18 8 11 9 12 10 17 11 19 12
REMARK SMILES IDX 13 13 14 14 16 15 15 16 31 17 20 18 30 19 29 20 22 21 21 22
REMARK SMILES IDX 26 23 23 24 24 25 27 26 28 27 25 28 3 30 2 31 1 32 32 33
REMARK SMILES IDX 33 34 34 35
REMARK H PARENT 25 29
REMARK Flexibility Score: inf
ROOT
ATOM      1  C   UNL     1     128.146 145.496 108.696  1.00  0.00     0.014 C 
ENDROOT
BRANCH   1   2
ATOM      2  C   UNL     1     128.815 144.284 109.404  1.00  0.00     0.039 C 
BRANCH   2   3
ATOM      3  C   UNL     1     128.000 143.818 110.591  1.00  0.00     0.045 C 
ATOM      4  O   UNL     1     127.942 144.502 111.646  1.00  0.00    -0.550 OA
ATOM      5  O   UNL     1     127.248 142.653 110.509  1.00  0.00    -0.550 OA
ENDBRANCH   2   3
BRANCH   2   6
ATOM      6  C   UNL     1     130.369 144.394 109.674  1.00  0.00     0.004 C 
ATOM      7  C   UNL     1     130.791 145.862 109.821  1.00  0.00     0.006 C 
ATOM      8  C   UNL     1     131.428 143.730 108.702  1.00  0.00    -0.020 C 
ATOM      9  C   UNL     1     131.607 146.243 108.601  1.00  0.00     0.012 C 
ATOM     10  C   UNL     1     132.077 144.948 107.884  1.00  0.00    -0.006 C 
ATOM     11  C   UNL     1     132.499 142.968 109.558  1.00  0.00     0.012 C 
ATOM     12  C   UNL     1     130.826 142.613 107.797  1.00  0.00     0.012 C 
ATOM     13  C   UNL     1     131.548 144.995 106.414  1.00  0.00     0.017 C 
ATOM     14  C   UNL     1     133.638 144.958 107.864  1.00  0.00    -0.064 C 
ATOM     15  C   UNL     1     133.606 143.869 110.060  1.00  0.00     0.032 C 
ATOM     16  C   UNL     1     134.371 144.395 108.867  1.00  0.00    -0.064 C 
ATOM     17  C   UNL     1     134.335 145.761 106.789  1.00  0.00     0.032 C 
ATOM     18  C   UNL     1     135.922 144.245 108.823  1.00  0.00    -0.008 C 
ATOM     19  C   UNL     1     135.751 146.170 107.160  1.00  0.00     0.009 C 
ATOM     20  C   UNL     1     136.577 144.922 107.541  1.00  0.00     0.007 C 
ATOM     21  C   UNL     1     136.485 144.894 110.122  1.00  0.00     0.014 C 
ATOM     22  C   UNL     1     136.198 142.716 108.809  1.00  0.00     0.016 C 
ATOM     23  C   UNL     1     138.152 145.219 107.619  1.00  0.00    -0.006 C 
ATOM     24  C   UNL     1     138.007 144.968 110.168  1.00  0.00     0.033 C 
ATOM     25  C   UNL     1     138.567 145.795 109.009  1.00  0.00     0.120 C 
ATOM     26  C   UNL     1     138.978 143.928 107.324  1.00  0.00     0.014 C 
ATOM     27  C   UNL     1     138.608 146.223 106.518  1.00  0.00     0.014 C 
BRANCH  25  28
ATOM     28  O   UNL     1     138.124 147.124 109.158  1.00  0.00    -0.393 OA
ATOM     29  H   UNL     1     137.653 147.382 108.325  1.00  0.00     0.210 HD
ENDBRANCH  25  28
ENDBRANCH   2   6
ENDBRANCH   1   2
BRANCH   1  30
ATOM     30  C   UNL     1     127.007 145.123 107.733  1.00  0.00     0.031 C 
BRANCH  30  31
ATOM     31  C   UNL     1     127.540 144.812 106.351  1.00  0.00    -0.075 C 
ATOM     32  C   UNL     1     128.082 145.797 105.608  1.00  0.00     0.008 C 
BRANCH  31  33
ATOM     33  C   UNL     1     127.475 143.384 105.832  1.00  0.00     0.008 C 
ATOM     34  C   UNL     1     128.727 143.024 105.027  1.00  0.00     0.012 C 
ATOM     35  C   UNL     1     127.246 142.385 106.972  1.00  0.00     0.012 C 
ENDBRANCH  31  33
ENDBRANCH  30  31
ENDBRANCH   1  30
TORSDOF 7
ENDMDL
MODEL 8
REMARK VINA RESULT:    -5.781     13.653     18.059
REMARK INTER + INTRA:          -9.968
REMARK INTER:                  -8.160
REMARK INTRA:                  -1.808
REMARK UNBOUND:                -1.990
REMARK SMILES C=C(CC[C@H](C(=O)[O-])[C@@H]1CC[C@@]2(C)C3=C(CC[C@@]12C)[C@]1(C)CC[C@H](O)C(C)(C)[C@@H]1CC3)C(C)C
REMARK SMILES IDX 4 1 5 2 6 3 7 4 8 5 9 6 10 7 18 8 11 9 12 10 17 11 19 12
REMARK SMILES IDX 13 13 14 14 16 15 15 16 31 17 20 18 30 19 29 20 22 21 21 22
REMARK SMILES IDX 26 23 23 24 24 25 27 26 28 27 25 28 3 30 2 31 1 32 32 33
REMARK SMILES IDX 33 34 34 35
REMARK H PARENT 25 29
REMARK Flexibility Score: inf
ROOT
ATOM      1  C   UNL     1     144.626 132.004 109.036  1.00  0.00     0.014 C 
ENDROOT
BRANCH   1   2
ATOM      2  C   UNL     1     145.950 132.785 109.271  1.00  0.00     0.039 C 
BRANCH   2   3
ATOM      3  C   UNL     1     146.673 132.289 110.505  1.00  0.00     0.045 C 
ATOM      4  O   UNL     1     147.125 131.115 110.563  1.00  0.00    -0.550 OA
ATOM      5  O   UNL     1     146.904 133.146 111.572  1.00  0.00    -0.550 OA
ENDBRANCH   2   3
BRANCH   2   6
ATOM      6  C   UNL     1     145.875 134.359 109.140  1.00  0.00     0.004 C 
ATOM      7  C   UNL     1     144.524 134.880 109.647  1.00  0.00     0.006 C 
ATOM      8  C   UNL     1     146.134 135.089 107.759  1.00  0.00    -0.020 C 
ATOM      9  C   UNL     1     143.726 135.366 108.452  1.00  0.00     0.012 C 
ATOM     10  C   UNL     1     144.689 135.563 107.250  1.00  0.00    -0.006 C 
ATOM     11  C   UNL     1     147.094 136.306 107.998  1.00  0.00     0.012 C 
ATOM     12  C   UNL     1     146.909 134.213 106.729  1.00  0.00     0.012 C 
ATOM     13  C   UNL     1     144.176 134.669 106.074  1.00  0.00     0.017 C 
ATOM     14  C   UNL     1     144.611 137.062 106.821  1.00  0.00    -0.064 C 
ATOM     15  C   UNL     1     146.369 137.551 108.458  1.00  0.00     0.032 C 
ATOM     16  C   UNL     1     145.446 138.002 107.349  1.00  0.00    -0.064 C 
ATOM     17  C   UNL     1     143.468 137.493 105.929  1.00  0.00     0.032 C 
ATOM     18  C   UNL     1     145.511 139.477 106.848  1.00  0.00    -0.008 C 
ATOM     19  C   UNL     1     143.151 138.976 106.025  1.00  0.00     0.009 C 
ATOM     20  C   UNL     1     144.421 139.807 105.738  1.00  0.00     0.007 C 
ATOM     21  C   UNL     1     145.310 140.395 108.090  1.00  0.00     0.014 C 
ATOM     22  C   UNL     1     146.936 139.660 106.256  1.00  0.00     0.016 C 
ATOM     23  C   UNL     1     144.104 141.360 105.489  1.00  0.00    -0.006 C 
ATOM     24  C   UNL     1     145.194 141.878 107.753  1.00  0.00     0.033 C 
ATOM     25  C   UNL     1     144.007 142.155 106.828  1.00  0.00     0.120 C 
ATOM     26  C   UNL     1     145.188 142.011 104.575  1.00  0.00     0.014 C 
ATOM     27  C   UNL     1     142.773 141.562 104.703  1.00  0.00     0.014 C 
BRANCH  25  28
ATOM     28  O   UNL     1     142.822 141.837 107.521  1.00  0.00    -0.393 OA
ATOM     29  H   UNL     1     142.941 142.112 108.467  1.00  0.00     0.210 HD
ENDBRANCH  25  28
ENDBRANCH   2   6
ENDBRANCH   1   2
BRANCH   1  30
ATOM     30  C   UNL     1     144.531 131.305 107.670  1.00  0.00     0.031 C 
BRANCH  30  31
ATOM     31  C   UNL     1     143.108 131.300 107.156  1.00  0.00    -0.075 C 
ATOM     32  C   UNL     1     142.151 131.960 107.838  1.00  0.00     0.008 C 
BRANCH  31  33
ATOM     33  C   UNL     1     142.785 130.565 105.865  1.00  0.00     0.008 C 
ATOM     34  C   UNL     1     143.964 130.609 104.887  1.00  0.00     0.012 C 
ATOM     35  C   UNL     1     142.347 129.122 106.136  1.00  0.00     0.012 C 
ENDBRANCH  31  33
ENDBRANCH  30  31
ENDBRANCH   1  30
TORSDOF 7
ENDMDL
MODEL 9
REMARK VINA RESULT:    -5.676      4.475      8.581
REMARK INTER + INTRA:          -9.822
REMARK INTER:                  -7.715
REMARK INTRA:                  -2.107
REMARK UNBOUND:                -1.990
REMARK SMILES C=C(CC[C@H](C(=O)[O-])[C@@H]1CC[C@@]2(C)C3=C(CC[C@@]12C)[C@]1(C)CC[C@H](O)C(C)(C)[C@@H]1CC3)C(C)C
REMARK SMILES IDX 4 1 5 2 6 3 7 4 8 5 9 6 10 7 18 8 11 9 12 10 17 11 19 12
REMARK SMILES IDX 13 13 14 14 16 15 15 16 31 17 20 18 30 19 29 20 22 21 21 22
REMARK SMILES IDX 26 23 23 24 24 25 27 26 28 27 25 28 3 30 2 31 1 32 32 33
REMARK SMILES IDX 33 34 34 35
REMARK H PARENT 25 29
REMARK Flexibility Score: inf
ROOT
ATOM      1  C   UNL     1     131.786 142.758 105.695  1.00  0.00     0.014 C 
ENDROOT
BRANCH   1   2
ATOM      2  C   UNL     1     132.633 143.865 106.385  1.00  0.00     0.039 C 
BRANCH   2   3
ATOM      3  C   UNL     1     134.017 143.961 105.780  1.00  0.00     0.045 C 
ATOM      4  O   UNL     1     135.046 143.807 106.488  1.00  0.00    -0.550 OA
ATOM      5  O   UNL     1     134.171 144.158 104.414  1.00  0.00    -0.550 OA
ENDBRANCH   2   3
BRANCH   2   6
ATOM      6  C   UNL     1     132.600 143.898 107.965  1.00  0.00     0.004 C 
ATOM      7  C   UNL     1     132.023 142.590 108.521  1.00  0.00     0.006 C 
ATOM      8  C   UNL     1     131.878 145.065 108.755  1.00  0.00    -0.020 C 
ATOM      9  C   UNL     1     130.656 142.888 109.108  1.00  0.00     0.012 C 
ATOM     10  C   UNL     1     130.524 144.420 109.323  1.00  0.00    -0.006 C 
ATOM     11  C   UNL     1     132.818 145.556 109.910  1.00  0.00     0.012 C 
ATOM     12  C   UNL     1     131.654 146.348 107.900  1.00  0.00     0.012 C 
ATOM     13  C   UNL     1     129.276 144.910 108.519  1.00  0.00     0.017 C 
ATOM     14  C   UNL     1     130.277 144.665 110.845  1.00  0.00    -0.064 C 
ATOM     15  C   UNL     1     132.707 144.714 111.162  1.00  0.00     0.032 C 
ATOM     16  C   UNL     1     131.309 144.863 111.715  1.00  0.00    -0.064 C 
ATOM     17  C   UNL     1     128.870 144.505 111.377  1.00  0.00     0.032 C 
ATOM     18  C   UNL     1     131.113 145.259 113.210  1.00  0.00    -0.008 C 
ATOM     19  C   UNL     1     128.816 144.207 112.866  1.00  0.00     0.009 C 
ATOM     20  C   UNL     1     129.584 145.293 113.650  1.00  0.00     0.007 C 
ATOM     21  C   UNL     1     131.897 144.223 114.068  1.00  0.00     0.014 C 
ATOM     22  C   UNL     1     131.733 146.675 113.357  1.00  0.00     0.016 C 
ATOM     23  C   UNL     1     129.296 145.242 115.228  1.00  0.00    -0.006 C 
ATOM     24  C   UNL     1     131.686 144.376 115.571  1.00  0.00     0.033 C 
ATOM     25  C   UNL     1     130.214 144.210 115.953  1.00  0.00     0.120 C 
ATOM     26  C   UNL     1     129.483 146.649 115.875  1.00  0.00     0.014 C 
ATOM     27  C   UNL     1     127.811 144.876 115.535  1.00  0.00     0.014 C 
BRANCH  25  28
ATOM     28  O   UNL     1     129.825 142.888 115.655  1.00  0.00    -0.393 OA
ATOM     29  H   UNL     1     130.438 142.543 114.956  1.00  0.00     0.210 HD
ENDBRANCH  25  28
ENDBRANCH   2   6
ENDBRANCH   1   2
BRANCH   1  30
ATOM     30  C   UNL     1     130.367 143.193 105.297  1.00  0.00     0.031 C 
BRANCH  30  31
ATOM     31  C   UNL     1     129.339 142.175 105.739  1.00  0.00    -0.075 C 
ATOM     32  C   UNL     1     129.740 140.947 106.126  1.00  0.00     0.008 C 
BRANCH  31  33
ATOM     33  C   UNL     1     127.868 142.562 105.759  1.00  0.00     0.008 C 
ATOM     34  C   UNL     1     127.249 142.336 107.142  1.00  0.00     0.012 C 
ATOM     35  C   UNL     1     127.664 144.007 105.293  1.00  0.00     0.012 C 
ENDBRANCH  31  33
ENDBRANCH  30  31
ENDBRANCH   1  30
TORSDOF 7
ENDMDL
