MODEL 1
REMARK VINA RESULT:    -1.751      0.000      0.000
REMARK INTER + INTRA:          -1.751
REMARK INTER:                  -1.751
REMARK INTRA:                   0.000
REMARK UNBOUND:                 0.000
REMARK SMILES CC(=O)[O-]
REMARK SMILES IDX 1 1 2 2 3 3 4 4
REMARK H PARENT
REMARK Flexibility Score: inf
ROOT
ATOM      1  C   UNL     1    -100.038 -25.604  -5.218  1.00  0.00     0.063 C 
ATOM      2  C   UNL     1     -99.473 -26.983  -5.160  1.00  0.00     0.038 C 
ATOM      3  O   UNL     1     -98.458 -27.221  -4.454  1.00  0.00    -0.550 OA
ATOM      4  O   UNL     1    -100.098 -28.021  -5.840  1.00  0.00    -0.550 OA
ENDROOT
TORSDOF 0
ENDMDL
MODEL 2
REMARK VINA RESULT:    -1.734     10.955     11.414
REMARK INTER + INTRA:          -1.734
REMARK INTER:                  -1.734
REMARK INTRA:                   0.000
REMARK UNBOUND:                 0.000
REMARK SMILES CC(=O)[O-]
REMARK SMILES IDX 1 1 2 2 3 3 4 4
REMARK H PARENT
REMARK Flexibility Score: inf
ROOT
ATOM      1  C   UNL     1    -101.918 -28.010 -16.373  1.00  0.00     0.063 C 
ATOM      2  C   UNL     1    -102.772 -26.877 -15.916  1.00  0.00     0.038 C 
ATOM      3  O   UNL     1    -102.975 -26.694 -14.687  1.00  0.00    -0.550 OA
ATOM      4  O   UNL     1    -103.302 -25.986 -16.841  1.00  0.00    -0.550 OA
ENDROOT
TORSDOF 0
ENDMDL
MODEL 3
REMARK VINA RESULT:    -1.717     11.003     11.528
REMARK INTER + INTRA:          -1.717
REMARK INTER:                  -1.717
REMARK INTRA:                   0.000
REMARK UNBOUND:                 0.000
REMARK SMILES CC(=O)[O-]
REMARK SMILES IDX 1 1 2 2 3 3 4 4
REMARK H PARENT
REMARK Flexibility Score: inf
ROOT
ATOM      1  C   UNL     1    -101.981 -27.959 -16.385  1.00  0.00     0.063 C 
ATOM      2  C   UNL     1    -102.839 -26.802 -15.999  1.00  0.00     0.038 C 
ATOM      3  O   UNL     1    -103.312 -26.042 -16.884  1.00  0.00    -0.550 OA
ATOM      4  O   UNL     1    -103.163 -26.590 -14.664  1.00  0.00    -0.550 OA
ENDROOT
TORSDOF 0
ENDMDL
MODEL 4
REMARK VINA RESULT:    -1.683     10.796     11.278
REMARK INTER + INTRA:          -1.683
REMARK INTER:                  -1.683
REMARK INTRA:                   0.000
REMARK UNBOUND:                 0.000
REMARK SMILES CC(=O)[O-]
REMARK SMILES IDX 1 1 2 2 3 3 4 4
REMARK H PARENT
REMARK Flexibility Score: inf
ROOT
ATOM      1  C   UNL     1    -103.432 -26.124 -16.664  1.00  0.00     0.063 C 
ATOM      2  C   UNL     1    -102.540 -27.066 -15.929  1.00  0.00     0.038 C 
ATOM      3  O   UNL     1    -101.793 -27.856 -16.564  1.00  0.00    -0.550 OA
ATOM      4  O   UNL     1    -102.491 -27.038 -14.540  1.00  0.00    -0.550 OA
ENDROOT
TORSDOF 0
ENDMDL
MODEL 5
REMARK VINA RESULT:    -1.654     10.113     10.617
REMARK INTER + INTRA:          -1.654
REMARK INTER:                  -1.654
REMARK INTRA:                   0.000
REMARK UNBOUND:                 0.000
REMARK SMILES CC(=O)[O-]
REMARK SMILES IDX 1 1 2 2 3 3 4 4
REMARK H PARENT
REMARK Flexibility Score: inf
ROOT
ATOM      1  C   UNL     1    -101.153 -27.736 -14.147  1.00  0.00     0.063 C 
ATOM      2  C   UNL     1    -101.941 -27.387 -15.364  1.00  0.00     0.038 C 
ATOM      3  O   UNL     1    -101.700 -27.959 -16.459  1.00  0.00    -0.550 OA
ATOM      4  O   UNL     1    -102.982 -26.470 -15.280  1.00  0.00    -0.550 OA
ENDROOT
TORSDOF 0
ENDMDL
MODEL 6
REMARK VINA RESULT:    -1.635      1.494      1.771
REMARK INTER + INTRA:          -1.635
REMARK INTER:                  -1.635
REMARK INTRA:                   0.000
REMARK UNBOUND:                 0.000
REMARK SMILES CC(=O)[O-]
REMARK SMILES IDX 1 1 2 2 3 3 4 4
REMARK H PARENT
REMARK Flexibility Score: inf
ROOT
ATOM      1  C   UNL     1    -100.748 -27.750  -5.247  1.00  0.00     0.063 C 
ATOM      2  C   UNL     1     -99.697 -26.710  -5.054  1.00  0.00     0.038 C 
ATOM      3  O   UNL     1     -98.548 -27.038  -4.660  1.00  0.00    -0.550 OA
ATOM      4  O   UNL     1     -99.966 -25.382  -5.363  1.00  0.00    -0.550 OA
ENDROOT
TORSDOF 0
ENDMDL
MODEL 7
REMARK VINA RESULT:    -1.580      1.704      2.434
REMARK INTER + INTRA:          -1.580
REMARK INTER:                  -1.580
REMARK INTRA:                   0.000
REMARK UNBOUND:                 0.000
REMARK SMILES CC(=O)[O-]
REMARK SMILES IDX 1 1 2 2 3 3 4 4
REMARK H PARENT
REMARK Flexibility Score: inf
ROOT
ATOM      1  C   UNL     1     -99.015 -26.943  -4.917  1.00  0.00     0.063 C 
ATOM      2  C   UNL     1     -98.688 -28.082  -4.012  1.00  0.00     0.038 C 
ATOM      3  O   UNL     1     -99.538 -28.985  -3.798  1.00  0.00    -0.550 OA
ATOM      4  O   UNL     1     -97.422 -28.180  -3.445  1.00  0.00    -0.550 OA
ENDROOT
TORSDOF 0
ENDMDL
MODEL 8
REMARK VINA RESULT:    -1.493     11.679     12.208
REMARK INTER + INTRA:          -1.493
REMARK INTER:                  -1.493
REMARK INTRA:                   0.000
REMARK UNBOUND:                 0.000
REMARK SMILES CC(=O)[O-]
REMARK SMILES IDX 1 1 2 2 3 3 4 4
REMARK H PARENT
REMARK Flexibility Score: inf
ROOT
ATOM      1  C   UNL     1    -104.250 -24.964 -14.882  1.00  0.00     0.063 C 
ATOM      2  C   UNL     1    -104.323 -25.529 -16.260  1.00  0.00     0.038 C 
ATOM      3  O   UNL     1    -103.285 -25.971 -16.818  1.00  0.00    -0.550 OA
ATOM      4  O   UNL     1    -105.547 -25.620 -16.911  1.00  0.00    -0.550 OA
ENDROOT
TORSDOF 0
ENDMDL
MODEL 9
REMARK VINA RESULT:    -1.490      2.857      3.456
REMARK INTER + INTRA:          -1.490
REMARK INTER:                  -1.490
REMARK INTRA:                   0.000
REMARK UNBOUND:                 0.000
REMARK SMILES CC(=O)[O-]
REMARK SMILES IDX 1 1 2 2 3 3 4 4
REMARK H PARENT
REMARK Flexibility Score: inf
ROOT
ATOM      1  C   UNL     1     -98.220 -29.532  -2.551  1.00  0.00     0.063 C 
ATOM      2  C   UNL     1     -97.611 -28.355  -3.235  1.00  0.00     0.038 C 
ATOM      3  O   UNL     1     -96.428 -28.013  -2.973  1.00  0.00    -0.550 OA
ATOM      4  O   UNL     1     -98.329 -27.664  -4.205  1.00  0.00    -0.550 OA
ENDROOT
TORSDOF 0
ENDMDL
