MODEL 1
REMARK VINA RESULT:    -4.120      0.000      0.000
REMARK INTER + INTRA:         -15.739
REMARK INTER:                 -10.865
REMARK INTRA:                  -4.873
REMARK UNBOUND:                -4.873
REMARK SMILES CCCCCCCCCCCCCCCCCCCCCCCCCCCCCC(=O)[O-]
REMARK SMILES IDX 16 1 17 2 18 3 19 4 20 5 21 6 22 7 23 8 24 9 25 10 26 11
REMARK SMILES IDX 27 12 28 13 29 14 30 15 31 16 32 17 15 18 14 19 13 20 12 21
REMARK SMILES IDX 11 22 10 23 9 24 8 25 7 26 6 27 5 28 4 29 3 30 2 31 1 32
REMARK H PARENT
REMARK Flexibility Score: inf
ROOT
ATOM      1  C   UNL     1      19.114  22.860  16.997  1.00  0.00     0.000 C 
ENDROOT
BRANCH   1   2
ATOM      2  C   UNL     1      18.502  21.485  17.308  1.00  0.00     0.000 C 
BRANCH   2   3
ATOM      3  C   UNL     1      17.420  21.598  18.393  1.00  0.00     0.000 C 
BRANCH   3   4
ATOM      4  C   UNL     1      17.321  20.336  19.264  1.00  0.00     0.000 C 
BRANCH   4   5
ATOM      5  C   UNL     1      18.392  19.287  18.913  1.00  0.00     0.000 C 
BRANCH   5   6
ATOM      6  C   UNL     1      17.783  18.002  18.328  1.00  0.00     0.000 C 
BRANCH   6   7
ATOM      7  C   UNL     1      18.709  17.332  17.297  1.00  0.00     0.000 C 
BRANCH   7   8
ATOM      8  C   UNL     1      19.227  15.963  17.765  1.00  0.00     0.000 C 
BRANCH   8   9
ATOM      9  C   UNL     1      20.428  16.085  18.719  1.00  0.00     0.000 C 
BRANCH   9  10
ATOM     10  C   UNL     1      20.238  15.305  20.034  1.00  0.00     0.000 C 
BRANCH  10  11
ATOM     11  C   UNL     1      19.039  15.751  20.893  1.00  0.00     0.000 C 
BRANCH  11  12
ATOM     12  C   UNL     1      19.335  16.999  21.739  1.00  0.00     0.000 C 
BRANCH  12  13
ATOM     13  C   UNL     1      20.281  16.669  22.899  1.00  0.00     0.006 C 
BRANCH  13  14
ATOM     14  C   UNL     1      19.684  15.584  23.801  1.00  0.00     0.053 C 
BRANCH  14  15
ATOM     15  C   UNL     1      18.727  16.180  24.784  1.00  0.00     0.041 C 
ATOM     16  O   UNL     1      17.752  15.505  25.204  1.00  0.00    -0.550 OA
ATOM     17  O   UNL     1      18.901  17.488  25.226  1.00  0.00    -0.550 OA
ENDBRANCH  14  15
ENDBRANCH  13  14
ENDBRANCH  12  13
ENDBRANCH  11  12
ENDBRANCH  10  11
ENDBRANCH   9  10
ENDBRANCH   8   9
ENDBRANCH   7   8
ENDBRANCH   6   7
ENDBRANCH   5   6
ENDBRANCH   4   5
ENDBRANCH   3   4
ENDBRANCH   2   3
ENDBRANCH   1   2
BRANCH   1  18
ATOM     18  C   UNL     1      20.649  22.822  16.931  1.00  0.00     0.000 C 
BRANCH  18  19
ATOM     19  C   UNL     1      21.303  23.944  17.757  1.00  0.00     0.000 C 
BRANCH  19  20
ATOM     20  C   UNL     1      20.268  24.899  18.375  1.00  0.00     0.000 C 
BRANCH  20  21
ATOM     21  C   UNL     1      20.247  24.923  19.916  1.00  0.00     0.000 C 
BRANCH  21  22
ATOM     22  C   UNL     1      19.293  23.884  20.543  1.00  0.00     0.000 C 
BRANCH  22  23
ATOM     23  C   UNL     1      20.040  22.838  21.389  1.00  0.00     0.000 C 
BRANCH  23  24
ATOM     24  C   UNL     1      20.586  21.679  20.539  1.00  0.00    -0.000 C 
BRANCH  24  25
ATOM     25  C   UNL     1      22.124  21.663  20.488  1.00  0.00    -0.000 C 
BRANCH  25  26
ATOM     26  C   UNL     1      22.742  20.760  21.569  1.00  0.00    -0.000 C 
BRANCH  26  27
ATOM     27  C   UNL     1      22.316  19.292  21.419  1.00  0.00    -0.000 C 
BRANCH  27  28
ATOM     28  C   UNL     1      23.521  18.348  21.523  1.00  0.00    -0.000 C 
BRANCH  28  29
ATOM     29  C   UNL     1      23.399  17.201  20.513  1.00  0.00    -0.000 C 
BRANCH  29  30
ATOM     30  C   UNL     1      24.641  17.110  19.618  1.00  0.00    -0.000 C 
BRANCH  30  31
ATOM     31  C   UNL     1      25.569  18.308  19.851  1.00  0.00    -0.003 C 
ATOM     32  C   UNL     1      26.966  17.854  20.259  1.00  0.00     0.004 C 
ENDBRANCH  30  31
ENDBRANCH  29  30
ENDBRANCH  28  29
ENDBRANCH  27  28
ENDBRANCH  26  27
ENDBRANCH  25  26
ENDBRANCH  24  25
ENDBRANCH  23  24
ENDBRANCH  22  23
ENDBRANCH  21  22
ENDBRANCH  20  21
ENDBRANCH  19  20
ENDBRANCH  18  19
ENDBRANCH   1  18
TORSDOF 28
ENDMDL
MODEL 2
REMARK VINA RESULT:    -4.090      1.559      5.511
REMARK INTER + INTRA:         -15.659
REMARK INTER:                 -10.891
REMARK INTRA:                  -4.768
REMARK UNBOUND:                -4.873
REMARK SMILES CCCCCCCCCCCCCCCCCCCCCCCCCCCCCC(=O)[O-]
REMARK SMILES IDX 16 1 17 2 18 3 19 4 20 5 21 6 22 7 23 8 24 9 25 10 26 11
REMARK SMILES IDX 27 12 28 13 29 14 30 15 31 16 32 17 15 18 14 19 13 20 12 21
REMARK SMILES IDX 11 22 10 23 9 24 8 25 7 26 6 27 5 28 4 29 3 30 2 31 1 32
REMARK H PARENT
REMARK Flexibility Score: inf
ROOT
ATOM      1  C   UNL     1      22.533  20.563  21.494  1.00  0.00     0.000 C 
ENDROOT
BRANCH   1   2
ATOM      2  C   UNL     1      23.405  19.631  20.638  1.00  0.00     0.000 C 
BRANCH   2   3
ATOM      3  C   UNL     1      23.708  18.324  21.386  1.00  0.00     0.000 C 
BRANCH   3   4
ATOM      4  C   UNL     1      25.185  17.911  21.280  1.00  0.00     0.000 C 
BRANCH   4   5
ATOM      5  C   UNL     1      25.762  18.125  19.869  1.00  0.00     0.000 C 
BRANCH   5   6
ATOM      6  C   UNL     1      26.265  16.816  19.237  1.00  0.00     0.000 C 
BRANCH   6   7
ATOM      7  C   UNL     1      25.650  16.563  17.848  1.00  0.00     0.000 C 
BRANCH   7   8
ATOM      8  C   UNL     1      24.714  15.345  17.827  1.00  0.00     0.000 C 
BRANCH   8   9
ATOM      9  C   UNL     1      23.306  15.679  18.349  1.00  0.00     0.000 C 
BRANCH   9  10
ATOM     10  C   UNL     1      23.047  15.151  19.773  1.00  0.00     0.000 C 
BRANCH  10  11
ATOM     11  C   UNL     1      21.567  15.107  20.197  1.00  0.00     0.000 C 
BRANCH  11  12
ATOM     12  C   UNL     1      20.840  16.443  19.986  1.00  0.00     0.000 C 
BRANCH  12  13
ATOM     13  C   UNL     1      19.725  16.637  21.021  1.00  0.00     0.006 C 
BRANCH  13  14
ATOM     14  C   UNL     1      20.300  17.093  22.365  1.00  0.00     0.053 C 
BRANCH  14  15
ATOM     15  C   UNL     1      19.336  16.817  23.476  1.00  0.00     0.041 C 
ATOM     16  O   UNL     1      18.115  16.651  23.225  1.00  0.00    -0.550 OA
ATOM     17  O   UNL     1      19.784  16.757  24.792  1.00  0.00    -0.550 OA
ENDBRANCH  14  15
ENDBRANCH  13  14
ENDBRANCH  12  13
ENDBRANCH  11  12
ENDBRANCH  10  11
ENDBRANCH   9  10
ENDBRANCH   8   9
ENDBRANCH   7   8
ENDBRANCH   6   7
ENDBRANCH   5   6
ENDBRANCH   4   5
ENDBRANCH   3   4
ENDBRANCH   2   3
ENDBRANCH   1   2
BRANCH   1  18
ATOM     18  C   UNL     1      21.574  21.416  20.648  1.00  0.00     0.000 C 
BRANCH  18  19
ATOM     19  C   UNL     1      22.279  22.609  19.980  1.00  0.00     0.000 C 
BRANCH  19  20
ATOM     20  C   UNL     1      21.836  22.814  18.522  1.00  0.00     0.000 C 
BRANCH  20  21
ATOM     21  C   UNL     1      21.272  24.212  18.205  1.00  0.00     0.000 C 
BRANCH  21  22
ATOM     22  C   UNL     1      19.886  24.187  17.525  1.00  0.00     0.000 C 
BRANCH  22  23
ATOM     23  C   UNL     1      19.549  22.807  16.933  1.00  0.00     0.000 C 
BRANCH  23  24
ATOM     24  C   UNL     1      18.343  22.151  17.626  1.00  0.00    -0.000 C 
BRANCH  24  25
ATOM     25  C   UNL     1      18.727  20.865  18.378  1.00  0.00    -0.000 C 
BRANCH  25  26
ATOM     26  C   UNL     1      17.646  20.420  19.378  1.00  0.00    -0.000 C 
BRANCH  26  27
ATOM     27  C   UNL     1      18.234  19.652  20.571  1.00  0.00    -0.000 C 
BRANCH  27  28
ATOM     28  C   UNL     1      17.645  20.148  21.898  1.00  0.00    -0.000 C 
BRANCH  28  29
ATOM     29  C   UNL     1      17.094  21.571  21.747  1.00  0.00    -0.000 C 
BRANCH  29  30
ATOM     30  C   UNL     1      17.606  22.489  22.862  1.00  0.00    -0.000 C 
BRANCH  30  31
ATOM     31  C   UNL     1      18.884  23.214  22.428  1.00  0.00    -0.003 C 
ATOM     32  C   UNL     1      18.806  23.648  20.968  1.00  0.00     0.004 C 
ENDBRANCH  30  31
ENDBRANCH  29  30
ENDBRANCH  28  29
ENDBRANCH  27  28
ENDBRANCH  26  27
ENDBRANCH  25  26
ENDBRANCH  24  25
ENDBRANCH  23  24
ENDBRANCH  22  23
ENDBRANCH  21  22
ENDBRANCH  20  21
ENDBRANCH  19  20
ENDBRANCH  18  19
ENDBRANCH   1  18
TORSDOF 28
ENDMDL
MODEL 3
REMARK VINA RESULT:    -3.974      2.350      4.647
REMARK INTER + INTRA:         -15.354
REMARK INTER:                 -10.671
REMARK INTRA:                  -4.683
REMARK UNBOUND:                -4.873
REMARK SMILES CCCCCCCCCCCCCCCCCCCCCCCCCCCCCC(=O)[O-]
REMARK SMILES IDX 16 1 17 2 18 3 19 4 20 5 21 6 22 7 23 8 24 9 25 10 26 11
REMARK SMILES IDX 27 12 28 13 29 14 30 15 31 16 32 17 15 18 14 19 13 20 12 21
REMARK SMILES IDX 11 22 10 23 9 24 8 25 7 26 6 27 5 28 4 29 3 30 2 31 1 32
REMARK H PARENT
REMARK Flexibility Score: inf
ROOT
ATOM      1  C   UNL     1      21.709  23.429  18.677  1.00  0.00     0.000 C 
ENDROOT
BRANCH   1   2
ATOM      2  C   UNL     1      20.864  22.747  17.590  1.00  0.00     0.000 C 
BRANCH   2   3
ATOM      3  C   UNL     1      19.389  23.160  17.703  1.00  0.00     0.000 C 
BRANCH   3   4
ATOM      4  C   UNL     1      18.445  22.187  16.978  1.00  0.00     0.000 C 
BRANCH   4   5
ATOM      5  C   UNL     1      18.409  20.795  17.635  1.00  0.00     0.000 C 
BRANCH   5   6
ATOM      6  C   UNL     1      17.027  20.129  17.520  1.00  0.00     0.000 C 
BRANCH   6   7
ATOM      7  C   UNL     1      17.084  18.614  17.787  1.00  0.00     0.000 C 
BRANCH   7   8
ATOM      8  C   UNL     1      18.442  17.997  17.420  1.00  0.00     0.000 C 
BRANCH   8   9
ATOM      9  C   UNL     1      18.700  16.668  18.151  1.00  0.00     0.000 C 
BRANCH   9  10
ATOM     10  C   UNL     1      19.993  15.967  17.695  1.00  0.00     0.000 C 
BRANCH  10  11
ATOM     11  C   UNL     1      21.049  15.757  18.798  1.00  0.00     0.000 C 
BRANCH  11  12
ATOM     12  C   UNL     1      22.475  15.611  18.246  1.00  0.00     0.000 C 
BRANCH  12  13
ATOM     13  C   UNL     1      23.517  15.752  19.362  1.00  0.00     0.006 C 
BRANCH  13  14
ATOM     14  C   UNL     1      23.194  16.946  20.265  1.00  0.00     0.053 C 
BRANCH  14  15
ATOM     15  C   UNL     1      24.407  17.795  20.477  1.00  0.00     0.041 C 
ATOM     16  O   UNL     1      24.869  18.483  19.531  1.00  0.00    -0.550 OA
ATOM     17  O   UNL     1      25.039  17.815  21.717  1.00  0.00    -0.550 OA
ENDBRANCH  14  15
ENDBRANCH  13  14
ENDBRANCH  12  13
ENDBRANCH  11  12
ENDBRANCH  10  11
ENDBRANCH   9  10
ENDBRANCH   8   9
ENDBRANCH   7   8
ENDBRANCH   6   7
ENDBRANCH   5   6
ENDBRANCH   4   5
ENDBRANCH   3   4
ENDBRANCH   2   3
ENDBRANCH   1   2
BRANCH   1  18
ATOM     18  C   UNL     1      22.435  22.419  19.581  1.00  0.00     0.000 C 
BRANCH  18  19
ATOM     19  C   UNL     1      21.573  21.969  20.773  1.00  0.00     0.000 C 
BRANCH  19  20
ATOM     20  C   UNL     1      21.236  23.127  21.727  1.00  0.00     0.000 C 
BRANCH  20  21
ATOM     21  C   UNL     1      19.861  23.781  21.494  1.00  0.00     0.000 C 
BRANCH  21  22
ATOM     22  C   UNL     1      18.677  22.959  22.047  1.00  0.00     0.000 C 
BRANCH  22  23
ATOM     23  C   UNL     1      17.974  22.135  20.954  1.00  0.00     0.000 C 
BRANCH  23  24
ATOM     24  C   UNL     1      16.942  21.154  21.535  1.00  0.00    -0.000 C 
BRANCH  24  25
ATOM     25  C   UNL     1      17.514  19.736  21.708  1.00  0.00    -0.000 C 
BRANCH  25  26
ATOM     26  C   UNL     1      18.832  19.532  20.941  1.00  0.00    -0.000 C 
BRANCH  26  27
ATOM     27  C   UNL     1      19.496  18.185  21.265  1.00  0.00    -0.000 C 
BRANCH  27  28
ATOM     28  C   UNL     1      18.447  17.102  21.549  1.00  0.00    -0.000 C 
BRANCH  28  29
ATOM     29  C   UNL     1      19.120  15.812  22.036  1.00  0.00    -0.000 C 
BRANCH  29  30
ATOM     30  C   UNL     1      20.085  16.089  23.193  1.00  0.00    -0.000 C 
BRANCH  30  31
ATOM     31  C   UNL     1      19.370  15.961  24.542  1.00  0.00    -0.003 C 
ATOM     32  C   UNL     1      19.565  17.211  25.393  1.00  0.00     0.004 C 
ENDBRANCH  30  31
ENDBRANCH  29  30
ENDBRANCH  28  29
ENDBRANCH  27  28
ENDBRANCH  26  27
ENDBRANCH  25  26
ENDBRANCH  24  25
ENDBRANCH  23  24
ENDBRANCH  22  23
ENDBRANCH  21  22
ENDBRANCH  20  21
ENDBRANCH  19  20
ENDBRANCH  18  19
ENDBRANCH   1  18
TORSDOF 28
ENDMDL
MODEL 4
REMARK VINA RESULT:    -3.925      1.567      5.008
REMARK INTER + INTRA:         -15.224
REMARK INTER:                 -10.912
REMARK INTRA:                  -4.312
REMARK UNBOUND:                -4.873
REMARK SMILES CCCCCCCCCCCCCCCCCCCCCCCCCCCCCC(=O)[O-]
REMARK SMILES IDX 16 1 17 2 18 3 19 4 20 5 21 6 22 7 23 8 24 9 25 10 26 11
REMARK SMILES IDX 27 12 28 13 29 14 30 15 31 16 32 17 15 18 14 19 13 20 12 21
REMARK SMILES IDX 11 22 10 23 9 24 8 25 7 26 6 27 5 28 4 29 3 30 2 31 1 32
REMARK H PARENT
REMARK Flexibility Score: inf
ROOT
ATOM      1  C   UNL     1      22.892  20.342  21.642  1.00  0.00     0.000 C 
ENDROOT
BRANCH   1   2
ATOM      2  C   UNL     1      23.555  19.409  20.615  1.00  0.00     0.000 C 
BRANCH   2   3
ATOM      3  C   UNL     1      24.297  18.261  21.316  1.00  0.00     0.000 C 
BRANCH   3   4
ATOM      4  C   UNL     1      25.606  17.881  20.604  1.00  0.00     0.000 C 
BRANCH   4   5
ATOM      5  C   UNL     1      25.387  17.475  19.136  1.00  0.00     0.000 C 
BRANCH   5   6
ATOM      6  C   UNL     1      24.976  16.000  18.991  1.00  0.00     0.000 C 
BRANCH   6   7
ATOM      7  C   UNL     1      24.358  15.697  17.614  1.00  0.00     0.000 C 
BRANCH   7   8
ATOM      8  C   UNL     1      22.876  15.302  17.703  1.00  0.00     0.000 C 
BRANCH   8   9
ATOM      9  C   UNL     1      22.390  15.172  19.158  1.00  0.00     0.000 C 
BRANCH   9  10
ATOM     10  C   UNL     1      21.364  16.251  19.552  1.00  0.00     0.000 C 
BRANCH  10  11
ATOM     11  C   UNL     1      20.529  15.934  20.807  1.00  0.00     0.000 C 
BRANCH  11  12
ATOM     12  C   UNL     1      21.241  16.311  22.115  1.00  0.00     0.000 C 
BRANCH  12  13
ATOM     13  C   UNL     1      20.868  15.344  23.246  1.00  0.00     0.006 C 
BRANCH  13  14
ATOM     14  C   UNL     1      19.360  15.370  23.513  1.00  0.00     0.053 C 
BRANCH  14  15
ATOM     15  C   UNL     1      19.007  16.478  24.453  1.00  0.00     0.041 C 
ATOM     16  O   UNL     1      17.890  17.051  24.363  1.00  0.00    -0.550 OA
ATOM     17  O   UNL     1      19.917  16.892  25.421  1.00  0.00    -0.550 OA
ENDBRANCH  14  15
ENDBRANCH  13  14
ENDBRANCH  12  13
ENDBRANCH  11  12
ENDBRANCH  10  11
ENDBRANCH   9  10
ENDBRANCH   8   9
ENDBRANCH   7   8
ENDBRANCH   6   7
ENDBRANCH   5   6
ENDBRANCH   4   5
ENDBRANCH   3   4
ENDBRANCH   2   3
ENDBRANCH   1   2
BRANCH   1  18
ATOM     18  C   UNL     1      21.840  21.265  21.007  1.00  0.00     0.000 C 
BRANCH  18  19
ATOM     19  C   UNL     1      22.448  22.229  19.974  1.00  0.00     0.000 C 
BRANCH  19  20
ATOM     20  C   UNL     1      21.562  22.391  18.727  1.00  0.00     0.000 C 
BRANCH  20  21
ATOM     21  C   UNL     1      21.475  23.826  18.174  1.00  0.00     0.000 C 
BRANCH  21  22
ATOM     22  C   UNL     1      20.686  24.797  19.079  1.00  0.00     0.000 C 
BRANCH  22  23
ATOM     23  C   UNL     1      19.329  24.217  19.517  1.00  0.00     0.000 C 
BRANCH  23  24
ATOM     24  C   UNL     1      19.142  24.255  21.043  1.00  0.00    -0.000 C 
BRANCH  24  25
ATOM     25  C   UNL     1      19.085  22.847  21.661  1.00  0.00    -0.000 C 
BRANCH  25  26
ATOM     26  C   UNL     1      18.114  22.762  22.851  1.00  0.00    -0.000 C 
BRANCH  26  27
ATOM     27  C   UNL     1      16.893  21.880  22.548  1.00  0.00    -0.000 C 
BRANCH  27  28
ATOM     28  C   UNL     1      17.113  21.040  21.283  1.00  0.00    -0.000 C 
BRANCH  28  29
ATOM     29  C   UNL     1      17.080  19.543  21.614  1.00  0.00    -0.000 C 
BRANCH  29  30
ATOM     30  C   UNL     1      18.446  18.888  21.377  1.00  0.00    -0.000 C 
BRANCH  30  31
ATOM     31  C   UNL     1      19.027  19.314  20.024  1.00  0.00    -0.003 C 
ATOM     32  C   UNL     1      18.439  18.488  18.885  1.00  0.00     0.004 C 
ENDBRANCH  30  31
ENDBRANCH  29  30
ENDBRANCH  28  29
ENDBRANCH  27  28
ENDBRANCH  26  27
ENDBRANCH  25  26
ENDBRANCH  24  25
ENDBRANCH  23  24
ENDBRANCH  22  23
ENDBRANCH  21  22
ENDBRANCH  20  21
ENDBRANCH  19  20
ENDBRANCH  18  19
ENDBRANCH   1  18
TORSDOF 28
ENDMDL
MODEL 5
REMARK VINA RESULT:    -3.894      1.633      3.423
REMARK INTER + INTRA:         -15.143
REMARK INTER:                 -10.354
REMARK INTRA:                  -4.789
REMARK UNBOUND:                -4.873
REMARK SMILES CCCCCCCCCCCCCCCCCCCCCCCCCCCCCC(=O)[O-]
REMARK SMILES IDX 16 1 17 2 18 3 19 4 20 5 21 6 22 7 23 8 24 9 25 10 26 11
REMARK SMILES IDX 27 12 28 13 29 14 30 15 31 16 32 17 15 18 14 19 13 20 12 21
REMARK SMILES IDX 11 22 10 23 9 24 8 25 7 26 6 27 5 28 4 29 3 30 2 31 1 32
REMARK H PARENT
REMARK Flexibility Score: inf
ROOT
ATOM      1  C   UNL     1      18.753  23.737  20.962  1.00  0.00     0.000 C 
ENDROOT
BRANCH   1   2
ATOM      2  C   UNL     1      19.075  23.490  22.445  1.00  0.00     0.000 C 
BRANCH   2   3
ATOM      3  C   UNL     1      17.973  22.654  23.114  1.00  0.00     0.000 C 
BRANCH   3   4
ATOM      4  C   UNL     1      17.045  21.975  22.094  1.00  0.00     0.000 C 
BRANCH   4   5
ATOM      5  C   UNL     1      17.486  20.540  21.753  1.00  0.00     0.000 C 
BRANCH   5   6
ATOM      6  C   UNL     1      17.272  20.199  20.268  1.00  0.00     0.000 C 
BRANCH   6   7
ATOM      7  C   UNL     1      18.425  20.700  19.380  1.00  0.00     0.000 C 
BRANCH   7   8
ATOM      8  C   UNL     1      18.483  19.983  18.022  1.00  0.00     0.000 C 
BRANCH   8   9
ATOM      9  C   UNL     1      17.217  19.156  17.741  1.00  0.00     0.000 C 
BRANCH   9  10
ATOM     10  C   UNL     1      17.463  17.637  17.790  1.00  0.00     0.000 C 
BRANCH  10  11
ATOM     11  C   UNL     1      18.860  17.214  18.283  1.00  0.00     0.000 C 
BRANCH  11  12
ATOM     12  C   UNL     1      18.813  16.130  19.370  1.00  0.00     0.000 C 
BRANCH  12  13
ATOM     13  C   UNL     1      18.504  16.738  20.744  1.00  0.00     0.006 C 
BRANCH  13  14
ATOM     14  C   UNL     1      19.716  17.497  21.292  1.00  0.00     0.053 C 
BRANCH  14  15
ATOM     15  C   UNL     1      20.261  16.817  22.509  1.00  0.00     0.041 C 
ATOM     16  O   UNL     1      19.812  17.105  23.648  1.00  0.00    -0.550 OA
ATOM     17  O   UNL     1      21.278  15.875  22.387  1.00  0.00    -0.550 OA
ENDBRANCH  14  15
ENDBRANCH  13  14
ENDBRANCH  12  13
ENDBRANCH  11  12
ENDBRANCH  10  11
ENDBRANCH   9  10
ENDBRANCH   8   9
ENDBRANCH   7   8
ENDBRANCH   6   7
ENDBRANCH   5   6
ENDBRANCH   4   5
ENDBRANCH   3   4
ENDBRANCH   2   3
ENDBRANCH   1   2
BRANCH   1  18
ATOM     18  C   UNL     1      19.721  24.734  20.307  1.00  0.00     0.000 C 
BRANCH  18  19
ATOM     19  C   UNL     1      19.741  24.615  18.772  1.00  0.00     0.000 C 
BRANCH  19  20
ATOM     20  C   UNL     1      21.082  24.084  18.240  1.00  0.00     0.000 C 
BRANCH  20  21
ATOM     21  C   UNL     1      21.437  22.653  18.687  1.00  0.00     0.000 C 
BRANCH  21  22
ATOM     22  C   UNL     1      22.559  22.590  19.746  1.00  0.00     0.000 C 
BRANCH  22  23
ATOM     23  C   UNL     1      22.058  22.058  21.100  1.00  0.00     0.000 C 
BRANCH  23  24
ATOM     24  C   UNL     1      21.743  20.553  21.057  1.00  0.00    -0.000 C 
BRANCH  24  25
ATOM     25  C   UNL     1      22.846  19.705  21.714  1.00  0.00    -0.000 C 
BRANCH  25  26
ATOM     26  C   UNL     1      23.979  19.347  20.736  1.00  0.00    -0.000 C 
BRANCH  26  27
ATOM     27  C   UNL     1      24.428  17.885  20.871  1.00  0.00    -0.000 C 
BRANCH  27  28
ATOM     28  C   UNL     1      25.350  17.477  19.715  1.00  0.00    -0.000 C 
BRANCH  28  29
ATOM     29  C   UNL     1      24.681  16.411  18.839  1.00  0.00    -0.000 C 
BRANCH  29  30
ATOM     30  C   UNL     1      23.530  15.721  19.581  1.00  0.00    -0.000 C 
BRANCH  30  31
ATOM     31  C   UNL     1      22.274  15.663  18.704  1.00  0.00    -0.003 C 
ATOM     32  C   UNL     1      22.628  15.378  17.248  1.00  0.00     0.004 C 
ENDBRANCH  30  31
ENDBRANCH  29  30
ENDBRANCH  28  29
ENDBRANCH  27  28
ENDBRANCH  26  27
ENDBRANCH  25  26
ENDBRANCH  24  25
ENDBRANCH  23  24
ENDBRANCH  22  23
ENDBRANCH  21  22
ENDBRANCH  20  21
ENDBRANCH  19  20
ENDBRANCH  18  19
ENDBRANCH   1  18
TORSDOF 28
ENDMDL
MODEL 6
REMARK VINA RESULT:    -3.872      2.502      6.656
REMARK INTER + INTRA:         -15.083
REMARK INTER:                 -10.294
REMARK INTRA:                  -4.788
REMARK UNBOUND:                -4.873
REMARK SMILES CCCCCCCCCCCCCCCCCCCCCCCCCCCCCC(=O)[O-]
REMARK SMILES IDX 16 1 17 2 18 3 19 4 20 5 21 6 22 7 23 8 24 9 25 10 26 11
REMARK SMILES IDX 27 12 28 13 29 14 30 15 31 16 32 17 15 18 14 19 13 20 12 21
REMARK SMILES IDX 11 22 10 23 9 24 8 25 7 26 6 27 5 28 4 29 3 30 2 31 1 32
REMARK H PARENT
REMARK Flexibility Score: inf
ROOT
ATOM      1  C   UNL     1      18.751  20.333  19.311  1.00  0.00     0.000 C 
ENDROOT
BRANCH   1   2
ATOM      2  C   UNL     1      18.469  20.604  20.798  1.00  0.00     0.000 C 
BRANCH   2   3
ATOM      3  C   UNL     1      17.867  22.003  20.996  1.00  0.00     0.000 C 
BRANCH   3   4
ATOM      4  C   UNL     1      18.600  22.815  22.075  1.00  0.00     0.000 C 
BRANCH   4   5
ATOM      5  C   UNL     1      19.516  23.901  21.482  1.00  0.00     0.000 C 
BRANCH   5   6
ATOM      6  C   UNL     1      19.363  24.027  19.957  1.00  0.00     0.000 C 
BRANCH   6   7
ATOM      7  C   UNL     1      20.721  24.108  19.237  1.00  0.00     0.000 C 
BRANCH   7   8
ATOM      8  C   UNL     1      21.312  22.724  18.926  1.00  0.00     0.000 C 
BRANCH   8   9
ATOM      9  C   UNL     1      22.494  22.371  19.845  1.00  0.00     0.000 C 
BRANCH   9  10
ATOM     10  C   UNL     1      22.072  21.578  21.096  1.00  0.00     0.000 C 
BRANCH  10  11
ATOM     11  C   UNL     1      22.863  20.280  21.347  1.00  0.00     0.000 C 
BRANCH  11  12
ATOM     12  C   UNL     1      21.959  19.063  21.598  1.00  0.00     0.000 C 
BRANCH  12  13
ATOM     13  C   UNL     1      22.649  17.763  21.166  1.00  0.00     0.006 C 
BRANCH  13  14
ATOM     14  C   UNL     1      24.167  17.864  21.343  1.00  0.00     0.053 C 
BRANCH  14  15
ATOM     15  C   UNL     1      24.868  17.655  20.038  1.00  0.00     0.041 C 
ATOM     16  O   UNL     1      24.435  16.805  19.217  1.00  0.00    -0.550 OA
ATOM     17  O   UNL     1      26.011  18.388  19.732  1.00  0.00    -0.550 OA
ENDBRANCH  14  15
ENDBRANCH  13  14
ENDBRANCH  12  13
ENDBRANCH  11  12
ENDBRANCH  10  11
ENDBRANCH   9  10
ENDBRANCH   8   9
ENDBRANCH   7   8
ENDBRANCH   6   7
ENDBRANCH   5   6
ENDBRANCH   4   5
ENDBRANCH   3   4
ENDBRANCH   2   3
ENDBRANCH   1   2
BRANCH   1  18
ATOM     18  C   UNL     1      17.469  20.060  18.508  1.00  0.00     0.000 C 
BRANCH  18  19
ATOM     19  C   UNL     1      17.230  18.558  18.272  1.00  0.00     0.000 C 
BRANCH  19  20
ATOM     20  C   UNL     1      17.974  18.031  17.034  1.00  0.00     0.000 C 
BRANCH  20  21
ATOM     21  C   UNL     1      18.116  16.498  16.967  1.00  0.00     0.000 C 
BRANCH  21  22
ATOM     22  C   UNL     1      19.569  15.999  17.123  1.00  0.00     0.000 C 
BRANCH  22  23
ATOM     23  C   UNL     1      20.193  16.423  18.465  1.00  0.00     0.000 C 
BRANCH  23  24
ATOM     24  C   UNL     1      19.810  15.474  19.613  1.00  0.00    -0.000 C 
BRANCH  24  25
ATOM     25  C   UNL     1      19.299  16.230  20.852  1.00  0.00    -0.000 C 
BRANCH  25  26
ATOM     26  C   UNL     1      17.799  16.002  21.106  1.00  0.00    -0.000 C 
BRANCH  26  27
ATOM     27  C   UNL     1      17.108  17.246  21.685  1.00  0.00    -0.000 C 
BRANCH  27  28
ATOM     28  C   UNL     1      17.560  17.513  23.127  1.00  0.00    -0.000 C 
BRANCH  28  29
ATOM     29  C   UNL     1      17.088  16.391  24.059  1.00  0.00    -0.000 C 
BRANCH  29  30
ATOM     30  C   UNL     1      18.261  15.773  24.828  1.00  0.00    -0.000 C 
BRANCH  30  31
ATOM     31  C   UNL     1      19.530  16.614  24.653  1.00  0.00    -0.003 C 
ATOM     32  C   UNL     1      19.802  17.469  25.886  1.00  0.00     0.004 C 
ENDBRANCH  30  31
ENDBRANCH  29  30
ENDBRANCH  28  29
ENDBRANCH  27  28
ENDBRANCH  26  27
ENDBRANCH  25  26
ENDBRANCH  24  25
ENDBRANCH  23  24
ENDBRANCH  22  23
ENDBRANCH  21  22
ENDBRANCH  20  21
ENDBRANCH  19  20
ENDBRANCH  18  19
ENDBRANCH   1  18
TORSDOF 28
ENDMDL
MODEL 7
REMARK VINA RESULT:    -3.869      1.260      2.662
REMARK INTER + INTRA:         -15.076
REMARK INTER:                 -10.385
REMARK INTRA:                  -4.691
REMARK UNBOUND:                -4.873
REMARK SMILES CCCCCCCCCCCCCCCCCCCCCCCCCCCCCC(=O)[O-]
REMARK SMILES IDX 16 1 17 2 18 3 19 4 20 5 21 6 22 7 23 8 24 9 25 10 26 11
REMARK SMILES IDX 27 12 28 13 29 14 30 15 31 16 32 17 15 18 14 19 13 20 12 21
REMARK SMILES IDX 11 22 10 23 9 24 8 25 7 26 6 27 5 28 4 29 3 30 2 31 1 32
REMARK H PARENT
REMARK Flexibility Score: inf
ROOT
ATOM      1  C   UNL     1      19.145  24.378  20.239  1.00  0.00     0.000 C 
ENDROOT
BRANCH   1   2
ATOM      2  C   UNL     1      19.542  24.062  21.690  1.00  0.00     0.000 C 
BRANCH   2   3
ATOM      3  C   UNL     1      19.131  22.632  22.073  1.00  0.00     0.000 C 
BRANCH   3   4
ATOM      4  C   UNL     1      17.642  22.355  21.812  1.00  0.00     0.000 C 
BRANCH   4   5
ATOM      5  C   UNL     1      17.419  21.204  20.814  1.00  0.00     0.000 C 
BRANCH   5   6
ATOM      6  C   UNL     1      18.741  20.629  20.277  1.00  0.00     0.000 C 
BRANCH   6   7
ATOM      7  C   UNL     1      18.660  20.274  18.781  1.00  0.00     0.000 C 
BRANCH   7   8
ATOM      8  C   UNL     1      17.968  18.926  18.528  1.00  0.00     0.000 C 
BRANCH   8   9
ATOM      9  C   UNL     1      18.853  17.729  18.920  1.00  0.00     0.000 C 
BRANCH   9  10
ATOM     10  C   UNL     1      18.185  16.795  19.947  1.00  0.00     0.000 C 
BRANCH  10  11
ATOM     11  C   UNL     1      17.474  17.504  21.115  1.00  0.00     0.000 C 
BRANCH  11  12
ATOM     12  C   UNL     1      18.159  17.269  22.469  1.00  0.00     0.000 C 
BRANCH  12  13
ATOM     13  C   UNL     1      19.070  16.036  22.422  1.00  0.00     0.006 C 
BRANCH  13  14
ATOM     14  C   UNL     1      19.921  15.934  23.691  1.00  0.00     0.053 C 
BRANCH  14  15
ATOM     15  C   UNL     1      19.151  16.406  24.884  1.00  0.00     0.041 C 
ATOM     16  O   UNL     1      18.123  15.785  25.258  1.00  0.00    -0.550 OA
ATOM     17  O   UNL     1      19.560  17.542  25.576  1.00  0.00    -0.550 OA
ENDBRANCH  14  15
ENDBRANCH  13  14
ENDBRANCH  12  13
ENDBRANCH  11  12
ENDBRANCH  10  11
ENDBRANCH   9  10
ENDBRANCH   8   9
ENDBRANCH   7   8
ENDBRANCH   6   7
ENDBRANCH   5   6
ENDBRANCH   4   5
ENDBRANCH   3   4
ENDBRANCH   2   3
ENDBRANCH   1   2
BRANCH   1  18
ATOM     18  C   UNL     1      20.293  25.013  19.438  1.00  0.00     0.000 C 
BRANCH  18  19
ATOM     19  C   UNL     1      20.299  24.569  17.964  1.00  0.00     0.000 C 
BRANCH  19  20
ATOM     20  C   UNL     1      21.469  23.625  17.639  1.00  0.00     0.000 C 
BRANCH  20  21
ATOM     21  C   UNL     1      21.584  22.394  18.558  1.00  0.00     0.000 C 
BRANCH  21  22
ATOM     22  C   UNL     1      22.496  22.614  19.784  1.00  0.00     0.000 C 
BRANCH  22  23
ATOM     23  C   UNL     1      22.185  21.634  20.930  1.00  0.00     0.000 C 
BRANCH  23  24
ATOM     24  C   UNL     1      23.092  20.393  20.902  1.00  0.00    -0.000 C 
BRANCH  24  25
ATOM     25  C   UNL     1      22.631  19.308  21.891  1.00  0.00    -0.000 C 
BRANCH  25  26
ATOM     26  C   UNL     1      21.754  18.234  21.225  1.00  0.00    -0.000 C 
BRANCH  26  27
ATOM     27  C   UNL     1      22.444  16.863  21.178  1.00  0.00    -0.000 C 
BRANCH  27  28
ATOM     28  C   UNL     1      21.909  16.010  20.019  1.00  0.00    -0.000 C 
BRANCH  28  29
ATOM     29  C   UNL     1      22.902  16.004  18.850  1.00  0.00    -0.000 C 
BRANCH  29  30
ATOM     30  C   UNL     1      24.350  15.937  19.347  1.00  0.00    -0.000 C 
BRANCH  30  31
ATOM     31  C   UNL     1      25.143  17.164  18.883  1.00  0.00    -0.003 C 
ATOM     32  C   UNL     1      25.720  17.931  20.068  1.00  0.00     0.004 C 
ENDBRANCH  30  31
ENDBRANCH  29  30
ENDBRANCH  28  29
ENDBRANCH  27  28
ENDBRANCH  26  27
ENDBRANCH  25  26
ENDBRANCH  24  25
ENDBRANCH  23  24
ENDBRANCH  22  23
ENDBRANCH  21  22
ENDBRANCH  20  21
ENDBRANCH  19  20
ENDBRANCH  18  19
ENDBRANCH   1  18
TORSDOF 28
ENDMDL
MODEL 8
REMARK VINA RESULT:    -3.851      3.107      6.697
REMARK INTER + INTRA:         -15.028
REMARK INTER:                 -10.428
REMARK INTRA:                  -4.600
REMARK UNBOUND:                -4.873
REMARK SMILES CCCCCCCCCCCCCCCCCCCCCCCCCCCCCC(=O)[O-]
REMARK SMILES IDX 16 1 17 2 18 3 19 4 20 5 21 6 22 7 23 8 24 9 25 10 26 11
REMARK SMILES IDX 27 12 28 13 29 14 30 15 31 16 32 17 15 18 14 19 13 20 12 21
REMARK SMILES IDX 11 22 10 23 9 24 8 25 7 26 6 27 5 28 4 29 3 30 2 31 1 32
REMARK H PARENT
REMARK Flexibility Score: inf
ROOT
ATOM      1  C   UNL     1      21.436  22.792  20.346  1.00  0.00     0.000 C 
ENDROOT
BRANCH   1   2
ATOM      2  C   UNL     1      21.017  23.237  21.756  1.00  0.00     0.000 C 
BRANCH   2   3
ATOM      3  C   UNL     1      19.582  23.788  21.754  1.00  0.00     0.000 C 
BRANCH   3   4
ATOM      4  C   UNL     1      18.582  22.828  21.090  1.00  0.00     0.000 C 
BRANCH   4   5
ATOM      5  C   UNL     1      17.793  21.991  22.114  1.00  0.00     0.000 C 
BRANCH   5   6
ATOM      6  C   UNL     1      16.903  20.932  21.443  1.00  0.00     0.000 C 
BRANCH   6   7
ATOM      7  C   UNL     1      17.318  19.497  21.817  1.00  0.00     0.000 C 
BRANCH   7   8
ATOM      8  C   UNL     1      18.671  19.093  21.211  1.00  0.00     0.000 C 
BRANCH   8   9
ATOM      9  C   UNL     1      18.543  18.629  19.750  1.00  0.00     0.000 C 
BRANCH   9  10
ATOM     10  C   UNL     1      18.721  19.773  18.734  1.00  0.00     0.000 C 
BRANCH  10  11
ATOM     11  C   UNL     1      17.450  20.160  17.953  1.00  0.00     0.000 C 
BRANCH  11  12
ATOM     12  C   UNL     1      17.427  21.637  17.534  1.00  0.00     0.000 C 
BRANCH  12  13
ATOM     13  C   UNL     1      18.821  22.113  17.106  1.00  0.00     0.006 C 
BRANCH  13  14
ATOM     14  C   UNL     1      19.020  23.595  17.438  1.00  0.00     0.053 C 
BRANCH  14  15
ATOM     15  C   UNL     1      20.471  23.957  17.399  1.00  0.00     0.041 C 
ATOM     16  O   UNL     1      21.304  23.174  16.875  1.00  0.00    -0.550 OA
ATOM     17  O   UNL     1      20.908  25.155  17.957  1.00  0.00    -0.550 OA
ENDBRANCH  14  15
ENDBRANCH  13  14
ENDBRANCH  12  13
ENDBRANCH  11  12
ENDBRANCH  10  11
ENDBRANCH   9  10
ENDBRANCH   8   9
ENDBRANCH   7   8
ENDBRANCH   6   7
ENDBRANCH   5   6
ENDBRANCH   4   5
ENDBRANCH   3   4
ENDBRANCH   2   3
ENDBRANCH   1   2
BRANCH   1  18
ATOM     18  C   UNL     1      22.430  21.620  20.369  1.00  0.00     0.000 C 
BRANCH  18  19
ATOM     19  C   UNL     1      21.837  20.356  21.017  1.00  0.00     0.000 C 
BRANCH  19  20
ATOM     20  C   UNL     1      22.904  19.493  21.710  1.00  0.00     0.000 C 
BRANCH  20  21
ATOM     21  C   UNL     1      24.062  19.039  20.801  1.00  0.00     0.000 C 
BRANCH  21  22
ATOM     22  C   UNL     1      24.323  17.518  20.836  1.00  0.00     0.000 C 
BRANCH  22  23
ATOM     23  C   UNL     1      24.760  16.966  19.467  1.00  0.00     0.000 C 
BRANCH  23  24
ATOM     24  C   UNL     1      23.661  16.126  18.796  1.00  0.00    -0.000 C 
BRANCH  24  25
ATOM     25  C   UNL     1      22.695  15.501  19.818  1.00  0.00    -0.000 C 
BRANCH  25  26
ATOM     26  C   UNL     1      21.241  15.958  19.613  1.00  0.00    -0.000 C 
BRANCH  26  27
ATOM     27  C   UNL     1      20.382  15.759  20.871  1.00  0.00    -0.000 C 
BRANCH  27  28
ATOM     28  C   UNL     1      21.164  16.115  22.141  1.00  0.00    -0.000 C 
BRANCH  28  29
ATOM     29  C   UNL     1      20.618  15.342  23.348  1.00  0.00    -0.000 C 
BRANCH  29  30
ATOM     30  C   UNL     1      19.110  15.563  23.515  1.00  0.00    -0.000 C 
BRANCH  30  31
ATOM     31  C   UNL     1      18.823  16.957  24.081  1.00  0.00    -0.003 C 
ATOM     32  C   UNL     1      19.500  17.158  25.432  1.00  0.00     0.004 C 
ENDBRANCH  30  31
ENDBRANCH  29  30
ENDBRANCH  28  29
ENDBRANCH  27  28
ENDBRANCH  26  27
ENDBRANCH  25  26
ENDBRANCH  24  25
ENDBRANCH  23  24
ENDBRANCH  22  23
ENDBRANCH  21  22
ENDBRANCH  20  21
ENDBRANCH  19  20
ENDBRANCH  18  19
ENDBRANCH   1  18
TORSDOF 28
ENDMDL
MODEL 9
REMARK VINA RESULT:    -3.755      2.879      6.120
REMARK INTER + INTRA:         -14.775
REMARK INTER:                 -10.310
REMARK INTRA:                  -4.465
REMARK UNBOUND:                -4.873
REMARK SMILES CCCCCCCCCCCCCCCCCCCCCCCCCCCCCC(=O)[O-]
REMARK SMILES IDX 16 1 17 2 18 3 19 4 20 5 21 6 22 7 23 8 24 9 25 10 26 11
REMARK SMILES IDX 27 12 28 13 29 14 30 15 31 16 32 17 15 18 14 19 13 20 12 21
REMARK SMILES IDX 11 22 10 23 9 24 8 25 7 26 6 27 5 28 4 29 3 30 2 31 1 32
REMARK H PARENT
REMARK Flexibility Score: inf
ROOT
ATOM      1  C   UNL     1      17.247  18.348  20.472  1.00  0.00     0.000 C 
ENDROOT
BRANCH   1   2
ATOM      2  C   UNL     1      17.061  16.947  21.076  1.00  0.00     0.000 C 
BRANCH   2   3
ATOM      3  C   UNL     1      16.896  17.024  22.601  1.00  0.00     0.000 C 
BRANCH   3   4
ATOM      4  C   UNL     1      18.153  17.559  23.306  1.00  0.00     0.000 C 
BRANCH   4   5
ATOM      5  C   UNL     1      18.570  16.697  24.512  1.00  0.00     0.000 C 
BRANCH   5   6
ATOM      6  C   UNL     1      20.001  16.150  24.373  1.00  0.00     0.000 C 
BRANCH   6   7
ATOM      7  C   UNL     1      20.144  15.179  23.186  1.00  0.00     0.000 C 
BRANCH   7   8
ATOM      8  C   UNL     1      21.307  15.551  22.253  1.00  0.00     0.000 C 
BRANCH   8   9
ATOM      9  C   UNL     1      20.876  16.518  21.136  1.00  0.00     0.000 C 
BRANCH   9  10
ATOM     10  C   UNL     1      21.680  17.832  21.132  1.00  0.00     0.000 C 
BRANCH  10  11
ATOM     11  C   UNL     1      23.185  17.681  21.424  1.00  0.00     0.000 C 
BRANCH  11  12
ATOM     12  C   UNL     1      24.013  18.889  20.960  1.00  0.00     0.000 C 
BRANCH  12  13
ATOM     13  C   UNL     1      24.989  18.496  19.845  1.00  0.00     0.006 C 
BRANCH  13  14
ATOM     14  C   UNL     1      25.418  17.032  19.984  1.00  0.00     0.053 C 
BRANCH  14  15
ATOM     15  C   UNL     1      25.884  16.489  18.670  1.00  0.00     0.041 C 
ATOM     16  O   UNL     1      27.007  15.929  18.581  1.00  0.00    -0.550 OA
ATOM     17  O   UNL     1      25.083  16.613  17.538  1.00  0.00    -0.550 OA
ENDBRANCH  14  15
ENDBRANCH  13  14
ENDBRANCH  12  13
ENDBRANCH  11  12
ENDBRANCH  10  11
ENDBRANCH   9  10
ENDBRANCH   8   9
ENDBRANCH   7   8
ENDBRANCH   6   7
ENDBRANCH   5   6
ENDBRANCH   4   5
ENDBRANCH   3   4
ENDBRANCH   2   3
ENDBRANCH   1   2
BRANCH   1  18
ATOM     18  C   UNL     1      18.456  18.428  19.527  1.00  0.00     0.000 C 
BRANCH  18  19
ATOM     19  C   UNL     1      18.081  18.968  18.135  1.00  0.00     0.000 C 
BRANCH  19  20
ATOM     20  C   UNL     1      16.946  20.004  18.191  1.00  0.00     0.000 C 
BRANCH  20  21
ATOM     21  C   UNL     1      17.332  21.416  17.710  1.00  0.00     0.000 C 
BRANCH  21  22
ATOM     22  C   UNL     1      18.850  21.615  17.515  1.00  0.00     0.000 C 
BRANCH  22  23
ATOM     23  C   UNL     1      19.188  22.984  16.898  1.00  0.00     0.000 C 
BRANCH  23  24
ATOM     24  C   UNL     1      20.631  23.422  17.199  1.00  0.00    -0.000 C 
BRANCH  24  25
ATOM     25  C   UNL     1      20.692  24.595  18.192  1.00  0.00    -0.000 C 
BRANCH  25  26
ATOM     26  C   UNL     1      19.502  24.607  19.167  1.00  0.00    -0.000 C 
BRANCH  26  27
ATOM     27  C   UNL     1      19.912  25.028  20.586  1.00  0.00    -0.000 C 
BRANCH  27  28
ATOM     28  C   UNL     1      20.067  23.810  21.506  1.00  0.00    -0.000 C 
BRANCH  28  29
ATOM     29  C   UNL     1      19.481  22.556  20.846  1.00  0.00    -0.000 C 
BRANCH  29  30
ATOM     30  C   UNL     1      20.516  21.427  20.776  1.00  0.00    -0.000 C 
BRANCH  30  31
ATOM     31  C   UNL     1      21.932  21.972  20.988  1.00  0.00    -0.003 C 
ATOM     32  C   UNL     1      22.725  21.975  19.685  1.00  0.00     0.004 C 
ENDBRANCH  30  31
ENDBRANCH  29  30
ENDBRANCH  28  29
ENDBRANCH  27  28
ENDBRANCH  26  27
ENDBRANCH  25  26
ENDBRANCH  24  25
ENDBRANCH  23  24
ENDBRANCH  22  23
ENDBRANCH  21  22
ENDBRANCH  20  21
ENDBRANCH  19  20
ENDBRANCH  18  19
ENDBRANCH   1  18
TORSDOF 28
ENDMDL
