MODEL 1
REMARK VINA RESULT:    -7.075      0.000      0.000
REMARK INTER + INTRA:          -8.936
REMARK INTER:                  -8.523
REMARK INTRA:                  -0.413
REMARK UNBOUND:                -0.413
REMARK SMILES O=c1c(O)c(-c2ccc(O)cc2O)oc2cc(O)cc(O)c12
REMARK SMILES IDX 5 1 3 2 2 3 1 4 22 5 20 6 19 7 17 8 16 9 15 10 14 11 6 12
REMARK SMILES IDX 8 13 7 14 9 15 11 16 12 17 10 18 13 20 4 22 21 24 18 26
REMARK H PARENT 10 19 13 21 4 23 21 25 18 27
REMARK Flexibility Score: inf
ROOT
ATOM      1  C   UNL     1     -22.442  -0.430 -49.629  1.00  0.00     0.184 A 
ATOM      2  C   UNL     1     -23.744  -0.929 -49.805  1.00  0.00     0.208 A 
ATOM      3  C   UNL     1     -23.974  -2.301 -49.622  1.00  0.00     0.238 A 
ATOM      4  O   UNL     1     -25.136  -2.764 -49.787  1.00  0.00    -0.285 OA
ATOM      5  C   UNL     1     -22.904  -3.142 -49.248  1.00  0.00     0.111 A 
ATOM      6  C   UNL     1     -23.050  -4.535 -49.040  1.00  0.00     0.134 A 
ATOM      7  C   UNL     1     -21.940  -5.303 -48.661  1.00  0.00     0.093 A 
ATOM      8  C   UNL     1     -20.688  -4.706 -48.485  1.00  0.00     0.123 A 
ATOM      9  C   UNL     1     -20.537  -3.331 -48.689  1.00  0.00     0.094 A 
ATOM     10  C   UNL     1     -21.631  -2.550 -49.070  1.00  0.00     0.146 A 
ATOM     11  O   UNL     1     -21.460  -1.247 -49.262  1.00  0.00    -0.451 OA
ENDROOT
BRANCH   1  12
ATOM     12  C   UNL     1     -22.129   1.003 -49.818  1.00  0.00     0.063 A 
ATOM     13  C   UNL     1     -21.755   2.865 -51.336  1.00  0.00     0.047 A 
ATOM     14  C   UNL     1     -22.044   1.514 -51.122  1.00  0.00     0.020 A 
ATOM     15  C   UNL     1     -21.561   3.723 -50.246  1.00  0.00     0.119 A 
ATOM     16  C   UNL     1     -21.667   3.227 -48.944  1.00  0.00     0.093 A 
ATOM     17  C   UNL     1     -21.963   1.874 -48.721  1.00  0.00     0.130 A 
BRANCH  15  18
ATOM     18  O   UNL     1     -21.269   5.071 -50.448  1.00  0.00    -0.508 OA
ATOM     19  H   UNL     1     -20.744   5.606 -49.767  1.00  0.00     0.293 HD
ENDBRANCH  15  18
BRANCH  17  20
ATOM     20  O   UNL     1     -22.113   1.402 -47.417  1.00  0.00    -0.507 OA
ATOM     21  H   UNL     1     -21.697   1.882 -46.627  1.00  0.00     0.293 HD
ENDBRANCH  17  20
ENDBRANCH   1  12
BRANCH   2  22
ATOM     22  O   UNL     1     -24.790  -0.063 -50.131  1.00  0.00    -0.502 OA
ATOM     23  H   UNL     1     -24.831   0.889 -49.787  1.00  0.00     0.293 HD
ENDBRANCH   2  22
BRANCH   6  24
ATOM     24  O   UNL     1     -24.287  -5.160 -49.207  1.00  0.00    -0.507 OA
ATOM     25  H   UNL     1     -24.841  -5.465 -48.415  1.00  0.00     0.293 HD
ENDBRANCH   6  24
BRANCH   8  26
ATOM     26  O   UNL     1     -19.601  -5.492 -48.106  1.00  0.00    -0.508 OA
ATOM     27  H   UNL     1     -19.202  -5.430 -47.177  1.00  0.00     0.293 HD
ENDBRANCH   8  26
TORSDOF 6
ENDMDL
MODEL 2
REMARK VINA RESULT:    -6.987      6.029      9.795
REMARK INTER + INTRA:          -8.830
REMARK INTER:                  -8.548
REMARK INTRA:                  -0.282
REMARK UNBOUND:                -0.413
REMARK SMILES O=c1c(O)c(-c2ccc(O)cc2O)oc2cc(O)cc(O)c12
REMARK SMILES IDX 5 1 3 2 2 3 1 4 22 5 20 6 19 7 17 8 16 9 15 10 14 11 6 12
REMARK SMILES IDX 8 13 7 14 9 15 11 16 12 17 10 18 13 20 4 22 21 24 18 26
REMARK H PARENT 10 19 13 21 4 23 21 25 18 27
REMARK Flexibility Score: inf
ROOT
ATOM      1  C   UNL     1     -17.179  -4.026 -44.371  1.00  0.00     0.184 A 
ATOM      2  C   UNL     1     -18.446  -3.935 -44.973  1.00  0.00     0.208 A 
ATOM      3  C   UNL     1     -18.778  -2.769 -45.680  1.00  0.00     0.238 A 
ATOM      4  O   UNL     1     -19.916  -2.669 -46.216  1.00  0.00    -0.285 OA
ATOM      5  C   UNL     1     -17.832  -1.727 -45.788  1.00  0.00     0.111 A 
ATOM      6  C   UNL     1     -18.085  -0.521 -46.485  1.00  0.00     0.134 A 
ATOM      7  C   UNL     1     -17.089   0.464 -46.555  1.00  0.00     0.093 A 
ATOM      8  C   UNL     1     -15.847   0.267 -45.944  1.00  0.00     0.123 A 
ATOM      9  C   UNL     1     -15.592  -0.922 -45.254  1.00  0.00     0.094 A 
ATOM     10  C   UNL     1     -16.572  -1.915 -45.171  1.00  0.00     0.146 A 
ATOM     11  O   UNL     1     -16.306  -3.033 -44.505  1.00  0.00    -0.451 OA
ENDROOT
BRANCH   1  12
ATOM     12  C   UNL     1     -16.769  -5.221 -43.603  1.00  0.00     0.063 A 
ATOM     13  C   UNL     1     -15.265  -7.114 -43.353  1.00  0.00     0.047 A 
ATOM     14  C   UNL     1     -15.682  -5.982 -44.057  1.00  0.00     0.020 A 
ATOM     15  C   UNL     1     -15.923  -7.491 -42.175  1.00  0.00     0.119 A 
ATOM     16  C   UNL     1     -16.993  -6.725 -41.703  1.00  0.00     0.093 A 
ATOM     17  C   UNL     1     -17.413  -5.584 -42.401  1.00  0.00     0.130 A 
BRANCH  15  18
ATOM     18  O   UNL     1     -15.519  -8.620 -41.467  1.00  0.00    -0.508 OA
ATOM     19  H   UNL     1     -14.856  -8.557 -40.703  1.00  0.00     0.293 HD
ENDBRANCH  15  18
BRANCH  17  20
ATOM     20  O   UNL     1     -18.450  -4.801 -41.893  1.00  0.00    -0.507 OA
ATOM     21  H   UNL     1     -18.373  -4.334 -40.997  1.00  0.00     0.293 HD
ENDBRANCH  17  20
ENDBRANCH   1  12
BRANCH   2  22
ATOM     22  O   UNL     1     -19.343  -5.002 -44.886  1.00  0.00    -0.502 OA
ATOM     23  H   UNL     1     -19.980  -5.112 -44.106  1.00  0.00     0.293 HD
ENDBRANCH   2  22
BRANCH   6  24
ATOM     24  O   UNL     1     -19.314  -0.294 -47.106  1.00  0.00    -0.507 OA
ATOM     25  H   UNL     1     -20.077   0.168 -46.625  1.00  0.00     0.293 HD
ENDBRANCH   6  24
BRANCH   8  26
ATOM     26  O   UNL     1     -14.875   1.262 -46.030  1.00  0.00    -0.508 OA
ATOM     27  H   UNL     1     -14.709   1.766 -46.893  1.00  0.00     0.293 HD
ENDBRANCH   8  26
TORSDOF 6
ENDMDL
MODEL 3
REMARK VINA RESULT:    -6.968      6.179     10.100
REMARK INTER + INTRA:          -8.807
REMARK INTER:                  -8.473
REMARK INTRA:                  -0.334
REMARK UNBOUND:                -0.413
REMARK SMILES O=c1c(O)c(-c2ccc(O)cc2O)oc2cc(O)cc(O)c12
REMARK SMILES IDX 5 1 3 2 2 3 1 4 22 5 20 6 19 7 17 8 16 9 15 10 14 11 6 12
REMARK SMILES IDX 8 13 7 14 9 15 11 16 12 17 10 18 13 20 4 22 21 24 18 26
REMARK H PARENT 10 19 13 21 4 23 21 25 18 27
REMARK Flexibility Score: inf
ROOT
ATOM      1  C   UNL     1     -17.175  -3.755 -43.797  1.00  0.00     0.184 A 
ATOM      2  C   UNL     1     -16.245  -2.751 -44.120  1.00  0.00     0.208 A 
ATOM      3  C   UNL     1     -16.708  -1.558 -44.694  1.00  0.00     0.238 A 
ATOM      4  O   UNL     1     -15.883  -0.653 -44.999  1.00  0.00    -0.285 OA
ATOM      5  C   UNL     1     -18.091  -1.382 -44.916  1.00  0.00     0.111 A 
ATOM      6  C   UNL     1     -18.641  -0.209 -45.487  1.00  0.00     0.134 A 
ATOM      7  C   UNL     1     -20.027  -0.107 -45.667  1.00  0.00     0.093 A 
ATOM      8  C   UNL     1     -20.874  -1.152 -45.288  1.00  0.00     0.123 A 
ATOM      9  C   UNL     1     -20.337  -2.314 -44.724  1.00  0.00     0.094 A 
ATOM     10  C   UNL     1     -18.957  -2.436 -44.538  1.00  0.00     0.146 A 
ATOM     11  O   UNL     1     -18.472  -3.551 -44.005  1.00  0.00    -0.451 OA
ENDROOT
BRANCH   1  12
ATOM     12  C   UNL     1     -16.754  -5.040 -43.201  1.00  0.00     0.063 A 
ATOM     13  C   UNL     1     -15.437  -7.077 -43.373  1.00  0.00     0.047 A 
ATOM     14  C   UNL     1     -15.861  -5.858 -43.909  1.00  0.00     0.020 A 
ATOM     15  C   UNL     1     -15.893  -7.486 -42.113  1.00  0.00     0.119 A 
ATOM     16  C   UNL     1     -16.764  -6.666 -41.390  1.00  0.00     0.093 A 
ATOM     17  C   UNL     1     -17.188  -5.438 -41.919  1.00  0.00     0.130 A 
BRANCH  15  18
ATOM     18  O   UNL     1     -15.480  -8.701 -41.570  1.00  0.00    -0.508 OA
ATOM     19  H   UNL     1     -16.028  -9.546 -41.685  1.00  0.00     0.293 HD
ENDBRANCH  15  18
BRANCH  17  20
ATOM     20  O   UNL     1     -18.019  -4.608 -41.167  1.00  0.00    -0.507 OA
ATOM     21  H   UNL     1     -18.782  -4.981 -40.613  1.00  0.00     0.293 HD
ENDBRANCH  17  20
ENDBRANCH   1  12
BRANCH   2  22
ATOM     22  O   UNL     1     -14.888  -2.938 -43.846  1.00  0.00    -0.502 OA
ATOM     23  H   UNL     1     -14.492  -2.767 -42.929  1.00  0.00     0.293 HD
ENDBRANCH   2  22
BRANCH   6  24
ATOM     24  O   UNL     1     -17.822   0.853 -45.875  1.00  0.00    -0.507 OA
ATOM     25  H   UNL     1     -16.875   0.950 -45.526  1.00  0.00     0.293 HD
ENDBRANCH   6  24
BRANCH   8  26
ATOM     26  O   UNL     1     -22.249  -1.024 -45.476  1.00  0.00    -0.508 OA
ATOM     27  H   UNL     1     -22.892  -1.012 -44.693  1.00  0.00     0.293 HD
ENDBRANCH   8  26
TORSDOF 6
ENDMDL
MODEL 4
REMARK VINA RESULT:    -6.953      6.672     10.299
REMARK INTER + INTRA:          -8.789
REMARK INTER:                  -8.576
REMARK INTRA:                  -0.213
REMARK UNBOUND:                -0.413
REMARK SMILES O=c1c(O)c(-c2ccc(O)cc2O)oc2cc(O)cc(O)c12
REMARK SMILES IDX 5 1 3 2 2 3 1 4 22 5 20 6 19 7 17 8 16 9 15 10 14 11 6 12
REMARK SMILES IDX 8 13 7 14 9 15 11 16 12 17 10 18 13 20 4 22 21 24 18 26
REMARK H PARENT 10 19 13 21 4 23 21 25 18 27
REMARK Flexibility Score: inf
ROOT
ATOM      1  C   UNL     1     -17.577  -3.826 -43.062  1.00  0.00     0.184 A 
ATOM      2  C   UNL     1     -18.936  -3.546 -42.840  1.00  0.00     0.208 A 
ATOM      3  C   UNL     1     -19.444  -2.299 -43.235  1.00  0.00     0.238 A 
ATOM      4  O   UNL     1     -20.660  -2.031 -43.032  1.00  0.00    -0.285 OA
ATOM      5  C   UNL     1     -18.591  -1.366 -43.862  1.00  0.00     0.111 A 
ATOM      6  C   UNL     1     -19.024  -0.089 -44.295  1.00  0.00     0.134 A 
ATOM      7  C   UNL     1     -18.116   0.779 -44.918  1.00  0.00     0.093 A 
ATOM      8  C   UNL     1     -16.787   0.396 -45.119  1.00  0.00     0.123 A 
ATOM      9  C   UNL     1     -16.353  -0.864 -44.694  1.00  0.00     0.094 A 
ATOM     10  C   UNL     1     -17.242  -1.742 -44.068  1.00  0.00     0.146 A 
ATOM     11  O   UNL     1     -16.803  -2.931 -43.669  1.00  0.00    -0.451 OA
ENDROOT
BRANCH   1  12
ATOM     12  C   UNL     1     -16.974  -5.115 -42.660  1.00  0.00     0.063 A 
ATOM     13  C   UNL     1     -16.625  -6.797 -40.940  1.00  0.00     0.047 A 
ATOM     14  C   UNL     1     -17.175  -5.580 -41.352  1.00  0.00     0.020 A 
ATOM     15  C   UNL     1     -15.877  -7.570 -41.837  1.00  0.00     0.119 A 
ATOM     16  C   UNL     1     -15.692  -7.125 -43.149  1.00  0.00     0.093 A 
ATOM     17  C   UNL     1     -16.247  -5.908 -43.572  1.00  0.00     0.130 A 
BRANCH  15  18
ATOM     18  O   UNL     1     -15.321  -8.782 -41.436  1.00  0.00    -0.508 OA
ATOM     19  H   UNL     1     -15.835  -9.436 -40.858  1.00  0.00     0.293 HD
ENDBRANCH  15  18
BRANCH  17  20
ATOM     20  O   UNL     1     -16.096  -5.499 -44.897  1.00  0.00    -0.507 OA
ATOM     21  H   UNL     1     -15.718  -6.119 -45.605  1.00  0.00     0.293 HD
ENDBRANCH  17  20
ENDBRANCH   1  12
BRANCH   2  22
ATOM     22  O   UNL     1     -19.765  -4.508 -42.258  1.00  0.00    -0.502 OA
ATOM     23  H   UNL     1     -19.428  -5.428 -41.999  1.00  0.00     0.293 HD
ENDBRANCH   2  22
BRANCH   6  24
ATOM     24  O   UNL     1     -20.345   0.322 -44.110  1.00  0.00    -0.507 OA
ATOM     25  H   UNL     1     -21.104  -0.060 -44.662  1.00  0.00     0.293 HD
ENDBRANCH   6  24
BRANCH   8  26
ATOM     26  O   UNL     1     -15.906   1.277 -45.742  1.00  0.00    -0.508 OA
ATOM     27  H   UNL     1     -16.226   1.943 -46.436  1.00  0.00     0.293 HD
ENDBRANCH   8  26
TORSDOF 6
ENDMDL
MODEL 5
REMARK VINA RESULT:    -6.950      2.418      6.561
REMARK INTER + INTRA:          -8.785
REMARK INTER:                  -8.377
REMARK INTRA:                  -0.408
REMARK UNBOUND:                -0.413
REMARK SMILES O=c1c(O)c(-c2ccc(O)cc2O)oc2cc(O)cc(O)c12
REMARK SMILES IDX 5 1 3 2 2 3 1 4 22 5 20 6 19 7 17 8 16 9 15 10 14 11 6 12
REMARK SMILES IDX 8 13 7 14 9 15 11 16 12 17 10 18 13 20 4 22 21 24 18 26
REMARK H PARENT 10 19 13 21 4 23 21 25 18 27
REMARK Flexibility Score: inf
ROOT
ATOM      1  C   UNL     1     -21.292  -2.722 -49.947  1.00  0.00     0.184 A 
ATOM      2  C   UNL     1     -20.761  -1.568 -50.550  1.00  0.00     0.208 A 
ATOM      3  C   UNL     1     -21.563  -0.420 -50.637  1.00  0.00     0.238 A 
ATOM      4  O   UNL     1     -21.103   0.619 -51.185  1.00  0.00    -0.285 OA
ATOM      5  C   UNL     1     -22.870  -0.441 -50.104  1.00  0.00     0.111 A 
ATOM      6  C   UNL     1     -23.742   0.674 -50.148  1.00  0.00     0.134 A 
ATOM      7  C   UNL     1     -25.024   0.577 -49.588  1.00  0.00     0.093 A 
ATOM      8  C   UNL     1     -25.450  -0.610 -48.986  1.00  0.00     0.123 A 
ATOM      9  C   UNL     1     -24.594  -1.714 -48.940  1.00  0.00     0.094 A 
ATOM     10  C   UNL     1     -23.313  -1.638 -49.494  1.00  0.00     0.146 A 
ATOM     11  O   UNL     1     -22.521  -2.703 -49.442  1.00  0.00    -0.451 OA
ENDROOT
BRANCH   1  12
ATOM     12  C   UNL     1     -20.506  -3.969 -49.833  1.00  0.00     0.063 A 
ATOM     13  C   UNL     1     -19.767  -6.058 -50.833  1.00  0.00     0.047 A 
ATOM     14  C   UNL     1     -20.504  -4.872 -50.906  1.00  0.00     0.020 A 
ATOM     15  C   UNL     1     -19.012  -6.346 -49.690  1.00  0.00     0.119 A 
ATOM     16  C   UNL     1     -18.989  -5.440 -48.626  1.00  0.00     0.093 A 
ATOM     17  C   UNL     1     -19.720  -4.245 -48.694  1.00  0.00     0.130 A 
BRANCH  15  18
ATOM     18  O   UNL     1     -18.277  -7.527 -49.605  1.00  0.00    -0.508 OA
ATOM     19  H   UNL     1     -17.457  -7.683 -50.179  1.00  0.00     0.293 HD
ENDBRANCH  15  18
BRANCH  17  20
ATOM     20  O   UNL     1     -19.650  -3.328 -47.646  1.00  0.00    -0.507 OA
ATOM     21  H   UNL     1     -20.442  -3.155 -47.037  1.00  0.00     0.293 HD
ENDBRANCH  17  20
ENDBRANCH   1  12
BRANCH   2  22
ATOM     22  O   UNL     1     -19.449  -1.565 -51.027  1.00  0.00    -0.502 OA
ATOM     23  H   UNL     1     -18.872  -2.399 -51.030  1.00  0.00     0.293 HD
ENDBRANCH   2  22
BRANCH   6  24
ATOM     24  O   UNL     1     -23.345   1.874 -50.742  1.00  0.00    -0.507 OA
ATOM     25  H   UNL     1     -23.845   2.740 -50.579  1.00  0.00     0.293 HD
ENDBRANCH   6  24
BRANCH   8  26
ATOM     26  O   UNL     1     -26.729  -0.679 -48.436  1.00  0.00    -0.508 OA
ATOM     27  H   UNL     1     -27.554  -0.740 -49.021  1.00  0.00     0.293 HD
ENDBRANCH   8  26
TORSDOF 6
ENDMDL
MODEL 6
REMARK VINA RESULT:    -6.778      3.093      5.088
REMARK INTER + INTRA:          -8.578
REMARK INTER:                  -8.233
REMARK INTRA:                  -0.345
REMARK UNBOUND:                -0.413
REMARK SMILES O=c1c(O)c(-c2ccc(O)cc2O)oc2cc(O)cc(O)c12
REMARK SMILES IDX 5 1 3 2 2 3 1 4 22 5 20 6 19 7 17 8 16 9 15 10 14 11 6 12
REMARK SMILES IDX 8 13 7 14 9 15 11 16 12 17 10 18 13 20 4 22 21 24 18 26
REMARK H PARENT 10 19 13 21 4 23 21 25 18 27
REMARK Flexibility Score: inf
ROOT
ATOM      1  C   UNL     1     -22.045  -0.643 -49.824  1.00  0.00     0.184 A 
ATOM      2  C   UNL     1     -21.573  -1.369 -50.932  1.00  0.00     0.208 A 
ATOM      3  C   UNL     1     -20.189  -1.455 -51.145  1.00  0.00     0.238 A 
ATOM      4  O   UNL     1     -19.753  -2.094 -52.142  1.00  0.00    -0.285 OA
ATOM      5  C   UNL     1     -19.304  -0.833 -50.239  1.00  0.00     0.111 A 
ATOM      6  C   UNL     1     -17.896  -0.874 -50.379  1.00  0.00     0.134 A 
ATOM      7  C   UNL     1     -17.083  -0.238 -49.430  1.00  0.00     0.093 A 
ATOM      8  C   UNL     1     -17.649   0.438 -48.345  1.00  0.00     0.123 A 
ATOM      9  C   UNL     1     -19.039   0.482 -48.202  1.00  0.00     0.094 A 
ATOM     10  C   UNL     1     -19.866  -0.144 -49.137  1.00  0.00     0.146 A 
ATOM     11  O   UNL     1     -21.184  -0.082 -48.980  1.00  0.00    -0.451 OA
ENDROOT
BRANCH   1  12
ATOM     12  C   UNL     1     -23.490  -0.503 -49.547  1.00  0.00     0.063 A 
ATOM     13  C   UNL     1     -25.613  -1.557 -49.004  1.00  0.00     0.047 A 
ATOM     14  C   UNL     1     -24.245  -1.654 -49.275  1.00  0.00     0.020 A 
ATOM     15  C   UNL     1     -26.239  -0.305 -48.987  1.00  0.00     0.119 A 
ATOM     16  C   UNL     1     -25.489   0.849 -49.233  1.00  0.00     0.093 A 
ATOM     17  C   UNL     1     -24.115   0.761 -49.500  1.00  0.00     0.130 A 
BRANCH  15  18
ATOM     18  O   UNL     1     -27.602  -0.197 -48.722  1.00  0.00    -0.508 OA
ATOM     19  H   UNL     1     -27.944   0.262 -47.886  1.00  0.00     0.293 HD
ENDBRANCH  15  18
BRANCH  17  20
ATOM     20  O   UNL     1     -23.369   1.923 -49.695  1.00  0.00    -0.507 OA
ATOM     21  H   UNL     1     -22.927   2.407 -48.922  1.00  0.00     0.293 HD
ENDBRANCH  17  20
ENDBRANCH   1  12
BRANCH   2  22
ATOM     22  O   UNL     1     -22.473  -2.012 -51.785  1.00  0.00    -0.502 OA
ATOM     23  H   UNL     1     -23.330  -1.571 -52.098  1.00  0.00     0.293 HD
ENDBRANCH   2  22
BRANCH   6  24
ATOM     24  O   UNL     1     -17.300  -1.541 -51.451  1.00  0.00    -0.507 OA
ATOM     25  H   UNL     1     -16.715  -1.056 -52.121  1.00  0.00     0.293 HD
ENDBRANCH   6  24
BRANCH   8  26
ATOM     26  O   UNL     1     -16.818   1.061 -47.416  1.00  0.00    -0.508 OA
ATOM     27  H   UNL     1     -16.104   1.719 -47.703  1.00  0.00     0.293 HD
ENDBRANCH   8  26
TORSDOF 6
ENDMDL
MODEL 7
REMARK VINA RESULT:    -6.730      6.143     10.002
REMARK INTER + INTRA:          -8.521
REMARK INTER:                  -8.111
REMARK INTRA:                  -0.410
REMARK UNBOUND:                -0.413
REMARK SMILES O=c1c(O)c(-c2ccc(O)cc2O)oc2cc(O)cc(O)c12
REMARK SMILES IDX 5 1 3 2 2 3 1 4 22 5 20 6 19 7 17 8 16 9 15 10 14 11 6 12
REMARK SMILES IDX 8 13 7 14 9 15 11 16 12 17 10 18 13 20 4 22 21 24 18 26
REMARK H PARENT 10 19 13 21 4 23 21 25 18 27
REMARK Flexibility Score: inf
ROOT
ATOM      1  C   UNL     1     -16.047  -3.604 -44.995  1.00  0.00     0.184 A 
ATOM      2  C   UNL     1     -15.452  -2.381 -44.639  1.00  0.00     0.208 A 
ATOM      3  C   UNL     1     -15.454  -1.331 -45.571  1.00  0.00     0.238 A 
ATOM      4  O   UNL     1     -14.914  -0.232 -45.268  1.00  0.00    -0.285 OA
ATOM      5  C   UNL     1     -16.064  -1.517 -46.829  1.00  0.00     0.111 A 
ATOM      6  C   UNL     1     -16.113  -0.510 -47.823  1.00  0.00     0.134 A 
ATOM      7  C   UNL     1     -16.746  -0.769 -49.046  1.00  0.00     0.093 A 
ATOM      8  C   UNL     1     -17.333  -2.013 -49.295  1.00  0.00     0.123 A 
ATOM      9  C   UNL     1     -17.289  -3.012 -48.318  1.00  0.00     0.094 A 
ATOM     10  C   UNL     1     -16.660  -2.774 -47.093  1.00  0.00     0.146 A 
ATOM     11  O   UNL     1     -16.627  -3.742 -46.184  1.00  0.00    -0.451 OA
ENDROOT
BRANCH   1  12
ATOM     12  C   UNL     1     -16.070  -4.755 -44.067  1.00  0.00     0.063 A 
ATOM     13  C   UNL     1     -14.995  -6.765 -43.223  1.00  0.00     0.047 A 
ATOM     14  C   UNL     1     -15.007  -5.670 -44.091  1.00  0.00     0.020 A 
ATOM     15  C   UNL     1     -16.041  -6.950 -42.310  1.00  0.00     0.119 A 
ATOM     16  C   UNL     1     -17.092  -6.030 -42.263  1.00  0.00     0.093 A 
ATOM     17  C   UNL     1     -17.108  -4.925 -43.127  1.00  0.00     0.130 A 
BRANCH  15  18
ATOM     18  O   UNL     1     -16.041  -8.041 -41.443  1.00  0.00    -0.508 OA
ATOM     19  H   UNL     1     -16.815  -8.216 -40.813  1.00  0.00     0.293 HD
ENDBRANCH  15  18
BRANCH  17  20
ATOM     20  O   UNL     1     -18.138  -3.988 -43.036  1.00  0.00    -0.507 OA
ATOM     21  H   UNL     1     -18.236  -3.238 -43.712  1.00  0.00     0.293 HD
ENDBRANCH  17  20
ENDBRANCH   1  12
BRANCH   2  22
ATOM     22  O   UNL     1     -14.896  -2.214 -43.369  1.00  0.00    -0.502 OA
ATOM     23  H   UNL     1     -13.910  -2.356 -43.187  1.00  0.00     0.293 HD
ENDBRANCH   2  22
BRANCH   6  24
ATOM     24  O   UNL     1     -15.537   0.743 -47.604  1.00  0.00    -0.507 OA
ATOM     25  H   UNL     1     -14.710   1.044 -48.107  1.00  0.00     0.293 HD
ENDBRANCH   6  24
BRANCH   8  26
ATOM     26  O   UNL     1     -17.958  -2.244 -50.520  1.00  0.00    -0.508 OA
ATOM     27  H   UNL     1     -18.351  -3.149 -50.751  1.00  0.00     0.293 HD
ENDBRANCH   8  26
TORSDOF 6
ENDMDL
MODEL 8
REMARK VINA RESULT:    -6.723      2.020      6.709
REMARK INTER + INTRA:          -8.512
REMARK INTER:                  -8.099
REMARK INTRA:                  -0.412
REMARK UNBOUND:                -0.413
REMARK SMILES O=c1c(O)c(-c2ccc(O)cc2O)oc2cc(O)cc(O)c12
REMARK SMILES IDX 5 1 3 2 2 3 1 4 22 5 20 6 19 7 17 8 16 9 15 10 14 11 6 12
REMARK SMILES IDX 8 13 7 14 9 15 11 16 12 17 10 18 13 20 4 22 21 24 18 26
REMARK H PARENT 10 19 13 21 4 23 21 25 18 27
REMARK Flexibility Score: inf
ROOT
ATOM      1  C   UNL     1     -21.246  -2.720 -50.173  1.00  0.00     0.184 A 
ATOM      2  C   UNL     1     -22.572  -2.628 -49.715  1.00  0.00     0.208 A 
ATOM      3  C   UNL     1     -23.276  -1.432 -49.916  1.00  0.00     0.238 A 
ATOM      4  O   UNL     1     -24.463  -1.333 -49.501  1.00  0.00    -0.285 OA
ATOM      5  C   UNL     1     -22.651  -0.360 -50.588  1.00  0.00     0.111 A 
ATOM      6  C   UNL     1     -23.292   0.878 -50.835  1.00  0.00     0.134 A 
ATOM      7  C   UNL     1     -22.606   1.893 -51.518  1.00  0.00     0.093 A 
ATOM      8  C   UNL     1     -21.294   1.694 -51.958  1.00  0.00     0.123 A 
ATOM      9  C   UNL     1     -20.656   0.474 -51.717  1.00  0.00     0.094 A 
ATOM     10  C   UNL     1     -21.322  -0.549 -51.036  1.00  0.00     0.146 A 
ATOM     11  O   UNL     1     -20.691  -1.697 -50.815  1.00  0.00    -0.451 OA
ENDROOT
BRANCH   1  12
ATOM     12  C   UNL     1     -20.442  -3.947 -49.983  1.00  0.00     0.063 A 
ATOM     13  C   UNL     1     -19.248  -5.435 -48.477  1.00  0.00     0.047 A 
ATOM     14  C   UNL     1     -20.004  -4.280 -48.693  1.00  0.00     0.020 A 
ATOM     15  C   UNL     1     -18.933  -6.279 -49.549  1.00  0.00     0.119 A 
ATOM     16  C   UNL     1     -19.385  -5.968 -50.834  1.00  0.00     0.093 A 
ATOM     17  C   UNL     1     -20.151  -4.813 -51.057  1.00  0.00     0.130 A 
BRANCH  15  18
ATOM     18  O   UNL     1     -18.176  -7.431 -49.346  1.00  0.00    -0.508 OA
ATOM     19  H   UNL     1     -18.245  -7.966 -48.488  1.00  0.00     0.293 HD
ENDBRANCH  15  18
BRANCH  17  20
ATOM     20  O   UNL     1     -20.637  -4.540 -52.336  1.00  0.00    -0.507 OA
ATOM     21  H   UNL     1     -21.466  -4.998 -52.699  1.00  0.00     0.293 HD
ENDBRANCH  17  20
ENDBRANCH   1  12
BRANCH   2  22
ATOM     22  O   UNL     1     -23.177  -3.724 -49.094  1.00  0.00    -0.502 OA
ATOM     23  H   UNL     1     -23.369  -4.588 -49.588  1.00  0.00     0.293 HD
ENDBRANCH   2  22
BRANCH   6  24
ATOM     24  O   UNL     1     -24.601   1.107 -50.409  1.00  0.00    -0.507 OA
ATOM     25  H   UNL     1     -25.359   1.248 -51.067  1.00  0.00     0.293 HD
ENDBRANCH   6  24
BRANCH   8  26
ATOM     26  O   UNL     1     -20.635   2.719 -52.635  1.00  0.00    -0.508 OA
ATOM     27  H   UNL     1     -21.144   3.408 -53.176  1.00  0.00     0.293 HD
ENDBRANCH   8  26
TORSDOF 6
ENDMDL
MODEL 9
REMARK VINA RESULT:    -6.666      2.459      3.488
REMARK INTER + INTRA:          -8.443
REMARK INTER:                  -8.019
REMARK INTRA:                  -0.424
REMARK UNBOUND:                -0.413
REMARK SMILES O=c1c(O)c(-c2ccc(O)cc2O)oc2cc(O)cc(O)c12
REMARK SMILES IDX 5 1 3 2 2 3 1 4 22 5 20 6 19 7 17 8 16 9 15 10 14 11 6 12
REMARK SMILES IDX 8 13 7 14 9 15 11 16 12 17 10 18 13 20 4 22 21 24 18 26
REMARK H PARENT 10 19 13 21 4 23 21 25 18 27
REMARK Flexibility Score: inf
ROOT
ATOM      1  C   UNL     1     -20.467  -1.126 -50.406  1.00  0.00     0.184 A 
ATOM      2  C   UNL     1     -21.368  -2.168 -50.121  1.00  0.00     0.208 A 
ATOM      3  C   UNL     1     -20.858  -3.433 -49.793  1.00  0.00     0.238 A 
ATOM      4  O   UNL     1     -21.656  -4.379 -49.546  1.00  0.00    -0.285 OA
ATOM      5  C   UNL     1     -19.462  -3.628 -49.736  1.00  0.00     0.111 A 
ATOM      6  C   UNL     1     -18.866  -4.871 -49.410  1.00  0.00     0.134 A 
ATOM      7  C   UNL     1     -17.469  -4.983 -49.366  1.00  0.00     0.093 A 
ATOM      8  C   UNL     1     -16.657  -3.878 -49.639  1.00  0.00     0.123 A 
ATOM      9  C   UNL     1     -17.239  -2.649 -49.962  1.00  0.00     0.094 A 
ATOM     10  C   UNL     1     -18.629  -2.518 -50.014  1.00  0.00     0.146 A 
ATOM     11  O   UNL     1     -19.157  -1.340 -50.328  1.00  0.00    -0.451 OA
ENDROOT
BRANCH   1  12
ATOM     12  C   UNL     1     -20.936   0.228 -50.770  1.00  0.00     0.063 A 
ATOM     13  C   UNL     1     -21.798   2.387 -50.060  1.00  0.00     0.047 A 
ATOM     14  C   UNL     1     -21.354   1.099 -49.752  1.00  0.00     0.020 A 
ATOM     15  C   UNL     1     -21.817   2.825 -51.390  1.00  0.00     0.119 A 
ATOM     16  C   UNL     1     -21.380   1.972 -52.408  1.00  0.00     0.093 A 
ATOM     17  C   UNL     1     -20.927   0.679 -52.106  1.00  0.00     0.130 A 
BRANCH  15  18
ATOM     18  O   UNL     1     -22.262   4.106 -51.709  1.00  0.00    -0.508 OA
ATOM     19  H   UNL     1     -22.773   4.292 -52.564  1.00  0.00     0.293 HD
ENDBRANCH  15  18
BRANCH  17  20
ATOM     20  O   UNL     1     -20.448  -0.144 -53.125  1.00  0.00    -0.507 OA
ATOM     21  H   UNL     1     -19.465  -0.172 -53.369  1.00  0.00     0.293 HD
ENDBRANCH  17  20
ENDBRANCH   1  12
BRANCH   2  22
ATOM     22  O   UNL     1     -22.744  -1.930 -50.142  1.00  0.00    -0.502 OA
ATOM     23  H   UNL     1     -23.148  -1.130 -50.615  1.00  0.00     0.293 HD
ENDBRANCH   2  22
BRANCH   6  24
ATOM     24  O   UNL     1     -19.650  -5.992 -49.131  1.00  0.00    -0.507 OA
ATOM     25  H   UNL     1     -19.260  -6.927 -49.127  1.00  0.00     0.293 HD
ENDBRANCH   6  24
BRANCH   8  26
ATOM     26  O   UNL     1     -15.271  -4.016 -49.587  1.00  0.00    -0.508 OA
ATOM     27  H   UNL     1     -14.837  -4.882 -49.288  1.00  0.00     0.293 HD
ENDBRANCH   8  26
TORSDOF 6
ENDMDL
