MODEL 1
REMARK VINA RESULT:    -3.417      0.000      0.000
REMARK INTER + INTRA:          -5.710
REMARK INTER:                  -5.215
REMARK INTRA:                  -0.494
REMARK UNBOUND:                -0.494
REMARK SMILES O=C([O-])CCCCCCCCC(=O)[O-]
REMARK SMILES IDX 7 1 6 2 5 3 4 4 2 5 1 6 3 7 8 8 9 9 10 10 11 11 12 12 13 13
REMARK SMILES IDX 14 14
REMARK H PARENT
REMARK Flexibility Score: inf
ROOT
ATOM      1  C   UNL     1      44.760  33.056  49.037  1.00  0.00     0.000 C 
ENDROOT
BRANCH   1   2
ATOM      2  C   UNL     1      44.962  31.545  48.834  1.00  0.00     0.000 C 
BRANCH   2   3
ATOM      3  C   UNL     1      46.070  30.965  49.730  1.00  0.00     0.006 C 
BRANCH   3   4
ATOM      4  C   UNL     1      45.756  29.534  50.188  1.00  0.00     0.053 C 
BRANCH   4   5
ATOM      5  C   UNL     1      45.470  28.633  49.026  1.00  0.00     0.041 C 
ATOM      6  O   UNL     1      44.362  28.043  48.939  1.00  0.00    -0.550 OA
ATOM      7  O   UNL     1      46.442  28.419  48.057  1.00  0.00    -0.550 OA
ENDBRANCH   4   5
ENDBRANCH   3   4
ENDBRANCH   2   3
ENDBRANCH   1   2
BRANCH   1   8
ATOM      8  C   UNL     1      43.715  33.435  50.106  1.00  0.00     0.000 C 
BRANCH   8   9
ATOM      9  C   UNL     1      43.435  34.946  50.241  1.00  0.00     0.000 C 
BRANCH   9  10
ATOM     10  C   UNL     1      42.804  35.602  49.002  1.00  0.00     0.006 C 
BRANCH  10  11
ATOM     11  C   UNL     1      41.360  35.146  48.756  1.00  0.00     0.053 C 
BRANCH  11  12
ATOM     12  C   UNL     1      41.148  34.841  47.307  1.00  0.00     0.041 C 
ATOM     13  O   UNL     1      40.254  35.445  46.658  1.00  0.00    -0.550 OA
ATOM     14  O   UNL     1      41.970  33.927  46.660  1.00  0.00    -0.550 OA
ENDBRANCH  11  12
ENDBRANCH  10  11
ENDBRANCH   9  10
ENDBRANCH   8   9
ENDBRANCH   1   8
TORSDOF 9
ENDMDL
MODEL 2
REMARK VINA RESULT:    -3.379      0.898      6.215
REMARK INTER + INTRA:          -5.652
REMARK INTER:                  -4.989
REMARK INTRA:                  -0.663
REMARK UNBOUND:                -0.494
REMARK SMILES O=C([O-])CCCCCCCCC(=O)[O-]
REMARK SMILES IDX 7 1 6 2 5 3 4 4 2 5 1 6 3 7 8 8 9 9 10 10 11 11 12 12 13 13
REMARK SMILES IDX 14 14
REMARK H PARENT
REMARK Flexibility Score: inf
ROOT
ATOM      1  C   UNL     1      43.418  34.305  50.176  1.00  0.00     0.000 C 
ENDROOT
BRANCH   1   2
ATOM      2  C   UNL     1      43.957  35.507  49.379  1.00  0.00     0.000 C 
BRANCH   2   3
ATOM      3  C   UNL     1      42.891  36.152  48.477  1.00  0.00     0.006 C 
BRANCH   3   4
ATOM      4  C   UNL     1      41.539  35.432  48.571  1.00  0.00     0.053 C 
BRANCH   4   5
ATOM      5  C   UNL     1      41.084  34.935  47.234  1.00  0.00     0.041 C 
ATOM      6  O   UNL     1      41.573  33.882  46.747  1.00  0.00    -0.550 OA
ATOM      7  O   UNL     1      40.143  35.655  46.509  1.00  0.00    -0.550 OA
ENDBRANCH   4   5
ENDBRANCH   3   4
ENDBRANCH   2   3
ENDBRANCH   1   2
BRANCH   1   8
ATOM      8  C   UNL     1      44.021  32.942  49.784  1.00  0.00     0.000 C 
BRANCH   8   9
ATOM      9  C   UNL     1      44.764  32.919  48.432  1.00  0.00     0.000 C 
BRANCH   9  10
ATOM     10  C   UNL     1      45.729  31.736  48.242  1.00  0.00     0.006 C 
BRANCH  10  11
ATOM     11  C   UNL     1      45.425  30.563  49.183  1.00  0.00     0.053 C 
BRANCH  11  12
ATOM     12  C   UNL     1      44.981  29.368  48.401  1.00  0.00     0.041 C 
ATOM     13  O   UNL     1      45.028  29.382  47.143  1.00  0.00    -0.550 OA
ATOM     14  O   UNL     1      44.562  28.220  49.062  1.00  0.00    -0.550 OA
ENDBRANCH  11  12
ENDBRANCH  10  11
ENDBRANCH   9  10
ENDBRANCH   8   9
ENDBRANCH   1   8
TORSDOF 9
ENDMDL
MODEL 3
REMARK VINA RESULT:    -3.345      1.815      2.956
REMARK INTER + INTRA:          -5.599
REMARK INTER:                  -4.960
REMARK INTRA:                  -0.639
REMARK UNBOUND:                -0.494
REMARK SMILES O=C([O-])CCCCCCCCC(=O)[O-]
REMARK SMILES IDX 7 1 6 2 5 3 4 4 2 5 1 6 3 7 8 8 9 9 10 10 11 11 12 12 13 13
REMARK SMILES IDX 14 14
REMARK H PARENT
REMARK Flexibility Score: inf
ROOT
ATOM      1  C   UNL     1      47.561  30.829  49.393  1.00  0.00     0.000 C 
ENDROOT
BRANCH   1   2
ATOM      2  C   UNL     1      47.302  29.806  50.512  1.00  0.00     0.000 C 
BRANCH   2   3
ATOM      3  C   UNL     1      45.859  29.272  50.512  1.00  0.00     0.006 C 
BRANCH   3   4
ATOM      4  C   UNL     1      45.710  28.004  49.662  1.00  0.00     0.053 C 
BRANCH   4   5
ATOM      5  C   UNL     1      44.747  28.205  48.533  1.00  0.00     0.041 C 
ATOM      6  O   UNL     1      43.946  27.289  48.211  1.00  0.00    -0.550 OA
ATOM      7  O   UNL     1      44.757  29.394  47.814  1.00  0.00    -0.550 OA
ENDBRANCH   4   5
ENDBRANCH   3   4
ENDBRANCH   2   3
ENDBRANCH   1   2
BRANCH   1   8
ATOM      8  C   UNL     1      46.966  32.230  49.642  1.00  0.00     0.000 C 
BRANCH   8   9
ATOM      9  C   UNL     1      45.745  32.587  48.770  1.00  0.00     0.000 C 
BRANCH   9  10
ATOM     10  C   UNL     1      44.418  32.720  49.537  1.00  0.00     0.006 C 
BRANCH  10  11
ATOM     11  C   UNL     1      43.361  33.517  48.762  1.00  0.00     0.053 C 
BRANCH  11  12
ATOM     12  C   UNL     1      42.770  34.583  49.630  1.00  0.00     0.041 C 
ATOM     13  O   UNL     1      43.284  34.845  50.749  1.00  0.00    -0.550 OA
ATOM     14  O   UNL     1      41.682  35.321  49.182  1.00  0.00    -0.550 OA
ENDBRANCH  11  12
ENDBRANCH  10  11
ENDBRANCH   9  10
ENDBRANCH   8   9
ENDBRANCH   1   8
TORSDOF 9
ENDMDL
MODEL 4
REMARK VINA RESULT:    -3.287      2.289      6.817
REMARK INTER + INTRA:          -5.510
REMARK INTER:                  -4.910
REMARK INTRA:                  -0.600
REMARK UNBOUND:                -0.494
REMARK SMILES O=C([O-])CCCCCCCCC(=O)[O-]
REMARK SMILES IDX 7 1 6 2 5 3 4 4 2 5 1 6 3 7 8 8 9 9 10 10 11 11 12 12 13 13
REMARK SMILES IDX 14 14
REMARK H PARENT
REMARK Flexibility Score: inf
ROOT
ATOM      1  C   UNL     1      46.509  31.218  48.691  1.00  0.00     0.000 C 
ENDROOT
BRANCH   1   2
ATOM      2  C   UNL     1      45.011  31.543  48.555  1.00  0.00     0.000 C 
BRANCH   2   3
ATOM      3  C   UNL     1      44.500  32.478  49.664  1.00  0.00     0.006 C 
BRANCH   3   4
ATOM      4  C   UNL     1      43.524  33.533  49.128  1.00  0.00     0.053 C 
BRANCH   4   5
ATOM      5  C   UNL     1      43.664  34.835  49.855  1.00  0.00     0.041 C 
ATOM      6  O   UNL     1      44.589  35.634  49.554  1.00  0.00    -0.550 OA
ATOM      7  O   UNL     1      42.792  35.151  50.890  1.00  0.00    -0.550 OA
ENDBRANCH   4   5
ENDBRANCH   3   4
ENDBRANCH   2   3
ENDBRANCH   1   2
BRANCH   1   8
ATOM      8  C   UNL     1      47.086  31.392  50.110  1.00  0.00     0.000 C 
BRANCH   8   9
ATOM      9  C   UNL     1      47.489  30.083  50.818  1.00  0.00     0.000 C 
BRANCH   9  10
ATOM     10  C   UNL     1      46.413  28.984  50.812  1.00  0.00     0.006 C 
BRANCH  10  11
ATOM     11  C   UNL     1      46.801  27.777  49.950  1.00  0.00     0.053 C 
BRANCH  11  12
ATOM     12  C   UNL     1      45.607  27.253  49.217  1.00  0.00     0.041 C 
ATOM     13  O   UNL     1      45.589  26.063  48.807  1.00  0.00    -0.550 OA
ATOM     14  O   UNL     1      44.495  28.063  49.030  1.00  0.00    -0.550 OA
ENDBRANCH  11  12
ENDBRANCH  10  11
ENDBRANCH   9  10
ENDBRANCH   8   9
ENDBRANCH   1   8
TORSDOF 9
ENDMDL
MODEL 5
REMARK VINA RESULT:    -3.274      1.875      2.910
REMARK INTER + INTRA:          -5.492
REMARK INTER:                  -4.754
REMARK INTRA:                  -0.737
REMARK UNBOUND:                -0.494
REMARK SMILES O=C([O-])CCCCCCCCC(=O)[O-]
REMARK SMILES IDX 7 1 6 2 5 3 4 4 2 5 1 6 3 7 8 8 9 9 10 10 11 11 12 12 13 13
REMARK SMILES IDX 14 14
REMARK H PARENT
REMARK Flexibility Score: inf
ROOT
ATOM      1  C   UNL     1      47.525  31.662  49.227  1.00  0.00     0.000 C 
ENDROOT
BRANCH   1   2
ATOM      2  C   UNL     1      48.082  30.841  50.404  1.00  0.00     0.000 C 
BRANCH   2   3
ATOM      3  C   UNL     1      47.109  29.750  50.883  1.00  0.00     0.006 C 
BRANCH   3   4
ATOM      4  C   UNL     1      45.824  29.711  50.046  1.00  0.00     0.053 C 
BRANCH   4   5
ATOM      5  C   UNL     1      45.512  28.323  49.577  1.00  0.00     0.041 C 
ATOM      6  O   UNL     1      44.442  28.088  48.956  1.00  0.00    -0.550 OA
ATOM      7  O   UNL     1      46.387  27.282  49.858  1.00  0.00    -0.550 OA
ENDBRANCH   4   5
ENDBRANCH   3   4
ENDBRANCH   2   3
ENDBRANCH   1   2
BRANCH   1   8
ATOM      8  C   UNL     1      47.623  33.192  49.399  1.00  0.00     0.000 C 
BRANCH   8   9
ATOM      9  C   UNL     1      46.336  33.972  49.061  1.00  0.00     0.000 C 
BRANCH   9  10
ATOM     10  C   UNL     1      45.120  33.097  48.713  1.00  0.00     0.006 C 
BRANCH  10  11
ATOM     11  C   UNL     1      44.040  33.120  49.802  1.00  0.00     0.053 C 
BRANCH  11  12
ATOM     12  C   UNL     1      43.116  34.279  49.597  1.00  0.00     0.041 C 
ATOM     13  O   UNL     1      42.126  34.171  48.827  1.00  0.00    -0.550 OA
ATOM     14  O   UNL     1      43.319  35.462  50.296  1.00  0.00    -0.550 OA
ENDBRANCH  11  12
ENDBRANCH  10  11
ENDBRANCH   9  10
ENDBRANCH   8   9
ENDBRANCH   1   8
TORSDOF 9
ENDMDL
MODEL 6
REMARK VINA RESULT:    -3.257      1.500      7.069
REMARK INTER + INTRA:          -5.465
REMARK INTER:                  -5.075
REMARK INTRA:                  -0.390
REMARK UNBOUND:                -0.494
REMARK SMILES O=C([O-])CCCCCCCCC(=O)[O-]
REMARK SMILES IDX 7 1 6 2 5 3 4 4 2 5 1 6 3 7 8 8 9 9 10 10 11 11 12 12 13 13
REMARK SMILES IDX 14 14
REMARK H PARENT
REMARK Flexibility Score: inf
ROOT
ATOM      1  C   UNL     1      44.063  33.129  49.021  1.00  0.00     0.000 C 
ENDROOT
BRANCH   1   2
ATOM      2  C   UNL     1      43.513  34.077  50.101  1.00  0.00     0.000 C 
BRANCH   2   3
ATOM      3  C   UNL     1      42.922  35.370  49.515  1.00  0.00     0.006 C 
BRANCH   3   4
ATOM      4  C   UNL     1      41.499  35.165  48.978  1.00  0.00     0.053 C 
BRANCH   4   5
ATOM      5  C   UNL     1      41.434  35.369  47.495  1.00  0.00     0.041 C 
ATOM      6  O   UNL     1      42.485  35.589  46.838  1.00  0.00    -0.550 OA
ATOM      7  O   UNL     1      40.207  35.350  46.844  1.00  0.00    -0.550 OA
ENDBRANCH   4   5
ENDBRANCH   3   4
ENDBRANCH   2   3
ENDBRANCH   1   2
BRANCH   1   8
ATOM      8  C   UNL     1      44.826  31.902  49.560  1.00  0.00     0.000 C 
BRANCH   8   9
ATOM      9  C   UNL     1      45.350  30.931  48.482  1.00  0.00     0.000 C 
BRANCH   9  10
ATOM     10  C   UNL     1      45.359  29.449  48.892  1.00  0.00     0.006 C 
BRANCH  10  11
ATOM     11  C   UNL     1      45.729  29.242  50.366  1.00  0.00     0.053 C 
BRANCH  11  12
ATOM     12  C   UNL     1      47.208  29.355  50.555  1.00  0.00     0.041 C 
ATOM     13  O   UNL     1      47.974  28.467  50.097  1.00  0.00    -0.550 OA
ATOM     14  O   UNL     1      47.745  30.467  51.192  1.00  0.00    -0.550 OA
ENDBRANCH  11  12
ENDBRANCH  10  11
ENDBRANCH   9  10
ENDBRANCH   8   9
ENDBRANCH   1   8
TORSDOF 9
ENDMDL
MODEL 7
REMARK VINA RESULT:    -3.219      2.336      7.143
REMARK INTER + INTRA:          -5.407
REMARK INTER:                  -5.081
REMARK INTRA:                  -0.326
REMARK UNBOUND:                -0.494
REMARK SMILES O=C([O-])CCCCCCCCC(=O)[O-]
REMARK SMILES IDX 7 1 6 2 5 3 4 4 2 5 1 6 3 7 8 8 9 9 10 10 11 11 12 12 13 13
REMARK SMILES IDX 14 14
REMARK H PARENT
REMARK Flexibility Score: inf
ROOT
ATOM      1  C   UNL     1      43.876  33.102  49.788  1.00  0.00     0.000 C 
ENDROOT
BRANCH   1   2
ATOM      2  C   UNL     1      43.749  34.627  49.957  1.00  0.00     0.000 C 
BRANCH   2   3
ATOM      3  C   UNL     1      42.491  35.200  49.283  1.00  0.00     0.006 C 
BRANCH   3   4
ATOM      4  C   UNL     1      41.799  34.171  48.378  1.00  0.00     0.053 C 
BRANCH   4   5
ATOM      5  C   UNL     1      41.112  34.828  47.221  1.00  0.00     0.041 C 
ATOM      6  O   UNL     1      40.594  35.968  47.353  1.00  0.00    -0.550 OA
ATOM      7  O   UNL     1      41.014  34.166  46.003  1.00  0.00    -0.550 OA
ENDBRANCH   4   5
ENDBRANCH   3   4
ENDBRANCH   2   3
ENDBRANCH   1   2
BRANCH   1   8
ATOM      8  C   UNL     1      45.265  32.612  49.333  1.00  0.00     0.000 C 
BRANCH   8   9
ATOM      9  C   UNL     1      45.467  31.084  49.376  1.00  0.00     0.000 C 
BRANCH   9  10
ATOM     10  C   UNL     1      46.712  30.615  50.147  1.00  0.00     0.006 C 
BRANCH  10  11
ATOM     11  C   UNL     1      47.820  31.676  50.189  1.00  0.00     0.053 C 
BRANCH  11  12
ATOM     12  C   UNL     1      48.944  31.223  51.066  1.00  0.00     0.041 C 
ATOM     13  O   UNL     1      49.251  31.884  52.092  1.00  0.00    -0.550 OA
ATOM     14  O   UNL     1      49.619  30.044  50.779  1.00  0.00    -0.550 OA
ENDBRANCH  11  12
ENDBRANCH  10  11
ENDBRANCH   9  10
ENDBRANCH   8   9
ENDBRANCH   1   8
TORSDOF 9
ENDMDL
MODEL 8
REMARK VINA RESULT:    -3.152      1.572      1.927
REMARK INTER + INTRA:          -5.305
REMARK INTER:                  -4.951
REMARK INTRA:                  -0.354
REMARK UNBOUND:                -0.494
REMARK SMILES O=C([O-])CCCCCCCCC(=O)[O-]
REMARK SMILES IDX 7 1 6 2 5 3 4 4 2 5 1 6 3 7 8 8 9 9 10 10 11 11 12 12 13 13
REMARK SMILES IDX 14 14
REMARK H PARENT
REMARK Flexibility Score: inf
ROOT
ATOM      1  C   UNL     1      45.310  32.642  49.214  1.00  0.00     0.000 C 
ENDROOT
BRANCH   1   2
ATOM      2  C   UNL     1      45.627  31.580  48.147  1.00  0.00     0.000 C 
BRANCH   2   3
ATOM      3  C   UNL     1      45.566  30.144  48.695  1.00  0.00     0.006 C 
BRANCH   3   4
ATOM      4  C   UNL     1      45.768  30.096  50.215  1.00  0.00     0.053 C 
BRANCH   4   5
ATOM      5  C   UNL     1      47.184  29.768  50.574  1.00  0.00     0.041 C 
ATOM      6  O   UNL     1      47.672  28.647  50.275  1.00  0.00    -0.550 OA
ATOM      7  O   UNL     1      47.956  30.690  51.270  1.00  0.00    -0.550 OA
ENDBRANCH   4   5
ENDBRANCH   3   4
ENDBRANCH   2   3
ENDBRANCH   1   2
BRANCH   1   8
ATOM      8  C   UNL     1      43.813  32.968  49.382  1.00  0.00     0.000 C 
BRANCH   8   9
ATOM      9  C   UNL     1      43.509  34.321  50.058  1.00  0.00     0.000 C 
BRANCH   9  10
ATOM     10  C   UNL     1      42.685  35.302  49.207  1.00  0.00     0.006 C 
BRANCH  10  11
ATOM     11  C   UNL     1      41.391  34.679  48.668  1.00  0.00     0.053 C 
BRANCH  11  12
ATOM     12  C   UNL     1      41.188  35.054  47.234  1.00  0.00     0.041 C 
ATOM     13  O   UNL     1      41.025  34.160  46.363  1.00  0.00    -0.550 OA
ATOM     14  O   UNL     1      41.128  36.393  46.867  1.00  0.00    -0.550 OA
ENDBRANCH  11  12
ENDBRANCH  10  11
ENDBRANCH   9  10
ENDBRANCH   8   9
ENDBRANCH   1   8
TORSDOF 9
ENDMDL
MODEL 9
REMARK VINA RESULT:    -3.123      1.862      6.468
REMARK INTER + INTRA:          -5.260
REMARK INTER:                  -4.444
REMARK INTRA:                  -0.817
REMARK UNBOUND:                -0.494
REMARK SMILES O=C([O-])CCCCCCCCC(=O)[O-]
REMARK SMILES IDX 7 1 6 2 5 3 4 4 2 5 1 6 3 7 8 8 9 9 10 10 11 11 12 12 13 13
REMARK SMILES IDX 14 14
REMARK H PARENT
REMARK Flexibility Score: inf
ROOT
ATOM      1  C   UNL     1      45.144  33.062  48.289  1.00  0.00     0.000 C 
ENDROOT
BRANCH   1   2
ATOM      2  C   UNL     1      43.887  32.990  49.174  1.00  0.00     0.000 C 
BRANCH   2   3
ATOM      3  C   UNL     1      43.747  34.201  50.112  1.00  0.00     0.006 C 
BRANCH   3   4
ATOM      4  C   UNL     1      42.527  35.064  49.765  1.00  0.00     0.053 C 
BRANCH   4   5
ATOM      5  C   UNL     1      42.767  35.891  48.540  1.00  0.00     0.041 C 
ATOM      6  O   UNL     1      41.949  35.860  47.583  1.00  0.00    -0.550 OA
ATOM      7  O   UNL     1      43.912  36.671  48.440  1.00  0.00    -0.550 OA
ENDBRANCH   4   5
ENDBRANCH   3   4
ENDBRANCH   2   3
ENDBRANCH   1   2
BRANCH   1   8
ATOM      8  C   UNL     1      46.310  33.879  48.881  1.00  0.00     0.000 C 
BRANCH   8   9
ATOM      9  C   UNL     1      47.493  33.043  49.410  1.00  0.00     0.000 C 
BRANCH   9  10
ATOM     10  C   UNL     1      47.366  31.526  49.188  1.00  0.00     0.006 C 
BRANCH  10  11
ATOM     11  C   UNL     1      47.216  30.743  50.499  1.00  0.00     0.053 C 
BRANCH  11  12
ATOM     12  C   UNL     1      46.236  29.626  50.331  1.00  0.00     0.041 C 
ATOM     13  O   UNL     1      45.326  29.708  49.466  1.00  0.00    -0.550 OA
ATOM     14  O   UNL     1      46.359  28.472  51.096  1.00  0.00    -0.550 OA
ENDBRANCH  11  12
ENDBRANCH  10  11
ENDBRANCH   9  10
ENDBRANCH   8   9
ENDBRANCH   1   8
TORSDOF 9
ENDMDL
