MODEL 1
REMARK VINA RESULT:    -5.781      0.000      0.000
REMARK INTER + INTRA:          -7.252
REMARK INTER:                  -6.964
REMARK INTRA:                  -0.288
REMARK UNBOUND:                -0.288
REMARK SMILES O=c1c(O)c(-c2ccc(O)c(O)c2)oc2cc(O)cc(O)c12
REMARK SMILES IDX 5 1 3 2 2 3 1 4 22 5 20 6 19 7 17 8 16 9 15 10 14 11 6 12
REMARK SMILES IDX 7 13 8 14 9 15 13 16 11 17 10 18 12 20 4 22 21 24 18 26
REMARK H PARENT 10 19 12 21 4 23 21 25 18 27
REMARK Flexibility Score: inf
ROOT
ATOM      1  C   UNL     1     221.082  24.744 178.325  1.00  0.00     0.180 A 
ATOM      2  C   UNL     1     221.875  23.653 177.931  1.00  0.00     0.208 A 
ATOM      3  C   UNL     1     221.931  23.308 176.571  1.00  0.00     0.238 A 
ATOM      4  O   UNL     1     222.599  22.297 176.231  1.00  0.00    -0.285 OA
ATOM      5  C   UNL     1     221.206  24.068 175.621  1.00  0.00     0.111 A 
ATOM      6  C   UNL     1     221.222  23.833 174.213  1.00  0.00     0.134 A 
ATOM      7  C   UNL     1     220.365  24.564 173.382  1.00  0.00     0.093 A 
ATOM      8  C   UNL     1     219.542  25.567 173.899  1.00  0.00     0.123 A 
ATOM      9  C   UNL     1     219.563  25.844 175.263  1.00  0.00     0.094 A 
ATOM     10  C   UNL     1     220.380  25.106 176.123  1.00  0.00     0.146 A 
ATOM     11  O   UNL     1     220.362  25.396 177.419  1.00  0.00    -0.452 OA
ENDROOT
BRANCH   1  12
ATOM     12  C   UNL     1     220.992  25.183 179.737  1.00  0.00     0.025 A 
ATOM     13  C   UNL     1     220.185  24.502 180.665  1.00  0.00     0.016 A 
ATOM     14  C   UNL     1     220.135  24.919 181.998  1.00  0.00     0.051 A 
ATOM     15  C   UNL     1     220.900  26.013 182.426  1.00  0.00     0.157 A 
ATOM     16  C   UNL     1     221.773  26.265 180.176  1.00  0.00     0.062 A 
ATOM     17  C   UNL     1     221.725  26.686 181.510  1.00  0.00     0.158 A 
BRANCH  15  18
ATOM     18  O   UNL     1     220.847  26.427 183.755  1.00  0.00    -0.504 OA
ATOM     19  H   UNL     1     221.397  25.974 184.475  1.00  0.00     0.293 HD
ENDBRANCH  15  18
BRANCH  17  20
ATOM     20  O   UNL     1     222.504  27.773 181.906  1.00  0.00    -0.504 OA
ATOM     21  H   UNL     1     222.809  28.483 181.251  1.00  0.00     0.293 HD
ENDBRANCH  17  20
ENDBRANCH   1  12
BRANCH   2  22
ATOM     22  O   UNL     1     222.564  22.902 178.888  1.00  0.00    -0.502 OA
ATOM     23  H   UNL     1     223.102  22.077 178.649  1.00  0.00     0.293 HD
ENDBRANCH   2  22
BRANCH   6  24
ATOM     24  O   UNL     1     222.073  22.920 173.584  1.00  0.00    -0.507 OA
ATOM     25  H   UNL     1     223.032  23.107 173.330  1.00  0.00     0.293 HD
ENDBRANCH   6  24
BRANCH   8  26
ATOM     26  O   UNL     1     218.704  26.301 173.062  1.00  0.00    -0.508 OA
ATOM     27  H   UNL     1     218.892  26.391 172.070  1.00  0.00     0.293 HD
ENDBRANCH   8  26
TORSDOF 6
ENDMDL
MODEL 2
REMARK VINA RESULT:    -5.712      1.511      1.969
REMARK INTER + INTRA:          -7.169
REMARK INTER:                  -7.221
REMARK INTRA:                   0.053
REMARK UNBOUND:                -0.288
REMARK SMILES O=c1c(O)c(-c2ccc(O)c(O)c2)oc2cc(O)cc(O)c12
REMARK SMILES IDX 5 1 3 2 2 3 1 4 22 5 20 6 19 7 17 8 16 9 15 10 14 11 6 12
REMARK SMILES IDX 7 13 8 14 9 15 13 16 11 17 10 18 12 20 4 22 21 24 18 26
REMARK H PARENT 10 19 12 21 4 23 21 25 18 27
REMARK Flexibility Score: inf
ROOT
ATOM      1  C   UNL     1     220.504  23.823 179.566  1.00  0.00     0.180 A 
ATOM      2  C   UNL     1     221.097  22.640 179.092  1.00  0.00     0.208 A 
ATOM      3  C   UNL     1     221.469  22.558 177.742  1.00  0.00     0.238 A 
ATOM      4  O   UNL     1     221.949  21.476 177.311  1.00  0.00    -0.285 OA
ATOM      5  C   UNL     1     221.259  23.666 176.884  1.00  0.00     0.111 A 
ATOM      6  C   UNL     1     221.635  23.708 175.508  1.00  0.00     0.134 A 
ATOM      7  C   UNL     1     221.261  24.805 174.724  1.00  0.00     0.093 A 
ATOM      8  C   UNL     1     220.583  25.892 175.282  1.00  0.00     0.123 A 
ATOM      9  C   UNL     1     220.264  25.886 176.637  1.00  0.00     0.094 A 
ATOM     10  C   UNL     1     220.592  24.789 177.437  1.00  0.00     0.146 A 
ATOM     11  O   UNL     1     220.260  24.820 178.723  1.00  0.00    -0.452 OA
ENDROOT
BRANCH   1  12
ATOM     12  C   UNL     1     220.107  23.994 180.983  1.00  0.00     0.025 A 
ATOM     13  C   UNL     1     219.378  23.002 181.662  1.00  0.00     0.016 A 
ATOM     14  C   UNL     1     219.036  23.174 183.007  1.00  0.00     0.051 A 
ATOM     15  C   UNL     1     219.429  24.330 183.694  1.00  0.00     0.157 A 
ATOM     16  C   UNL     1     220.517  25.140 181.682  1.00  0.00     0.062 A 
ATOM     17  C   UNL     1     220.176  25.315 183.029  1.00  0.00     0.158 A 
BRANCH  15  18
ATOM     18  O   UNL     1     219.085  24.498 185.034  1.00  0.00    -0.504 OA
ATOM     19  H   UNL     1     218.182  24.209 185.391  1.00  0.00     0.293 HD
ENDBRANCH  15  18
BRANCH  17  20
ATOM     20  O   UNL     1     220.589  26.474 183.687  1.00  0.00    -0.504 OA
ATOM     21  H   UNL     1     220.665  26.521 184.695  1.00  0.00     0.293 HD
ENDBRANCH  17  20
ENDBRANCH   1  12
BRANCH   2  22
ATOM     22  O   UNL     1     221.274  21.550 179.950  1.00  0.00    -0.502 OA
ATOM     23  H   UNL     1     220.992  21.572 180.923  1.00  0.00     0.293 HD
ENDBRANCH   2  22
BRANCH   6  24
ATOM     24  O   UNL     1     222.392  22.718 174.875  1.00  0.00    -0.507 OA
ATOM     25  H   UNL     1     223.274  22.876 174.411  1.00  0.00     0.293 HD
ENDBRANCH   6  24
BRANCH   8  26
ATOM     26  O   UNL     1     220.228  26.988 174.498  1.00  0.00    -0.508 OA
ATOM     27  H   UNL     1     219.388  26.982 173.929  1.00  0.00     0.293 HD
ENDBRANCH   8  26
TORSDOF 6
ENDMDL
MODEL 3
REMARK VINA RESULT:    -5.692      1.799      7.110
REMARK INTER + INTRA:          -7.145
REMARK INTER:                  -7.113
REMARK INTRA:                  -0.032
REMARK UNBOUND:                -0.288
REMARK SMILES O=c1c(O)c(-c2ccc(O)c(O)c2)oc2cc(O)cc(O)c12
REMARK SMILES IDX 5 1 3 2 2 3 1 4 22 5 20 6 19 7 17 8 16 9 15 10 14 11 6 12
REMARK SMILES IDX 7 13 8 14 9 15 13 16 11 17 10 18 12 20 4 22 21 24 18 26
REMARK H PARENT 10 19 12 21 4 23 21 25 18 27
REMARK Flexibility Score: inf
ROOT
ATOM      1  C   UNL     1     221.276  24.564 179.113  1.00  0.00     0.180 A 
ATOM      2  C   UNL     1     221.819  25.716 179.708  1.00  0.00     0.208 A 
ATOM      3  C   UNL     1     221.508  26.003 181.046  1.00  0.00     0.238 A 
ATOM      4  O   UNL     1     221.953  27.065 181.556  1.00  0.00    -0.285 OA
ATOM      5  C   UNL     1     220.670  25.128 181.778  1.00  0.00     0.111 A 
ATOM      6  C   UNL     1     220.321  25.299 183.151  1.00  0.00     0.134 A 
ATOM      7  C   UNL     1     219.380  24.443 183.737  1.00  0.00     0.093 A 
ATOM      8  C   UNL     1     218.827  23.381 183.017  1.00  0.00     0.123 A 
ATOM      9  C   UNL     1     219.206  23.170 181.694  1.00  0.00     0.094 A 
ATOM     10  C   UNL     1     220.114  24.029 181.072  1.00  0.00     0.146 A 
ATOM     11  O   UNL     1     220.441  23.798 179.806  1.00  0.00    -0.452 OA
ENDROOT
BRANCH   1  12
ATOM     12  C   UNL     1     221.578  24.182 177.714  1.00  0.00     0.025 A 
ATOM     13  C   UNL     1     222.074  22.906 177.396  1.00  0.00     0.016 A 
ATOM     14  C   UNL     1     222.329  22.559 176.066  1.00  0.00     0.051 A 
ATOM     15  C   UNL     1     222.079  23.476 175.036  1.00  0.00     0.157 A 
ATOM     16  C   UNL     1     221.309  25.089 176.677  1.00  0.00     0.062 A 
ATOM     17  C   UNL     1     221.563  24.745 175.343  1.00  0.00     0.158 A 
BRANCH  15  18
ATOM     18  O   UNL     1     222.336  23.128 173.711  1.00  0.00    -0.504 OA
ATOM     19  H   UNL     1     221.596  22.824 173.089  1.00  0.00     0.293 HD
ENDBRANCH  15  18
BRANCH  17  20
ATOM     20  O   UNL     1     221.297  25.678 174.341  1.00  0.00    -0.504 OA
ATOM     21  H   UNL     1     221.173  25.406 173.373  1.00  0.00     0.293 HD
ENDBRANCH  17  20
ENDBRANCH   1  12
BRANCH   2  22
ATOM     22  O   UNL     1     222.626  26.579 178.960  1.00  0.00    -0.502 OA
ATOM     23  H   UNL     1     222.634  27.581 179.108  1.00  0.00     0.293 HD
ENDBRANCH   2  22
BRANCH   6  24
ATOM     24  O   UNL     1     220.885  26.270 183.984  1.00  0.00    -0.507 OA
ATOM     25  H   UNL     1     220.542  26.510 184.902  1.00  0.00     0.293 HD
ENDBRANCH   6  24
BRANCH   8  26
ATOM     26  O   UNL     1     217.903  22.524 183.612  1.00  0.00    -0.508 OA
ATOM     27  H   UNL     1     217.379  22.799 184.435  1.00  0.00     0.293 HD
ENDBRANCH   8  26
TORSDOF 6
ENDMDL
MODEL 4
REMARK VINA RESULT:    -5.575      2.798      4.676
REMARK INTER + INTRA:          -7.003
REMARK INTER:                  -6.797
REMARK INTRA:                  -0.206
REMARK UNBOUND:                -0.288
REMARK SMILES O=c1c(O)c(-c2ccc(O)c(O)c2)oc2cc(O)cc(O)c12
REMARK SMILES IDX 5 1 3 2 2 3 1 4 22 5 20 6 19 7 17 8 16 9 15 10 14 11 6 12
REMARK SMILES IDX 7 13 8 14 9 15 13 16 11 17 10 18 12 20 4 22 21 24 18 26
REMARK H PARENT 10 19 12 21 4 23 21 25 18 27
REMARK Flexibility Score: inf
ROOT
ATOM      1  C   UNL     1     220.489  25.349 181.972  1.00  0.00     0.180 A 
ATOM      2  C   UNL     1     221.588  25.906 181.294  1.00  0.00     0.208 A 
ATOM      3  C   UNL     1     221.941  25.397 180.035  1.00  0.00     0.238 A 
ATOM      4  O   UNL     1     222.958  25.863 179.458  1.00  0.00    -0.285 OA
ATOM      5  C   UNL     1     221.182  24.347 179.461  1.00  0.00     0.111 A 
ATOM      6  C   UNL     1     221.426  23.782 178.173  1.00  0.00     0.134 A 
ATOM      7  C   UNL     1     220.695  22.661 177.762  1.00  0.00     0.093 A 
ATOM      8  C   UNL     1     219.684  22.127 178.565  1.00  0.00     0.123 A 
ATOM      9  C   UNL     1     219.399  22.708 179.797  1.00  0.00     0.094 A 
ATOM     10  C   UNL     1     220.136  23.805 180.251  1.00  0.00     0.146 A 
ATOM     11  O   UNL     1     219.838  24.322 181.437  1.00  0.00    -0.452 OA
ENDROOT
BRANCH   1  12
ATOM     12  C   UNL     1     220.041  25.849 183.292  1.00  0.00     0.025 A 
ATOM     13  C   UNL     1     219.509  27.142 183.442  1.00  0.00     0.016 A 
ATOM     14  C   UNL     1     219.070  27.584 184.693  1.00  0.00     0.051 A 
ATOM     15  C   UNL     1     219.143  26.737 185.808  1.00  0.00     0.157 A 
ATOM     16  C   UNL     1     220.092  24.998 184.407  1.00  0.00     0.062 A 
ATOM     17  C   UNL     1     219.653  25.437 185.662  1.00  0.00     0.158 A 
BRANCH  15  18
ATOM     18  O   UNL     1     218.706  27.182 187.054  1.00  0.00    -0.504 OA
ATOM     19  H   UNL     1     218.247  28.078 187.167  1.00  0.00     0.293 HD
ENDBRANCH  15  18
BRANCH  17  20
ATOM     20  O   UNL     1     219.732  24.568 186.750  1.00  0.00    -0.504 OA
ATOM     21  H   UNL     1     219.287  24.772 187.636  1.00  0.00     0.293 HD
ENDBRANCH  17  20
ENDBRANCH   1  12
BRANCH   2  22
ATOM     22  O   UNL     1     222.337  26.926 181.889  1.00  0.00    -0.502 OA
ATOM     23  H   UNL     1     222.183  27.906 181.681  1.00  0.00     0.293 HD
ENDBRANCH   2  22
BRANCH   6  24
ATOM     24  O   UNL     1     222.348  24.296 177.257  1.00  0.00    -0.507 OA
ATOM     25  H   UNL     1     222.785  25.203 177.328  1.00  0.00     0.293 HD
ENDBRANCH   6  24
BRANCH   8  26
ATOM     26  O   UNL     1     218.950  21.021 178.141  1.00  0.00    -0.508 OA
ATOM     27  H   UNL     1     219.341  20.085 178.164  1.00  0.00     0.293 HD
ENDBRANCH   8  26
TORSDOF 6
ENDMDL
MODEL 5
REMARK VINA RESULT:    -5.539      1.669      7.116
REMARK INTER + INTRA:          -6.960
REMARK INTER:                  -6.674
REMARK INTRA:                  -0.286
REMARK UNBOUND:                -0.288
REMARK SMILES O=c1c(O)c(-c2ccc(O)c(O)c2)oc2cc(O)cc(O)c12
REMARK SMILES IDX 5 1 3 2 2 3 1 4 22 5 20 6 19 7 17 8 16 9 15 10 14 11 6 12
REMARK SMILES IDX 7 13 8 14 9 15 13 16 11 17 10 18 12 20 4 22 21 24 18 26
REMARK H PARENT 10 19 12 21 4 23 21 25 18 27
REMARK Flexibility Score: inf
ROOT
ATOM      1  C   UNL     1     220.307  25.042 178.115  1.00  0.00     0.180 A 
ATOM      2  C   UNL     1     220.695  26.294 178.625  1.00  0.00     0.208 A 
ATOM      3  C   UNL     1     220.727  26.484 180.015  1.00  0.00     0.238 A 
ATOM      4  O   UNL     1     221.022  27.622 180.463  1.00  0.00    -0.285 OA
ATOM      5  C   UNL     1     220.385  25.415 180.880  1.00  0.00     0.111 A 
ATOM      6  C   UNL     1     220.421  25.483 182.305  1.00  0.00     0.134 A 
ATOM      7  C   UNL     1     219.937  24.408 183.060  1.00  0.00     0.093 A 
ATOM      8  C   UNL     1     219.481  23.241 182.441  1.00  0.00     0.123 A 
ATOM      9  C   UNL     1     219.497  23.143 181.053  1.00  0.00     0.094 A 
ATOM     10  C   UNL     1     219.940  24.213 180.272  1.00  0.00     0.146 A 
ATOM     11  O   UNL     1     219.929  24.081 178.950  1.00  0.00    -0.452 OA
ENDROOT
BRANCH   1  12
ATOM     12  C   UNL     1     220.273  24.759 176.662  1.00  0.00     0.025 A 
ATOM     13  C   UNL     1     219.068  24.786 175.939  1.00  0.00     0.016 A 
ATOM     14  C   UNL     1     219.064  24.540 174.564  1.00  0.00     0.051 A 
ATOM     15  C   UNL     1     220.263  24.278 173.888  1.00  0.00     0.157 A 
ATOM     16  C   UNL     1     221.475  24.517 175.977  1.00  0.00     0.062 A 
ATOM     17  C   UNL     1     221.475  24.270 174.599  1.00  0.00     0.158 A 
BRANCH  15  18
ATOM     18  O   UNL     1     220.255  24.031 172.517  1.00  0.00    -0.504 OA
ATOM     19  H   UNL     1     220.744  23.238 172.117  1.00  0.00     0.293 HD
ENDBRANCH  15  18
BRANCH  17  20
ATOM     20  O   UNL     1     222.686  24.019 173.955  1.00  0.00    -0.504 OA
ATOM     21  H   UNL     1     223.173  24.733 173.429  1.00  0.00     0.293 HD
ENDBRANCH  17  20
ENDBRANCH   1  12
BRANCH   2  22
ATOM     22  O   UNL     1     221.007  27.342 177.753  1.00  0.00    -0.502 OA
ATOM     23  H   UNL     1     220.296  27.874 177.266  1.00  0.00     0.293 HD
ENDBRANCH   2  22
BRANCH   6  24
ATOM     24  O   UNL     1     220.942  26.564 183.022  1.00  0.00    -0.507 OA
ATOM     25  H   UNL     1     221.667  27.181 182.686  1.00  0.00     0.293 HD
ENDBRANCH   6  24
BRANCH   8  26
ATOM     26  O   UNL     1     219.016  22.170 183.200  1.00  0.00    -0.508 OA
ATOM     27  H   UNL     1     218.897  21.247 182.797  1.00  0.00     0.293 HD
ENDBRANCH   8  26
TORSDOF 6
ENDMDL
MODEL 6
REMARK VINA RESULT:    -5.502      1.618      6.885
REMARK INTER + INTRA:          -6.916
REMARK INTER:                  -6.636
REMARK INTRA:                  -0.279
REMARK UNBOUND:                -0.288
REMARK SMILES O=c1c(O)c(-c2ccc(O)c(O)c2)oc2cc(O)cc(O)c12
REMARK SMILES IDX 5 1 3 2 2 3 1 4 22 5 20 6 19 7 17 8 16 9 15 10 14 11 6 12
REMARK SMILES IDX 7 13 8 14 9 15 13 16 11 17 10 18 12 20 4 22 21 24 18 26
REMARK H PARENT 10 19 12 21 4 23 21 25 18 27
REMARK Flexibility Score: inf
ROOT
ATOM      1  C   UNL     1     220.109  24.350 177.801  1.00  0.00     0.180 A 
ATOM      2  C   UNL     1     219.539  23.358 178.617  1.00  0.00     0.208 A 
ATOM      3  C   UNL     1     219.573  23.521 180.011  1.00  0.00     0.238 A 
ATOM      4  O   UNL     1     219.109  22.604 180.738  1.00  0.00    -0.285 OA
ATOM      5  C   UNL     1     220.163  24.680 180.571  1.00  0.00     0.111 A 
ATOM      6  C   UNL     1     220.217  24.968 181.968  1.00  0.00     0.134 A 
ATOM      7  C   UNL     1     220.940  26.079 182.417  1.00  0.00     0.093 A 
ATOM      8  C   UNL     1     221.555  26.951 181.514  1.00  0.00     0.123 A 
ATOM      9  C   UNL     1     221.457  26.711 180.146  1.00  0.00     0.094 A 
ATOM     10  C   UNL     1     220.774  25.590 179.670  1.00  0.00     0.146 A 
ATOM     11  O   UNL     1     220.713  25.394 178.358  1.00  0.00    -0.452 OA
ENDROOT
BRANCH   1  12
ATOM     12  C   UNL     1     220.090  24.261 176.323  1.00  0.00     0.025 A 
ATOM     13  C   UNL     1     218.916  24.509 175.590  1.00  0.00     0.016 A 
ATOM     14  C   UNL     1     218.927  24.443 174.194  1.00  0.00     0.051 A 
ATOM     15  C   UNL     1     220.113  24.143 173.510  1.00  0.00     0.157 A 
ATOM     16  C   UNL     1     221.280  23.982 175.631  1.00  0.00     0.062 A 
ATOM     17  C   UNL     1     221.295  23.915 174.232  1.00  0.00     0.158 A 
BRANCH  15  18
ATOM     18  O   UNL     1     220.120  24.076 172.118  1.00  0.00    -0.504 OA
ATOM     19  H   UNL     1     219.347  23.674 171.602  1.00  0.00     0.293 HD
ENDBRANCH  15  18
BRANCH  17  20
ATOM     20  O   UNL     1     222.493  23.622 173.581  1.00  0.00    -0.504 OA
ATOM     21  H   UNL     1     222.547  23.520 172.576  1.00  0.00     0.293 HD
ENDBRANCH  17  20
ENDBRANCH   1  12
BRANCH   2  22
ATOM     22  O   UNL     1     218.981  22.211 178.045  1.00  0.00    -0.502 OA
ATOM     23  H   UNL     1     218.455  21.534 178.584  1.00  0.00     0.293 HD
ENDBRANCH   2  22
BRANCH   6  24
ATOM     24  O   UNL     1     219.561  24.214 182.946  1.00  0.00    -0.507 OA
ATOM     25  H   UNL     1     219.952  23.971 183.844  1.00  0.00     0.293 HD
ENDBRANCH   6  24
BRANCH   8  26
ATOM     26  O   UNL     1     222.259  28.064 181.968  1.00  0.00    -0.508 OA
ATOM     27  H   UNL     1     222.416  28.225 182.957  1.00  0.00     0.293 HD
ENDBRANCH   8  26
TORSDOF 6
ENDMDL
MODEL 7
REMARK VINA RESULT:    -5.351      2.629      7.904
REMARK INTER + INTRA:          -6.734
REMARK INTER:                  -6.411
REMARK INTRA:                  -0.323
REMARK UNBOUND:                -0.288
REMARK SMILES O=c1c(O)c(-c2ccc(O)c(O)c2)oc2cc(O)cc(O)c12
REMARK SMILES IDX 5 1 3 2 2 3 1 4 22 5 20 6 19 7 17 8 16 9 15 10 14 11 6 12
REMARK SMILES IDX 7 13 8 14 9 15 13 16 11 17 10 18 12 20 4 22 21 24 18 26
REMARK H PARENT 10 19 12 21 4 23 21 25 18 27
REMARK Flexibility Score: inf
ROOT
ATOM      1  C   UNL     1     220.190  24.256 181.331  1.00  0.00     0.180 A 
ATOM      2  C   UNL     1     219.456  23.142 181.775  1.00  0.00     0.208 A 
ATOM      3  C   UNL     1     219.021  23.101 183.109  1.00  0.00     0.238 A 
ATOM      4  O   UNL     1     218.412  22.077 183.515  1.00  0.00    -0.285 OA
ATOM      5  C   UNL     1     219.311  24.181 183.979  1.00  0.00     0.111 A 
ATOM      6  C   UNL     1     218.884  24.264 185.338  1.00  0.00     0.134 A 
ATOM      7  C   UNL     1     219.340  25.316 186.141  1.00  0.00     0.093 A 
ATOM      8  C   UNL     1     220.151  26.325 185.616  1.00  0.00     0.123 A 
ATOM      9  C   UNL     1     220.524  26.284 184.275  1.00  0.00     0.094 A 
ATOM     10  C   UNL     1     220.116  25.227 183.458  1.00  0.00     0.146 A 
ATOM     11  O   UNL     1     220.503  25.222 182.188  1.00  0.00    -0.452 OA
ENDROOT
BRANCH   1  12
ATOM     12  C   UNL     1     220.662  24.382 179.933  1.00  0.00     0.025 A 
ATOM     13  C   UNL     1     221.918  23.891 179.538  1.00  0.00     0.016 A 
ATOM     14  C   UNL     1     222.332  23.999 178.207  1.00  0.00     0.051 A 
ATOM     15  C   UNL     1     221.492  24.585 177.250  1.00  0.00     0.157 A 
ATOM     16  C   UNL     1     219.816  24.950 178.966  1.00  0.00     0.062 A 
ATOM     17  C   UNL     1     220.227  25.059 177.632  1.00  0.00     0.158 A 
BRANCH  15  18
ATOM     18  O   UNL     1     221.909  24.693 175.925  1.00  0.00    -0.504 OA
ATOM     19  H   UNL     1     221.784  23.933 175.266  1.00  0.00     0.293 HD
ENDBRANCH  15  18
BRANCH  17  20
ATOM     20  O   UNL     1     219.365  25.642 176.704  1.00  0.00    -0.504 OA
ATOM     21  H   UNL     1     218.375  25.754 176.885  1.00  0.00     0.293 HD
ENDBRANCH  17  20
ENDBRANCH   1  12
BRANCH   2  22
ATOM     22  O   UNL     1     219.201  22.077 180.906  1.00  0.00    -0.502 OA
ATOM     23  H   UNL     1     218.273  21.871 180.557  1.00  0.00     0.293 HD
ENDBRANCH   2  22
BRANCH   6  24
ATOM     24  O   UNL     1     218.000  23.360 185.935  1.00  0.00    -0.507 OA
ATOM     25  H   UNL     1     218.264  22.656 186.607  1.00  0.00     0.293 HD
ENDBRANCH   6  24
BRANCH   8  26
ATOM     26  O   UNL     1     220.587  27.377 186.418  1.00  0.00    -0.508 OA
ATOM     27  H   UNL     1     220.228  28.318 186.299  1.00  0.00     0.293 HD
ENDBRANCH   8  26
TORSDOF 6
ENDMDL
MODEL 8
REMARK VINA RESULT:    -5.328      2.524      4.340
REMARK INTER + INTRA:          -6.706
REMARK INTER:                  -6.383
REMARK INTRA:                  -0.323
REMARK UNBOUND:                -0.288
REMARK SMILES O=c1c(O)c(-c2ccc(O)c(O)c2)oc2cc(O)cc(O)c12
REMARK SMILES IDX 5 1 3 2 2 3 1 4 22 5 20 6 19 7 17 8 16 9 15 10 14 11 6 12
REMARK SMILES IDX 7 13 8 14 9 15 13 16 11 17 10 18 12 20 4 22 21 24 18 26
REMARK H PARENT 10 19 12 21 4 23 21 25 18 27
REMARK Flexibility Score: inf
ROOT
ATOM      1  C   UNL     1     219.858  24.228 181.079  1.00  0.00     0.180 A 
ATOM      2  C   UNL     1     219.077  24.849 180.089  1.00  0.00     0.208 A 
ATOM      3  C   UNL     1     219.394  24.636 178.738  1.00  0.00     0.238 A 
ATOM      4  O   UNL     1     218.725  25.237 177.858  1.00  0.00    -0.285 OA
ATOM      5  C   UNL     1     220.480  23.793 178.394  1.00  0.00     0.111 A 
ATOM      6  C   UNL     1     220.866  23.475 177.057  1.00  0.00     0.134 A 
ATOM      7  C   UNL     1     222.034  22.737 176.833  1.00  0.00     0.093 A 
ATOM      8  C   UNL     1     222.793  22.249 177.900  1.00  0.00     0.123 A 
ATOM      9  C   UNL     1     222.391  22.504 179.208  1.00  0.00     0.094 A 
ATOM     10  C   UNL     1     221.251  23.269 179.463  1.00  0.00     0.146 A 
ATOM     11  O   UNL     1     220.909  23.497 180.726  1.00  0.00    -0.452 OA
ENDROOT
BRANCH   1  12
ATOM     12  C   UNL     1     219.570  24.386 182.523  1.00  0.00     0.025 A 
ATOM     13  C   UNL     1     218.780  23.452 183.217  1.00  0.00     0.016 A 
ATOM     14  C   UNL     1     218.542  23.608 184.586  1.00  0.00     0.051 A 
ATOM     15  C   UNL     1     219.100  24.688 185.283  1.00  0.00     0.157 A 
ATOM     16  C   UNL     1     220.144  25.455 183.231  1.00  0.00     0.062 A 
ATOM     17  C   UNL     1     219.907  25.614 184.602  1.00  0.00     0.158 A 
BRANCH  15  18
ATOM     18  O   UNL     1     218.858  24.842 186.647  1.00  0.00    -0.504 OA
ATOM     19  H   UNL     1     218.995  25.730 187.113  1.00  0.00     0.293 HD
ENDBRANCH  15  18
BRANCH  17  20
ATOM     20  O   UNL     1     220.483  26.696 185.267  1.00  0.00    -0.504 OA
ATOM     21  H   UNL     1     219.939  27.319 185.851  1.00  0.00     0.293 HD
ENDBRANCH  17  20
ENDBRANCH   1  12
BRANCH   2  22
ATOM     22  O   UNL     1     218.024  25.695 180.451  1.00  0.00    -0.502 OA
ATOM     23  H   UNL     1     217.366  25.460 181.185  1.00  0.00     0.293 HD
ENDBRANCH   2  22
BRANCH   6  24
ATOM     24  O   UNL     1     220.128  23.834 175.925  1.00  0.00    -0.507 OA
ATOM     25  H   UNL     1     219.266  23.395 175.637  1.00  0.00     0.293 HD
ENDBRANCH   6  24
BRANCH   8  26
ATOM     26  O   UNL     1     223.946  21.501 177.669  1.00  0.00    -0.508 OA
ATOM     27  H   UNL     1     224.870  21.901 177.792  1.00  0.00     0.293 HD
ENDBRANCH   8  26
TORSDOF 6
ENDMDL
