MODEL 1
REMARK VINA RESULT:    -3.964      0.000      0.000
REMARK INTER + INTRA:          -6.712
REMARK INTER:                  -6.050
REMARK INTRA:                  -0.662
REMARK UNBOUND:                -0.662
REMARK SMILES CCCCCCCCCCC(=O)[O-]
REMARK SMILES IDX 7 1 8 2 9 3 10 4 11 5 12 6 13 7 6 8 5 9 4 10 3 11 2 12 1 13
REMARK H PARENT
REMARK Flexibility Score: inf
ROOT
ATOM      1  C   UNL     1       4.104  -4.139  -0.000  1.00  0.00     0.000 C 
ENDROOT
BRANCH   1   2
ATOM      2  C   UNL     1       4.815  -3.223   1.008  1.00  0.00     0.000 C 
BRANCH   2   3
ATOM      3  C   UNL     1       5.148  -1.841   0.422  1.00  0.00     0.006 C 
BRANCH   3   4
ATOM      4  C   UNL     1       5.238  -1.869  -1.110  1.00  0.00     0.053 C 
BRANCH   4   5
ATOM      5  C   UNL     1       5.628  -0.534  -1.666  1.00  0.00     0.041 C 
ATOM      6  O   UNL     1       4.949  -0.007  -2.587  1.00  0.00    -0.550 OA
ATOM      7  O   UNL     1       6.720   0.146  -1.143  1.00  0.00    -0.550 OA
ENDBRANCH   4   5
ENDBRANCH   3   4
ENDBRANCH   2   3
ENDBRANCH   1   2
BRANCH   1   8
ATOM      8  C   UNL     1       2.632  -4.388   0.364  1.00  0.00     0.000 C 
BRANCH   8   9
ATOM      9  C   UNL     1       2.369  -4.062   1.839  1.00  0.00    -0.000 C 
BRANCH   9  10
ATOM     10  C   UNL     1       1.449  -5.108   2.480  1.00  0.00    -0.000 C 
BRANCH  10  11
ATOM     11  C   UNL     1       2.242  -6.063   3.380  1.00  0.00    -0.000 C 
BRANCH  11  12
ATOM     12  C   UNL     1       3.426  -5.345   4.037  1.00  0.00    -0.003 C 
ATOM     13  C   UNL     1       3.900  -6.090   5.281  1.00  0.00     0.004 C 
ENDBRANCH  11  12
ENDBRANCH  10  11
ENDBRANCH   9  10
ENDBRANCH   8   9
ENDBRANCH   1   8
TORSDOF 9
ENDMDL
MODEL 2
REMARK VINA RESULT:    -3.858      0.697      1.449
REMARK INTER + INTRA:          -6.549
REMARK INTER:                  -5.589
REMARK INTRA:                  -0.960
REMARK UNBOUND:                -0.662
REMARK SMILES CCCCCCCCCCC(=O)[O-]
REMARK SMILES IDX 7 1 8 2 9 3 10 4 11 5 12 6 13 7 6 8 5 9 4 10 3 11 2 12 1 13
REMARK H PARENT
REMARK Flexibility Score: inf
ROOT
ATOM      1  C   UNL     1       4.956  -4.375   0.477  1.00  0.00     0.000 C 
ENDROOT
BRANCH   1   2
ATOM      2  C   UNL     1       4.480  -3.042   1.076  1.00  0.00     0.000 C 
BRANCH   2   3
ATOM      3  C   UNL     1       5.222  -1.830   0.488  1.00  0.00     0.006 C 
BRANCH   3   4
ATOM      4  C   UNL     1       5.277  -1.874  -1.045  1.00  0.00     0.053 C 
BRANCH   4   5
ATOM      5  C   UNL     1       5.693  -0.556  -1.623  1.00  0.00     0.041 C 
ATOM      6  O   UNL     1       6.721   0.030  -1.192  1.00  0.00    -0.550 OA
ATOM      7  O   UNL     1       4.966   0.009  -2.663  1.00  0.00    -0.550 OA
ENDBRANCH   4   5
ENDBRANCH   3   4
ENDBRANCH   2   3
ENDBRANCH   1   2
BRANCH   1   8
ATOM      8  C   UNL     1       3.793  -5.246  -0.023  1.00  0.00     0.000 C 
BRANCH   8   9
ATOM      9  C   UNL     1       2.449  -4.537   0.181  1.00  0.00    -0.000 C 
BRANCH   9  10
ATOM     10  C   UNL     1       1.471  -5.422   0.962  1.00  0.00    -0.000 C 
BRANCH  10  11
ATOM     11  C   UNL     1       1.399  -4.999   2.434  1.00  0.00    -0.000 C 
BRANCH  11  12
ATOM     12  C   UNL     1       2.173  -5.977   3.326  1.00  0.00    -0.003 C 
ATOM     13  C   UNL     1       3.454  -5.342   3.859  1.00  0.00     0.004 C 
ENDBRANCH  11  12
ENDBRANCH  10  11
ENDBRANCH   9  10
ENDBRANCH   8   9
ENDBRANCH   1   8
TORSDOF 9
ENDMDL
MODEL 3
REMARK VINA RESULT:    -3.760      1.603      2.200
REMARK INTER + INTRA:          -6.399
REMARK INTER:                  -5.938
REMARK INTRA:                  -0.461
REMARK UNBOUND:                -0.662
REMARK SMILES CCCCCCCCCCC(=O)[O-]
REMARK SMILES IDX 7 1 8 2 9 3 10 4 11 5 12 6 13 7 6 8 5 9 4 10 3 11 2 12 1 13
REMARK H PARENT
REMARK Flexibility Score: inf
ROOT
ATOM      1  C   UNL     1       4.904  -3.164   0.801  1.00  0.00     0.000 C 
ENDROOT
BRANCH   1   2
ATOM      2  C   UNL     1       5.135  -1.726   0.312  1.00  0.00     0.000 C 
BRANCH   2   3
ATOM      3  C   UNL     1       5.347  -1.643  -1.209  1.00  0.00     0.006 C 
BRANCH   3   4
ATOM      4  C   UNL     1       5.581  -0.203  -1.683  1.00  0.00     0.053 C 
BRANCH   4   5
ATOM      5  C   UNL     1       7.041   0.126  -1.756  1.00  0.00     0.041 C 
ATOM      6  O   UNL     1       7.420   1.223  -2.245  1.00  0.00    -0.550 OA
ATOM      7  O   UNL     1       7.981  -0.764  -1.252  1.00  0.00    -0.550 OA
ENDBRANCH   4   5
ENDBRANCH   3   4
ENDBRANCH   2   3
ENDBRANCH   1   2
BRANCH   1   8
ATOM      8  C   UNL     1       4.066  -3.995  -0.184  1.00  0.00     0.000 C 
BRANCH   8   9
ATOM      9  C   UNL     1       2.820  -4.566   0.503  1.00  0.00    -0.000 C 
BRANCH   9  10
ATOM     10  C   UNL     1       2.658  -3.995   1.917  1.00  0.00    -0.000 C 
BRANCH  10  11
ATOM     11  C   UNL     1       1.550  -4.725   2.684  1.00  0.00    -0.000 C 
BRANCH  11  12
ATOM     12  C   UNL     1       1.265  -6.099   2.065  1.00  0.00    -0.003 C 
ATOM     13  C   UNL     1       0.250  -6.878   2.896  1.00  0.00     0.004 C 
ENDBRANCH  11  12
ENDBRANCH  10  11
ENDBRANCH   9  10
ENDBRANCH   8   9
ENDBRANCH   1   8
TORSDOF 9
ENDMDL
MODEL 4
REMARK VINA RESULT:    -3.752      3.102      6.164
REMARK INTER + INTRA:          -6.388
REMARK INTER:                  -5.220
REMARK INTRA:                  -1.168
REMARK UNBOUND:                -0.662
REMARK SMILES CCCCCCCCCCC(=O)[O-]
REMARK SMILES IDX 7 1 8 2 9 3 10 4 11 5 12 6 13 7 6 8 5 9 4 10 3 11 2 12 1 13
REMARK H PARENT
REMARK Flexibility Score: inf
ROOT
ATOM      1  C   UNL     1       6.106  -2.106  -2.276  1.00  0.00     0.000 C 
ENDROOT
BRANCH   1   2
ATOM      2  C   UNL     1       5.703  -3.159  -1.232  1.00  0.00     0.000 C 
BRANCH   2   3
ATOM      3  C   UNL     1       4.769  -2.592  -0.149  1.00  0.00     0.006 C 
BRANCH   3   4
ATOM      4  C   UNL     1       4.713  -3.489   1.094  1.00  0.00     0.053 C 
BRANCH   4   5
ATOM      5  C   UNL     1       3.352  -4.085   1.286  1.00  0.00     0.041 C 
ATOM      6  O   UNL     1       2.904  -4.285   2.446  1.00  0.00    -0.550 OA
ATOM      7  O   UNL     1       2.563  -4.387   0.184  1.00  0.00    -0.550 OA
ENDBRANCH   4   5
ENDBRANCH   3   4
ENDBRANCH   2   3
ENDBRANCH   1   2
BRANCH   1   8
ATOM      8  C   UNL     1       5.304  -0.803  -2.141  1.00  0.00     0.000 C 
BRANCH   8   9
ATOM      9  C   UNL     1       6.237   0.413  -2.087  1.00  0.00    -0.000 C 
BRANCH   9  10
ATOM     10  C   UNL     1       7.657   0.001  -1.682  1.00  0.00    -0.000 C 
BRANCH  10  11
ATOM     11  C   UNL     1       7.963   0.421  -0.239  1.00  0.00    -0.000 C 
BRANCH  11  12
ATOM     12  C   UNL     1       8.078  -0.803   0.678  1.00  0.00    -0.003 C 
ATOM     13  C   UNL     1       7.236  -0.627   1.938  1.00  0.00     0.004 C 
ENDBRANCH  11  12
ENDBRANCH  10  11
ENDBRANCH   9  10
ENDBRANCH   8   9
ENDBRANCH   1   8
TORSDOF 9
ENDMDL
MODEL 5
REMARK VINA RESULT:    -3.748      1.466      2.315
REMARK INTER + INTRA:          -6.382
REMARK INTER:                  -5.546
REMARK INTRA:                  -0.836
REMARK UNBOUND:                -0.662
REMARK SMILES CCCCCCCCCCC(=O)[O-]
REMARK SMILES IDX 7 1 8 2 9 3 10 4 11 5 12 6 13 7 6 8 5 9 4 10 3 11 2 12 1 13
REMARK H PARENT
REMARK Flexibility Score: inf
ROOT
ATOM      1  C   UNL     1       6.211  -3.884   0.778  1.00  0.00     0.000 C 
ENDROOT
BRANCH   1   2
ATOM      2  C   UNL     1       6.327  -2.383   1.087  1.00  0.00     0.000 C 
BRANCH   2   3
ATOM      3  C   UNL     1       5.214  -1.554   0.425  1.00  0.00     0.006 C 
BRANCH   3   4
ATOM      4  C   UNL     1       5.240  -1.667  -1.105  1.00  0.00     0.053 C 
BRANCH   4   5
ATOM      5  C   UNL     1       5.651  -0.378  -1.748  1.00  0.00     0.041 C 
ATOM      6  O   UNL     1       4.974   0.103  -2.695  1.00  0.00    -0.550 OA
ATOM      7  O   UNL     1       6.763   0.310  -1.279  1.00  0.00    -0.550 OA
ENDBRANCH   4   5
ENDBRANCH   3   4
ENDBRANCH   2   3
ENDBRANCH   1   2
BRANCH   1   8
ATOM      8  C   UNL     1       5.670  -4.692   1.967  1.00  0.00     0.000 C 
BRANCH   8   9
ATOM      9  C   UNL     1       4.465  -5.544   1.549  1.00  0.00    -0.000 C 
BRANCH   9  10
ATOM     10  C   UNL     1       3.800  -4.977   0.290  1.00  0.00    -0.000 C 
BRANCH  10  11
ATOM     11  C   UNL     1       2.336  -4.609   0.557  1.00  0.00    -0.000 C 
BRANCH  11  12
ATOM     12  C   UNL     1       2.104  -4.316   2.044  1.00  0.00    -0.003 C 
ATOM     13  C   UNL     1       1.079  -5.274   2.642  1.00  0.00     0.004 C 
ENDBRANCH  11  12
ENDBRANCH  10  11
ENDBRANCH   9  10
ENDBRANCH   8   9
ENDBRANCH   1   8
TORSDOF 9
ENDMDL
MODEL 6
REMARK VINA RESULT:    -3.737      1.391      2.577
REMARK INTER + INTRA:          -6.365
REMARK INTER:                  -5.518
REMARK INTRA:                  -0.847
REMARK UNBOUND:                -0.662
REMARK SMILES CCCCCCCCCCC(=O)[O-]
REMARK SMILES IDX 7 1 8 2 9 3 10 4 11 5 12 6 13 7 6 8 5 9 4 10 3 11 2 12 1 13
REMARK H PARENT
REMARK Flexibility Score: inf
ROOT
ATOM      1  C   UNL     1       4.782  -4.832   0.857  1.00  0.00     0.000 C 
ENDROOT
BRANCH   1   2
ATOM      2  C   UNL     1       4.306  -3.700  -0.067  1.00  0.00     0.000 C 
BRANCH   2   3
ATOM      3  C   UNL     1       5.457  -2.793  -0.534  1.00  0.00     0.006 C 
BRANCH   3   4
ATOM      4  C   UNL     1       5.166  -1.310  -0.274  1.00  0.00     0.053 C 
BRANCH   4   5
ATOM      5  C   UNL     1       5.697  -0.440  -1.373  1.00  0.00     0.041 C 
ATOM      6  O   UNL     1       6.819   0.118  -1.254  1.00  0.00    -0.550 OA
ATOM      7  O   UNL     1       4.968  -0.275  -2.543  1.00  0.00    -0.550 OA
ENDBRANCH   4   5
ENDBRANCH   3   4
ENDBRANCH   2   3
ENDBRANCH   1   2
BRANCH   1   8
ATOM      8  C   UNL     1       3.969  -4.912   2.159  1.00  0.00     0.000 C 
BRANCH   8   9
ATOM      9  C   UNL     1       2.709  -4.044   2.073  1.00  0.00    -0.000 C 
BRANCH   9  10
ATOM     10  C   UNL     1       1.476  -4.812   2.563  1.00  0.00    -0.000 C 
BRANCH  10  11
ATOM     11  C   UNL     1       1.188  -6.023   1.668  1.00  0.00    -0.000 C 
BRANCH  11  12
ATOM     12  C   UNL     1       1.158  -5.620   0.190  1.00  0.00    -0.003 C 
ATOM     13  C   UNL     1       1.887  -6.645  -0.675  1.00  0.00     0.004 C 
ENDBRANCH  11  12
ENDBRANCH  10  11
ENDBRANCH   9  10
ENDBRANCH   8   9
ENDBRANCH   1   8
TORSDOF 9
ENDMDL
MODEL 7
REMARK VINA RESULT:    -3.730      1.381      2.150
REMARK INTER + INTRA:          -6.355
REMARK INTER:                  -5.099
REMARK INTRA:                  -1.256
REMARK UNBOUND:                -0.662
REMARK SMILES CCCCCCCCCCC(=O)[O-]
REMARK SMILES IDX 7 1 8 2 9 3 10 4 11 5 12 6 13 7 6 8 5 9 4 10 3 11 2 12 1 13
REMARK H PARENT
REMARK Flexibility Score: inf
ROOT
ATOM      1  C   UNL     1       1.983  -4.803   0.553  1.00  0.00     0.000 C 
ENDROOT
BRANCH   1   2
ATOM      2  C   UNL     1       3.362  -4.357   0.042  1.00  0.00     0.000 C 
BRANCH   2   3
ATOM      3  C   UNL     1       4.056  -3.369   0.995  1.00  0.00     0.006 C 
BRANCH   3   4
ATOM      4  C   UNL     1       5.432  -2.933   0.476  1.00  0.00     0.053 C 
BRANCH   4   5
ATOM      5  C   UNL     1       5.324  -2.175  -0.812  1.00  0.00     0.041 C 
ATOM      6  O   UNL     1       4.893  -0.992  -0.818  1.00  0.00    -0.550 OA
ATOM      7  O   UNL     1       5.733  -2.763  -2.002  1.00  0.00    -0.550 OA
ENDBRANCH   4   5
ENDBRANCH   3   4
ENDBRANCH   2   3
ENDBRANCH   1   2
BRANCH   1   8
ATOM      8  C   UNL     1       1.762  -4.459   2.034  1.00  0.00     0.000 C 
BRANCH   8   9
ATOM      9  C   UNL     1       1.250  -5.678   2.810  1.00  0.00    -0.000 C 
BRANCH   9  10
ATOM     10  C   UNL     1       2.388  -6.368   3.570  1.00  0.00    -0.000 C 
BRANCH  10  11
ATOM     11  C   UNL     1       3.385  -5.342   4.121  1.00  0.00    -0.000 C 
BRANCH  11  12
ATOM     12  C   UNL     1       4.829  -5.761   3.822  1.00  0.00    -0.003 C 
ATOM     13  C   UNL     1       4.901  -6.638   2.575  1.00  0.00     0.004 C 
ENDBRANCH  11  12
ENDBRANCH  10  11
ENDBRANCH   9  10
ENDBRANCH   8   9
ENDBRANCH   1   8
TORSDOF 9
ENDMDL
MODEL 8
REMARK VINA RESULT:    -3.649      3.253      6.064
REMARK INTER + INTRA:          -6.230
REMARK INTER:                  -5.281
REMARK INTRA:                  -0.950
REMARK UNBOUND:                -0.662
REMARK SMILES CCCCCCCCCCC(=O)[O-]
REMARK SMILES IDX 7 1 8 2 9 3 10 4 11 5 12 6 13 7 6 8 5 9 4 10 3 11 2 12 1 13
REMARK H PARENT
REMARK Flexibility Score: inf
ROOT
ATOM      1  C   UNL     1       5.092  -4.873   1.991  1.00  0.00     0.000 C 
ENDROOT
BRANCH   1   2
ATOM      2  C   UNL     1       4.116  -5.833   2.690  1.00  0.00     0.000 C 
BRANCH   2   3
ATOM      3  C   UNL     1       3.035  -5.094   3.497  1.00  0.00     0.006 C 
BRANCH   3   4
ATOM      4  C   UNL     1       2.013  -4.395   2.591  1.00  0.00     0.053 C 
BRANCH   4   5
ATOM      5  C   UNL     1       1.420  -5.340   1.592  1.00  0.00     0.041 C 
ATOM      6  O   UNL     1       0.639  -6.254   1.968  1.00  0.00    -0.550 OA
ATOM      7  O   UNL     1       1.701  -5.189   0.240  1.00  0.00    -0.550 OA
ENDBRANCH   4   5
ENDBRANCH   3   4
ENDBRANCH   2   3
ENDBRANCH   1   2
BRANCH   1   8
ATOM      8  C   UNL     1       5.270  -5.194   0.499  1.00  0.00     0.000 C 
BRANCH   8   9
ATOM      9  C   UNL     1       4.972  -3.965  -0.366  1.00  0.00    -0.000 C 
BRANCH   9  10
ATOM     10  C   UNL     1       4.618  -2.752   0.502  1.00  0.00    -0.000 C 
BRANCH  10  11
ATOM     11  C   UNL     1       5.316  -1.485  -0.008  1.00  0.00    -0.000 C 
BRANCH  11  12
ATOM     12  C   UNL     1       5.697  -1.623  -1.486  1.00  0.00    -0.003 C 
ATOM     13  C   UNL     1       5.368  -0.351  -2.261  1.00  0.00     0.004 C 
ENDBRANCH  11  12
ENDBRANCH  10  11
ENDBRANCH   9  10
ENDBRANCH   8   9
ENDBRANCH   1   8
TORSDOF 9
ENDMDL
MODEL 9
REMARK VINA RESULT:    -3.545      3.614      6.723
REMARK INTER + INTRA:          -6.072
REMARK INTER:                  -5.359
REMARK INTRA:                  -0.713
REMARK UNBOUND:                -0.662
REMARK SMILES CCCCCCCCCCC(=O)[O-]
REMARK SMILES IDX 7 1 8 2 9 3 10 4 11 5 12 6 13 7 6 8 5 9 4 10 3 11 2 12 1 13
REMARK H PARENT
REMARK Flexibility Score: inf
ROOT
ATOM      1  C   UNL     1       5.141  -2.676   0.360  1.00  0.00     0.000 C 
ENDROOT
BRANCH   1   2
ATOM      2  C   UNL     1       3.991  -3.475   0.994  1.00  0.00     0.000 C 
BRANCH   2   3
ATOM      3  C   UNL     1       3.312  -4.429  -0.003  1.00  0.00     0.006 C 
BRANCH   3   4
ATOM      4  C   UNL     1       1.868  -4.754   0.399  1.00  0.00     0.053 C 
BRANCH   4   5
ATOM      5  C   UNL     1       1.796  -5.354   1.770  1.00  0.00     0.041 C 
ATOM      6  O   UNL     1       1.166  -4.765   2.688  1.00  0.00    -0.550 OA
ATOM      7  O   UNL     1       2.393  -6.582   2.024  1.00  0.00    -0.550 OA
ENDBRANCH   4   5
ENDBRANCH   3   4
ENDBRANCH   2   3
ENDBRANCH   1   2
BRANCH   1   8
ATOM      8  C   UNL     1       5.705  -3.352  -0.900  1.00  0.00     0.000 C 
BRANCH   8   9
ATOM      9  C   UNL     1       5.991  -2.318  -1.995  1.00  0.00    -0.000 C 
BRANCH   9  10
ATOM     10  C   UNL     1       5.235  -1.011  -1.732  1.00  0.00    -0.000 C 
BRANCH  10  11
ATOM     11  C   UNL     1       6.129   0.207  -1.992  1.00  0.00    -0.000 C 
BRANCH  11  12
ATOM     12  C   UNL     1       7.367   0.184  -1.089  1.00  0.00    -0.003 C 
ATOM     13  C   UNL     1       8.647   0.328  -1.907  1.00  0.00     0.004 C 
ENDBRANCH  11  12
ENDBRANCH  10  11
ENDBRANCH   9  10
ENDBRANCH   8   9
ENDBRANCH   1   8
TORSDOF 9
ENDMDL
