MODEL 1
REMARK VINA RESULT:    -4.931      0.000      0.000
REMARK INTER + INTRA:          -5.813
REMARK INTER:                  -5.652
REMARK INTRA:                  -0.161
REMARK UNBOUND:                -0.161
REMARK SMILES CC=Cc1ccc(O)c(OC)c1
REMARK SMILES IDX 4 1 12 2 9 3 7 4 6 5 5 6 3 7 1 8 2 9 10 10 11 11 8 12
REMARK H PARENT 8 13
REMARK Flexibility Score: inf
ROOT
ATOM      1  C   UNL     1     -12.636   5.117   6.007  1.00  0.00    -0.022 A 
ATOM      2  C   UNL     1     -11.358   5.649   5.774  1.00  0.00     0.058 A 
ATOM      3  C   UNL     1     -10.394   5.696   6.802  1.00  0.00     0.161 A 
ATOM      4  C   UNL     1     -10.728   5.211   8.078  1.00  0.00     0.157 A 
ATOM      5  C   UNL     1     -12.005   4.694   8.318  1.00  0.00     0.051 A 
ATOM      6  C   UNL     1     -12.955   4.649   7.296  1.00  0.00     0.012 A 
ENDROOT
BRANCH   1   7
ATOM      7  C   UNL     1     -13.613   5.100   4.890  1.00  0.00     0.003 C 
ATOM      8  C   UNL     1     -14.999   6.092   3.111  1.00  0.00     0.035 C 
ATOM      9  C   UNL     1     -13.998   6.191   4.216  1.00  0.00    -0.030 C 
ENDBRANCH   1   7
BRANCH   3  10
ATOM     10  O   UNL     1      -9.106   6.216   6.592  1.00  0.00    -0.493 OA
ATOM     11  C   UNL     1      -8.832   7.543   6.152  1.00  0.00     0.278 C 
ENDBRANCH   3  10
BRANCH   4  12
ATOM     12  O   UNL     1      -9.807   5.238   9.125  1.00  0.00    -0.504 OA
ATOM     13  H   UNL     1     -10.029   4.888  10.050  1.00  0.00     0.293 HD
ENDBRANCH   4  12
TORSDOF 3
ENDMDL
MODEL 2
REMARK VINA RESULT:    -4.895     17.112     18.525
REMARK INTER + INTRA:          -5.772
REMARK INTER:                  -5.618
REMARK INTRA:                  -0.154
REMARK UNBOUND:                -0.161
REMARK SMILES CC=Cc1ccc(O)c(OC)c1
REMARK SMILES IDX 4 1 12 2 9 3 7 4 6 5 5 6 3 7 1 8 2 9 10 10 11 11 8 12
REMARK H PARENT 8 13
REMARK Flexibility Score: inf
ROOT
ATOM      1  C   UNL     1     -11.326  -5.741  -8.630  1.00  0.00    -0.022 A 
ATOM      2  C   UNL     1     -11.045  -4.669  -9.493  1.00  0.00     0.058 A 
ATOM      3  C   UNL     1     -10.289  -3.564  -9.052  1.00  0.00     0.161 A 
ATOM      4  C   UNL     1      -9.821  -3.537  -7.727  1.00  0.00     0.157 A 
ATOM      5  C   UNL     1     -10.110  -4.596  -6.862  1.00  0.00     0.051 A 
ATOM      6  C   UNL     1     -10.860  -5.688  -7.303  1.00  0.00     0.012 A 
ENDROOT
BRANCH   1   7
ATOM      7  C   UNL     1     -12.135  -6.874  -9.145  1.00  0.00     0.003 C 
ATOM      8  C   UNL     1     -13.648  -8.013 -10.722  1.00  0.00     0.035 C 
ATOM      9  C   UNL     1     -12.847  -6.831 -10.278  1.00  0.00    -0.030 C 
ENDBRANCH   1   7
BRANCH   3  10
ATOM     10  O   UNL     1      -9.987  -2.484  -9.898  1.00  0.00    -0.493 OA
ATOM     11  C   UNL     1     -10.777  -1.304 -10.015  1.00  0.00     0.278 C 
ENDBRANCH   3  10
BRANCH   4  12
ATOM     12  O   UNL     1      -9.069  -2.464  -7.249  1.00  0.00    -0.504 OA
ATOM     13  H   UNL     1      -9.289  -1.503  -7.483  1.00  0.00     0.293 HD
ENDBRANCH   4  12
TORSDOF 3
ENDMDL
MODEL 3
REMARK VINA RESULT:    -4.895      2.026      4.350
REMARK INTER + INTRA:          -5.771
REMARK INTER:                  -5.604
REMARK INTRA:                  -0.167
REMARK UNBOUND:                -0.161
REMARK SMILES CC=Cc1ccc(O)c(OC)c1
REMARK SMILES IDX 4 1 12 2 9 3 7 4 6 5 5 6 3 7 1 8 2 9 10 10 11 11 8 12
REMARK H PARENT 8 13
REMARK Flexibility Score: inf
ROOT
ATOM      1  C   UNL     1     -10.183   6.047   6.741  1.00  0.00    -0.022 A 
ATOM      2  C   UNL     1     -11.320   6.180   5.928  1.00  0.00     0.058 A 
ATOM      3  C   UNL     1     -12.483   5.425   6.180  1.00  0.00     0.161 A 
ATOM      4  C   UNL     1     -12.495   4.520   7.256  1.00  0.00     0.157 A 
ATOM      5  C   UNL     1     -11.360   4.374   8.058  1.00  0.00     0.051 A 
ATOM      6  C   UNL     1     -10.210   5.125   7.805  1.00  0.00     0.012 A 
ENDROOT
BRANCH   1   7
ATOM      7  C   UNL     1      -8.983   6.861   6.424  1.00  0.00     0.003 C 
ATOM      8  C   UNL     1      -7.774   8.892   5.728  1.00  0.00     0.035 C 
ATOM      9  C   UNL     1      -9.029   8.144   6.043  1.00  0.00    -0.030 C 
ENDBRANCH   1   7
BRANCH   3  10
ATOM     10  O   UNL     1     -13.636   5.546   5.386  1.00  0.00    -0.493 OA
ATOM     11  C   UNL     1     -13.728   5.132   4.026  1.00  0.00     0.278 C 
ENDBRANCH   3  10
BRANCH   4  12
ATOM     12  O   UNL     1     -13.623   3.753   7.541  1.00  0.00    -0.504 OA
ATOM     13  H   UNL     1     -14.339   4.064   8.188  1.00  0.00     0.293 HD
ENDBRANCH   4  12
TORSDOF 3
ENDMDL
MODEL 4
REMARK VINA RESULT:    -4.720     16.826     18.290
REMARK INTER + INTRA:          -5.571
REMARK INTER:                  -5.412
REMARK INTRA:                  -0.159
REMARK UNBOUND:                -0.161
REMARK SMILES CC=Cc1ccc(O)c(OC)c1
REMARK SMILES IDX 4 1 12 2 9 3 7 4 6 5 5 6 3 7 1 8 2 9 10 10 11 11 8 12
REMARK H PARENT 8 13
REMARK Flexibility Score: inf
ROOT
ATOM      1  C   UNL     1     -12.339  -6.328  -7.221  1.00  0.00    -0.022 A 
ATOM      2  C   UNL     1     -11.256  -5.512  -6.857  1.00  0.00     0.058 A 
ATOM      3  C   UNL     1     -10.489  -4.848  -7.835  1.00  0.00     0.161 A 
ATOM      4  C   UNL     1     -10.812  -5.018  -9.193  1.00  0.00     0.157 A 
ATOM      5  C   UNL     1     -11.880  -5.841  -9.560  1.00  0.00     0.051 A 
ATOM      6  C   UNL     1     -12.637  -6.496  -8.587  1.00  0.00     0.012 A 
ENDROOT
BRANCH   1   7
ATOM      7  C   UNL     1     -13.107  -7.010  -6.149  1.00  0.00     0.003 C 
ATOM      8  C   UNL     1     -15.075  -8.110  -5.156  1.00  0.00     0.035 C 
ATOM      9  C   UNL     1     -14.365  -7.445  -6.290  1.00  0.00    -0.030 C 
ENDBRANCH   1   7
BRANCH   3  10
ATOM     10  O   UNL     1      -9.406  -4.019  -7.497  1.00  0.00    -0.493 OA
ATOM     11  C   UNL     1      -9.501  -2.615  -7.276  1.00  0.00     0.278 C 
ENDBRANCH   3  10
BRANCH   4  12
ATOM     12  O   UNL     1     -10.080  -4.380 -10.194  1.00  0.00    -0.504 OA
ATOM     13  H   UNL     1     -10.514  -3.767 -10.874  1.00  0.00     0.293 HD
ENDBRANCH   4  12
TORSDOF 3
ENDMDL
MODEL 5
REMARK VINA RESULT:    -4.520     17.196     18.525
REMARK INTER + INTRA:          -5.342
REMARK INTER:                  -5.177
REMARK INTRA:                  -0.164
REMARK UNBOUND:                -0.161
REMARK SMILES CC=Cc1ccc(O)c(OC)c1
REMARK SMILES IDX 4 1 12 2 9 3 7 4 6 5 5 6 3 7 1 8 2 9 10 10 11 11 8 12
REMARK H PARENT 8 13
REMARK Flexibility Score: inf
ROOT
ATOM      1  C   UNL     1     -10.306  -3.987  -8.775  1.00  0.00    -0.022 A 
ATOM      2  C   UNL     1     -10.681  -5.259  -9.237  1.00  0.00     0.058 A 
ATOM      3  C   UNL     1     -10.657  -6.377  -8.380  1.00  0.00     0.161 A 
ATOM      4  C   UNL     1     -10.242  -6.211  -7.047  1.00  0.00     0.157 A 
ATOM      5  C   UNL     1      -9.854  -4.950  -6.587  1.00  0.00     0.051 A 
ATOM      6  C   UNL     1      -9.879  -3.845  -7.441  1.00  0.00     0.012 A 
ENDROOT
BRANCH   1   7
ATOM      7  C   UNL     1     -10.342  -2.847  -9.725  1.00  0.00     0.003 C 
ATOM      8  C   UNL     1     -10.967  -0.592 -10.496  1.00  0.00     0.035 C 
ATOM      9  C   UNL     1     -10.965  -1.688  -9.480  1.00  0.00    -0.030 C 
ENDBRANCH   1   7
BRANCH   3  10
ATOM     10  O   UNL     1     -11.036  -7.658  -8.815  1.00  0.00    -0.493 OA
ATOM     11  C   UNL     1     -12.285  -7.967  -9.427  1.00  0.00     0.278 C 
ENDBRANCH   3  10
BRANCH   4  12
ATOM     12  O   UNL     1     -10.203  -7.290  -6.163  1.00  0.00    -0.504 OA
ATOM     13  H   UNL     1     -10.499  -7.208  -5.197  1.00  0.00     0.293 HD
ENDBRANCH   4  12
TORSDOF 3
ENDMDL
MODEL 6
REMARK VINA RESULT:    -4.516      2.242      4.447
REMARK INTER + INTRA:          -5.337
REMARK INTER:                  -5.169
REMARK INTRA:                  -0.169
REMARK UNBOUND:                -0.161
REMARK SMILES CC=Cc1ccc(O)c(OC)c1
REMARK SMILES IDX 4 1 12 2 9 3 7 4 6 5 5 6 3 7 1 8 2 9 10 10 11 11 8 12
REMARK H PARENT 8 13
REMARK Flexibility Score: inf
ROOT
ATOM      1  C   UNL     1     -10.382   6.448   6.431  1.00  0.00    -0.022 A 
ATOM      2  C   UNL     1     -10.301   5.143   6.943  1.00  0.00     0.058 A 
ATOM      3  C   UNL     1     -11.466   4.406   7.236  1.00  0.00     0.161 A 
ATOM      4  C   UNL     1     -12.723   4.995   7.019  1.00  0.00     0.157 A 
ATOM      5  C   UNL     1     -12.808   6.299   6.523  1.00  0.00     0.051 A 
ATOM      6  C   UNL     1     -11.651   7.024   6.234  1.00  0.00     0.012 A 
ENDROOT
BRANCH   1   7
ATOM      7  C   UNL     1      -9.122   7.180   6.149  1.00  0.00     0.003 C 
ATOM      8  C   UNL     1      -7.725   9.175   5.775  1.00  0.00     0.035 C 
ATOM      9  C   UNL     1      -9.031   8.513   6.077  1.00  0.00    -0.030 C 
ENDBRANCH   1   7
BRANCH   3  10
ATOM     10  O   UNL     1     -11.411   3.096   7.741  1.00  0.00    -0.493 OA
ATOM     11  C   UNL     1     -11.355   2.765   9.125  1.00  0.00     0.278 C 
ENDBRANCH   3  10
BRANCH   4  12
ATOM     12  O   UNL     1     -13.902   4.303   7.294  1.00  0.00    -0.504 OA
ATOM     13  H   UNL     1     -14.628   4.174   6.599  1.00  0.00     0.293 HD
ENDBRANCH   4  12
TORSDOF 3
ENDMDL
MODEL 7
REMARK VINA RESULT:    -4.509     17.309     18.585
REMARK INTER + INTRA:          -5.328
REMARK INTER:                  -5.177
REMARK INTRA:                  -0.151
REMARK UNBOUND:                -0.161
REMARK SMILES CC=Cc1ccc(O)c(OC)c1
REMARK SMILES IDX 4 1 12 2 9 3 7 4 6 5 5 6 3 7 1 8 2 9 10 10 11 11 8 12
REMARK H PARENT 8 13
REMARK Flexibility Score: inf
ROOT
ATOM      1  C   UNL     1     -10.870  -5.550  -6.633  1.00  0.00    -0.022 A 
ATOM      2  C   UNL     1     -11.653  -5.887  -7.749  1.00  0.00     0.058 A 
ATOM      3  C   UNL     1     -11.463  -5.244  -8.988  1.00  0.00     0.161 A 
ATOM      4  C   UNL     1     -10.480  -4.245  -9.099  1.00  0.00     0.157 A 
ATOM      5  C   UNL     1      -9.709  -3.897  -7.987  1.00  0.00     0.051 A 
ATOM      6  C   UNL     1      -9.901  -4.537  -6.762  1.00  0.00     0.012 A 
ENDROOT
BRANCH   1   7
ATOM      7  C   UNL     1     -11.120  -6.254  -5.350  1.00  0.00     0.003 C 
ATOM      8  C   UNL     1     -11.866  -8.124  -3.929  1.00  0.00     0.035 C 
ATOM      9  C   UNL     1     -11.631  -7.489  -5.262  1.00  0.00    -0.030 C 
ENDBRANCH   1   7
BRANCH   3  10
ATOM     10  O   UNL     1     -12.228  -5.569 -10.121  1.00  0.00    -0.493 OA
ATOM     11  C   UNL     1     -12.901  -6.809 -10.313  1.00  0.00     0.278 C 
ENDBRANCH   3  10
BRANCH   4  12
ATOM     12  O   UNL     1     -10.258  -3.582 -10.306  1.00  0.00    -0.504 OA
ATOM     13  H   UNL     1      -9.777  -2.692 -10.353  1.00  0.00     0.293 HD
ENDBRANCH   4  12
TORSDOF 3
ENDMDL
MODEL 8
REMARK VINA RESULT:    -4.455     17.118     18.500
REMARK INTER + INTRA:          -5.267
REMARK INTER:                  -5.103
REMARK INTRA:                  -0.164
REMARK UNBOUND:                -0.161
REMARK SMILES CC=Cc1ccc(O)c(OC)c1
REMARK SMILES IDX 4 1 12 2 9 3 7 4 6 5 5 6 3 7 1 8 2 9 10 10 11 11 8 12
REMARK H PARENT 8 13
REMARK Flexibility Score: inf
ROOT
ATOM      1  C   UNL     1     -11.029  -5.494  -7.260  1.00  0.00    -0.022 A 
ATOM      2  C   UNL     1     -11.902  -6.372  -7.922  1.00  0.00     0.058 A 
ATOM      3  C   UNL     1     -12.740  -7.243  -7.198  1.00  0.00     0.161 A 
ATOM      4  C   UNL     1     -12.688  -7.235  -5.793  1.00  0.00     0.157 A 
ATOM      5  C   UNL     1     -11.810  -6.373  -5.131  1.00  0.00     0.051 A 
ATOM      6  C   UNL     1     -10.982  -5.512  -5.854  1.00  0.00     0.012 A 
ENDROOT
BRANCH   1   7
ATOM      7  C   UNL     1     -10.163  -4.604  -8.075  1.00  0.00     0.003 C 
ATOM      8  C   UNL     1      -9.561  -3.259 -10.049  1.00  0.00     0.035 C 
ATOM      9  C   UNL     1     -10.496  -4.141  -9.286  1.00  0.00    -0.030 C 
ENDBRANCH   1   7
BRANCH   3  10
ATOM     10  O   UNL     1     -13.628  -8.125  -7.837  1.00  0.00    -0.493 OA
ATOM     11  C   UNL     1     -14.671  -7.722  -8.719  1.00  0.00     0.278 C 
ENDBRANCH   3  10
BRANCH   4  12
ATOM     12  O   UNL     1     -13.499  -8.081  -5.036  1.00  0.00    -0.504 OA
ATOM     13  H   UNL     1     -13.557  -9.077  -5.215  1.00  0.00     0.293 HD
ENDBRANCH   4  12
TORSDOF 3
ENDMDL
MODEL 9
REMARK VINA RESULT:    -3.313      1.432      2.458
REMARK INTER + INTRA:          -3.958
REMARK INTER:                  -3.809
REMARK INTRA:                  -0.149
REMARK UNBOUND:                -0.161
REMARK SMILES CC=Cc1ccc(O)c(OC)c1
REMARK SMILES IDX 4 1 12 2 9 3 7 4 6 5 5 6 3 7 1 8 2 9 10 10 11 11 8 12
REMARK H PARENT 8 13
REMARK Flexibility Score: inf
ROOT
ATOM      1  C   UNL     1     -12.339   5.334   5.402  1.00  0.00    -0.022 A 
ATOM      2  C   UNL     1     -12.849   5.819   6.617  1.00  0.00     0.058 A 
ATOM      3  C   UNL     1     -12.030   5.913   7.761  1.00  0.00     0.161 A 
ATOM      4  C   UNL     1     -10.688   5.504   7.679  1.00  0.00     0.157 A 
ATOM      5  C   UNL     1     -10.181   5.007   6.475  1.00  0.00     0.051 A 
ATOM      6  C   UNL     1     -10.996   4.917   5.345  1.00  0.00     0.012 A 
ENDROOT
BRANCH   1   7
ATOM      7  C   UNL     1     -13.250   5.250   4.233  1.00  0.00     0.003 C 
ATOM      8  C   UNL     1     -15.060   6.009   2.744  1.00  0.00     0.035 C 
ATOM      9  C   UNL     1     -14.171   6.174   3.934  1.00  0.00    -0.030 C 
ENDBRANCH   1   7
BRANCH   3  10
ATOM     10  O   UNL     1     -12.514   6.402   8.985  1.00  0.00    -0.493 OA
ATOM     11  C   UNL     1     -13.653   7.247   9.125  1.00  0.00     0.278 C 
ENDBRANCH   3  10
BRANCH   4  12
ATOM     12  O   UNL     1      -9.842   5.578   8.785  1.00  0.00    -0.504 OA
ATOM     13  H   UNL     1      -8.910   5.181   8.780  1.00  0.00     0.293 HD
ENDBRANCH   4  12
TORSDOF 3
ENDMDL
