MODEL 1
REMARK VINA RESULT:    -5.870      0.000      0.000
REMARK INTER + INTRA:          -5.870
REMARK INTER:                  -5.870
REMARK INTRA:                   0.000
REMARK UNBOUND:                 0.000
REMARK SMILES O=c1ccc2ccccc2o1
REMARK SMILES IDX 7 1 8 2 9 3 10 4 5 5 6 6 4 7 3 8 2 9 1 10 11 11
REMARK H PARENT
REMARK Flexibility Score: inf
ROOT
ATOM      1  C   UNL     1       6.968  48.589  24.052  1.00  0.00     0.001 A 
ATOM      2  C   UNL     1       6.036  49.037  24.995  1.00  0.00     0.004 A 
ATOM      3  C   UNL     1       4.666  48.878  24.761  1.00  0.00     0.048 A 
ATOM      4  C   UNL     1       4.222  48.269  23.582  1.00  0.00     0.138 A 
ATOM      5  C   UNL     1       5.163  47.816  22.630  1.00  0.00     0.018 A 
ATOM      6  C   UNL     1       6.536  47.979  22.870  1.00  0.00     0.012 A 
ATOM      7  C   UNL     1       4.690  47.211  21.461  1.00  0.00     0.019 A 
ATOM      8  C   UNL     1       3.316  47.073  21.270  1.00  0.00     0.094 A 
ATOM      9  C   UNL     1       2.443  47.546  22.256  1.00  0.00     0.336 A 
ATOM     10  O   UNL     1       1.199  47.430  22.102  1.00  0.00    -0.246 OA
ATOM     11  O   UNL     1       2.919  48.117  23.359  1.00  0.00    -0.423 OA
ENDROOT
TORSDOF 0
ENDMDL
MODEL 2
REMARK VINA RESULT:    -5.823     10.612     11.507
REMARK INTER + INTRA:          -5.823
REMARK INTER:                  -5.823
REMARK INTRA:                   0.000
REMARK UNBOUND:                 0.000
REMARK SMILES O=c1ccc2ccccc2o1
REMARK SMILES IDX 7 1 8 2 9 3 10 4 5 5 6 6 4 7 3 8 2 9 1 10 11 11
REMARK H PARENT
REMARK Flexibility Score: inf
ROOT
ATOM      1  C   UNL     1       0.358  61.253  24.435  1.00  0.00     0.001 A 
ATOM      2  C   UNL     1      -0.285  60.352  25.291  1.00  0.00     0.004 A 
ATOM      3  C   UNL     1       0.095  59.006  25.309  1.00  0.00     0.048 A 
ATOM      4  C   UNL     1       1.120  58.555  24.470  1.00  0.00     0.138 A 
ATOM      5  C   UNL     1       1.769  59.465  23.605  1.00  0.00     0.018 A 
ATOM      6  C   UNL     1       1.383  60.813  23.592  1.00  0.00     0.012 A 
ATOM      7  C   UNL     1       2.789  58.986  22.777  1.00  0.00     0.019 A 
ATOM      8  C   UNL     1       3.134  57.636  22.829  1.00  0.00     0.094 A 
ATOM      9  C   UNL     1       2.448  56.793  23.710  1.00  0.00     0.336 A 
ATOM     10  O   UNL     1       2.745  55.571  23.771  1.00  0.00    -0.246 OA
ATOM     11  O   UNL     1       1.481  57.274  24.487  1.00  0.00    -0.423 OA
ENDROOT
TORSDOF 0
ENDMDL
MODEL 3
REMARK VINA RESULT:    -5.683      1.913      4.356
REMARK INTER + INTRA:          -5.683
REMARK INTER:                  -5.683
REMARK INTRA:                   0.000
REMARK UNBOUND:                 0.000
REMARK SMILES O=c1ccc2ccccc2o1
REMARK SMILES IDX 7 1 8 2 9 3 10 4 5 5 6 6 4 7 3 8 2 9 1 10 11 11
REMARK H PARENT
REMARK Flexibility Score: inf
ROOT
ATOM      1  C   UNL     1       2.275  47.258  21.988  1.00  0.00     0.001 A 
ATOM      2  C   UNL     1       3.279  47.006  21.046  1.00  0.00     0.004 A 
ATOM      3  C   UNL     1       4.616  47.276  21.353  1.00  0.00     0.048 A 
ATOM      4  C   UNL     1       4.956  47.800  22.606  1.00  0.00     0.138 A 
ATOM      5  C   UNL     1       3.942  48.055  23.557  1.00  0.00     0.018 A 
ATOM      6  C   UNL     1       2.603  47.782  23.242  1.00  0.00     0.012 A 
ATOM      7  C   UNL     1       4.311  48.579  24.800  1.00  0.00     0.019 A 
ATOM      8  C   UNL     1       5.657  48.833  25.063  1.00  0.00     0.094 A 
ATOM      9  C   UNL     1       6.606  48.555  24.073  1.00  0.00     0.336 A 
ATOM     10  O   UNL     1       7.826  48.777  24.291  1.00  0.00    -0.246 OA
ATOM     11  O   UNL     1       6.228  48.057  22.899  1.00  0.00    -0.423 OA
ENDROOT
TORSDOF 0
ENDMDL
MODEL 4
REMARK VINA RESULT:    -5.681      1.984      4.536
REMARK INTER + INTRA:          -5.681
REMARK INTER:                  -5.681
REMARK INTRA:                   0.000
REMARK UNBOUND:                 0.000
REMARK SMILES O=c1ccc2ccccc2o1
REMARK SMILES IDX 7 1 8 2 9 3 10 4 5 5 6 6 4 7 3 8 2 9 1 10 11 11
REMARK H PARENT
REMARK Flexibility Score: inf
ROOT
ATOM      1  C   UNL     1       0.767  47.250  23.384  1.00  0.00     0.001 A 
ATOM      2  C   UNL     1       1.455  47.632  22.227  1.00  0.00     0.004 A 
ATOM      3  C   UNL     1       2.796  48.023  22.302  1.00  0.00     0.048 A 
ATOM      4  C   UNL     1       3.455  48.033  23.537  1.00  0.00     0.138 A 
ATOM      5  C   UNL     1       2.760  47.648  24.705  1.00  0.00     0.018 A 
ATOM      6  C   UNL     1       1.416  47.257  24.623  1.00  0.00     0.012 A 
ATOM      7  C   UNL     1       3.445  47.668  25.925  1.00  0.00     0.019 A 
ATOM      8  C   UNL     1       4.781  48.065  25.953  1.00  0.00     0.094 A 
ATOM      9  C   UNL     1       5.405  48.433  24.755  1.00  0.00     0.336 A 
ATOM     10  O   UNL     1       6.611  48.794  24.760  1.00  0.00    -0.246 OA
ATOM     11  O   UNL     1       4.731  48.404  23.609  1.00  0.00    -0.423 OA
ENDROOT
TORSDOF 0
ENDMDL
MODEL 5
REMARK VINA RESULT:    -5.645      1.643      2.723
REMARK INTER + INTRA:          -5.645
REMARK INTER:                  -5.645
REMARK INTRA:                   0.000
REMARK UNBOUND:                 0.000
REMARK SMILES O=c1ccc2ccccc2o1
REMARK SMILES IDX 7 1 8 2 9 3 10 4 5 5 6 6 4 7 3 8 2 9 1 10 11 11
REMARK H PARENT
REMARK Flexibility Score: inf
ROOT
ATOM      1  C   UNL     1       4.676  47.857  25.883  1.00  0.00     0.001 A 
ATOM      2  C   UNL     1       5.326  48.174  24.685  1.00  0.00     0.004 A 
ATOM      3  C   UNL     1       4.627  48.142  23.475  1.00  0.00     0.048 A 
ATOM      4  C   UNL     1       3.272  47.792  23.457  1.00  0.00     0.138 A 
ATOM      5  C   UNL     1       2.615  47.471  24.666  1.00  0.00     0.018 A 
ATOM      6  C   UNL     1       3.323  47.505  25.877  1.00  0.00     0.012 A 
ATOM      7  C   UNL     1       1.261  47.125  24.617  1.00  0.00     0.019 A 
ATOM      8  C   UNL     1       0.604  47.106  23.388  1.00  0.00     0.094 A 
ATOM      9  C   UNL     1       1.319  47.436  22.231  1.00  0.00     0.336 A 
ATOM     10  O   UNL     1       0.743  47.425  21.111  1.00  0.00    -0.246 OA
ATOM     11  O   UNL     1       2.607  47.762  22.305  1.00  0.00    -0.423 OA
ENDROOT
TORSDOF 0
ENDMDL
MODEL 6
REMARK VINA RESULT:    -5.624      1.721      3.871
REMARK INTER + INTRA:          -5.624
REMARK INTER:                  -5.624
REMARK INTRA:                   0.000
REMARK UNBOUND:                 0.000
REMARK SMILES O=c1ccc2ccccc2o1
REMARK SMILES IDX 7 1 8 2 9 3 10 4 5 5 6 6 4 7 3 8 2 9 1 10 11 11
REMARK H PARENT
REMARK Flexibility Score: inf
ROOT
ATOM      1  C   UNL     1       3.096  47.214  21.376  1.00  0.00     0.001 A 
ATOM      2  C   UNL     1       2.370  47.513  22.534  1.00  0.00     0.004 A 
ATOM      3  C   UNL     1       3.031  47.966  23.681  1.00  0.00     0.048 A 
ATOM      4  C   UNL     1       4.422  48.120  23.674  1.00  0.00     0.138 A 
ATOM      5  C   UNL     1       5.154  47.817  22.505  1.00  0.00     0.018 A 
ATOM      6  C   UNL     1       4.486  47.364  21.358  1.00  0.00     0.012 A 
ATOM      7  C   UNL     1       6.544  47.981  22.528  1.00  0.00     0.019 A 
ATOM      8  C   UNL     1       7.159  48.434  23.693  1.00  0.00     0.094 A 
ATOM      9  C   UNL     1       6.369  48.715  24.814  1.00  0.00     0.336 A 
ATOM     10  O   UNL     1       6.907  49.125  25.875  1.00  0.00    -0.246 OA
ATOM     11  O   UNL     1       5.050  48.551  24.765  1.00  0.00    -0.423 OA
ENDROOT
TORSDOF 0
ENDMDL
MODEL 7
REMARK VINA RESULT:    -5.509     11.226     12.126
REMARK INTER + INTRA:          -5.509
REMARK INTER:                  -5.509
REMARK INTRA:                   0.000
REMARK UNBOUND:                 0.000
REMARK SMILES O=c1ccc2ccccc2o1
REMARK SMILES IDX 7 1 8 2 9 3 10 4 5 5 6 6 4 7 3 8 2 9 1 10 11 11
REMARK H PARENT
REMARK Flexibility Score: inf
ROOT
ATOM      1  C   UNL     1       2.882  56.896  23.979  1.00  0.00     0.001 A 
ATOM      2  C   UNL     1       3.424  57.784  23.042  1.00  0.00     0.004 A 
ATOM      3  C   UNL     1       2.875  59.060  22.882  1.00  0.00     0.048 A 
ATOM      4  C   UNL     1       1.780  59.455  23.660  1.00  0.00     0.138 A 
ATOM      5  C   UNL     1       1.234  58.559  24.606  1.00  0.00     0.018 A 
ATOM      6  C   UNL     1       1.789  57.280  24.762  1.00  0.00     0.012 A 
ATOM      7  C   UNL     1       0.140  58.982  25.370  1.00  0.00     0.019 A 
ATOM      8  C   UNL     1      -0.374  60.263  25.176  1.00  0.00     0.094 A 
ATOM      9  C   UNL     1       0.219  61.096  24.220  1.00  0.00     0.336 A 
ATOM     10  O   UNL     1      -0.231  62.256  24.032  1.00  0.00    -0.246 OA
ATOM     11  O   UNL     1       1.259  60.669  23.508  1.00  0.00    -0.423 OA
ENDROOT
TORSDOF 0
ENDMDL
MODEL 8
REMARK VINA RESULT:    -5.453      1.497      4.037
REMARK INTER + INTRA:          -5.453
REMARK INTER:                  -5.453
REMARK INTRA:                   0.000
REMARK UNBOUND:                 0.000
REMARK SMILES O=c1ccc2ccccc2o1
REMARK SMILES IDX 7 1 8 2 9 3 10 4 5 5 6 6 4 7 3 8 2 9 1 10 11 11
REMARK H PARENT
REMARK Flexibility Score: inf
ROOT
ATOM      1  C   UNL     1       0.876  47.191  20.903  1.00  0.00     0.001 A 
ATOM      2  C   UNL     1       0.479  47.649  22.164  1.00  0.00     0.004 A 
ATOM      3  C   UNL     1       1.437  47.966  23.132  1.00  0.00     0.048 A 
ATOM      4  C   UNL     1       2.799  47.827  22.841  1.00  0.00     0.138 A 
ATOM      5  C   UNL     1       3.201  47.365  21.568  1.00  0.00     0.018 A 
ATOM      6  C   UNL     1       2.234  47.048  20.602  1.00  0.00     0.012 A 
ATOM      7  C   UNL     1       4.569  47.236  21.306  1.00  0.00     0.019 A 
ATOM      8  C   UNL     1       5.489  47.564  22.301  1.00  0.00     0.094 A 
ATOM      9  C   UNL     1       5.018  48.016  23.539  1.00  0.00     0.336 A 
ATOM     10  O   UNL     1       5.833  48.317  24.449  1.00  0.00    -0.246 OA
ATOM     11  O   UNL     1       3.711  48.130  23.762  1.00  0.00    -0.423 OA
ENDROOT
TORSDOF 0
ENDMDL
MODEL 9
REMARK VINA RESULT:    -5.447     11.107     12.072
REMARK INTER + INTRA:          -5.447
REMARK INTER:                  -5.447
REMARK INTRA:                   0.000
REMARK UNBOUND:                 0.000
REMARK SMILES O=c1ccc2ccccc2o1
REMARK SMILES IDX 7 1 8 2 9 3 10 4 5 5 6 6 4 7 3 8 2 9 1 10 11 11
REMARK H PARENT
REMARK Flexibility Score: inf
ROOT
ATOM      1  C   UNL     1       1.086  56.431  22.975  1.00  0.00     0.001 A 
ATOM      2  C   UNL     1       2.347  56.572  22.383  1.00  0.00     0.004 A 
ATOM      3  C   UNL     1       2.976  57.821  22.359  1.00  0.00     0.048 A 
ATOM      4  C   UNL     1       2.347  58.935  22.927  1.00  0.00     0.138 A 
ATOM      5  C   UNL     1       1.074  58.792  23.523  1.00  0.00     0.018 A 
ATOM      6  C   UNL     1       0.448  57.537  23.545  1.00  0.00     0.012 A 
ATOM      7  C   UNL     1       0.469  59.922  24.083  1.00  0.00     0.019 A 
ATOM      8  C   UNL     1       1.134  61.147  24.035  1.00  0.00     0.094 A 
ATOM      9  C   UNL     1       2.393  61.213  23.427  1.00  0.00     0.336 A 
ATOM     10  O   UNL     1       3.009  62.310  23.375  1.00  0.00    -0.246 OA
ATOM     11  O   UNL     1       2.946  60.123  22.903  1.00  0.00    -0.423 OA
ENDROOT
TORSDOF 0
ENDMDL
