MODEL 1
REMARK VINA RESULT:    -4.670      0.000      0.000
REMARK INTER + INTRA:         -13.800
REMARK INTER:                 -10.131
REMARK INTRA:                  -3.670
REMARK UNBOUND:                -3.670
REMARK SMILES CCCCCCCCCCCCCCCCCCCCCC(=O)[O-]
REMARK SMILES IDX 12 1 11 2 10 3 9 4 8 5 7 6 6 7 5 8 4 9 3 10 2 11 1 12 13 13
REMARK SMILES IDX 14 14 15 15 16 16 17 17 18 18 19 19 20 20 21 21 22 22 23 23
REMARK SMILES IDX 24 24
REMARK H PARENT
REMARK Flexibility Score: inf
ROOT
ATOM      1  C   UNL     1      63.186  30.296  14.779  1.00  0.00     0.000 C 
ENDROOT
BRANCH   1   2
ATOM      2  C   UNL     1      64.395  31.248  14.798  1.00  0.00     0.000 C 
BRANCH   2   3
ATOM      3  C   UNL     1      64.083  32.707  14.403  1.00  0.00     0.000 C 
BRANCH   3   4
ATOM      4  C   UNL     1      63.518  32.896  12.984  1.00  0.00    -0.000 C 
BRANCH   4   5
ATOM      5  C   UNL     1      64.451  32.359  11.889  1.00  0.00    -0.000 C 
BRANCH   5   6
ATOM      6  C   UNL     1      63.654  31.590  10.824  1.00  0.00    -0.000 C 
BRANCH   6   7
ATOM      7  C   UNL     1      64.410  30.365  10.286  1.00  0.00    -0.000 C 
BRANCH   7   8
ATOM      8  C   UNL     1      63.872  29.882   8.927  1.00  0.00    -0.000 C 
BRANCH   8   9
ATOM      9  C   UNL     1      62.338  29.718   8.932  1.00  0.00    -0.000 C 
BRANCH   9  10
ATOM     10  C   UNL     1      61.856  28.465   9.684  1.00  0.00    -0.000 C 
BRANCH  10  11
ATOM     11  C   UNL     1      60.662  27.781   9.005  1.00  0.00    -0.003 C 
ATOM     12  C   UNL     1      59.344  28.400   9.459  1.00  0.00     0.004 C 
ENDBRANCH  10  11
ENDBRANCH   9  10
ENDBRANCH   8   9
ENDBRANCH   7   8
ENDBRANCH   6   7
ENDBRANCH   5   6
ENDBRANCH   4   5
ENDBRANCH   3   4
ENDBRANCH   2   3
ENDBRANCH   1   2
BRANCH   1  13
ATOM     13  C   UNL     1      63.286  29.227  13.677  1.00  0.00     0.000 C 
BRANCH  13  14
ATOM     14  C   UNL     1      61.921  28.612  13.319  1.00  0.00     0.000 C 
BRANCH  14  15
ATOM     15  C   UNL     1      60.710  29.540  13.553  1.00  0.00     0.000 C 
BRANCH  15  16
ATOM     16  C   UNL     1      60.377  30.493  12.388  1.00  0.00     0.000 C 
BRANCH  16  17
ATOM     17  C   UNL     1      60.087  31.947  12.802  1.00  0.00     0.000 C 
BRANCH  17  18
ATOM     18  C   UNL     1      59.667  32.071  14.273  1.00  0.00     0.000 C 
BRANCH  18  19
ATOM     19  C   UNL     1      60.370  33.256  14.947  1.00  0.00     0.000 C 
BRANCH  19  20
ATOM     20  C   UNL     1      60.916  32.857  16.327  1.00  0.00     0.006 C 
BRANCH  20  21
ATOM     21  C   UNL     1      60.977  34.046  17.295  1.00  0.00     0.053 C 
BRANCH  21  22
ATOM     22  C   UNL     1      61.311  33.618  18.693  1.00  0.00     0.041 C 
ATOM     23  O   UNL     1      60.397  33.479  19.549  1.00  0.00    -0.550 OA
ATOM     24  O   UNL     1      62.630  33.346  19.043  1.00  0.00    -0.550 OA
ENDBRANCH  21  22
ENDBRANCH  20  21
ENDBRANCH  19  20
ENDBRANCH  18  19
ENDBRANCH  17  18
ENDBRANCH  16  17
ENDBRANCH  15  16
ENDBRANCH  14  15
ENDBRANCH  13  14
ENDBRANCH   1  13
TORSDOF 20
ENDMDL
MODEL 2
REMARK VINA RESULT:    -4.657      1.182      4.793
REMARK INTER + INTRA:         -13.771
REMARK INTER:                 -10.383
REMARK INTRA:                  -3.388
REMARK UNBOUND:                -3.670
REMARK SMILES CCCCCCCCCCCCCCCCCCCCCC(=O)[O-]
REMARK SMILES IDX 12 1 11 2 10 3 9 4 8 5 7 6 6 7 5 8 4 9 3 10 2 11 1 12 13 13
REMARK SMILES IDX 14 14 15 15 16 16 17 17 18 18 19 19 20 20 21 21 22 22 23 23
REMARK SMILES IDX 24 24
REMARK H PARENT
REMARK Flexibility Score: inf
ROOT
ATOM      1  C   UNL     1      63.557  29.630  10.323  1.00  0.00     0.000 C 
ENDROOT
BRANCH   1   2
ATOM      2  C   UNL     1      62.508  29.581   9.197  1.00  0.00     0.000 C 
BRANCH   2   3
ATOM      3  C   UNL     1      61.249  28.746   9.514  1.00  0.00     0.000 C 
BRANCH   3   4
ATOM      4  C   UNL     1      59.988  29.564   9.846  1.00  0.00    -0.000 C 
BRANCH   4   5
ATOM      5  C   UNL     1      59.418  29.252  11.237  1.00  0.00    -0.000 C 
BRANCH   5   6
ATOM      6  C   UNL     1      60.290  28.217  11.965  1.00  0.00    -0.000 C 
BRANCH   6   7
ATOM      7  C   UNL     1      60.354  28.455  13.481  1.00  0.00    -0.000 C 
BRANCH   7   8
ATOM      8  C   UNL     1      61.638  29.185  13.916  1.00  0.00    -0.000 C 
BRANCH   8   9
ATOM      9  C   UNL     1      61.358  30.278  14.970  1.00  0.00    -0.000 C 
BRANCH   9  10
ATOM     10  C   UNL     1      59.965  30.920  14.834  1.00  0.00    -0.000 C 
BRANCH  10  11
ATOM     11  C   UNL     1      60.019  32.364  14.316  1.00  0.00    -0.003 C 
ATOM     12  C   UNL     1      60.285  32.399  12.815  1.00  0.00     0.004 C 
ENDBRANCH  10  11
ENDBRANCH   9  10
ENDBRANCH   8   9
ENDBRANCH   7   8
ENDBRANCH   6   7
ENDBRANCH   5   6
ENDBRANCH   4   5
ENDBRANCH   3   4
ENDBRANCH   2   3
ENDBRANCH   1   2
BRANCH   1  13
ATOM     13  C   UNL     1      63.370  30.836  11.259  1.00  0.00     0.000 C 
BRANCH  13  14
ATOM     14  C   UNL     1      64.370  31.972  10.974  1.00  0.00     0.000 C 
BRANCH  14  15
ATOM     15  C   UNL     1      64.587  32.953  12.144  1.00  0.00     0.000 C 
BRANCH  15  16
ATOM     16  C   UNL     1      63.838  32.602  13.445  1.00  0.00     0.000 C 
BRANCH  16  17
ATOM     17  C   UNL     1      64.743  32.211  14.628  1.00  0.00     0.000 C 
BRANCH  17  18
ATOM     18  C   UNL     1      64.110  32.533  15.989  1.00  0.00     0.000 C 
BRANCH  18  19
ATOM     19  C   UNL     1      62.985  33.565  15.841  1.00  0.00     0.000 C 
BRANCH  19  20
ATOM     20  C   UNL     1      62.667  34.225  17.193  1.00  0.00     0.006 C 
BRANCH  20  21
ATOM     21  C   UNL     1      61.266  33.860  17.702  1.00  0.00     0.053 C 
BRANCH  21  22
ATOM     22  C   UNL     1      61.226  33.731  19.195  1.00  0.00     0.041 C 
ATOM     23  O   UNL     1      60.129  33.536  19.785  1.00  0.00    -0.550 OA
ATOM     24  O   UNL     1      62.403  33.797  19.933  1.00  0.00    -0.550 OA
ENDBRANCH  21  22
ENDBRANCH  20  21
ENDBRANCH  19  20
ENDBRANCH  18  19
ENDBRANCH  17  18
ENDBRANCH  16  17
ENDBRANCH  15  16
ENDBRANCH  14  15
ENDBRANCH  13  14
ENDBRANCH   1  13
TORSDOF 20
ENDMDL
MODEL 3
REMARK VINA RESULT:    -4.623      1.322      3.946
REMARK INTER + INTRA:         -13.698
REMARK INTER:                 -10.491
REMARK INTRA:                  -3.207
REMARK UNBOUND:                -3.670
REMARK SMILES CCCCCCCCCCCCCCCCCCCCCC(=O)[O-]
REMARK SMILES IDX 12 1 11 2 10 3 9 4 8 5 7 6 6 7 5 8 4 9 3 10 2 11 1 12 13 13
REMARK SMILES IDX 14 14 15 15 16 16 17 17 18 18 19 19 20 20 21 21 22 22 23 23
REMARK SMILES IDX 24 24
REMARK H PARENT
REMARK Flexibility Score: inf
ROOT
ATOM      1  C   UNL     1      60.559  28.578  13.834  1.00  0.00     0.000 C 
ENDROOT
BRANCH   1   2
ATOM      2  C   UNL     1      59.449  28.978  12.845  1.00  0.00     0.000 C 
BRANCH   2   3
ATOM      3  C   UNL     1      59.945  29.429  11.455  1.00  0.00     0.000 C 
BRANCH   3   4
ATOM      4  C   UNL     1      59.701  28.425  10.315  1.00  0.00    -0.000 C 
BRANCH   4   5
ATOM      5  C   UNL     1      60.995  27.982   9.616  1.00  0.00    -0.000 C 
BRANCH   5   6
ATOM      6  C   UNL     1      61.915  29.186   9.358  1.00  0.00    -0.000 C 
BRANCH   6   7
ATOM      7  C   UNL     1      63.375  28.912   9.750  1.00  0.00    -0.000 C 
BRANCH   7   8
ATOM      8  C   UNL     1      64.380  29.716   8.905  1.00  0.00    -0.000 C 
BRANCH   8   9
ATOM      9  C   UNL     1      64.623  31.128   9.479  1.00  0.00    -0.000 C 
BRANCH   9  10
ATOM     10  C   UNL     1      65.998  31.713   9.110  1.00  0.00    -0.000 C 
BRANCH  10  11
ATOM     11  C   UNL     1      66.594  32.590  10.220  1.00  0.00    -0.003 C 
ATOM     12  C   UNL     1      65.509  33.085  11.169  1.00  0.00     0.004 C 
ENDBRANCH  10  11
ENDBRANCH   9  10
ENDBRANCH   8   9
ENDBRANCH   7   8
ENDBRANCH   6   7
ENDBRANCH   5   6
ENDBRANCH   4   5
ENDBRANCH   3   4
ENDBRANCH   2   3
ENDBRANCH   1   2
BRANCH   1  13
ATOM     13  C   UNL     1      61.967  28.684  13.223  1.00  0.00     0.000 C 
BRANCH  13  14
ATOM     14  C   UNL     1      62.785  29.849  13.810  1.00  0.00     0.000 C 
BRANCH  14  15
ATOM     15  C   UNL     1      63.078  30.997  12.822  1.00  0.00     0.000 C 
BRANCH  15  16
ATOM     16  C   UNL     1      62.450  32.356  13.189  1.00  0.00     0.000 C 
BRANCH  16  17
ATOM     17  C   UNL     1      60.946  32.480  12.883  1.00  0.00     0.000 C 
BRANCH  17  18
ATOM     18  C   UNL     1      60.149  33.065  14.057  1.00  0.00     0.000 C 
BRANCH  18  19
ATOM     19  C   UNL     1      59.818  31.982  15.091  1.00  0.00     0.000 C 
BRANCH  19  20
ATOM     20  C   UNL     1      60.676  32.151  16.354  1.00  0.00     0.006 C 
BRANCH  20  21
ATOM     21  C   UNL     1      61.219  33.578  16.502  1.00  0.00     0.053 C 
BRANCH  21  22
ATOM     22  C   UNL     1      62.041  33.742  17.746  1.00  0.00     0.041 C 
ATOM     23  O   UNL     1      63.222  33.304  17.787  1.00  0.00    -0.550 OA
ATOM     24  O   UNL     1      61.511  34.402  18.850  1.00  0.00    -0.550 OA
ENDBRANCH  21  22
ENDBRANCH  20  21
ENDBRANCH  19  20
ENDBRANCH  18  19
ENDBRANCH  17  18
ENDBRANCH  16  17
ENDBRANCH  15  16
ENDBRANCH  14  15
ENDBRANCH  13  14
ENDBRANCH   1  13
TORSDOF 20
ENDMDL
MODEL 4
REMARK VINA RESULT:    -4.596      1.531      5.166
REMARK INTER + INTRA:         -13.639
REMARK INTER:                 -10.144
REMARK INTRA:                  -3.494
REMARK UNBOUND:                -3.670
REMARK SMILES CCCCCCCCCCCCCCCCCCCCCC(=O)[O-]
REMARK SMILES IDX 12 1 11 2 10 3 9 4 8 5 7 6 6 7 5 8 4 9 3 10 2 11 1 12 13 13
REMARK SMILES IDX 14 14 15 15 16 16 17 17 18 18 19 19 20 20 21 21 22 22 23 23
REMARK SMILES IDX 24 24
REMARK H PARENT
REMARK Flexibility Score: inf
ROOT
ATOM      1  C   UNL     1      61.920  28.299   9.183  1.00  0.00     0.000 C 
ENDROOT
BRANCH   1   2
ATOM      2  C   UNL     1      60.500  27.933   9.652  1.00  0.00     0.000 C 
BRANCH   2   3
ATOM      3  C   UNL     1      59.619  29.133  10.060  1.00  0.00     0.000 C 
BRANCH   3   4
ATOM      4  C   UNL     1      59.313  29.241  11.564  1.00  0.00    -0.000 C 
BRANCH   4   5
ATOM      5  C   UNL     1      59.629  27.952  12.336  1.00  0.00    -0.000 C 
BRANCH   5   6
ATOM      6  C   UNL     1      60.647  28.223  13.455  1.00  0.00    -0.000 C 
BRANCH   6   7
ATOM      7  C   UNL     1      62.019  28.657  12.918  1.00  0.00    -0.000 C 
BRANCH   7   8
ATOM      8  C   UNL     1      62.762  29.606  13.877  1.00  0.00    -0.000 C 
BRANCH   8   9
ATOM      9  C   UNL     1      61.918  30.848  14.235  1.00  0.00    -0.000 C 
BRANCH   9  10
ATOM     10  C   UNL     1      61.558  31.719  13.018  1.00  0.00    -0.000 C 
BRANCH  10  11
ATOM     11  C   UNL     1      60.246  32.493  13.203  1.00  0.00    -0.003 C 
ATOM     12  C   UNL     1      59.337  31.798  14.210  1.00  0.00     0.004 C 
ENDBRANCH  10  11
ENDBRANCH   9  10
ENDBRANCH   8   9
ENDBRANCH   7   8
ENDBRANCH   6   7
ENDBRANCH   5   6
ENDBRANCH   4   5
ENDBRANCH   3   4
ENDBRANCH   2   3
ENDBRANCH   1   2
BRANCH   1  13
ATOM     13  C   UNL     1      62.246  29.790   9.378  1.00  0.00     0.000 C 
BRANCH  13  14
ATOM     14  C   UNL     1      63.670  30.023   9.915  1.00  0.00     0.000 C 
BRANCH  14  15
ATOM     15  C   UNL     1      64.441  31.171   9.232  1.00  0.00     0.000 C 
BRANCH  15  16
ATOM     16  C   UNL     1      65.181  32.127  10.188  1.00  0.00     0.000 C 
BRANCH  16  17
ATOM     17  C   UNL     1      64.440  32.430  11.503  1.00  0.00     0.000 C 
BRANCH  17  18
ATOM     18  C   UNL     1      65.122  33.530  12.328  1.00  0.00     0.000 C 
BRANCH  18  19
ATOM     19  C   UNL     1      65.190  33.144  13.811  1.00  0.00     0.000 C 
BRANCH  19  20
ATOM     20  C   UNL     1      64.130  33.906  14.623  1.00  0.00     0.006 C 
BRANCH  20  21
ATOM     21  C   UNL     1      63.830  33.229  15.967  1.00  0.00     0.053 C 
BRANCH  21  22
ATOM     22  C   UNL     1      62.747  33.935  16.725  1.00  0.00     0.041 C 
ATOM     23  O   UNL     1      61.540  33.783  16.395  1.00  0.00    -0.550 OA
ATOM     24  O   UNL     1      63.067  34.742  17.812  1.00  0.00    -0.550 OA
ENDBRANCH  21  22
ENDBRANCH  20  21
ENDBRANCH  19  20
ENDBRANCH  18  19
ENDBRANCH  17  18
ENDBRANCH  16  17
ENDBRANCH  15  16
ENDBRANCH  14  15
ENDBRANCH  13  14
ENDBRANCH   1  13
TORSDOF 20
ENDMDL
MODEL 5
REMARK VINA RESULT:    -4.571      1.382      5.075
REMARK INTER + INTRA:         -13.585
REMARK INTER:                 -10.265
REMARK INTRA:                  -3.320
REMARK UNBOUND:                -3.670
REMARK SMILES CCCCCCCCCCCCCCCCCCCCCC(=O)[O-]
REMARK SMILES IDX 12 1 11 2 10 3 9 4 8 5 7 6 6 7 5 8 4 9 3 10 2 11 1 12 13 13
REMARK SMILES IDX 14 14 15 15 16 16 17 17 18 18 19 19 20 20 21 21 22 22 23 23
REMARK SMILES IDX 24 24
REMARK H PARENT
REMARK Flexibility Score: inf
ROOT
ATOM      1  C   UNL     1      62.984  28.627   9.706  1.00  0.00     0.000 C 
ENDROOT
BRANCH   1   2
ATOM      2  C   UNL     1      61.564  28.437   9.143  1.00  0.00     0.000 C 
BRANCH   2   3
ATOM      3  C   UNL     1      60.584  29.592   9.440  1.00  0.00     0.000 C 
BRANCH   3   4
ATOM      4  C   UNL     1      60.219  29.776  10.924  1.00  0.00    -0.000 C 
BRANCH   4   5
ATOM      5  C   UNL     1      59.235  28.716  11.438  1.00  0.00    -0.000 C 
BRANCH   5   6
ATOM      6  C   UNL     1      59.869  27.883  12.562  1.00  0.00    -0.000 C 
BRANCH   6   7
ATOM      7  C   UNL     1      61.201  28.468  13.056  1.00  0.00    -0.000 C 
BRANCH   7   8
ATOM      8  C   UNL     1      61.114  29.021  14.490  1.00  0.00    -0.000 C 
BRANCH   8   9
ATOM      9  C   UNL     1      61.405  30.536  14.549  1.00  0.00    -0.000 C 
BRANCH   9  10
ATOM     10  C   UNL     1      60.241  31.364  15.122  1.00  0.00    -0.000 C 
BRANCH  10  11
ATOM     11  C   UNL     1      60.169  32.781  14.538  1.00  0.00    -0.003 C 
ATOM     12  C   UNL     1      60.177  32.746  13.014  1.00  0.00     0.004 C 
ENDBRANCH  10  11
ENDBRANCH   9  10
ENDBRANCH   8   9
ENDBRANCH   7   8
ENDBRANCH   6   7
ENDBRANCH   5   6
ENDBRANCH   4   5
ENDBRANCH   3   4
ENDBRANCH   2   3
ENDBRANCH   1   2
BRANCH   1  13
ATOM     13  C   UNL     1      63.801  29.668   8.921  1.00  0.00     0.000 C 
BRANCH  13  14
ATOM     14  C   UNL     1      64.087  30.940   9.740  1.00  0.00     0.000 C 
BRANCH  14  15
ATOM     15  C   UNL     1      63.745  30.836  11.241  1.00  0.00     0.000 C 
BRANCH  15  16
ATOM     16  C   UNL     1      63.552  32.182  11.967  1.00  0.00     0.000 C 
BRANCH  16  17
ATOM     17  C   UNL     1      64.839  33.004  12.162  1.00  0.00     0.000 C 
BRANCH  17  18
ATOM     18  C   UNL     1      64.967  33.576  13.580  1.00  0.00     0.000 C 
BRANCH  18  19
ATOM     19  C   UNL     1      63.836  33.067  14.483  1.00  0.00     0.000 C 
BRANCH  19  20
ATOM     20  C   UNL     1      63.625  34.008  15.679  1.00  0.00     0.006 C 
BRANCH  20  21
ATOM     21  C   UNL     1      62.970  33.296  16.870  1.00  0.00     0.053 C 
BRANCH  21  22
ATOM     22  C   UNL     1      62.749  34.222  18.028  1.00  0.00     0.041 C 
ATOM     23  O   UNL     1      63.717  34.860  18.523  1.00  0.00    -0.550 OA
ATOM     24  O   UNL     1      61.470  34.402  18.544  1.00  0.00    -0.550 OA
ENDBRANCH  21  22
ENDBRANCH  20  21
ENDBRANCH  19  20
ENDBRANCH  18  19
ENDBRANCH  17  18
ENDBRANCH  16  17
ENDBRANCH  15  16
ENDBRANCH  14  15
ENDBRANCH  13  14
ENDBRANCH   1  13
TORSDOF 20
ENDMDL
MODEL 6
REMARK VINA RESULT:    -4.555      1.705      3.748
REMARK INTER + INTRA:         -13.551
REMARK INTER:                 -10.036
REMARK INTRA:                  -3.516
REMARK UNBOUND:                -3.670
REMARK SMILES CCCCCCCCCCCCCCCCCCCCCC(=O)[O-]
REMARK SMILES IDX 12 1 11 2 10 3 9 4 8 5 7 6 6 7 5 8 4 9 3 10 2 11 1 12 13 13
REMARK SMILES IDX 14 14 15 15 16 16 17 17 18 18 19 19 20 20 21 21 22 22 23 23
REMARK SMILES IDX 24 24
REMARK H PARENT
REMARK Flexibility Score: inf
ROOT
ATOM      1  C   UNL     1      63.008  29.049  13.026  1.00  0.00     0.000 C 
ENDROOT
BRANCH   1   2
ATOM      2  C   UNL     1      61.850  28.037  13.104  1.00  0.00     0.000 C 
BRANCH   2   3
ATOM      3  C   UNL     1      60.560  28.571  13.762  1.00  0.00     0.000 C 
BRANCH   3   4
ATOM      4  C   UNL     1      59.296  28.486  12.888  1.00  0.00    -0.000 C 
BRANCH   4   5
ATOM      5  C   UNL     1      59.605  28.262  11.401  1.00  0.00    -0.000 C 
BRANCH   5   6
ATOM      6  C   UNL     1      59.677  29.602  10.652  1.00  0.00    -0.000 C 
BRANCH   6   7
ATOM      7  C   UNL     1      60.743  29.606   9.545  1.00  0.00    -0.000 C 
BRANCH   7   8
ATOM      8  C   UNL     1      61.636  28.352   9.572  1.00  0.00    -0.000 C 
BRANCH   8   9
ATOM      9  C   UNL     1      63.108  28.679   9.242  1.00  0.00    -0.000 C 
BRANCH   9  10
ATOM     10  C   UNL     1      63.403  30.188   9.179  1.00  0.00    -0.000 C 
BRANCH  10  11
ATOM     11  C   UNL     1      64.818  30.543   9.656  1.00  0.00    -0.003 C 
ATOM     12  C   UNL     1      64.915  32.014  10.041  1.00  0.00     0.004 C 
ENDBRANCH  10  11
ENDBRANCH   9  10
ENDBRANCH   8   9
ENDBRANCH   7   8
ENDBRANCH   6   7
ENDBRANCH   5   6
ENDBRANCH   4   5
ENDBRANCH   3   4
ENDBRANCH   2   3
ENDBRANCH   1   2
BRANCH   1  13
ATOM     13  C   UNL     1      62.648  30.414  13.640  1.00  0.00     0.000 C 
BRANCH  13  14
ATOM     14  C   UNL     1      62.400  31.498  12.576  1.00  0.00     0.000 C 
BRANCH  14  15
ATOM     15  C   UNL     1      61.390  32.590  12.986  1.00  0.00     0.000 C 
BRANCH  15  16
ATOM     16  C   UNL     1      59.974  32.082  13.324  1.00  0.00     0.000 C 
BRANCH  16  17
ATOM     17  C   UNL     1      59.574  32.212  14.805  1.00  0.00     0.000 C 
BRANCH  17  18
ATOM     18  C   UNL     1      60.313  33.352  15.520  1.00  0.00     0.000 C 
BRANCH  18  19
ATOM     19  C   UNL     1      61.140  32.817  16.696  1.00  0.00     0.000 C 
BRANCH  19  20
ATOM     20  C   UNL     1      62.107  33.892  17.218  1.00  0.00     0.006 C 
BRANCH  20  21
ATOM     21  C   UNL     1      62.844  33.445  18.487  1.00  0.00     0.053 C 
BRANCH  21  22
ATOM     22  C   UNL     1      64.305  33.215  18.239  1.00  0.00     0.041 C 
ATOM     23  O   UNL     1      65.100  33.091  19.209  1.00  0.00    -0.550 OA
ATOM     24  O   UNL     1      64.783  33.109  16.938  1.00  0.00    -0.550 OA
ENDBRANCH  21  22
ENDBRANCH  20  21
ENDBRANCH  19  20
ENDBRANCH  18  19
ENDBRANCH  17  18
ENDBRANCH  16  17
ENDBRANCH  15  16
ENDBRANCH  14  15
ENDBRANCH  13  14
ENDBRANCH   1  13
TORSDOF 20
ENDMDL
MODEL 7
REMARK VINA RESULT:    -4.472      2.183      4.485
REMARK INTER + INTRA:         -13.370
REMARK INTER:                 -10.030
REMARK INTRA:                  -3.340
REMARK UNBOUND:                -3.670
REMARK SMILES CCCCCCCCCCCCCCCCCCCCCC(=O)[O-]
REMARK SMILES IDX 12 1 11 2 10 3 9 4 8 5 7 6 6 7 5 8 4 9 3 10 2 11 1 12 13 13
REMARK SMILES IDX 14 14 15 15 16 16 17 17 18 18 19 19 20 20 21 21 22 22 23 23
REMARK SMILES IDX 24 24
REMARK H PARENT
REMARK Flexibility Score: inf
ROOT
ATOM      1  C   UNL     1      62.050  29.656  13.591  1.00  0.00     0.000 C 
ENDROOT
BRANCH   1   2
ATOM      2  C   UNL     1      61.742  28.223  13.121  1.00  0.00     0.000 C 
BRANCH   2   3
ATOM      3  C   UNL     1      60.275  27.779  13.299  1.00  0.00     0.000 C 
BRANCH   3   4
ATOM      4  C   UNL     1      59.234  28.653  12.578  1.00  0.00    -0.000 C 
BRANCH   4   5
ATOM      5  C   UNL     1      59.353  28.594  11.048  1.00  0.00    -0.000 C 
BRANCH   5   6
ATOM      6  C   UNL     1      59.976  29.887  10.500  1.00  0.00    -0.000 C 
BRANCH   6   7
ATOM      7  C   UNL     1      61.001  29.625   9.385  1.00  0.00    -0.000 C 
BRANCH   7   8
ATOM      8  C   UNL     1      61.796  28.324   9.599  1.00  0.00    -0.000 C 
BRANCH   8   9
ATOM      9  C   UNL     1      63.285  28.484   9.226  1.00  0.00    -0.000 C 
BRANCH   9  10
ATOM     10  C   UNL     1      63.685  29.935   8.900  1.00  0.00    -0.000 C 
BRANCH  10  11
ATOM     11  C   UNL     1      65.169  30.221   9.167  1.00  0.00    -0.003 C 
ATOM     12  C   UNL     1      65.506  31.679   8.875  1.00  0.00     0.004 C 
ENDBRANCH  10  11
ENDBRANCH   9  10
ENDBRANCH   8   9
ENDBRANCH   7   8
ENDBRANCH   6   7
ENDBRANCH   5   6
ENDBRANCH   4   5
ENDBRANCH   3   4
ENDBRANCH   2   3
ENDBRANCH   1   2
BRANCH   1  13
ATOM     13  C   UNL     1      63.429  30.153  13.124  1.00  0.00     0.000 C 
BRANCH  13  14
ATOM     14  C   UNL     1      63.337  31.388  12.209  1.00  0.00     0.000 C 
BRANCH  14  15
ATOM     15  C   UNL     1      63.501  32.742  12.930  1.00  0.00     0.000 C 
BRANCH  15  16
ATOM     16  C   UNL     1      64.738  32.856  13.842  1.00  0.00     0.000 C 
BRANCH  16  17
ATOM     17  C   UNL     1      64.462  33.444  15.238  1.00  0.00     0.000 C 
BRANCH  17  18
ATOM     18  C   UNL     1      63.316  32.729  15.967  1.00  0.00     0.000 C 
BRANCH  18  19
ATOM     19  C   UNL     1      62.332  33.740  16.569  1.00  0.00     0.000 C 
BRANCH  19  20
ATOM     20  C   UNL     1      60.964  33.651  15.876  1.00  0.00     0.006 C 
BRANCH  20  21
ATOM     21  C   UNL     1      60.590  32.209  15.510  1.00  0.00     0.053 C 
BRANCH  21  22
ATOM     22  C   UNL     1      59.675  32.148  14.323  1.00  0.00     0.041 C 
ATOM     23  O   UNL     1      60.048  32.609  13.211  1.00  0.00    -0.550 OA
ATOM     24  O   UNL     1      58.420  31.559  14.439  1.00  0.00    -0.550 OA
ENDBRANCH  21  22
ENDBRANCH  20  21
ENDBRANCH  19  20
ENDBRANCH  18  19
ENDBRANCH  17  18
ENDBRANCH  16  17
ENDBRANCH  15  16
ENDBRANCH  14  15
ENDBRANCH  13  14
ENDBRANCH   1  13
TORSDOF 20
ENDMDL
MODEL 8
REMARK VINA RESULT:    -4.450      1.305      3.931
REMARK INTER + INTRA:         -13.323
REMARK INTER:                 -10.647
REMARK INTRA:                  -2.676
REMARK UNBOUND:                -3.670
REMARK SMILES CCCCCCCCCCCCCCCCCCCCCC(=O)[O-]
REMARK SMILES IDX 12 1 11 2 10 3 9 4 8 5 7 6 6 7 5 8 4 9 3 10 2 11 1 12 13 13
REMARK SMILES IDX 14 14 15 15 16 16 17 17 18 18 19 19 20 20 21 21 22 22 23 23
REMARK SMILES IDX 24 24
REMARK H PARENT
REMARK Flexibility Score: inf
ROOT
ATOM      1  C   UNL     1      61.280  29.160  13.634  1.00  0.00     0.000 C 
ENDROOT
BRANCH   1   2
ATOM      2  C   UNL     1      60.286  28.020  13.347  1.00  0.00     0.000 C 
BRANCH   2   3
ATOM      3  C   UNL     1      59.085  28.410  12.459  1.00  0.00     0.000 C 
BRANCH   3   4
ATOM      4  C   UNL     1      59.419  29.331  11.272  1.00  0.00    -0.000 C 
BRANCH   4   5
ATOM      5  C   UNL     1      59.392  28.604   9.920  1.00  0.00    -0.000 C 
BRANCH   5   6
ATOM      6  C   UNL     1      60.713  28.810   9.163  1.00  0.00    -0.000 C 
BRANCH   6   7
ATOM      7  C   UNL     1      61.943  28.430  10.002  1.00  0.00    -0.000 C 
BRANCH   7   8
ATOM      8  C   UNL     1      63.271  28.730   9.283  1.00  0.00    -0.000 C 
BRANCH   8   9
ATOM      9  C   UNL     1      63.609  30.235   9.289  1.00  0.00    -0.000 C 
BRANCH   9  10
ATOM     10  C   UNL     1      63.793  30.819  10.702  1.00  0.00    -0.000 C 
BRANCH  10  11
ATOM     11  C   UNL     1      64.506  32.178  10.701  1.00  0.00    -0.003 C 
ATOM     12  C   UNL     1      65.813  32.111   9.920  1.00  0.00     0.004 C 
ENDBRANCH  10  11
ENDBRANCH   9  10
ENDBRANCH   8   9
ENDBRANCH   7   8
ENDBRANCH   6   7
ENDBRANCH   5   6
ENDBRANCH   4   5
ENDBRANCH   3   4
ENDBRANCH   2   3
ENDBRANCH   1   2
BRANCH   1  13
ATOM     13  C   UNL     1      61.186  29.683  15.078  1.00  0.00     0.000 C 
BRANCH  13  14
ATOM     14  C   UNL     1      60.338  30.962  15.195  1.00  0.00     0.000 C 
BRANCH  14  15
ATOM     15  C   UNL     1      60.221  31.783  13.894  1.00  0.00     0.000 C 
BRANCH  15  16
ATOM     16  C   UNL     1      61.236  32.935  13.751  1.00  0.00     0.000 C 
BRANCH  16  17
ATOM     17  C   UNL     1      62.713  32.515  13.861  1.00  0.00     0.000 C 
BRANCH  17  18
ATOM     18  C   UNL     1      63.544  33.489  14.708  1.00  0.00     0.000 C 
BRANCH  18  19
ATOM     19  C   UNL     1      63.505  33.098  16.191  1.00  0.00     0.000 C 
BRANCH  19  20
ATOM     20  C   UNL     1      62.729  34.141  17.012  1.00  0.00     0.006 C 
BRANCH  20  21
ATOM     21  C   UNL     1      61.404  33.589  17.550  1.00  0.00     0.053 C 
BRANCH  21  22
ATOM     22  C   UNL     1      61.333  33.652  19.047  1.00  0.00     0.041 C 
ATOM     23  O   UNL     1      60.229  33.506  19.636  1.00  0.00    -0.550 OA
ATOM     24  O   UNL     1      62.491  33.846  19.792  1.00  0.00    -0.550 OA
ENDBRANCH  21  22
ENDBRANCH  20  21
ENDBRANCH  19  20
ENDBRANCH  18  19
ENDBRANCH  17  18
ENDBRANCH  16  17
ENDBRANCH  15  16
ENDBRANCH  14  15
ENDBRANCH  13  14
ENDBRANCH   1  13
TORSDOF 20
ENDMDL
MODEL 9
REMARK VINA RESULT:    -4.288      2.339      5.995
REMARK INTER + INTRA:         -12.970
REMARK INTER:                  -9.990
REMARK INTRA:                  -2.980
REMARK UNBOUND:                -3.670
REMARK SMILES CCCCCCCCCCCCCCCCCCCCCC(=O)[O-]
REMARK SMILES IDX 12 1 11 2 10 3 9 4 8 5 7 6 6 7 5 8 4 9 3 10 2 11 1 12 13 13
REMARK SMILES IDX 14 14 15 15 16 16 17 17 18 18 19 19 20 20 21 21 22 22 23 23
REMARK SMILES IDX 24 24
REMARK H PARENT
REMARK Flexibility Score: inf
ROOT
ATOM      1  C   UNL     1      63.375  31.634  11.890  1.00  0.00     0.000 C 
ENDROOT
BRANCH   1   2
ATOM      2  C   UNL     1      64.187  31.927  13.164  1.00  0.00     0.000 C 
BRANCH   2   3
ATOM      3  C   UNL     1      64.482  33.420  13.421  1.00  0.00     0.000 C 
BRANCH   3   4
ATOM      4  C   UNL     1      64.328  33.878  14.882  1.00  0.00    -0.000 C 
BRANCH   4   5
ATOM      5  C   UNL     1      64.638  32.767  15.896  1.00  0.00    -0.000 C 
BRANCH   5   6
ATOM      6  C   UNL     1      63.869  32.996  17.207  1.00  0.00    -0.000 C 
BRANCH   6   7
ATOM      7  C   UNL     1      63.139  34.347  17.239  1.00  0.00    -0.000 C 
BRANCH   7   8
ATOM      8  C   UNL     1      61.645  34.210  17.586  1.00  0.00    -0.000 C 
BRANCH   8   9
ATOM      9  C   UNL     1      60.975  33.048  16.822  1.00  0.00    -0.000 C 
BRANCH   9  10
ATOM     10  C   UNL     1      60.333  33.477  15.491  1.00  0.00    -0.000 C 
BRANCH  10  11
ATOM     11  C   UNL     1      60.929  32.751  14.277  1.00  0.00    -0.003 C 
ATOM     12  C   UNL     1      59.840  32.347  13.291  1.00  0.00     0.004 C 
ENDBRANCH  10  11
ENDBRANCH   9  10
ENDBRANCH   8   9
ENDBRANCH   7   8
ENDBRANCH   6   7
ENDBRANCH   5   6
ENDBRANCH   4   5
ENDBRANCH   3   4
ENDBRANCH   2   3
ENDBRANCH   1   2
BRANCH   1  13
ATOM     13  C   UNL     1      64.224  31.719  10.610  1.00  0.00     0.000 C 
BRANCH  13  14
ATOM     14  C   UNL     1      63.890  30.606   9.599  1.00  0.00     0.000 C 
BRANCH  14  15
ATOM     15  C   UNL     1      63.294  29.325  10.219  1.00  0.00     0.000 C 
BRANCH  15  16
ATOM     16  C   UNL     1      62.355  28.524   9.296  1.00  0.00     0.000 C 
BRANCH  16  17
ATOM     17  C   UNL     1      60.990  29.185   9.026  1.00  0.00     0.000 C 
BRANCH  17  18
ATOM     18  C   UNL     1      60.359  29.778  10.293  1.00  0.00     0.000 C 
BRANCH  18  19
ATOM     19  C   UNL     1      59.253  28.864  10.836  1.00  0.00     0.000 C 
BRANCH  19  20
ATOM     20  C   UNL     1      59.343  28.745  12.366  1.00  0.00     0.006 C 
BRANCH  20  21
ATOM     21  C   UNL     1      60.537  27.893  12.814  1.00  0.00     0.053 C 
BRANCH  21  22
ATOM     22  C   UNL     1      61.460  28.649  13.723  1.00  0.00     0.041 C 
ATOM     23  O   UNL     1      62.703  28.639  13.516  1.00  0.00    -0.550 OA
ATOM     24  O   UNL     1      60.944  29.387  14.783  1.00  0.00    -0.550 OA
ENDBRANCH  21  22
ENDBRANCH  20  21
ENDBRANCH  19  20
ENDBRANCH  18  19
ENDBRANCH  17  18
ENDBRANCH  16  17
ENDBRANCH  15  16
ENDBRANCH  14  15
ENDBRANCH  13  14
ENDBRANCH   1  13
TORSDOF 20
ENDMDL
