MODEL 1
REMARK VINA RESULT:    -4.670      0.000      0.000
REMARK INTER + INTRA:         -13.349
REMARK INTER:                 -10.129
REMARK INTRA:                  -3.220
REMARK UNBOUND:                -3.220
REMARK SMILES CCCCCCCCCCCCCCCCCCCCCC(=O)[O-]
REMARK SMILES IDX 12 1 11 2 10 3 9 4 8 5 7 6 6 7 5 8 4 9 3 10 2 11 1 12 13 13
REMARK SMILES IDX 14 14 15 15 16 16 17 17 18 18 19 19 20 20 21 21 22 22 23 23
REMARK SMILES IDX 24 24
REMARK H PARENT
REMARK Flexibility Score: inf
ROOT
ATOM      1  C   UNL     1     -16.304  -4.784  31.965  1.00  0.00     0.000 C 
ENDROOT
BRANCH   1   2
ATOM      2  C   UNL     1     -15.729  -3.569  31.218  1.00  0.00     0.000 C 
BRANCH   2   3
ATOM      3  C   UNL     1     -16.137  -2.232  31.850  1.00  0.00     0.000 C 
BRANCH   3   4
ATOM      4  C   UNL     1     -17.613  -1.916  31.572  1.00  0.00    -0.000 C 
BRANCH   4   5
ATOM      5  C   UNL     1     -18.448  -1.852  32.870  1.00  0.00    -0.000 C 
BRANCH   5   6
ATOM      6  C   UNL     1     -17.628  -2.125  34.141  1.00  0.00    -0.000 C 
BRANCH   6   7
ATOM      7  C   UNL     1     -17.601  -0.927  35.105  1.00  0.00    -0.000 C 
BRANCH   7   8
ATOM      8  C   UNL     1     -17.180  -1.325  36.528  1.00  0.00    -0.000 C 
BRANCH   8   9
ATOM      9  C   UNL     1     -17.904  -0.502  37.608  1.00  0.00    -0.000 C 
BRANCH   9  10
ATOM     10  C   UNL     1     -18.764   0.631  37.018  1.00  0.00    -0.000 C 
BRANCH  10  11
ATOM     11  C   UNL     1     -18.120   2.027  37.077  1.00  0.00    -0.003 C 
ATOM     12  C   UNL     1     -17.481   2.334  38.432  1.00  0.00     0.004 C 
ENDBRANCH  10  11
ENDBRANCH   9  10
ENDBRANCH   8   9
ENDBRANCH   7   8
ENDBRANCH   6   7
ENDBRANCH   5   6
ENDBRANCH   4   5
ENDBRANCH   3   4
ENDBRANCH   2   3
ENDBRANCH   1   2
BRANCH   1  13
ATOM     13  C   UNL     1     -15.766  -6.140  31.456  1.00  0.00     0.000 C 
BRANCH  13  14
ATOM     14  C   UNL     1     -15.469  -7.121  32.604  1.00  0.00     0.000 C 
BRANCH  14  15
ATOM     15  C   UNL     1     -14.017  -7.033  33.106  1.00  0.00     0.000 C 
BRANCH  15  16
ATOM     16  C   UNL     1     -13.049  -6.278  32.172  1.00  0.00     0.000 C 
BRANCH  16  17
ATOM     17  C   UNL     1     -12.626  -4.876  32.654  1.00  0.00     0.000 C 
BRANCH  17  18
ATOM     18  C   UNL     1     -12.784  -4.628  34.166  1.00  0.00     0.000 C 
BRANCH  18  19
ATOM     19  C   UNL     1     -13.858  -3.574  34.487  1.00  0.00     0.000 C 
BRANCH  19  20
ATOM     20  C   UNL     1     -14.605  -3.869  35.800  1.00  0.00     0.006 C 
BRANCH  20  21
ATOM     21  C   UNL     1     -15.807  -4.816  35.647  1.00  0.00     0.053 C 
BRANCH  21  22
ATOM     22  C   UNL     1     -15.767  -5.939  36.637  1.00  0.00     0.041 C 
ATOM     23  O   UNL     1     -16.785  -6.215  37.324  1.00  0.00    -0.550 OA
ATOM     24  O   UNL     1     -14.612  -6.696  36.784  1.00  0.00    -0.550 OA
ENDBRANCH  21  22
ENDBRANCH  20  21
ENDBRANCH  19  20
ENDBRANCH  18  19
ENDBRANCH  17  18
ENDBRANCH  16  17
ENDBRANCH  15  16
ENDBRANCH  14  15
ENDBRANCH  13  14
ENDBRANCH   1  13
TORSDOF 20
ENDMDL
MODEL 2
REMARK VINA RESULT:    -4.624      2.725      5.714
REMARK INTER + INTRA:         -13.251
REMARK INTER:                  -9.917
REMARK INTRA:                  -3.334
REMARK UNBOUND:                -3.220
REMARK SMILES CCCCCCCCCCCCCCCCCCCCCC(=O)[O-]
REMARK SMILES IDX 12 1 11 2 10 3 9 4 8 5 7 6 6 7 5 8 4 9 3 10 2 11 1 12 13 13
REMARK SMILES IDX 14 14 15 15 16 16 17 17 18 18 19 19 20 20 21 21 22 22 23 23
REMARK SMILES IDX 24 24
REMARK H PARENT
REMARK Flexibility Score: inf
ROOT
ATOM      1  C   UNL     1     -16.862  -6.334  32.696  1.00  0.00     0.000 C 
ENDROOT
BRANCH   1   2
ATOM      2  C   UNL     1     -15.839  -6.360  31.548  1.00  0.00     0.000 C 
BRANCH   2   3
ATOM      3  C   UNL     1     -14.872  -7.548  31.637  1.00  0.00     0.000 C 
BRANCH   3   4
ATOM      4  C   UNL     1     -13.513  -7.113  32.203  1.00  0.00    -0.000 C 
BRANCH   4   5
ATOM      5  C   UNL     1     -13.183  -5.645  31.858  1.00  0.00    -0.000 C 
BRANCH   5   6
ATOM      6  C   UNL     1     -12.661  -4.835  33.056  1.00  0.00    -0.000 C 
BRANCH   6   7
ATOM      7  C   UNL     1     -13.400  -3.500  33.243  1.00  0.00    -0.000 C 
BRANCH   7   8
ATOM      8  C   UNL     1     -14.221  -3.103  32.006  1.00  0.00    -0.000 C 
BRANCH   8   9
ATOM      9  C   UNL     1     -15.456  -2.258  32.366  1.00  0.00    -0.000 C 
BRANCH   9  10
ATOM     10  C   UNL     1     -16.719  -2.690  31.599  1.00  0.00    -0.000 C 
BRANCH  10  11
ATOM     11  C   UNL     1     -18.033  -2.539  32.385  1.00  0.00    -0.003 C 
ATOM     12  C   UNL     1     -19.216  -2.143  31.500  1.00  0.00     0.004 C 
ENDBRANCH  10  11
ENDBRANCH   9  10
ENDBRANCH   8   9
ENDBRANCH   7   8
ENDBRANCH   6   7
ENDBRANCH   5   6
ENDBRANCH   4   5
ENDBRANCH   3   4
ENDBRANCH   2   3
ENDBRANCH   1   2
BRANCH   1  13
ATOM     13  C   UNL     1     -16.413  -5.492  33.910  1.00  0.00     0.000 C 
BRANCH  13  14
ATOM     14  C   UNL     1     -15.938  -6.367  35.085  1.00  0.00     0.000 C 
BRANCH  14  15
ATOM     15  C   UNL     1     -15.686  -5.558  36.370  1.00  0.00     0.000 C 
BRANCH  15  16
ATOM     16  C   UNL     1     -14.425  -4.670  36.345  1.00  0.00     0.000 C 
BRANCH  16  17
ATOM     17  C   UNL     1     -14.662  -3.180  36.662  1.00  0.00     0.000 C 
BRANCH  17  18
ATOM     18  C   UNL     1     -16.105  -2.686  36.454  1.00  0.00     0.000 C 
BRANCH  18  19
ATOM     19  C   UNL     1     -16.790  -2.275  37.769  1.00  0.00     0.000 C 
BRANCH  19  20
ATOM     20  C   UNL     1     -17.859  -1.187  37.568  1.00  0.00     0.006 C 
BRANCH  20  21
ATOM     21  C   UNL     1     -17.594  -0.248  36.379  1.00  0.00     0.053 C 
BRANCH  21  22
ATOM     22  C   UNL     1     -18.463   0.971  36.420  1.00  0.00     0.041 C 
ATOM     23  O   UNL     1     -19.607   0.952  35.894  1.00  0.00    -0.550 OA
ATOM     24  O   UNL     1     -18.019   2.122  37.059  1.00  0.00    -0.550 OA
ENDBRANCH  21  22
ENDBRANCH  20  21
ENDBRANCH  19  20
ENDBRANCH  18  19
ENDBRANCH  17  18
ENDBRANCH  16  17
ENDBRANCH  15  16
ENDBRANCH  14  15
ENDBRANCH  13  14
ENDBRANCH   1  13
TORSDOF 20
ENDMDL
MODEL 3
REMARK VINA RESULT:    -4.610     12.537     15.651
REMARK INTER + INTRA:         -13.220
REMARK INTER:                  -9.527
REMARK INTRA:                  -3.694
REMARK UNBOUND:                -3.220
REMARK SMILES CCCCCCCCCCCCCCCCCCCCCC(=O)[O-]
REMARK SMILES IDX 12 1 11 2 10 3 9 4 8 5 7 6 6 7 5 8 4 9 3 10 2 11 1 12 13 13
REMARK SMILES IDX 14 14 15 15 16 16 17 17 18 18 19 19 20 20 21 21 22 22 23 23
REMARK SMILES IDX 24 24
REMARK H PARENT
REMARK Flexibility Score: inf
ROOT
ATOM      1  C   UNL     1     -27.624  -0.755  26.162  1.00  0.00     0.000 C 
ENDROOT
BRANCH   1   2
ATOM      2  C   UNL     1     -29.109  -0.755  25.761  1.00  0.00     0.000 C 
BRANCH   2   3
ATOM      3  C   UNL     1     -29.918  -1.848  26.471  1.00  0.00     0.000 C 
BRANCH   3   4
ATOM      4  C   UNL     1     -31.340  -1.943  25.900  1.00  0.00    -0.000 C 
BRANCH   4   5
ATOM      5  C   UNL     1     -31.802  -3.406  25.730  1.00  0.00    -0.000 C 
BRANCH   5   6
ATOM      6  C   UNL     1     -31.112  -4.384  26.696  1.00  0.00    -0.000 C 
BRANCH   6   7
ATOM      7  C   UNL     1     -30.757  -5.726  26.035  1.00  0.00    -0.000 C 
BRANCH   7   8
ATOM      8  C   UNL     1     -29.924  -5.551  24.756  1.00  0.00    -0.000 C 
BRANCH   8   9
ATOM      9  C   UNL     1     -28.516  -5.000  25.041  1.00  0.00    -0.000 C 
BRANCH   9  10
ATOM     10  C   UNL     1     -27.857  -4.373  23.799  1.00  0.00    -0.000 C 
BRANCH  10  11
ATOM     11  C   UNL     1     -28.844  -3.852  22.739  1.00  0.00    -0.003 C 
ATOM     12  C   UNL     1     -28.865  -2.327  22.641  1.00  0.00     0.004 C 
ENDBRANCH  10  11
ENDBRANCH   9  10
ENDBRANCH   8   9
ENDBRANCH   7   8
ENDBRANCH   6   7
ENDBRANCH   5   6
ENDBRANCH   4   5
ENDBRANCH   3   4
ENDBRANCH   2   3
ENDBRANCH   1   2
BRANCH   1  13
ATOM     13  C   UNL     1     -27.148  -2.084  26.787  1.00  0.00     0.000 C 
BRANCH  13  14
ATOM     14  C   UNL     1     -26.084  -1.869  27.879  1.00  0.00     0.000 C 
BRANCH  14  15
ATOM     15  C   UNL     1     -24.679  -2.322  27.443  1.00  0.00     0.000 C 
BRANCH  15  16
ATOM     16  C   UNL     1     -24.640  -3.190  26.168  1.00  0.00     0.000 C 
BRANCH  16  17
ATOM     17  C   UNL     1     -23.952  -2.542  24.950  1.00  0.00     0.000 C 
BRANCH  17  18
ATOM     18  C   UNL     1     -24.810  -2.467  23.674  1.00  0.00     0.000 C 
BRANCH  18  19
ATOM     19  C   UNL     1     -25.119  -1.021  23.249  1.00  0.00     0.000 C 
BRANCH  19  20
ATOM     20  C   UNL     1     -24.462   0.023  24.170  1.00  0.00     0.006 C 
BRANCH  20  21
ATOM     21  C   UNL     1     -23.481   0.969  23.459  1.00  0.00     0.053 C 
BRANCH  21  22
ATOM     22  C   UNL     1     -22.054   0.598  23.718  1.00  0.00     0.041 C 
ATOM     23  O   UNL     1     -21.689   0.241  24.869  1.00  0.00    -0.550 OA
ATOM     24  O   UNL     1     -21.129   0.624  22.681  1.00  0.00    -0.550 OA
ENDBRANCH  21  22
ENDBRANCH  20  21
ENDBRANCH  19  20
ENDBRANCH  18  19
ENDBRANCH  17  18
ENDBRANCH  16  17
ENDBRANCH  15  16
ENDBRANCH  14  15
ENDBRANCH  13  14
ENDBRANCH   1  13
TORSDOF 20
ENDMDL
MODEL 4
REMARK VINA RESULT:    -4.534      2.695      5.870
REMARK INTER + INTRA:         -13.054
REMARK INTER:                  -9.678
REMARK INTRA:                  -3.376
REMARK UNBOUND:                -3.220
REMARK SMILES CCCCCCCCCCCCCCCCCCCCCC(=O)[O-]
REMARK SMILES IDX 12 1 11 2 10 3 9 4 8 5 7 6 6 7 5 8 4 9 3 10 2 11 1 12 13 13
REMARK SMILES IDX 14 14 15 15 16 16 17 17 18 18 19 19 20 20 21 21 22 22 23 23
REMARK SMILES IDX 24 24
REMARK H PARENT
REMARK Flexibility Score: inf
ROOT
ATOM      1  C   UNL     1     -15.617  -6.424  31.182  1.00  0.00     0.000 C 
ENDROOT
BRANCH   1   2
ATOM      2  C   UNL     1     -14.929  -7.671  31.762  1.00  0.00     0.000 C 
BRANCH   2   3
ATOM      3  C   UNL     1     -13.449  -7.437  32.092  1.00  0.00     0.000 C 
BRANCH   3   4
ATOM      4  C   UNL     1     -13.122  -5.938  32.134  1.00  0.00    -0.000 C 
BRANCH   4   5
ATOM      5  C   UNL     1     -12.672  -5.481  33.539  1.00  0.00    -0.000 C 
BRANCH   5   6
ATOM      6  C   UNL     1     -12.683  -6.607  34.584  1.00  0.00    -0.000 C 
BRANCH   6   7
ATOM      7  C   UNL     1     -13.734  -6.391  35.685  1.00  0.00    -0.000 C 
BRANCH   7   8
ATOM      8  C   UNL     1     -15.117  -6.034  35.117  1.00  0.00    -0.000 C 
BRANCH   8   9
ATOM      9  C   UNL     1     -15.788  -4.881  35.884  1.00  0.00    -0.000 C 
BRANCH   9  10
ATOM     10  C   UNL     1     -14.782  -4.022  36.672  1.00  0.00    -0.000 C 
BRANCH  10  11
ATOM     11  C   UNL     1     -14.072  -2.938  35.843  1.00  0.00    -0.003 C 
ATOM     12  C   UNL     1     -12.573  -2.849  36.134  1.00  0.00     0.004 C 
ENDBRANCH  10  11
ENDBRANCH   9  10
ENDBRANCH   8   9
ENDBRANCH   7   8
ENDBRANCH   6   7
ENDBRANCH   5   6
ENDBRANCH   4   5
ENDBRANCH   3   4
ENDBRANCH   2   3
ENDBRANCH   1   2
BRANCH   1  13
ATOM     13  C   UNL     1     -17.007  -6.139  31.794  1.00  0.00     0.000 C 
BRANCH  13  14
ATOM     14  C   UNL     1     -17.126  -4.701  32.331  1.00  0.00     0.000 C 
BRANCH  14  15
ATOM     15  C   UNL     1     -16.080  -3.747  31.726  1.00  0.00     0.000 C 
BRANCH  15  16
ATOM     16  C   UNL     1     -16.201  -2.276  32.176  1.00  0.00     0.000 C 
BRANCH  16  17
ATOM     17  C   UNL     1     -17.638  -1.721  32.232  1.00  0.00     0.000 C 
BRANCH  17  18
ATOM     18  C   UNL     1     -18.196  -1.484  33.647  1.00  0.00     0.000 C 
BRANCH  18  19
ATOM     19  C   UNL     1     -17.185  -1.836  34.752  1.00  0.00     0.000 C 
BRANCH  19  20
ATOM     20  C   UNL     1     -17.479  -1.114  36.079  1.00  0.00     0.006 C 
BRANCH  20  21
ATOM     21  C   UNL     1     -18.562  -0.027  35.983  1.00  0.00     0.053 C 
BRANCH  21  22
ATOM     22  C   UNL     1     -18.053   1.314  36.414  1.00  0.00     0.041 C 
ATOM     23  O   UNL     1     -17.127   1.877  35.773  1.00  0.00    -0.550 OA
ATOM     24  O   UNL     1     -18.618   1.954  37.510  1.00  0.00    -0.550 OA
ENDBRANCH  21  22
ENDBRANCH  20  21
ENDBRANCH  19  20
ENDBRANCH  18  19
ENDBRANCH  17  18
ENDBRANCH  16  17
ENDBRANCH  15  16
ENDBRANCH  14  15
ENDBRANCH  13  14
ENDBRANCH   1  13
TORSDOF 20
ENDMDL
MODEL 5
REMARK VINA RESULT:    -4.531      2.302      3.507
REMARK INTER + INTRA:         -13.048
REMARK INTER:                 -10.261
REMARK INTRA:                  -2.786
REMARK UNBOUND:                -3.220
REMARK SMILES CCCCCCCCCCCCCCCCCCCCCC(=O)[O-]
REMARK SMILES IDX 12 1 11 2 10 3 9 4 8 5 7 6 6 7 5 8 4 9 3 10 2 11 1 12 13 13
REMARK SMILES IDX 14 14 15 15 16 16 17 17 18 18 19 19 20 20 21 21 22 22 23 23
REMARK SMILES IDX 24 24
REMARK H PARENT
REMARK Flexibility Score: inf
ROOT
ATOM      1  C   UNL     1     -13.937  -2.500  32.710  1.00  0.00     0.000 C 
ENDROOT
BRANCH   1   2
ATOM      2  C   UNL     1     -14.671  -3.508  31.809  1.00  0.00     0.000 C 
BRANCH   2   3
ATOM      3  C   UNL     1     -15.918  -2.914  31.141  1.00  0.00     0.000 C 
BRANCH   3   4
ATOM      4  C   UNL     1     -17.158  -3.090  32.028  1.00  0.00    -0.000 C 
BRANCH   4   5
ATOM      5  C   UNL     1     -17.770  -1.735  32.445  1.00  0.00    -0.000 C 
BRANCH   5   6
ATOM      6  C   UNL     1     -18.254  -1.703  33.905  1.00  0.00    -0.000 C 
BRANCH   6   7
ATOM      7  C   UNL     1     -17.104  -1.831  34.918  1.00  0.00    -0.000 C 
BRANCH   7   8
ATOM      8  C   UNL     1     -17.297  -0.925  36.144  1.00  0.00    -0.000 C 
BRANCH   8   9
ATOM      9  C   UNL     1     -18.226   0.268  35.855  1.00  0.00    -0.000 C 
BRANCH   9  10
ATOM     10  C   UNL     1     -17.551   1.627  36.116  1.00  0.00    -0.000 C 
BRANCH  10  11
ATOM     11  C   UNL     1     -17.854   2.242  37.494  1.00  0.00    -0.003 C 
ATOM     12  C   UNL     1     -19.058   1.601  38.184  1.00  0.00     0.004 C 
ENDBRANCH  10  11
ENDBRANCH   9  10
ENDBRANCH   8   9
ENDBRANCH   7   8
ENDBRANCH   6   7
ENDBRANCH   5   6
ENDBRANCH   4   5
ENDBRANCH   3   4
ENDBRANCH   2   3
ENDBRANCH   1   2
BRANCH   1  13
ATOM     13  C   UNL     1     -13.845  -2.938  34.189  1.00  0.00     0.000 C 
BRANCH  13  14
ATOM     14  C   UNL     1     -14.027  -4.457  34.361  1.00  0.00     0.000 C 
BRANCH  14  15
ATOM     15  C   UNL     1     -12.694  -5.226  34.329  1.00  0.00     0.000 C 
BRANCH  15  16
ATOM     16  C   UNL     1     -12.764  -6.625  33.681  1.00  0.00     0.000 C 
BRANCH  16  17
ATOM     17  C   UNL     1     -13.142  -6.641  32.186  1.00  0.00     0.000 C 
BRANCH  17  18
ATOM     18  C   UNL     1     -14.356  -7.516  31.825  1.00  0.00     0.000 C 
BRANCH  18  19
ATOM     19  C   UNL     1     -15.376  -7.621  32.972  1.00  0.00     0.000 C 
BRANCH  19  20
ATOM     20  C   UNL     1     -16.591  -6.696  32.773  1.00  0.00     0.006 C 
BRANCH  20  21
ATOM     21  C   UNL     1     -17.163  -6.698  31.345  1.00  0.00     0.053 C 
BRANCH  21  22
ATOM     22  C   UNL     1     -18.396  -7.541  31.234  1.00  0.00     0.041 C 
ATOM     23  O   UNL     1     -18.919  -7.755  30.110  1.00  0.00    -0.550 OA
ATOM     24  O   UNL     1     -18.954  -8.111  32.373  1.00  0.00    -0.550 OA
ENDBRANCH  21  22
ENDBRANCH  20  21
ENDBRANCH  19  20
ENDBRANCH  18  19
ENDBRANCH  17  18
ENDBRANCH  16  17
ENDBRANCH  15  16
ENDBRANCH  14  15
ENDBRANCH  13  14
ENDBRANCH   1  13
TORSDOF 20
ENDMDL
MODEL 6
REMARK VINA RESULT:    -4.505      2.914      7.040
REMARK INTER + INTRA:         -12.993
REMARK INTER:                  -9.852
REMARK INTRA:                  -3.141
REMARK UNBOUND:                -3.220
REMARK SMILES CCCCCCCCCCCCCCCCCCCCCC(=O)[O-]
REMARK SMILES IDX 12 1 11 2 10 3 9 4 8 5 7 6 6 7 5 8 4 9 3 10 2 11 1 12 13 13
REMARK SMILES IDX 14 14 15 15 16 16 17 17 18 18 19 19 20 20 21 21 22 22 23 23
REMARK SMILES IDX 24 24
REMARK H PARENT
REMARK Flexibility Score: inf
ROOT
ATOM      1  C   UNL     1     -14.203  -2.509  32.891  1.00  0.00     0.000 C 
ENDROOT
BRANCH   1   2
ATOM      2  C   UNL     1     -13.664  -3.502  33.934  1.00  0.00     0.000 C 
BRANCH   2   3
ATOM      3  C   UNL     1     -12.869  -4.655  33.306  1.00  0.00     0.000 C 
BRANCH   3   4
ATOM      4  C   UNL     1     -12.769  -5.846  34.267  1.00  0.00    -0.000 C 
BRANCH   4   5
ATOM      5  C   UNL     1     -14.028  -5.988  35.151  1.00  0.00    -0.000 C 
BRANCH   5   6
ATOM      6  C   UNL     1     -14.433  -7.447  35.414  1.00  0.00    -0.000 C 
BRANCH   6   7
ATOM      7  C   UNL     1     -14.018  -8.397  34.277  1.00  0.00    -0.000 C 
BRANCH   7   8
ATOM      8  C   UNL     1     -15.067  -8.467  33.156  1.00  0.00    -0.000 C 
BRANCH   8   9
ATOM      9  C   UNL     1     -14.529  -7.945  31.813  1.00  0.00    -0.000 C 
BRANCH   9  10
ATOM     10  C   UNL     1     -15.235  -6.658  31.346  1.00  0.00    -0.000 C 
BRANCH  10  11
ATOM     11  C   UNL     1     -16.745  -6.609  31.640  1.00  0.00    -0.003 C 
ATOM     12  C   UNL     1     -17.093  -5.715  32.830  1.00  0.00     0.004 C 
ENDBRANCH  10  11
ENDBRANCH   9  10
ENDBRANCH   8   9
ENDBRANCH   7   8
ENDBRANCH   6   7
ENDBRANCH   5   6
ENDBRANCH   4   5
ENDBRANCH   3   4
ENDBRANCH   2   3
ENDBRANCH   1   2
BRANCH   1  13
ATOM     13  C   UNL     1     -14.539  -3.156  31.530  1.00  0.00     0.000 C 
BRANCH  13  14
ATOM     14  C   UNL     1     -15.991  -2.886  31.095  1.00  0.00     0.000 C 
BRANCH  14  15
ATOM     15  C   UNL     1     -16.597  -1.644  31.773  1.00  0.00     0.000 C 
BRANCH  15  16
ATOM     16  C   UNL     1     -18.057  -1.806  32.244  1.00  0.00     0.000 C 
BRANCH  16  17
ATOM     17  C   UNL     1     -18.260  -1.804  33.773  1.00  0.00     0.000 C 
BRANCH  17  18
ATOM     18  C   UNL     1     -17.126  -2.455  34.586  1.00  0.00     0.000 C 
BRANCH  18  19
ATOM     19  C   UNL     1     -16.870  -1.745  35.926  1.00  0.00     0.000 C 
BRANCH  19  20
ATOM     20  C   UNL     1     -17.525  -0.353  35.996  1.00  0.00     0.006 C 
BRANCH  20  21
ATOM     21  C   UNL     1     -17.862   0.119  37.420  1.00  0.00     0.053 C 
BRANCH  21  22
ATOM     22  C   UNL     1     -18.328   1.543  37.444  1.00  0.00     0.041 C 
ATOM     23  O   UNL     1     -17.989   2.337  36.529  1.00  0.00    -0.550 OA
ATOM     24  O   UNL     1     -19.156   1.986  38.468  1.00  0.00    -0.550 OA
ENDBRANCH  21  22
ENDBRANCH  20  21
ENDBRANCH  19  20
ENDBRANCH  18  19
ENDBRANCH  17  18
ENDBRANCH  16  17
ENDBRANCH  15  16
ENDBRANCH  14  15
ENDBRANCH  13  14
ENDBRANCH   1  13
TORSDOF 20
ENDMDL
MODEL 7
REMARK VINA RESULT:    -4.468      2.782      6.718
REMARK INTER + INTRA:         -12.913
REMARK INTER:                  -9.919
REMARK INTRA:                  -2.994
REMARK UNBOUND:                -3.220
REMARK SMILES CCCCCCCCCCCCCCCCCCCCCC(=O)[O-]
REMARK SMILES IDX 12 1 11 2 10 3 9 4 8 5 7 6 6 7 5 8 4 9 3 10 2 11 1 12 13 13
REMARK SMILES IDX 14 14 15 15 16 16 17 17 18 18 19 19 20 20 21 21 22 22 23 23
REMARK SMILES IDX 24 24
REMARK H PARENT
REMARK Flexibility Score: inf
ROOT
ATOM      1  C   UNL     1     -14.490  -1.957  32.814  1.00  0.00     0.000 C 
ENDROOT
BRANCH   1   2
ATOM      2  C   UNL     1     -15.991  -1.988  32.483  1.00  0.00     0.000 C 
BRANCH   2   3
ATOM      3  C   UNL     1     -16.381  -3.172  31.587  1.00  0.00     0.000 C 
BRANCH   3   4
ATOM      4  C   UNL     1     -17.514  -3.993  32.217  1.00  0.00    -0.000 C 
BRANCH   4   5
ATOM      5  C   UNL     1     -17.017  -5.353  32.754  1.00  0.00    -0.000 C 
BRANCH   5   6
ATOM      6  C   UNL     1     -17.160  -6.502  31.742  1.00  0.00    -0.000 C 
BRANCH   6   7
ATOM      7  C   UNL     1     -15.853  -6.799  30.987  1.00  0.00    -0.000 C 
BRANCH   7   8
ATOM      8  C   UNL     1     -14.635  -6.865  31.922  1.00  0.00    -0.000 C 
BRANCH   8   9
ATOM      9  C   UNL     1     -13.842  -8.174  31.763  1.00  0.00    -0.000 C 
BRANCH   9  10
ATOM     10  C   UNL     1     -12.771  -8.359  32.853  1.00  0.00    -0.000 C 
BRANCH  10  11
ATOM     11  C   UNL     1     -12.963  -7.479  34.101  1.00  0.00    -0.003 C 
ATOM     12  C   UNL     1     -12.532  -8.172  35.394  1.00  0.00     0.004 C 
ENDBRANCH  10  11
ENDBRANCH   9  10
ENDBRANCH   8   9
ENDBRANCH   7   8
ENDBRANCH   6   7
ENDBRANCH   5   6
ENDBRANCH   4   5
ENDBRANCH   3   4
ENDBRANCH   2   3
ENDBRANCH   1   2
BRANCH   1  13
ATOM     13  C   UNL     1     -13.702  -3.159  32.247  1.00  0.00     0.000 C 
BRANCH  13  14
ATOM     14  C   UNL     1     -13.243  -4.130  33.350  1.00  0.00     0.000 C 
BRANCH  14  15
ATOM     15  C   UNL     1     -13.594  -3.637  34.766  1.00  0.00     0.000 C 
BRANCH  15  16
ATOM     16  C   UNL     1     -14.637  -4.494  35.514  1.00  0.00     0.000 C 
BRANCH  16  17
ATOM     17  C   UNL     1     -15.958  -3.775  35.853  1.00  0.00     0.000 C 
BRANCH  17  18
ATOM     18  C   UNL     1     -15.819  -2.290  36.233  1.00  0.00     0.000 C 
BRANCH  18  19
ATOM     19  C   UNL     1     -17.154  -1.528  36.155  1.00  0.00     0.000 C 
BRANCH  19  20
ATOM     20  C   UNL     1     -17.527  -0.846  37.484  1.00  0.00     0.006 C 
BRANCH  20  21
ATOM     21  C   UNL     1     -18.589   0.258  37.354  1.00  0.00     0.053 C 
BRANCH  21  22
ATOM     22  C   UNL     1     -17.982   1.584  37.013  1.00  0.00     0.041 C 
ATOM     23  O   UNL     1     -18.141   2.570  37.780  1.00  0.00    -0.550 OA
ATOM     24  O   UNL     1     -17.221   1.726  35.859  1.00  0.00    -0.550 OA
ENDBRANCH  21  22
ENDBRANCH  20  21
ENDBRANCH  19  20
ENDBRANCH  18  19
ENDBRANCH  17  18
ENDBRANCH  16  17
ENDBRANCH  15  16
ENDBRANCH  14  15
ENDBRANCH  13  14
ENDBRANCH   1  13
TORSDOF 20
ENDMDL
MODEL 8
REMARK VINA RESULT:    -4.445      2.135      5.423
REMARK INTER + INTRA:         -12.862
REMARK INTER:                  -8.922
REMARK INTRA:                  -3.940
REMARK UNBOUND:                -3.220
REMARK SMILES CCCCCCCCCCCCCCCCCCCCCC(=O)[O-]
REMARK SMILES IDX 12 1 11 2 10 3 9 4 8 5 7 6 6 7 5 8 4 9 3 10 2 11 1 12 13 13
REMARK SMILES IDX 14 14 15 15 16 16 17 17 18 18 19 19 20 20 21 21 22 22 23 23
REMARK SMILES IDX 24 24
REMARK H PARENT
REMARK Flexibility Score: inf
ROOT
ATOM      1  C   UNL     1     -16.880  -5.060  32.692  1.00  0.00     0.000 C 
ENDROOT
BRANCH   1   2
ATOM      2  C   UNL     1     -17.148  -6.339  31.881  1.00  0.00     0.000 C 
BRANCH   2   3
ATOM      3  C   UNL     1     -15.945  -6.771  31.032  1.00  0.00     0.000 C 
BRANCH   3   4
ATOM      4  C   UNL     1     -14.979  -7.644  31.846  1.00  0.00    -0.000 C 
BRANCH   4   5
ATOM      5  C   UNL     1     -13.534  -7.100  31.811  1.00  0.00    -0.000 C 
BRANCH   5   6
ATOM      6  C   UNL     1     -13.155  -6.284  33.058  1.00  0.00    -0.000 C 
BRANCH   6   7
ATOM      7  C   UNL     1     -12.847  -7.167  34.279  1.00  0.00    -0.000 C 
BRANCH   7   8
ATOM      8  C   UNL     1     -13.650  -6.753  35.522  1.00  0.00    -0.000 C 
BRANCH   8   9
ATOM      9  C   UNL     1     -15.168  -6.895  35.316  1.00  0.00    -0.000 C 
BRANCH   9  10
ATOM     10  C   UNL     1     -15.988  -6.201  36.419  1.00  0.00    -0.000 C 
BRANCH  10  11
ATOM     11  C   UNL     1     -15.237  -5.994  37.747  1.00  0.00    -0.003 C 
ATOM     12  C   UNL     1     -15.810  -4.852  38.586  1.00  0.00     0.004 C 
ENDBRANCH  10  11
ENDBRANCH   9  10
ENDBRANCH   8   9
ENDBRANCH   7   8
ENDBRANCH   6   7
ENDBRANCH   5   6
ENDBRANCH   4   5
ENDBRANCH   3   4
ENDBRANCH   2   3
ENDBRANCH   1   2
BRANCH   1  13
ATOM     13  C   UNL     1     -17.577  -3.805  32.123  1.00  0.00     0.000 C 
BRANCH  13  14
ATOM     14  C   UNL     1     -16.581  -2.674  31.809  1.00  0.00     0.000 C 
BRANCH  14  15
ATOM     15  C   UNL     1     -15.299  -3.179  31.123  1.00  0.00     0.000 C 
BRANCH  15  16
ATOM     16  C   UNL     1     -14.011  -3.034  31.960  1.00  0.00     0.000 C 
BRANCH  16  17
ATOM     17  C   UNL     1     -14.173  -2.276  33.293  1.00  0.00     0.000 C 
BRANCH  17  18
ATOM     18  C   UNL     1     -13.955  -3.122  34.560  1.00  0.00     0.000 C 
BRANCH  18  19
ATOM     19  C   UNL     1     -14.790  -2.630  35.755  1.00  0.00     0.000 C 
BRANCH  19  20
ATOM     20  C   UNL     1     -16.305  -2.703  35.492  1.00  0.00     0.006 C 
BRANCH  20  21
ATOM     21  C   UNL     1     -17.005  -1.335  35.433  1.00  0.00     0.053 C 
BRANCH  21  22
ATOM     22  C   UNL     1     -17.556  -0.926  36.764  1.00  0.00     0.041 C 
ATOM     23  O   UNL     1     -18.360   0.039  36.849  1.00  0.00    -0.550 OA
ATOM     24  O   UNL     1     -17.199  -1.628  37.909  1.00  0.00    -0.550 OA
ENDBRANCH  21  22
ENDBRANCH  20  21
ENDBRANCH  19  20
ENDBRANCH  18  19
ENDBRANCH  17  18
ENDBRANCH  16  17
ENDBRANCH  15  16
ENDBRANCH  14  15
ENDBRANCH  13  14
ENDBRANCH   1  13
TORSDOF 20
ENDMDL
MODEL 9
REMARK VINA RESULT:    -4.444      2.754      6.158
REMARK INTER + INTRA:         -12.859
REMARK INTER:                  -9.659
REMARK INTRA:                  -3.200
REMARK UNBOUND:                -3.220
REMARK SMILES CCCCCCCCCCCCCCCCCCCCCC(=O)[O-]
REMARK SMILES IDX 12 1 11 2 10 3 9 4 8 5 7 6 6 7 5 8 4 9 3 10 2 11 1 12 13 13
REMARK SMILES IDX 14 14 15 15 16 16 17 17 18 18 19 19 20 20 21 21 22 22 23 23
REMARK SMILES IDX 24 24
REMARK H PARENT
REMARK Flexibility Score: inf
ROOT
ATOM      1  C   UNL     1     -17.141  -5.939  32.629  1.00  0.00     0.000 C 
ENDROOT
BRANCH   1   2
ATOM      2  C   UNL     1     -16.098  -7.068  32.683  1.00  0.00     0.000 C 
BRANCH   2   3
ATOM      3  C   UNL     1     -15.218  -7.130  31.428  1.00  0.00     0.000 C 
BRANCH   3   4
ATOM      4  C   UNL     1     -13.752  -6.827  31.764  1.00  0.00    -0.000 C 
BRANCH   4   5
ATOM      5  C   UNL     1     -13.364  -7.327  33.173  1.00  0.00    -0.000 C 
BRANCH   5   6
ATOM      6  C   UNL     1     -12.676  -6.257  34.036  1.00  0.00    -0.000 C 
BRANCH   6   7
ATOM      7  C   UNL     1     -12.773  -4.847  33.430  1.00  0.00    -0.000 C 
BRANCH   7   8
ATOM      8  C   UNL     1     -13.742  -3.939  34.204  1.00  0.00    -0.000 C 
BRANCH   8   9
ATOM      9  C   UNL     1     -14.172  -4.549  35.550  1.00  0.00    -0.000 C 
BRANCH   9  10
ATOM     10  C   UNL     1     -15.676  -4.875  35.604  1.00  0.00    -0.000 C 
BRANCH  10  11
ATOM     11  C   UNL     1     -16.105  -5.742  36.801  1.00  0.00    -0.003 C 
ATOM     12  C   UNL     1     -16.363  -4.927  38.068  1.00  0.00     0.004 C 
ENDBRANCH  10  11
ENDBRANCH   9  10
ENDBRANCH   8   9
ENDBRANCH   7   8
ENDBRANCH   6   7
ENDBRANCH   5   6
ENDBRANCH   4   5
ENDBRANCH   3   4
ENDBRANCH   2   3
ENDBRANCH   1   2
BRANCH   1  13
ATOM     13  C   UNL     1     -16.627  -4.649  31.953  1.00  0.00     0.000 C 
BRANCH  13  14
ATOM     14  C   UNL     1     -17.672  -3.519  31.976  1.00  0.00     0.000 C 
BRANCH  14  15
ATOM     15  C   UNL     1     -17.077  -2.146  31.617  1.00  0.00     0.000 C 
BRANCH  15  16
ATOM     16  C   UNL     1     -17.056  -1.122  32.771  1.00  0.00     0.000 C 
BRANCH  16  17
ATOM     17  C   UNL     1     -16.471  -1.640  34.100  1.00  0.00     0.000 C 
BRANCH  17  18
ATOM     18  C   UNL     1     -17.453  -1.660  35.286  1.00  0.00     0.000 C 
BRANCH  18  19
ATOM     19  C   UNL     1     -16.746  -1.545  36.647  1.00  0.00     0.000 C 
BRANCH  19  20
ATOM     20  C   UNL     1     -17.575  -0.767  37.685  1.00  0.00     0.006 C 
BRANCH  20  21
ATOM     21  C   UNL     1     -18.671   0.127  37.080  1.00  0.00     0.053 C 
BRANCH  21  22
ATOM     22  C   UNL     1     -18.420   1.580  37.342  1.00  0.00     0.041 C 
ATOM     23  O   UNL     1     -17.779   2.273  36.509  1.00  0.00    -0.550 OA
ATOM     24  O   UNL     1     -18.915   2.174  38.496  1.00  0.00    -0.550 OA
ENDBRANCH  21  22
ENDBRANCH  20  21
ENDBRANCH  19  20
ENDBRANCH  18  19
ENDBRANCH  17  18
ENDBRANCH  16  17
ENDBRANCH  15  16
ENDBRANCH  14  15
ENDBRANCH  13  14
ENDBRANCH   1  13
TORSDOF 20
ENDMDL
