MODEL 1
REMARK VINA RESULT:    -2.679      0.000      0.000
REMARK INTER + INTRA:          -2.752
REMARK INTER:                  -3.619
REMARK INTRA:                   0.867
REMARK UNBOUND:                 0.867
REMARK SMILES CC[C@@H](CC[C@H](C)[C@@H]1CC[C@@H]2[C@@H]3CC(=O)C4=CC(=O)CC[C@@]4(C)[C@@H]3CC[C@]21C)C(C)C
REMARK SMILES IDX 4 1 3 2 2 3 1 4 29 5 30 6 31 7 5 8 6 9 7 10 8 11 9 12 27 13
REMARK SMILES IDX 10 14 11 15 26 16 28 17 12 18 25 19 24 20 13 21 22 22 14 23
REMARK SMILES IDX 16 24 21 25 23 26 15 27 17 28 20 29 18 30 19 31
REMARK H PARENT
REMARK Flexibility Score: inf
ROOT
ATOM      1  C   UNL     1     106.296 135.939  52.703  1.00  0.00     0.004 C 
ENDROOT
BRANCH   1   2
ATOM      2  C   UNL     1     104.965 136.735  52.646  1.00  0.00    -0.009 C 
BRANCH   2   3
ATOM      3  C   UNL     1     104.314 136.981  54.045  1.00  0.00     0.000 C 
ATOM      4  C   UNL     1     104.428 138.405  54.605  1.00  0.00     0.004 C 
ENDBRANCH   2   3
BRANCH   2   5
ATOM      5  C   UNL     1     103.993 136.154  51.565  1.00  0.00    -0.014 C 
ATOM      6  C   UNL     1     104.360 136.612  50.144  1.00  0.00     0.007 C 
ATOM      7  C   UNL     1     102.508 136.426  51.841  1.00  0.00     0.007 C 
ENDBRANCH   2   5
ENDBRANCH   1   2
BRANCH   1   8
ATOM      8  C   UNL     1     106.752 135.659  54.149  1.00  0.00     0.004 C 
BRANCH   8   9
ATOM      9  C   UNL     1     107.076 134.165  54.390  1.00  0.00    -0.011 C 
ATOM     10  C   UNL     1     107.708 133.522  53.130  1.00  0.00     0.008 C 
BRANCH   9  11
ATOM     11  C   UNL     1     105.867 133.406  55.042  1.00  0.00    -0.002 C 
ATOM     12  C   UNL     1     106.156 131.910  55.362  1.00  0.00     0.005 C 
ATOM     13  C   UNL     1     104.439 133.420  54.401  1.00  0.00    -0.026 C 
ATOM     14  C   UNL     1     104.814 131.165  55.265  1.00  0.00     0.005 C 
ATOM     15  C   UNL     1     103.791 132.284  55.225  1.00  0.00    -0.001 C 
ATOM     16  C   UNL     1     103.600 134.694  54.657  1.00  0.00     0.007 C 
ATOM     17  C   UNL     1     104.519 133.156  52.873  1.00  0.00     0.012 C 
ATOM     18  C   UNL     1     102.308 131.958  54.932  1.00  0.00     0.004 C 
ATOM     19  C   UNL     1     102.105 134.473  54.309  1.00  0.00     0.005 C 
ATOM     20  C   UNL     1     101.457 133.274  55.073  1.00  0.00     0.003 C 
ATOM     21  C   UNL     1     102.066 131.121  53.645  1.00  0.00     0.085 C 
ATOM     22  C   UNL     1      99.906 133.042  54.795  1.00  0.00    -0.000 C 
ATOM     23  C   UNL     1     100.814 131.509  52.932  1.00  0.00     0.159 C 
ATOM     24  C   UNL     1      99.678 131.978  53.727  1.00  0.00     0.005 C 
ATOM     25  C   UNL     1      99.218 132.555  56.107  1.00  0.00     0.020 C 
ATOM     26  C   UNL     1      99.210 134.350  54.323  1.00  0.00     0.017 C 
ATOM     27  O   UNL     1     100.697 131.311  51.692  1.00  0.00    -0.295 OA
ATOM     28  C   UNL     1      98.498 131.347  53.615  1.00  0.00     0.055 C 
ATOM     29  C   UNL     1      97.720 132.235  55.925  1.00  0.00     0.081 C 
ATOM     30  C   UNL     1      97.449 131.506  54.637  1.00  0.00     0.156 C 
ATOM     31  O   UNL     1      96.310 131.009  54.436  1.00  0.00    -0.295 OA
ENDBRANCH   9  11
ENDBRANCH   8   9
ENDBRANCH   1   8
TORSDOF 6
ENDMDL
MODEL 2
REMARK VINA RESULT:    -2.385      1.146      2.056
REMARK INTER + INTRA:          -2.354
REMARK INTER:                  -4.629
REMARK INTRA:                   2.275
REMARK UNBOUND:                 0.867
REMARK SMILES CC[C@@H](CC[C@H](C)[C@@H]1CC[C@@H]2[C@@H]3CC(=O)C4=CC(=O)CC[C@@]4(C)[C@@H]3CC[C@]21C)C(C)C
REMARK SMILES IDX 4 1 3 2 2 3 1 4 29 5 30 6 31 7 5 8 6 9 7 10 8 11 9 12 27 13
REMARK SMILES IDX 10 14 11 15 26 16 28 17 12 18 25 19 24 20 13 21 22 22 14 23
REMARK SMILES IDX 16 24 21 25 23 26 15 27 17 28 20 29 18 30 19 31
REMARK H PARENT
REMARK Flexibility Score: inf
ROOT
ATOM      1  C   UNL     1     105.253 136.704  53.917  1.00  0.00     0.004 C 
ENDROOT
BRANCH   1   2
ATOM      2  C   UNL     1     105.701 137.475  55.187  1.00  0.00    -0.009 C 
BRANCH   2   3
ATOM      3  C   UNL     1     106.667 136.667  56.110  1.00  0.00     0.000 C 
ATOM      4  C   UNL     1     108.125 136.564  55.642  1.00  0.00     0.004 C 
ENDBRANCH   2   3
BRANCH   2   5
ATOM      5  C   UNL     1     104.483 138.125  55.925  1.00  0.00    -0.014 C 
ATOM      6  C   UNL     1     103.247 137.209  55.933  1.00  0.00     0.007 C 
ATOM      7  C   UNL     1     104.103 139.520  55.409  1.00  0.00     0.007 C 
ENDBRANCH   2   5
ENDBRANCH   1   2
BRANCH   1   8
ATOM      8  C   UNL     1     106.446 136.140  53.120  1.00  0.00     0.004 C 
BRANCH   8   9
ATOM      9  C   UNL     1     106.850 134.721  53.584  1.00  0.00    -0.011 C 
ATOM     10  C   UNL     1     107.442 133.898  52.412  1.00  0.00     0.008 C 
BRANCH   9  11
ATOM     11  C   UNL     1     105.714 134.039  54.426  1.00  0.00    -0.002 C 
ATOM     12  C   UNL     1     106.111 132.657  55.023  1.00  0.00     0.005 C 
ATOM     13  C   UNL     1     104.270 133.840  53.857  1.00  0.00    -0.026 C 
ATOM     14  C   UNL     1     104.819 131.830  55.134  1.00  0.00     0.005 C 
ATOM     15  C   UNL     1     103.724 132.857  54.917  1.00  0.00    -0.001 C 
ATOM     16  C   UNL     1     103.357 135.088  53.891  1.00  0.00     0.007 C 
ATOM     17  C   UNL     1     104.320 133.279  52.410  1.00  0.00     0.012 C 
ATOM     18  C   UNL     1     102.256 132.393  54.759  1.00  0.00     0.004 C 
ATOM     19  C   UNL     1     101.870 134.715  53.659  1.00  0.00     0.005 C 
ATOM     20  C   UNL     1     101.325 133.658  54.672  1.00  0.00     0.003 C 
ATOM     21  C   UNL     1     102.031 131.301  53.676  1.00  0.00     0.085 C 
ATOM     22  C   UNL     1      99.786 133.285  54.513  1.00  0.00    -0.000 C 
ATOM     23  C   UNL     1     100.735 131.465  52.954  1.00  0.00     0.159 C 
ATOM     24  C   UNL     1      99.596 132.016  53.689  1.00  0.00     0.005 C 
ATOM     25  C   UNL     1      99.172 133.032  55.924  1.00  0.00     0.020 C 
ATOM     26  C   UNL     1      98.990 134.429  53.822  1.00  0.00     0.017 C 
ATOM     27  O   UNL     1     100.593 131.015  51.784  1.00  0.00    -0.295 OA
ATOM     28  C   UNL     1      98.457 131.308  53.756  1.00  0.00     0.055 C 
ATOM     29  C   UNL     1      97.693 132.595  55.874  1.00  0.00     0.081 C 
ATOM     30  C   UNL     1      97.431 131.608  54.769  1.00  0.00     0.156 C 
ATOM     31  O   UNL     1      96.322 131.015  54.720  1.00  0.00    -0.295 OA
ENDBRANCH   9  11
ENDBRANCH   8   9
ENDBRANCH   1   8
TORSDOF 6
ENDMDL
MODEL 3
REMARK VINA RESULT:    -2.028      2.490      4.262
REMARK INTER + INTRA:          -1.872
REMARK INTER:                  -2.331
REMARK INTRA:                   0.459
REMARK UNBOUND:                 0.867
REMARK SMILES CC[C@@H](CC[C@H](C)[C@@H]1CC[C@@H]2[C@@H]3CC(=O)C4=CC(=O)CC[C@@]4(C)[C@@H]3CC[C@]21C)C(C)C
REMARK SMILES IDX 4 1 3 2 2 3 1 4 29 5 30 6 31 7 5 8 6 9 7 10 8 11 9 12 27 13
REMARK SMILES IDX 10 14 11 15 26 16 28 17 12 18 25 19 24 20 13 21 22 22 14 23
REMARK SMILES IDX 16 24 21 25 23 26 15 27 17 28 20 29 18 30 19 31
REMARK H PARENT
REMARK Flexibility Score: inf
ROOT
ATOM      1  C   UNL     1     103.471 138.705  55.371  1.00  0.00     0.004 C 
ENDROOT
BRANCH   1   2
ATOM      2  C   UNL     1     102.950 140.167  55.346  1.00  0.00    -0.009 C 
BRANCH   2   3
ATOM      3  C   UNL     1     104.032 141.230  55.718  1.00  0.00     0.000 C 
ATOM      4  C   UNL     1     104.348 142.279  54.642  1.00  0.00     0.004 C 
ENDBRANCH   2   3
BRANCH   2   5
ATOM      5  C   UNL     1     101.599 140.309  56.125  1.00  0.00    -0.014 C 
ATOM      6  C   UNL     1     100.743 139.034  56.048  1.00  0.00     0.007 C 
ATOM      7  C   UNL     1     100.763 141.531  55.720  1.00  0.00     0.007 C 
ENDBRANCH   2   5
ENDBRANCH   1   2
BRANCH   1   8
ATOM      8  C   UNL     1     104.999 138.623  55.185  1.00  0.00     0.004 C 
BRANCH   8   9
ATOM      9  C   UNL     1     105.652 137.563  56.105  1.00  0.00    -0.011 C 
ATOM     10  C   UNL     1     107.193 137.715  56.125  1.00  0.00     0.008 C 
BRANCH   9  11
ATOM     11  C   UNL     1     105.084 136.126  55.830  1.00  0.00    -0.002 C 
ATOM     12  C   UNL     1     106.115 134.983  56.063  1.00  0.00     0.005 C 
ATOM     13  C   UNL     1     104.366 135.763  54.487  1.00  0.00    -0.026 C 
ATOM     14  C   UNL     1     105.735 133.837  55.110  1.00  0.00     0.005 C 
ATOM     15  C   UNL     1     104.350 134.224  54.627  1.00  0.00    -0.001 C 
ATOM     16  C   UNL     1     102.892 136.218  54.370  1.00  0.00     0.007 C 
ATOM     17  C   UNL     1     105.168 136.300  53.272  1.00  0.00     0.012 C 
ATOM     18  C   UNL     1     103.680 133.419  53.489  1.00  0.00     0.004 C 
ATOM     19  C   UNL     1     102.169 135.513  53.194  1.00  0.00     0.005 C 
ATOM     20  C   UNL     1     102.216 133.953  53.277  1.00  0.00     0.003 C 
ATOM     21  C   UNL     1     104.544 133.263  52.207  1.00  0.00     0.085 C 
ATOM     22  C   UNL     1     101.435 133.181  52.124  1.00  0.00    -0.000 C 
ATOM     23  C   UNL     1     103.730 133.299  50.956  1.00  0.00     0.159 C 
ATOM     24  C   UNL     1     102.370 132.759  50.997  1.00  0.00     0.005 C 
ATOM     25  C   UNL     1     100.791 131.890  52.716  1.00  0.00     0.020 C 
ATOM     26  C   UNL     1     100.310 134.062  51.509  1.00  0.00     0.017 C 
ATOM     27  O   UNL     1     104.249 133.662  49.865  1.00  0.00    -0.295 OA
ATOM     28  C   UNL     1     102.030 131.782  50.140  1.00  0.00     0.055 C 
ATOM     29  C   UNL     1     100.066 131.033  51.660  1.00  0.00     0.081 C 
ATOM     30  C   UNL     1     100.840 130.945  50.373  1.00  0.00     0.156 C 
ATOM     31  O   UNL     1     100.476 130.129  49.486  1.00  0.00    -0.295 OA
ENDBRANCH   9  11
ENDBRANCH   8   9
ENDBRANCH   1   8
TORSDOF 6
ENDMDL
MODEL 4
REMARK VINA RESULT:    -1.985     15.378     17.836
REMARK INTER + INTRA:          -1.814
REMARK INTER:                  -1.302
REMARK INTRA:                  -0.513
REMARK UNBOUND:                 0.867
REMARK SMILES CC[C@@H](CC[C@H](C)[C@@H]1CC[C@@H]2[C@@H]3CC(=O)C4=CC(=O)CC[C@@]4(C)[C@@H]3CC[C@]21C)C(C)C
REMARK SMILES IDX 4 1 3 2 2 3 1 4 29 5 30 6 31 7 5 8 6 9 7 10 8 11 9 12 27 13
REMARK SMILES IDX 10 14 11 15 26 16 28 17 12 18 25 19 24 20 13 21 22 22 14 23
REMARK SMILES IDX 16 24 21 25 23 26 15 27 17 28 20 29 18 30 19 31
REMARK H PARENT
REMARK Flexibility Score: inf
ROOT
ATOM      1  C   UNL     1      88.236 138.809  44.866  1.00  0.00     0.004 C 
ENDROOT
BRANCH   1   2
ATOM      2  C   UNL     1      87.942 137.704  43.816  1.00  0.00    -0.009 C 
BRANCH   2   3
ATOM      3  C   UNL     1      88.140 136.251  44.354  1.00  0.00     0.000 C 
ATOM      4  C   UNL     1      88.608 136.126  45.811  1.00  0.00     0.004 C 
ENDBRANCH   2   3
BRANCH   2   5
ATOM      5  C   UNL     1      88.655 138.000  42.454  1.00  0.00    -0.014 C 
ATOM      6  C   UNL     1      87.935 137.344  41.264  1.00  0.00     0.007 C 
ATOM      7  C   UNL     1      90.147 137.642  42.432  1.00  0.00     0.007 C 
ENDBRANCH   2   5
ENDBRANCH   1   2
BRANCH   1   8
ATOM      8  C   UNL     1      87.903 140.220  44.342  1.00  0.00     0.004 C 
BRANCH   8   9
ATOM      9  C   UNL     1      88.862 141.300  44.898  1.00  0.00    -0.011 C 
ATOM     10  C   UNL     1      90.321 140.780  44.946  1.00  0.00     0.008 C 
BRANCH   9  11
ATOM     11  C   UNL     1      88.301 141.956  46.209  1.00  0.00    -0.002 C 
ATOM     12  C   UNL     1      87.875 143.444  46.041  1.00  0.00     0.005 C 
ATOM     13  C   UNL     1      89.087 141.905  47.562  1.00  0.00    -0.026 C 
ATOM     14  C   UNL     1      88.072 144.122  47.407  1.00  0.00     0.005 C 
ATOM     15  C   UNL     1      88.277 142.956  48.354  1.00  0.00    -0.001 C 
ATOM     16  C   UNL     1      88.986 140.576  48.347  1.00  0.00     0.007 C 
ATOM     17  C   UNL     1      90.582 142.260  47.344  1.00  0.00     0.012 C 
ATOM     18  C   UNL     1      88.705 143.220  49.817  1.00  0.00     0.004 C 
ATOM     19  C   UNL     1      89.475 140.738  49.809  1.00  0.00     0.005 C 
ATOM     20  C   UNL     1      88.722 141.855  50.600  1.00  0.00     0.003 C 
ATOM     21  C   UNL     1      89.965 144.116  49.975  1.00  0.00     0.085 C 
ATOM     22  C   UNL     1      89.147 142.021  52.125  1.00  0.00    -0.000 C 
ATOM     23  C   UNL     1      90.824 143.704  51.125  1.00  0.00     0.159 C 
ATOM     24  C   UNL     1      90.176 143.132  52.306  1.00  0.00     0.005 C 
ATOM     25  C   UNL     1      87.891 142.395  52.970  1.00  0.00     0.020 C 
ATOM     26  C   UNL     1      89.756 140.707  52.694  1.00  0.00     0.017 C 
ATOM     27  O   UNL     1      92.057 143.967  51.127  1.00  0.00    -0.295 OA
ATOM     28  C   UNL     1      90.377 143.705  53.503  1.00  0.00     0.055 C 
ATOM     29  C   UNL     1      88.211 142.646  54.457  1.00  0.00     0.081 C 
ATOM     30  C   UNL     1      89.480 143.433  54.639  1.00  0.00     0.156 C 
ATOM     31  O   UNL     1      89.773 143.880  55.779  1.00  0.00    -0.295 OA
ENDBRANCH   9  11
ENDBRANCH   8   9
ENDBRANCH   1   8
TORSDOF 6
ENDMDL
MODEL 5
REMARK VINA RESULT:    -0.479      2.375      5.073
REMARK INTER + INTRA:           0.219
REMARK INTER:                  -4.807
REMARK INTRA:                   5.026
REMARK UNBOUND:                 0.867
REMARK SMILES CC[C@@H](CC[C@H](C)[C@@H]1CC[C@@H]2[C@@H]3CC(=O)C4=CC(=O)CC[C@@]4(C)[C@@H]3CC[C@]21C)C(C)C
REMARK SMILES IDX 4 1 3 2 2 3 1 4 29 5 30 6 31 7 5 8 6 9 7 10 8 11 9 12 27 13
REMARK SMILES IDX 10 14 11 15 26 16 28 17 12 18 25 19 24 20 13 21 22 22 14 23
REMARK SMILES IDX 16 24 21 25 23 26 15 27 17 28 20 29 18 30 19 31
REMARK H PARENT
REMARK Flexibility Score: inf
ROOT
ATOM      1  C   UNL     1     106.335 133.421  55.223  1.00  0.00     0.004 C 
ENDROOT
BRANCH   1   2
ATOM      2  C   UNL     1     106.271 132.068  55.980  1.00  0.00    -0.009 C 
BRANCH   2   3
ATOM      3  C   UNL     1     107.545 131.183  55.803  1.00  0.00     0.000 C 
ATOM      4  C   UNL     1     108.077 131.039  54.370  1.00  0.00     0.004 C 
ENDBRANCH   2   3
BRANCH   2   5
ATOM      5  C   UNL     1     104.918 131.325  55.719  1.00  0.00    -0.014 C 
ATOM      6  C   UNL     1     104.788 130.841  54.266  1.00  0.00     0.007 C 
ATOM      7  C   UNL     1     103.671 132.125  56.122  1.00  0.00     0.007 C 
ENDBRANCH   2   5
ENDBRANCH   1   2
BRANCH   1   8
ATOM      8  C   UNL     1     106.916 134.554  56.092  1.00  0.00     0.004 C 
BRANCH   8   9
ATOM      9  C   UNL     1     107.324 135.791  55.256  1.00  0.00    -0.011 C 
ATOM     10  C   UNL     1     108.082 136.826  56.125  1.00  0.00     0.008 C 
BRANCH   9  11
ATOM     11  C   UNL     1     106.128 136.331  54.394  1.00  0.00    -0.002 C 
ATOM     12  C   UNL     1     105.313 137.466  55.081  1.00  0.00     0.005 C 
ATOM     13  C   UNL     1     105.056 135.373  53.776  1.00  0.00    -0.026 C 
ATOM     14  C   UNL     1     103.873 137.366  54.551  1.00  0.00     0.005 C 
ATOM     15  C   UNL     1     103.997 136.422  53.370  1.00  0.00    -0.001 C 
ATOM     16  C   UNL     1     105.478 134.638  52.482  1.00  0.00     0.007 C 
ATOM     17  C   UNL     1     104.577 134.332  54.824  1.00  0.00     0.012 C 
ATOM     18  C   UNL     1     102.721 135.901  52.666  1.00  0.00     0.004 C 
ATOM     19  C   UNL     1     104.259 134.015  51.755  1.00  0.00     0.005 C 
ATOM     20  C   UNL     1     103.140 135.050  51.411  1.00  0.00     0.003 C 
ATOM     21  C   UNL     1     101.673 135.254  53.613  1.00  0.00     0.085 C 
ATOM     22  C   UNL     1     101.892 134.470  50.611  1.00  0.00    -0.000 C 
ATOM     23  C   UNL     1     100.970 134.095  52.989  1.00  0.00     0.159 C 
ATOM     24  C   UNL     1     100.738 134.120  51.544  1.00  0.00     0.005 C 
ATOM     25  C   UNL     1     101.381 135.548  49.606  1.00  0.00     0.020 C 
ATOM     26  C   UNL     1     102.270 133.188  49.816  1.00  0.00     0.017 C 
ATOM     27  O   UNL     1     100.473 133.186  53.708  1.00  0.00    -0.295 OA
ATOM     28  C   UNL     1      99.483 133.998  51.082  1.00  0.00     0.055 C 
ATOM     29  C   UNL     1     100.126 135.106  48.827  1.00  0.00     0.081 C 
ATOM     30  C   UNL     1      99.136 134.392  49.706  1.00  0.00     0.156 C 
ATOM     31  O   UNL     1      97.984 134.142  49.263  1.00  0.00    -0.295 OA
ENDBRANCH   9  11
ENDBRANCH   8   9
ENDBRANCH   1   8
TORSDOF 6
ENDMDL
MODEL 6
REMARK VINA RESULT:    -0.399      2.777      7.303
REMARK INTER + INTRA:           0.328
REMARK INTER:                  -1.404
REMARK INTRA:                   1.732
REMARK UNBOUND:                 0.867
REMARK SMILES CC[C@@H](CC[C@H](C)[C@@H]1CC[C@@H]2[C@@H]3CC(=O)C4=CC(=O)CC[C@@]4(C)[C@@H]3CC[C@]21C)C(C)C
REMARK SMILES IDX 4 1 3 2 2 3 1 4 29 5 30 6 31 7 5 8 6 9 7 10 8 11 9 12 27 13
REMARK SMILES IDX 10 14 11 15 26 16 28 17 12 18 25 19 24 20 13 21 22 22 14 23
REMARK SMILES IDX 16 24 21 25 23 26 15 27 17 28 20 29 18 30 19 31
REMARK H PARENT
REMARK Flexibility Score: inf
ROOT
ATOM      1  C   UNL     1      99.044 132.965  52.531  1.00  0.00     0.004 C 
ENDROOT
BRANCH   1   2
ATOM      2  C   UNL     1      99.037 132.406  53.978  1.00  0.00    -0.009 C 
BRANCH   2   3
ATOM      3  C   UNL     1      97.961 131.302  54.226  1.00  0.00     0.000 C 
ATOM      4  C   UNL     1      97.079 131.482  55.469  1.00  0.00     0.004 C 
ENDBRANCH   2   3
BRANCH   2   5
ATOM      5  C   UNL     1      99.049 133.557  55.040  1.00  0.00    -0.014 C 
ATOM      6  C   UNL     1      99.101 134.950  54.390  1.00  0.00     0.007 C 
ATOM      7  C   UNL     1     100.152 133.427  56.099  1.00  0.00     0.007 C 
ENDBRANCH   2   5
ENDBRANCH   1   2
BRANCH   1   8
ATOM      8  C   UNL     1      99.008 131.848  51.469  1.00  0.00     0.004 C 
BRANCH   8   9
ATOM      9  C   UNL     1     100.310 131.780  50.636  1.00  0.00    -0.011 C 
ATOM     10  C   UNL     1     100.259 130.617  49.614  1.00  0.00     0.008 C 
BRANCH   9  11
ATOM     11  C   UNL     1     101.587 131.869  51.544  1.00  0.00    -0.002 C 
ATOM     12  C   UNL     1     101.479 131.059  52.869  1.00  0.00     0.005 C 
ATOM     13  C   UNL     1     102.216 133.242  51.954  1.00  0.00    -0.026 C 
ATOM     14  C   UNL     1     102.354 131.781  53.907  1.00  0.00     0.005 C 
ATOM     15  C   UNL     1     103.165 132.752  53.071  1.00  0.00    -0.001 C 
ATOM     16  C   UNL     1     103.100 133.922  50.882  1.00  0.00     0.007 C 
ATOM     17  C   UNL     1     101.118 134.235  52.418  1.00  0.00     0.012 C 
ATOM     18  C   UNL     1     104.045 133.817  53.767  1.00  0.00     0.004 C 
ATOM     19  C   UNL     1     103.959 135.062  51.487  1.00  0.00     0.005 C 
ATOM     20  C   UNL     1     104.863 134.599  52.675  1.00  0.00     0.003 C 
ATOM     21  C   UNL     1     103.303 134.686  54.821  1.00  0.00     0.085 C 
ATOM     22  C   UNL     1     105.809 135.721  53.293  1.00  0.00    -0.000 C 
ATOM     23  C   UNL     1     103.782 136.100  54.840  1.00  0.00     0.159 C 
ATOM     24  C   UNL     1     105.188 136.362  54.530  1.00  0.00     0.005 C 
ATOM     25  C   UNL     1     107.160 135.071  53.723  1.00  0.00     0.020 C 
ATOM     26  C   UNL     1     106.103 136.849  52.265  1.00  0.00     0.017 C 
ATOM     27  O   UNL     1     103.026 137.025  55.244  1.00  0.00    -0.295 OA
ATOM     28  C   UNL     1     105.942 137.023  55.423  1.00  0.00     0.055 C 
ATOM     29  C   UNL     1     108.125 136.066  54.400  1.00  0.00     0.081 C 
ATOM     30  C   UNL     1     107.413 136.984  55.356  1.00  0.00     0.156 C 
ATOM     31  O   UNL     1     108.086 137.719  56.125  1.00  0.00    -0.295 OA
ENDBRANCH   9  11
ENDBRANCH   8   9
ENDBRANCH   1   8
TORSDOF 6
ENDMDL
MODEL 7
REMARK VINA RESULT:     0.109      3.375      6.555
REMARK INTER + INTRA:           1.014
REMARK INTER:                   0.813
REMARK INTRA:                   0.201
REMARK UNBOUND:                 0.867
REMARK SMILES CC[C@@H](CC[C@H](C)[C@@H]1CC[C@@H]2[C@@H]3CC(=O)C4=CC(=O)CC[C@@]4(C)[C@@H]3CC[C@]21C)C(C)C
REMARK SMILES IDX 4 1 3 2 2 3 1 4 29 5 30 6 31 7 5 8 6 9 7 10 8 11 9 12 27 13
REMARK SMILES IDX 10 14 11 15 26 16 28 17 12 18 25 19 24 20 13 21 22 22 14 23
REMARK SMILES IDX 16 24 21 25 23 26 15 27 17 28 20 29 18 30 19 31
REMARK H PARENT
REMARK Flexibility Score: inf
ROOT
ATOM      1  C   UNL     1     100.944 131.440  51.186  1.00  0.00     0.004 C 
ENDROOT
BRANCH   1   2
ATOM      2  C   UNL     1     100.038 131.983  52.323  1.00  0.00    -0.009 C 
BRANCH   2   3
ATOM      3  C   UNL     1      99.288 130.870  53.121  1.00  0.00     0.000 C 
ATOM      4  C   UNL     1      98.260 131.352  54.154  1.00  0.00     0.004 C 
ENDBRANCH   2   3
BRANCH   2   5
ATOM      5  C   UNL     1      99.128 133.155  51.823  1.00  0.00    -0.014 C 
ATOM      6  C   UNL     1      99.645 133.780  50.517  1.00  0.00     0.007 C 
ATOM      7  C   UNL     1      98.877 134.250  52.869  1.00  0.00     0.007 C 
ENDBRANCH   2   5
ENDBRANCH   1   2
BRANCH   1   8
ATOM      8  C   UNL     1     102.128 130.612  51.724  1.00  0.00     0.004 C 
BRANCH   8   9
ATOM      9  C   UNL     1     103.284 131.499  52.243  1.00  0.00    -0.011 C 
ATOM     10  C   UNL     1     103.693 131.098  53.683  1.00  0.00     0.008 C 
BRANCH   9  11
ATOM     11  C   UNL     1     103.009 133.023  51.984  1.00  0.00    -0.002 C 
ATOM     12  C   UNL     1     103.976 133.675  50.953  1.00  0.00     0.005 C 
ATOM     13  C   UNL     1     102.902 134.055  53.155  1.00  0.00    -0.026 C 
ATOM     14  C   UNL     1     104.105 135.158  51.337  1.00  0.00     0.005 C 
ATOM     15  C   UNL     1     102.983 135.363  52.336  1.00  0.00    -0.001 C 
ATOM     16  C   UNL     1     101.551 134.080  53.907  1.00  0.00     0.007 C 
ATOM     17  C   UNL     1     104.054 133.851  54.176  1.00  0.00     0.012 C 
ATOM     18  C   UNL     1     102.884 136.693  53.119  1.00  0.00     0.004 C 
ATOM     19  C   UNL     1     101.408 135.351  54.784  1.00  0.00     0.005 C 
ATOM     20  C   UNL     1     101.570 136.683  53.984  1.00  0.00     0.003 C 
ATOM     21  C   UNL     1     104.186 137.112  53.857  1.00  0.00     0.085 C 
ATOM     22  C   UNL     1     101.373 138.018  54.828  1.00  0.00    -0.000 C 
ATOM     23  C   UNL     1     103.918 137.781  55.165  1.00  0.00     0.159 C 
ATOM     24  C   UNL     1     102.707 138.593  55.293  1.00  0.00     0.005 C 
ATOM     25  C   UNL     1     100.679 139.091  53.935  1.00  0.00     0.020 C 
ATOM     26  C   UNL     1     100.492 137.772  56.087  1.00  0.00     0.017 C 
ATOM     27  O   UNL     1     104.779 137.754  56.085  1.00  0.00    -0.295 OA
ATOM     28  C   UNL     1     102.819 139.879  55.662  1.00  0.00     0.055 C 
ATOM     29  C   UNL     1     100.503 140.450  54.643  1.00  0.00     0.081 C 
ATOM     30  C   UNL     1     101.719 140.833  55.443  1.00  0.00     0.156 C 
ATOM     31  O   UNL     1     101.805 141.996  55.919  1.00  0.00    -0.295 OA
ENDBRANCH   9  11
ENDBRANCH   8   9
ENDBRANCH   1   8
TORSDOF 6
ENDMDL
MODEL 8
REMARK VINA RESULT:     0.225      1.500      2.678
REMARK INTER + INTRA:           1.170
REMARK INTER:                  -0.168
REMARK INTRA:                   1.338
REMARK UNBOUND:                 0.867
REMARK SMILES CC[C@@H](CC[C@H](C)[C@@H]1CC[C@@H]2[C@@H]3CC(=O)C4=CC(=O)CC[C@@]4(C)[C@@H]3CC[C@]21C)C(C)C
REMARK SMILES IDX 4 1 3 2 2 3 1 4 29 5 30 6 31 7 5 8 6 9 7 10 8 11 9 12 27 13
REMARK SMILES IDX 10 14 11 15 26 16 28 17 12 18 25 19 24 20 13 21 22 22 14 23
REMARK SMILES IDX 16 24 21 25 23 26 15 27 17 28 20 29 18 30 19 31
REMARK H PARENT
REMARK Flexibility Score: inf
ROOT
ATOM      1  C   UNL     1     104.652 138.070  54.987  1.00  0.00     0.004 C 
ENDROOT
BRANCH   1   2
ATOM      2  C   UNL     1     103.790 138.777  56.066  1.00  0.00    -0.009 C 
BRANCH   2   3
ATOM      3  C   UNL     1     102.296 138.321  56.081  1.00  0.00     0.000 C 
ATOM      4  C   UNL     1     101.247 139.440  56.125  1.00  0.00     0.004 C 
ENDBRANCH   2   3
BRANCH   2   5
ATOM      5  C   UNL     1     104.000 140.328  56.044  1.00  0.00    -0.014 C 
ATOM      6  C   UNL     1     103.314 140.994  54.840  1.00  0.00     0.007 C 
ATOM      7  C   UNL     1     105.468 140.768  56.125  1.00  0.00     0.007 C 
ENDBRANCH   2   5
ENDBRANCH   1   2
BRANCH   1   8
ATOM      8  C   UNL     1     105.925 137.430  55.577  1.00  0.00     0.004 C 
BRANCH   8   9
ATOM      9  C   UNL     1     106.140 135.978  55.088  1.00  0.00    -0.011 C 
ATOM     10  C   UNL     1     106.380 135.934  53.558  1.00  0.00     0.008 C 
BRANCH   9  11
ATOM     11  C   UNL     1     105.051 135.004  55.663  1.00  0.00    -0.002 C 
ATOM     12  C   UNL     1     105.609 133.619  56.103  1.00  0.00     0.005 C 
ATOM     13  C   UNL     1     103.733 134.685  54.882  1.00  0.00    -0.026 C 
ATOM     14  C   UNL     1     104.472 132.600  55.920  1.00  0.00     0.005 C 
ATOM     15  C   UNL     1     103.249 133.471  55.707  1.00  0.00    -0.001 C 
ATOM     16  C   UNL     1     102.623 135.758  54.972  1.00  0.00     0.007 C 
ATOM     17  C   UNL     1     104.035 134.383  53.390  1.00  0.00     0.012 C 
ATOM     18  C   UNL     1     101.908 132.823  55.288  1.00  0.00     0.004 C 
ATOM     19  C   UNL     1     101.255 135.208  54.491  1.00  0.00     0.005 C 
ATOM     20  C   UNL     1     100.791 133.930  55.260  1.00  0.00     0.003 C 
ATOM     21  C   UNL     1     101.992 131.902  54.039  1.00  0.00     0.085 C 
ATOM     22  C   UNL     1      99.364 133.360  54.843  1.00  0.00    -0.000 C 
ATOM     23  C   UNL     1     100.773 131.984  53.180  1.00  0.00     0.159 C 
ATOM     24  C   UNL     1      99.484 132.229  53.827  1.00  0.00     0.005 C 
ATOM     25  C   UNL     1      98.651 132.789  56.107  1.00  0.00     0.020 C 
ATOM     26  C   UNL     1      98.466 134.468  54.223  1.00  0.00     0.017 C 
ATOM     27  O   UNL     1     100.839 131.715  51.950  1.00  0.00    -0.295 OA
ATOM     28  C   UNL     1      98.481 131.356  53.638  1.00  0.00     0.055 C 
ATOM     29  C   UNL     1      97.283 132.149  55.797  1.00  0.00     0.081 C 
ATOM     30  C   UNL     1      97.315 131.327  54.537  1.00  0.00     0.156 C 
ATOM     31  O   UNL     1      96.335 130.589  54.254  1.00  0.00    -0.295 OA
ENDBRANCH   9  11
ENDBRANCH   8   9
ENDBRANCH   1   8
TORSDOF 6
ENDMDL
