MODEL 1
REMARK VINA RESULT:    -4.360      0.000      0.000
REMARK INTER + INTRA:          -9.026
REMARK INTER:                  -7.673
REMARK INTRA:                  -1.353
REMARK UNBOUND:                -1.353
REMARK SMILES CCCCCCC=CCCCCCCCC(=O)[O-]
REMARK SMILES IDX 10 1 11 2 12 3 13 4 14 5 15 6 16 7 17 8 18 9 9 10 8 11 7 12
REMARK SMILES IDX 6 13 5 14 4 15 3 16 2 17 1 18
REMARK H PARENT
REMARK Flexibility Score: inf
ROOT
ATOM      1  C   UNL     1      98.707 -68.518   4.291  1.00  0.00     0.004 C 
ENDROOT
BRANCH   1   2
ATOM      2  C   UNL     1      98.657 -67.009   4.007  1.00  0.00     0.000 C 
BRANCH   2   3
ATOM      3  C   UNL     1      99.872 -66.516   3.208  1.00  0.00     0.000 C 
BRANCH   3   4
ATOM      4  C   UNL     1      99.622 -66.642   1.697  1.00  0.00     0.000 C 
BRANCH   4   5
ATOM      5  C   UNL     1     100.269 -67.898   1.091  1.00  0.00     0.006 C 
BRANCH   5   6
ATOM      6  C   UNL     1      99.832 -68.144  -0.359  1.00  0.00     0.053 C 
BRANCH   6   7
ATOM      7  C   UNL     1      98.807 -69.233  -0.417  1.00  0.00     0.041 C 
ATOM      8  O   UNL     1      98.716 -70.068   0.521  1.00  0.00    -0.550 OA
ATOM      9  O   UNL     1      97.984 -69.354  -1.529  1.00  0.00    -0.550 OA
ENDBRANCH   6   7
ENDBRANCH   5   6
ENDBRANCH   4   5
ENDBRANCH   3   4
ENDBRANCH   2   3
ENDBRANCH   1   2
BRANCH   1  10
ATOM     10  C   UNL     1     100.124 -69.014   4.617  1.00  0.00     0.027 C 
BRANCH  10  11
ATOM     11  C   UNL     1     100.185 -69.578   6.014  1.00  0.00    -0.031 C 
ATOM     12  C   UNL     1     100.848 -69.003   7.034  1.00  0.00    -0.031 C 
BRANCH  12  13
ATOM     13  C   UNL     1     101.659 -67.738   6.893  1.00  0.00     0.027 C 
BRANCH  13  14
ATOM     14  C   UNL     1     100.953 -66.550   7.564  1.00  0.00     0.004 C 
BRANCH  14  15
ATOM     15  C   UNL     1     101.376 -66.376   9.033  1.00  0.00     0.000 C 
BRANCH  15  16
ATOM     16  C   UNL     1     100.183 -66.180   9.994  1.00  0.00    -0.000 C 
BRANCH  16  17
ATOM     17  C   UNL     1     100.170 -67.175  11.166  1.00  0.00    -0.003 C 
ATOM     18  C   UNL     1     100.386 -68.620  10.723  1.00  0.00     0.004 C 
ENDBRANCH  16  17
ENDBRANCH  15  16
ENDBRANCH  14  15
ENDBRANCH  13  14
ENDBRANCH  12  13
ENDBRANCH  10  11
ENDBRANCH   1  10
TORSDOF 13
ENDMDL
MODEL 2
REMARK VINA RESULT:    -4.326      1.286      1.870
REMARK INTER + INTRA:          -8.967
REMARK INTER:                  -7.879
REMARK INTRA:                  -1.088
REMARK UNBOUND:                -1.353
REMARK SMILES CCCCCCC=CCCCCCCCC(=O)[O-]
REMARK SMILES IDX 10 1 11 2 12 3 13 4 14 5 15 6 16 7 17 8 18 9 9 10 8 11 7 12
REMARK SMILES IDX 6 13 5 14 4 15 3 16 2 17 1 18
REMARK H PARENT
REMARK Flexibility Score: inf
ROOT
ATOM      1  C   UNL     1      97.955 -67.812   3.883  1.00  0.00     0.004 C 
ENDROOT
BRANCH   1   2
ATOM      2  C   UNL     1      97.531 -66.353   3.657  1.00  0.00     0.000 C 
BRANCH   2   3
ATOM      3  C   UNL     1      98.460 -65.609   2.686  1.00  0.00     0.000 C 
BRANCH   3   4
ATOM      4  C   UNL     1      98.050 -65.869   1.229  1.00  0.00     0.000 C 
BRANCH   4   5
ATOM      5  C   UNL     1      99.255 -66.145   0.314  1.00  0.00     0.006 C 
BRANCH   5   6
ATOM      6  C   UNL     1      99.154 -67.498  -0.401  1.00  0.00     0.053 C 
BRANCH   6   7
ATOM      7  C   UNL     1      99.479 -68.613   0.543  1.00  0.00     0.041 C 
ATOM      8  O   UNL     1      98.789 -69.666   0.541  1.00  0.00    -0.550 OA
ATOM      9  O   UNL     1     100.513 -68.469   1.459  1.00  0.00    -0.550 OA
ENDBRANCH   6   7
ENDBRANCH   5   6
ENDBRANCH   4   5
ENDBRANCH   3   4
ENDBRANCH   2   3
ENDBRANCH   1   2
BRANCH   1  10
ATOM     10  C   UNL     1      99.290 -67.933   4.634  1.00  0.00     0.027 C 
BRANCH  10  11
ATOM     11  C   UNL     1      99.523 -69.353   5.084  1.00  0.00    -0.031 C 
ATOM     12  C   UNL     1     100.556 -69.744   5.851  1.00  0.00    -0.031 C 
BRANCH  12  13
ATOM     13  C   UNL     1     101.647 -68.810   6.319  1.00  0.00     0.027 C 
BRANCH  13  14
ATOM     14  C   UNL     1     101.897 -68.963   7.826  1.00  0.00     0.004 C 
BRANCH  14  15
ATOM     15  C   UNL     1     100.863 -68.196   8.669  1.00  0.00     0.000 C 
BRANCH  15  16
ATOM     16  C   UNL     1     100.651 -68.798  10.075  1.00  0.00    -0.000 C 
BRANCH  16  17
ATOM     17  C   UNL     1     100.079 -67.796  11.091  1.00  0.00    -0.003 C 
ATOM     18  C   UNL     1     100.133 -66.352  10.598  1.00  0.00     0.004 C 
ENDBRANCH  16  17
ENDBRANCH  15  16
ENDBRANCH  14  15
ENDBRANCH  13  14
ENDBRANCH  12  13
ENDBRANCH  10  11
ENDBRANCH   1  10
TORSDOF 13
ENDMDL
MODEL 3
REMARK VINA RESULT:    -4.148      1.471      2.643
REMARK INTER + INTRA:          -8.654
REMARK INTER:                  -6.884
REMARK INTRA:                  -1.770
REMARK UNBOUND:                -1.353
REMARK SMILES CCCCCCC=CCCCCCCCC(=O)[O-]
REMARK SMILES IDX 10 1 11 2 12 3 13 4 14 5 15 6 16 7 17 8 18 9 9 10 8 11 7 12
REMARK SMILES IDX 6 13 5 14 4 15 3 16 2 17 1 18
REMARK H PARENT
REMARK Flexibility Score: inf
ROOT
ATOM      1  C   UNL     1      96.865 -66.422   3.261  1.00  0.00     0.004 C 
ENDROOT
BRANCH   1   2
ATOM      2  C   UNL     1      97.681 -65.185   2.856  1.00  0.00     0.000 C 
BRANCH   2   3
ATOM      3  C   UNL     1      97.938 -65.113   1.344  1.00  0.00     0.000 C 
BRANCH   3   4
ATOM      4  C   UNL     1      99.428 -64.877   1.052  1.00  0.00     0.000 C 
BRANCH   4   5
ATOM      5  C   UNL     1     100.105 -66.093   0.401  1.00  0.00     0.006 C 
BRANCH   5   6
ATOM      6  C   UNL     1      99.111 -67.212   0.065  1.00  0.00     0.053 C 
BRANCH   6   7
ATOM      7  C   UNL     1      99.510 -68.484   0.744  1.00  0.00     0.041 C 
ATOM      8  O   UNL     1     100.498 -68.503   1.525  1.00  0.00    -0.550 OA
ATOM      9  O   UNL     1      98.821 -69.661   0.478  1.00  0.00    -0.550 OA
ENDBRANCH   6   7
ENDBRANCH   5   6
ENDBRANCH   4   5
ENDBRANCH   3   4
ENDBRANCH   2   3
ENDBRANCH   1   2
BRANCH   1  10
ATOM     10  C   UNL     1      97.732 -67.526   3.885  1.00  0.00     0.027 C 
BRANCH  10  11
ATOM     11  C   UNL     1      99.043 -66.964   4.372  1.00  0.00    -0.031 C 
ATOM     12  C   UNL     1     100.055 -67.710   4.852  1.00  0.00    -0.031 C 
BRANCH  12  13
ATOM     13  C   UNL     1      99.983 -69.210   5.009  1.00  0.00     0.027 C 
BRANCH  13  14
ATOM     14  C   UNL     1     100.213 -69.624   6.470  1.00  0.00     0.004 C 
BRANCH  14  15
ATOM     15  C   UNL     1     101.166 -68.665   7.203  1.00  0.00     0.000 C 
BRANCH  15  16
ATOM     16  C   UNL     1     100.945 -68.632   8.732  1.00  0.00    -0.000 C 
BRANCH  16  17
ATOM     17  C   UNL     1     100.722 -67.216   9.288  1.00  0.00    -0.003 C 
ATOM     18  C   UNL     1     100.837 -66.132   8.220  1.00  0.00     0.004 C 
ENDBRANCH  16  17
ENDBRANCH  15  16
ENDBRANCH  14  15
ENDBRANCH  13  14
ENDBRANCH  12  13
ENDBRANCH  10  11
ENDBRANCH   1  10
TORSDOF 13
ENDMDL
MODEL 4
REMARK VINA RESULT:    -4.074      1.269      2.004
REMARK INTER + INTRA:          -8.524
REMARK INTER:                  -7.592
REMARK INTRA:                  -0.932
REMARK UNBOUND:                -1.353
REMARK SMILES CCCCCCC=CCCCCCCCC(=O)[O-]
REMARK SMILES IDX 10 1 11 2 12 3 13 4 14 5 15 6 16 7 17 8 18 9 9 10 8 11 7 12
REMARK SMILES IDX 6 13 5 14 4 15 3 16 2 17 1 18
REMARK H PARENT
REMARK Flexibility Score: inf
ROOT
ATOM      1  C   UNL     1      98.294 -67.522   3.291  1.00  0.00     0.004 C 
ENDROOT
BRANCH   1   2
ATOM      2  C   UNL     1      98.783 -68.387   2.119  1.00  0.00     0.000 C 
BRANCH   2   3
ATOM      3  C   UNL     1     100.100 -67.878   1.516  1.00  0.00     0.000 C 
BRANCH   3   4
ATOM      4  C   UNL     1      99.846 -67.122   0.203  1.00  0.00     0.000 C 
BRANCH   4   5
ATOM      5  C   UNL     1     100.359 -67.884  -1.030  1.00  0.00     0.006 C 
BRANCH   5   6
ATOM      6  C   UNL     1      99.506 -67.628  -2.278  1.00  0.00     0.053 C 
BRANCH   6   7
ATOM      7  C   UNL     1      98.133 -68.195  -2.096  1.00  0.00     0.041 C 
ATOM      8  O   UNL     1      97.121 -67.529  -2.443  1.00  0.00    -0.550 OA
ATOM      9  O   UNL     1      97.967 -69.438  -1.499  1.00  0.00    -0.550 OA
ENDBRANCH   6   7
ENDBRANCH   5   6
ENDBRANCH   4   5
ENDBRANCH   3   4
ENDBRANCH   2   3
ENDBRANCH   1   2
BRANCH   1  10
ATOM     10  C   UNL     1      99.192 -67.644   4.532  1.00  0.00     0.027 C 
BRANCH  10  11
ATOM     11  C   UNL     1      99.416 -69.092   4.889  1.00  0.00    -0.031 C 
ATOM     12  C   UNL     1     100.450 -69.539   5.624  1.00  0.00    -0.031 C 
BRANCH  12  13
ATOM     13  C   UNL     1     101.549 -68.645   6.146  1.00  0.00     0.027 C 
BRANCH  13  14
ATOM     14  C   UNL     1     101.983 -69.069   7.556  1.00  0.00     0.004 C 
BRANCH  14  15
ATOM     15  C   UNL     1     100.962 -68.651   8.629  1.00  0.00     0.000 C 
BRANCH  15  16
ATOM     16  C   UNL     1     100.976 -67.136   8.929  1.00  0.00    -0.000 C 
BRANCH  16  17
ATOM     17  C   UNL     1     100.159 -66.750  10.172  1.00  0.00    -0.003 C 
ATOM     18  C   UNL     1     100.374 -67.702  11.346  1.00  0.00     0.004 C 
ENDBRANCH  16  17
ENDBRANCH  15  16
ENDBRANCH  14  15
ENDBRANCH  13  14
ENDBRANCH  12  13
ENDBRANCH  10  11
ENDBRANCH   1  10
TORSDOF 13
ENDMDL
MODEL 5
REMARK VINA RESULT:    -4.066      1.164      2.022
REMARK INTER + INTRA:          -8.508
REMARK INTER:                  -6.694
REMARK INTRA:                  -1.815
REMARK UNBOUND:                -1.353
REMARK SMILES CCCCCCC=CCCCCCCCC(=O)[O-]
REMARK SMILES IDX 10 1 11 2 12 3 13 4 14 5 15 6 16 7 17 8 18 9 9 10 8 11 7 12
REMARK SMILES IDX 6 13 5 14 4 15 3 16 2 17 1 18
REMARK H PARENT
REMARK Flexibility Score: inf
ROOT
ATOM      1  C   UNL     1     100.201 -69.170   5.156  1.00  0.00     0.004 C 
ENDROOT
BRANCH   1   2
ATOM      2  C   UNL     1     101.558 -68.918   4.481  1.00  0.00     0.000 C 
BRANCH   2   3
ATOM      3  C   UNL     1     101.644 -67.535   3.820  1.00  0.00     0.000 C 
BRANCH   3   4
ATOM      4  C   UNL     1     100.266 -66.856   3.788  1.00  0.00     0.000 C 
BRANCH   4   5
ATOM      5  C   UNL     1      99.743 -66.641   2.359  1.00  0.00     0.006 C 
BRANCH   5   6
ATOM      6  C   UNL     1      98.779 -67.748   1.912  1.00  0.00     0.053 C 
BRANCH   6   7
ATOM      7  C   UNL     1      99.422 -68.610   0.872  1.00  0.00     0.041 C 
ATOM      8  O   UNL     1      98.862 -69.673   0.494  1.00  0.00    -0.550 OA
ATOM      9  O   UNL     1     100.664 -68.265   0.354  1.00  0.00    -0.550 OA
ENDBRANCH   6   7
ENDBRANCH   5   6
ENDBRANCH   4   5
ENDBRANCH   3   4
ENDBRANCH   2   3
ENDBRANCH   1   2
BRANCH   1  10
ATOM     10  C   UNL     1     100.309 -69.267   6.685  1.00  0.00     0.027 C 
BRANCH  10  11
ATOM     11  C   UNL     1     101.630 -68.720   7.164  1.00  0.00    -0.031 C 
ATOM     12  C   UNL     1     101.828 -67.446   7.545  1.00  0.00    -0.031 C 
BRANCH  12  13
ATOM     13  C   UNL     1     100.755 -66.384   7.494  1.00  0.00     0.027 C 
BRANCH  13  14
ATOM     14  C   UNL     1     100.668 -65.622   8.825  1.00  0.00     0.004 C 
BRANCH  14  15
ATOM     15  C   UNL     1     101.223 -66.443  10.003  1.00  0.00     0.000 C 
BRANCH  15  16
ATOM     16  C   UNL     1     100.121 -67.070  10.884  1.00  0.00    -0.000 C 
BRANCH  16  17
ATOM     17  C   UNL     1     100.181 -68.605  10.941  1.00  0.00    -0.003 C 
ATOM     18  C   UNL     1     101.605 -69.148  10.849  1.00  0.00     0.004 C 
ENDBRANCH  16  17
ENDBRANCH  15  16
ENDBRANCH  14  15
ENDBRANCH  13  14
ENDBRANCH  12  13
ENDBRANCH  10  11
ENDBRANCH   1  10
TORSDOF 13
ENDMDL
MODEL 6
REMARK VINA RESULT:    -3.934      4.088      8.055
REMARK INTER + INTRA:          -8.277
REMARK INTER:                  -6.865
REMARK INTRA:                  -1.412
REMARK UNBOUND:                -1.353
REMARK SMILES CCCCCCC=CCCCCCCCC(=O)[O-]
REMARK SMILES IDX 10 1 11 2 12 3 13 4 14 5 15 6 16 7 17 8 18 9 9 10 8 11 7 12
REMARK SMILES IDX 6 13 5 14 4 15 3 16 2 17 1 18
REMARK H PARENT
REMARK Flexibility Score: inf
ROOT
ATOM      1  C   UNL     1      99.490 -69.095   5.064  1.00  0.00     0.004 C 
ENDROOT
BRANCH   1   2
ATOM      2  C   UNL     1     101.022 -69.198   5.104  1.00  0.00     0.000 C 
BRANCH   2   3
ATOM      3  C   UNL     1     101.611 -68.768   6.455  1.00  0.00     0.000 C 
BRANCH   3   4
ATOM      4  C   UNL     1     100.976 -67.455   6.937  1.00  0.00     0.000 C 
BRANCH   4   5
ATOM      5  C   UNL     1     100.964 -67.329   8.469  1.00  0.00     0.006 C 
BRANCH   5   6
ATOM      6  C   UNL     1     100.995 -68.691   9.173  1.00  0.00     0.053 C 
BRANCH   6   7
ATOM      7  C   UNL     1     100.551 -68.553  10.595  1.00  0.00     0.041 C 
ATOM      8  O   UNL     1      99.891 -67.543  10.958  1.00  0.00    -0.550 OA
ATOM      9  O   UNL     1     100.906 -69.516  11.531  1.00  0.00    -0.550 OA
ENDBRANCH   6   7
ENDBRANCH   5   6
ENDBRANCH   4   5
ENDBRANCH   3   4
ENDBRANCH   2   3
ENDBRANCH   1   2
BRANCH   1  10
ATOM     10  C   UNL     1      98.964 -68.602   3.708  1.00  0.00     0.027 C 
BRANCH  10  11
ATOM     11  C   UNL     1      97.702 -67.797   3.884  1.00  0.00    -0.031 C 
ATOM     12  C   UNL     1      97.591 -66.489   3.590  1.00  0.00    -0.031 C 
BRANCH  12  13
ATOM     13  C   UNL     1      98.740 -65.648   3.087  1.00  0.00     0.027 C 
BRANCH  13  14
ATOM     14  C   UNL     1      98.533 -65.250   1.618  1.00  0.00     0.004 C 
BRANCH  14  15
ATOM     15  C   UNL     1      99.529 -65.953   0.680  1.00  0.00     0.000 C 
BRANCH  15  16
ATOM     16  C   UNL     1      98.889 -67.082  -0.158  1.00  0.00    -0.000 C 
BRANCH  16  17
ATOM     17  C   UNL     1      99.530 -68.459   0.078  1.00  0.00    -0.003 C 
ATOM     18  C   UNL     1      98.519 -69.602   0.033  1.00  0.00     0.004 C 
ENDBRANCH  16  17
ENDBRANCH  15  16
ENDBRANCH  14  15
ENDBRANCH  13  14
ENDBRANCH  12  13
ENDBRANCH  10  11
ENDBRANCH   1  10
TORSDOF 13
ENDMDL
MODEL 7
REMARK VINA RESULT:    -3.823      4.232      9.103
REMARK INTER + INTRA:          -8.082
REMARK INTER:                  -7.215
REMARK INTRA:                  -0.867
REMARK UNBOUND:                -1.353
REMARK SMILES CCCCCCC=CCCCCCCCC(=O)[O-]
REMARK SMILES IDX 10 1 11 2 12 3 13 4 14 5 15 6 16 7 17 8 18 9 9 10 8 11 7 12
REMARK SMILES IDX 6 13 5 14 4 15 3 16 2 17 1 18
REMARK H PARENT
REMARK Flexibility Score: inf
ROOT
ATOM      1  C   UNL     1      99.796 -69.371   5.224  1.00  0.00     0.004 C 
ENDROOT
BRANCH   1   2
ATOM      2  C   UNL     1     101.091 -69.136   6.017  1.00  0.00     0.000 C 
BRANCH   2   3
ATOM      3  C   UNL     1     101.308 -67.657   6.372  1.00  0.00     0.000 C 
BRANCH   3   4
ATOM      4  C   UNL     1     101.153 -67.427   7.883  1.00  0.00     0.000 C 
BRANCH   4   5
ATOM      5  C   UNL     1     100.986 -68.737   8.669  1.00  0.00     0.006 C 
BRANCH   5   6
ATOM      6  C   UNL     1     101.905 -68.809   9.895  1.00  0.00     0.053 C 
BRANCH   6   7
ATOM      7  C   UNL     1     101.095 -68.942  11.147  1.00  0.00     0.041 C 
ATOM      8  O   UNL     1     100.109 -68.185  11.347  1.00  0.00    -0.550 OA
ATOM      9  O   UNL     1     101.457 -69.870  12.114  1.00  0.00    -0.550 OA
ENDBRANCH   6   7
ENDBRANCH   5   6
ENDBRANCH   4   5
ENDBRANCH   3   4
ENDBRANCH   2   3
ENDBRANCH   1   2
BRANCH   1  10
ATOM     10  C   UNL     1      99.228 -68.079   4.620  1.00  0.00     0.027 C 
BRANCH  10  11
ATOM     11  C   UNL     1      98.344 -68.385   3.437  1.00  0.00    -0.031 C 
ATOM     12  C   UNL     1      98.751 -68.340   2.156  1.00  0.00    -0.031 C 
BRANCH  12  13
ATOM     13  C   UNL     1     100.141 -67.924   1.737  1.00  0.00     0.027 C 
BRANCH  13  14
ATOM     14  C   UNL     1     100.290 -67.955   0.209  1.00  0.00     0.004 C 
BRANCH  14  15
ATOM     15  C   UNL     1      99.066 -68.581  -0.483  1.00  0.00     0.000 C 
BRANCH  15  16
ATOM     16  C   UNL     1      98.999 -68.281  -1.996  1.00  0.00    -0.000 C 
BRANCH  16  17
ATOM     17  C   UNL     1      97.578 -67.982  -2.499  1.00  0.00    -0.003 C 
ATOM     18  C   UNL     1      97.560 -67.087  -3.736  1.00  0.00     0.004 C 
ENDBRANCH  16  17
ENDBRANCH  15  16
ENDBRANCH  14  15
ENDBRANCH  13  14
ENDBRANCH  12  13
ENDBRANCH  10  11
ENDBRANCH   1  10
TORSDOF 13
ENDMDL
MODEL 8
REMARK VINA RESULT:    -3.819      1.549      3.852
REMARK INTER + INTRA:          -8.075
REMARK INTER:                  -5.934
REMARK INTRA:                  -2.142
REMARK UNBOUND:                -1.353
REMARK SMILES CCCCCCC=CCCCCCCCC(=O)[O-]
REMARK SMILES IDX 10 1 11 2 12 3 13 4 14 5 15 6 16 7 17 8 18 9 9 10 8 11 7 12
REMARK SMILES IDX 6 13 5 14 4 15 3 16 2 17 1 18
REMARK H PARENT
REMARK Flexibility Score: inf
ROOT
ATOM      1  C   UNL     1     101.216 -65.854   6.090  1.00  0.00     0.004 C 
ENDROOT
BRANCH   1   2
ATOM      2  C   UNL     1     102.124 -65.959   4.855  1.00  0.00     0.000 C 
BRANCH   2   3
ATOM      3  C   UNL     1     101.396 -65.604   3.551  1.00  0.00     0.000 C 
BRANCH   3   4
ATOM      4  C   UNL     1     101.487 -66.756   2.539  1.00  0.00     0.000 C 
BRANCH   4   5
ATOM      5  C   UNL     1     100.570 -66.552   1.323  1.00  0.00     0.006 C 
BRANCH   5   6
ATOM      6  C   UNL     1     100.788 -67.612   0.236  1.00  0.00     0.053 C 
BRANCH   6   7
ATOM      7  C   UNL     1      99.532 -68.394   0.010  1.00  0.00     0.041 C 
ATOM      8  O   UNL     1      99.182 -69.281   0.833  1.00  0.00    -0.550 OA
ATOM      9  O   UNL     1      98.774 -68.178  -1.133  1.00  0.00    -0.550 OA
ENDBRANCH   6   7
ENDBRANCH   5   6
ENDBRANCH   4   5
ENDBRANCH   3   4
ENDBRANCH   2   3
ENDBRANCH   1   2
BRANCH   1  10
ATOM     10  C   UNL     1     101.895 -66.364   7.370  1.00  0.00     0.027 C 
BRANCH  10  11
ATOM     11  C   UNL     1     101.032 -67.390   8.059  1.00  0.00    -0.031 C 
ATOM     12  C   UNL     1     101.145 -68.719   7.880  1.00  0.00    -0.031 C 
BRANCH  12  13
ATOM     13  C   UNL     1     102.125 -69.350   6.920  1.00  0.00     0.027 C 
BRANCH  13  14
ATOM     14  C   UNL     1     101.480 -69.585   5.546  1.00  0.00     0.004 C 
BRANCH  14  15
ATOM     15  C   UNL     1      99.944 -69.509   5.604  1.00  0.00     0.000 C 
BRANCH  15  16
ATOM     16  C   UNL     1      99.306 -69.022   4.284  1.00  0.00    -0.000 C 
BRANCH  16  17
ATOM     17  C   UNL     1      98.516 -67.712   4.431  1.00  0.00    -0.003 C 
ATOM     18  C   UNL     1      97.334 -67.619   3.470  1.00  0.00     0.004 C 
ENDBRANCH  16  17
ENDBRANCH  15  16
ENDBRANCH  14  15
ENDBRANCH  13  14
ENDBRANCH  12  13
ENDBRANCH  10  11
ENDBRANCH   1  10
TORSDOF 13
ENDMDL
MODEL 9
REMARK VINA RESULT:    -3.812      2.591      3.623
REMARK INTER + INTRA:          -8.062
REMARK INTER:                  -5.798
REMARK INTRA:                  -2.264
REMARK UNBOUND:                -1.353
REMARK SMILES CCCCCCC=CCCCCCCCC(=O)[O-]
REMARK SMILES IDX 10 1 11 2 12 3 13 4 14 5 15 6 16 7 17 8 18 9 9 10 8 11 7 12
REMARK SMILES IDX 6 13 5 14 4 15 3 16 2 17 1 18
REMARK H PARENT
REMARK Flexibility Score: inf
ROOT
ATOM      1  C   UNL     1      98.443 -68.354   2.553  1.00  0.00     0.004 C 
ENDROOT
BRANCH   1   2
ATOM      2  C   UNL     1      99.965 -68.180   2.442  1.00  0.00     0.000 C 
BRANCH   2   3
ATOM      3  C   UNL     1     100.364 -67.064   1.466  1.00  0.00     0.000 C 
BRANCH   3   4
ATOM      4  C   UNL     1      99.433 -67.045   0.244  1.00  0.00     0.000 C 
BRANCH   4   5
ATOM      5  C   UNL     1      99.770 -68.145  -0.776  1.00  0.00     0.006 C 
BRANCH   5   6
ATOM      6  C   UNL     1      98.517 -68.781  -1.392  1.00  0.00     0.053 C 
BRANCH   6   7
ATOM      7  C   UNL     1      98.067 -67.996  -2.584  1.00  0.00     0.041 C 
ATOM      8  O   UNL     1      96.948 -67.417  -2.575  1.00  0.00    -0.550 OA
ATOM      9  O   UNL     1      98.860 -67.944  -3.723  1.00  0.00    -0.550 OA
ENDBRANCH   6   7
ENDBRANCH   5   6
ENDBRANCH   4   5
ENDBRANCH   3   4
ENDBRANCH   2   3
ENDBRANCH   1   2
BRANCH   1  10
ATOM     10  C   UNL     1      97.857 -67.672   3.798  1.00  0.00     0.027 C 
BRANCH  10  11
ATOM     11  C   UNL     1      97.442 -66.256   3.487  1.00  0.00    -0.031 C 
ATOM     12  C   UNL     1      97.991 -65.165   4.050  1.00  0.00    -0.031 C 
BRANCH  12  13
ATOM     13  C   UNL     1      99.066 -65.225   5.109  1.00  0.00     0.027 C 
BRANCH  13  14
ATOM     14  C   UNL     1     100.465 -65.136   4.483  1.00  0.00     0.004 C 
BRANCH  14  15
ATOM     15  C   UNL     1     101.448 -66.142   5.108  1.00  0.00     0.000 C 
BRANCH  15  16
ATOM     16  C   UNL     1     100.764 -67.166   6.042  1.00  0.00    -0.000 C 
BRANCH  16  17
ATOM     17  C   UNL     1     101.281 -68.602   5.860  1.00  0.00    -0.003 C 
ATOM     18  C   UNL     1     100.165 -69.643   5.884  1.00  0.00     0.004 C 
ENDBRANCH  16  17
ENDBRANCH  15  16
ENDBRANCH  14  15
ENDBRANCH  13  14
ENDBRANCH  12  13
ENDBRANCH  10  11
ENDBRANCH   1  10
TORSDOF 13
ENDMDL
