MODEL 1
REMARK VINA RESULT:    -4.680      0.000      0.000
REMARK INTER + INTRA:          -5.922
REMARK INTER:                  -5.638
REMARK INTRA:                  -0.284
REMARK UNBOUND:                -0.284
REMARK SMILES NC(=O)C[C@@H]([NH3+])C(=O)[O-]
REMARK SMILES IDX 4 1 5 2 6 3 7 7 8 8 9 9 2 10 3 11 1 12
REMARK H PARENT 6 4 6 5 6 6 1 13 1 14
REMARK Flexibility Score: inf
ROOT
ATOM      1  C   UNL     1     -25.316 -16.225 -15.253  1.00  0.00     0.171 C 
ENDROOT
BRANCH   1   2
ATOM      2  C   UNL     1     -24.252 -15.269 -14.676  1.00  0.00     0.237 C 
BRANCH   2   3
ATOM      3  N   UNL     1     -23.669 -15.798 -13.436  1.00  0.00    -0.350 N 
ATOM      4  H   UNL     1     -24.244 -15.501 -12.615  1.00  0.00     0.345 HD
ATOM      5  H   UNL     1     -23.623 -16.843 -13.463  1.00  0.00     0.345 HD
ATOM      6  H   UNL     1     -22.705 -15.414 -13.306  1.00  0.00     0.345 HD
ENDBRANCH   2   3
BRANCH   2   7
ATOM      7  C   UNL     1     -23.173 -15.032 -15.699  1.00  0.00     0.100 C 
ATOM      8  O   UNL     1     -21.998 -14.755 -15.337  1.00  0.00    -0.544 OA
ATOM      9  O   UNL     1     -23.465 -15.135 -17.054  1.00  0.00    -0.544 OA
ENDBRANCH   2   7
ENDBRANCH   1   2
BRANCH   1  10
ATOM     10  C   UNL     1     -25.141 -17.625 -14.741  1.00  0.00     0.223 C 
ATOM     11  O   UNL     1     -24.022 -18.195 -14.849  1.00  0.00    -0.275 OA
ATOM     12  N   UNL     1     -26.241 -18.330 -14.165  1.00  0.00    -0.369 N 
ATOM     13  H   UNL     1     -26.117 -19.308 -13.821  1.00  0.00     0.159 HD
ATOM     14  H   UNL     1     -27.181 -17.883 -14.090  1.00  0.00     0.159 HD
ENDBRANCH   1  10
TORSDOF 4
ENDMDL
MODEL 2
REMARK VINA RESULT:    -4.668      2.139      3.811
REMARK INTER + INTRA:          -5.907
REMARK INTER:                  -5.435
REMARK INTRA:                  -0.472
REMARK UNBOUND:                -0.284
REMARK SMILES NC(=O)C[C@@H]([NH3+])C(=O)[O-]
REMARK SMILES IDX 4 1 5 2 6 3 7 7 8 8 9 9 2 10 3 11 1 12
REMARK H PARENT 6 4 6 5 6 6 1 13 1 14
REMARK Flexibility Score: inf
ROOT
ATOM      1  C   UNL     1     -23.302 -15.422 -13.993  1.00  0.00     0.171 C 
ENDROOT
BRANCH   1   2
ATOM      2  C   UNL     1     -24.245 -16.046 -15.042  1.00  0.00     0.237 C 
BRANCH   2   3
ATOM      3  N   UNL     1     -23.756 -15.821 -16.408  1.00  0.00    -0.350 N 
ATOM      4  H   UNL     1     -24.257 -16.448 -17.077  1.00  0.00     0.345 HD
ATOM      5  H   UNL     1     -23.902 -14.825 -16.696  1.00  0.00     0.345 HD
ATOM      6  H   UNL     1     -22.736 -16.047 -16.462  1.00  0.00     0.345 HD
ENDBRANCH   2   3
BRANCH   2   7
ATOM      7  C   UNL     1     -24.394 -17.521 -14.778  1.00  0.00     0.100 C 
ATOM      8  O   UNL     1     -23.400 -18.290 -14.866  1.00  0.00    -0.544 OA
ATOM      9  O   UNL     1     -25.632 -18.041 -14.418  1.00  0.00    -0.544 OA
ENDBRANCH   2   7
ENDBRANCH   1   2
BRANCH   1  10
ATOM     10  C   UNL     1     -21.929 -15.184 -14.552  1.00  0.00     0.223 C 
ATOM     11  O   UNL     1     -21.637 -14.056 -15.032  1.00  0.00    -0.275 OA
ATOM     12  N   UNL     1     -20.964 -16.236 -14.578  1.00  0.00    -0.369 N 
ATOM     13  H   UNL     1     -20.014 -16.070 -14.978  1.00  0.00     0.159 HD
ATOM     14  H   UNL     1     -21.197 -17.183 -14.206  1.00  0.00     0.159 HD
ENDBRANCH   1  10
TORSDOF 4
ENDMDL
MODEL 3
REMARK VINA RESULT:    -4.651      1.832      3.914
REMARK INTER + INTRA:          -5.886
REMARK INTER:                  -5.386
REMARK INTRA:                  -0.500
REMARK UNBOUND:                -0.284
REMARK SMILES NC(=O)C[C@@H]([NH3+])C(=O)[O-]
REMARK SMILES IDX 4 1 5 2 6 3 7 7 8 8 9 9 2 10 3 11 1 12
REMARK H PARENT 6 4 6 5 6 6 1 13 1 14
REMARK Flexibility Score: inf
ROOT
ATOM      1  C   UNL     1     -25.070 -16.611 -14.874  1.00  0.00     0.171 C 
ENDROOT
BRANCH   1   2
ATOM      2  C   UNL     1     -24.527 -18.023 -14.570  1.00  0.00     0.237 C 
BRANCH   2   3
ATOM      3  N   UNL     1     -23.162 -18.197 -15.082  1.00  0.00    -0.350 N 
ATOM      4  H   UNL     1     -22.480 -17.700 -14.465  1.00  0.00     0.345 HD
ATOM      5  H   UNL     1     -22.908 -19.212 -15.127  1.00  0.00     0.345 HD
ATOM      6  H   UNL     1     -23.086 -17.782 -16.040  1.00  0.00     0.345 HD
ENDBRANCH   2   3
BRANCH   2   7
ATOM      7  C   UNL     1     -24.562 -18.272 -13.086  1.00  0.00     0.100 C 
ATOM      8  O   UNL     1     -25.497 -18.945 -12.572  1.00  0.00    -0.544 OA
ATOM      9  O   UNL     1     -23.551 -17.775 -12.273  1.00  0.00    -0.544 OA
ENDBRANCH   2   7
ENDBRANCH   1   2
BRANCH   1  10
ATOM     10  C   UNL     1     -23.971 -15.588 -14.903  1.00  0.00     0.223 C 
ATOM     11  O   UNL     1     -23.428 -15.285 -15.999  1.00  0.00    -0.275 OA
ATOM     12  N   UNL     1     -23.512 -14.983 -13.694  1.00  0.00    -0.369 N 
ATOM     13  H   UNL     1     -22.739 -14.281 -13.717  1.00  0.00     0.159 HD
ATOM     14  H   UNL     1     -23.934 -15.240 -12.775  1.00  0.00     0.159 HD
ENDBRANCH   1  10
TORSDOF 4
ENDMDL
MODEL 4
REMARK VINA RESULT:    -4.409      1.534      1.746
REMARK INTER + INTRA:          -5.595
REMARK INTER:                  -5.255
REMARK INTRA:                  -0.340
REMARK UNBOUND:                -0.284
REMARK SMILES NC(=O)C[C@@H]([NH3+])C(=O)[O-]
REMARK SMILES IDX 4 1 5 2 6 3 7 7 8 8 9 9 2 10 3 11 1 12
REMARK H PARENT 6 4 6 5 6 6 1 13 1 14
REMARK Flexibility Score: inf
ROOT
ATOM      1  C   UNL     1     -23.586 -16.317 -13.689  1.00  0.00     0.171 C 
ENDROOT
BRANCH   1   2
ATOM      2  C   UNL     1     -22.953 -15.243 -14.598  1.00  0.00     0.237 C 
BRANCH   2   3
ATOM      3  N   UNL     1     -21.707 -15.721 -15.210  1.00  0.00    -0.350 N 
ATOM      4  H   UNL     1     -21.892 -16.579 -15.779  1.00  0.00     0.345 HD
ATOM      5  H   UNL     1     -21.288 -14.985 -15.825  1.00  0.00     0.345 HD
ATOM      6  H   UNL     1     -21.020 -15.976 -14.463  1.00  0.00     0.345 HD
ENDBRANCH   2   3
BRANCH   2   7
ATOM      7  C   UNL     1     -23.935 -14.837 -15.665  1.00  0.00     0.100 C 
ATOM      8  O   UNL     1     -25.040 -14.317 -15.353  1.00  0.00    -0.544 OA
ATOM      9  O   UNL     1     -23.619 -15.019 -17.006  1.00  0.00    -0.544 OA
ENDBRANCH   2   7
ENDBRANCH   1   2
BRANCH   1  10
ATOM     10  C   UNL     1     -24.117 -17.475 -14.484  1.00  0.00     0.223 C 
ATOM     11  O   UNL     1     -23.326 -18.360 -14.905  1.00  0.00    -0.275 OA
ATOM     12  N   UNL     1     -25.508 -17.562 -14.798  1.00  0.00    -0.369 N 
ATOM     13  H   UNL     1     -25.871 -18.362 -15.361  1.00  0.00     0.159 HD
ATOM     14  H   UNL     1     -26.174 -16.825 -14.478  1.00  0.00     0.159 HD
ENDBRANCH   1  10
TORSDOF 4
ENDMDL
MODEL 5
REMARK VINA RESULT:    -4.395      1.777      2.929
REMARK INTER + INTRA:          -5.579
REMARK INTER:                  -5.420
REMARK INTRA:                  -0.158
REMARK UNBOUND:                -0.284
REMARK SMILES NC(=O)C[C@@H]([NH3+])C(=O)[O-]
REMARK SMILES IDX 4 1 5 2 6 3 7 7 8 8 9 9 2 10 3 11 1 12
REMARK H PARENT 6 4 6 5 6 6 1 13 1 14
REMARK Flexibility Score: inf
ROOT
ATOM      1  C   UNL     1     -23.927 -16.042 -13.947  1.00  0.00     0.171 C 
ENDROOT
BRANCH   1   2
ATOM      2  C   UNL     1     -24.466 -16.368 -15.355  1.00  0.00     0.237 C 
BRANCH   2   3
ATOM      3  N   UNL     1     -25.883 -16.750 -15.315  1.00  0.00    -0.350 N 
ATOM      4  H   UNL     1     -26.113 -17.181 -14.390  1.00  0.00     0.345 HD
ATOM      5  H   UNL     1     -26.498 -15.916 -15.467  1.00  0.00     0.345 HD
ATOM      6  H   UNL     1     -26.080 -17.461 -16.056  1.00  0.00     0.345 HD
ENDBRANCH   2   3
BRANCH   2   7
ATOM      7  C   UNL     1     -24.271 -15.181 -16.262  1.00  0.00     0.100 C 
ATOM      8  O   UNL     1     -23.849 -15.338 -17.439  1.00  0.00    -0.544 OA
ATOM      9  O   UNL     1     -24.574 -13.903 -15.808  1.00  0.00    -0.544 OA
ENDBRANCH   2   7
ENDBRANCH   1   2
BRANCH   1  10
ATOM     10  C   UNL     1     -22.434 -16.184 -13.877  1.00  0.00     0.223 C 
ATOM     11  O   UNL     1     -21.901 -17.302 -14.107  1.00  0.00    -0.275 OA
ATOM     12  N   UNL     1     -21.616 -15.070 -13.518  1.00  0.00    -0.369 N 
ATOM     13  H   UNL     1     -20.579 -15.176 -13.460  1.00  0.00     0.159 HD
ATOM     14  H   UNL     1     -22.042 -14.142 -13.302  1.00  0.00     0.159 HD
ENDBRANCH   1  10
TORSDOF 4
ENDMDL
MODEL 6
REMARK VINA RESULT:    -4.348      1.851      2.580
REMARK INTER + INTRA:          -5.521
REMARK INTER:                  -5.108
REMARK INTRA:                  -0.413
REMARK UNBOUND:                -0.284
REMARK SMILES NC(=O)C[C@@H]([NH3+])C(=O)[O-]
REMARK SMILES IDX 4 1 5 2 6 3 7 7 8 8 9 9 2 10 3 11 1 12
REMARK H PARENT 6 4 6 5 6 6 1 13 1 14
REMARK Flexibility Score: inf
ROOT
ATOM      1  C   UNL     1     -23.763 -17.881 -14.616  1.00  0.00     0.171 C 
ENDROOT
BRANCH   1   2
ATOM      2  C   UNL     1     -24.529 -16.740 -15.315  1.00  0.00     0.237 C 
BRANCH   2   3
ATOM      3  N   UNL     1     -25.982 -16.941 -15.239  1.00  0.00    -0.350 N 
ATOM      4  H   UNL     1     -26.481 -16.121 -15.654  1.00  0.00     0.345 HD
ATOM      5  H   UNL     1     -26.265 -17.809 -15.752  1.00  0.00     0.345 HD
ATOM      6  H   UNL     1     -26.277 -17.022 -14.239  1.00  0.00     0.345 HD
ENDBRANCH   2   3
BRANCH   2   7
ATOM      7  C   UNL     1     -24.153 -15.420 -14.697  1.00  0.00     0.100 C 
ATOM      8  O   UNL     1     -24.994 -14.485 -14.624  1.00  0.00    -0.544 OA
ATOM      9  O   UNL     1     -22.875 -15.232 -14.185  1.00  0.00    -0.544 OA
ENDBRANCH   2   7
ENDBRANCH   1   2
BRANCH   1  10
ATOM     10  C   UNL     1     -24.219 -18.069 -13.198  1.00  0.00     0.223 C 
ATOM     11  O   UNL     1     -25.316 -18.643 -12.966  1.00  0.00    -0.275 OA
ATOM     12  N   UNL     1     -23.437 -17.571 -12.112  1.00  0.00    -0.369 N 
ATOM     13  H   UNL     1     -23.764 -17.693 -11.128  1.00  0.00     0.159 HD
ATOM     14  H   UNL     1     -22.537 -17.072 -12.288  1.00  0.00     0.159 HD
ENDBRANCH   1  10
TORSDOF 4
ENDMDL
MODEL 7
REMARK VINA RESULT:    -4.251      1.917      3.008
REMARK INTER + INTRA:          -5.405
REMARK INTER:                  -4.941
REMARK INTRA:                  -0.464
REMARK UNBOUND:                -0.284
REMARK SMILES NC(=O)C[C@@H]([NH3+])C(=O)[O-]
REMARK SMILES IDX 4 1 5 2 6 3 7 7 8 8 9 9 2 10 3 11 1 12
REMARK H PARENT 6 4 6 5 6 6 1 13 1 14
REMARK Flexibility Score: inf
ROOT
ATOM      1  C   UNL     1     -23.700 -16.206 -15.627  1.00  0.00     0.171 C 
ENDROOT
BRANCH   1   2
ATOM      2  C   UNL     1     -22.876 -16.418 -14.341  1.00  0.00     0.237 C 
BRANCH   2   3
ATOM      3  N   UNL     1     -23.282 -15.485 -13.281  1.00  0.00    -0.350 N 
ATOM      4  H   UNL     1     -24.130 -14.951 -13.579  1.00  0.00     0.345 HD
ATOM      5  H   UNL     1     -23.494 -15.999 -12.395  1.00  0.00     0.345 HD
ATOM      6  H   UNL     1     -22.516 -14.795 -13.104  1.00  0.00     0.345 HD
ENDBRANCH   2   3
BRANCH   2   7
ATOM      7  C   UNL     1     -23.026 -17.840 -13.869  1.00  0.00     0.100 C 
ATOM      8  O   UNL     1     -22.098 -18.674 -14.047  1.00  0.00    -0.544 OA
ATOM      9  O   UNL     1     -24.186 -18.237 -13.216  1.00  0.00    -0.544 OA
ENDBRANCH   2   7
ENDBRANCH   1   2
BRANCH   1  10
ATOM     10  C   UNL     1     -25.118 -15.817 -15.321  1.00  0.00     0.223 C 
ATOM     11  O   UNL     1     -25.394 -14.614 -15.065  1.00  0.00    -0.275 OA
ATOM     12  N   UNL     1     -26.149 -16.804 -15.281  1.00  0.00    -0.369 N 
ATOM     13  H   UNL     1     -27.131 -16.530 -15.056  1.00  0.00     0.159 HD
ATOM     14  H   UNL     1     -25.933 -17.808 -15.467  1.00  0.00     0.159 HD
ENDBRANCH   1  10
TORSDOF 4
ENDMDL
MODEL 8
REMARK VINA RESULT:    -3.895      2.304      2.972
REMARK INTER + INTRA:          -4.976
REMARK INTER:                  -4.494
REMARK INTRA:                  -0.482
REMARK UNBOUND:                -0.284
REMARK SMILES NC(=O)C[C@@H]([NH3+])C(=O)[O-]
REMARK SMILES IDX 4 1 5 2 6 3 7 7 8 8 9 9 2 10 3 11 1 12
REMARK H PARENT 6 4 6 5 6 6 1 13 1 14
REMARK Flexibility Score: inf
ROOT
ATOM      1  C   UNL     1     -23.952 -14.979 -13.823  1.00  0.00     0.171 C 
ENDROOT
BRANCH   1   2
ATOM      2  C   UNL     1     -22.525 -15.561 -13.871  1.00  0.00     0.237 C 
BRANCH   2   3
ATOM      3  N   UNL     1     -22.423 -16.661 -14.839  1.00  0.00    -0.350 N 
ATOM      4  H   UNL     1     -22.292 -16.280 -15.803  1.00  0.00     0.345 HD
ATOM      5  H   UNL     1     -21.619 -17.289 -14.606  1.00  0.00     0.345 HD
ATOM      6  H   UNL     1     -23.307 -17.220 -14.835  1.00  0.00     0.345 HD
ENDBRANCH   2   3
BRANCH   2   7
ATOM      7  C   UNL     1     -21.543 -14.473 -14.213  1.00  0.00     0.100 C 
ATOM      8  O   UNL     1     -21.611 -13.875 -15.320  1.00  0.00    -0.544 OA
ATOM      9  O   UNL     1     -20.562 -14.109 -13.299  1.00  0.00    -0.544 OA
ENDBRANCH   2   7
ENDBRANCH   1   2
BRANCH   1  10
ATOM     10  C   UNL     1     -24.673 -15.169 -15.127  1.00  0.00     0.223 C 
ATOM     11  O   UNL     1     -25.374 -16.200 -15.310  1.00  0.00    -0.275 OA
ATOM     12  N   UNL     1     -24.541 -14.207 -16.175  1.00  0.00    -0.369 N 
ATOM     13  H   UNL     1     -25.034 -14.349 -17.084  1.00  0.00     0.159 HD
ATOM     14  H   UNL     1     -23.945 -13.359 -16.049  1.00  0.00     0.159 HD
ENDBRANCH   1  10
TORSDOF 4
ENDMDL
