MODEL 1
REMARK VINA RESULT:    -4.055      0.000      0.000
REMARK INTER + INTRA:          -5.262
REMARK INTER:                  -5.714
REMARK INTRA:                   0.452
REMARK UNBOUND:                 0.452
REMARK SMILES CC1=CCC(=C(C)C)C(=O)CC(C)=CCC1
REMARK SMILES IDX 12 1 14 2 13 3 15 4 16 5 2 6 1 7 3 8 11 10 9 11 10 12 5 13
REMARK SMILES IDX 6 14 7 15 8 16 4 17
REMARK H PARENT
REMARK Flexibility Score: 60.00
ROOT
ATOM      1  C   UNL     1      22.825 207.837  13.782  1.00  0.00    -0.070 C 
ATOM      2  C   UNL     1      22.132 208.808  13.140  1.00  0.00    -0.027 C 
ATOM      3  C   UNL     1      23.926 208.272  14.718  1.00  0.00     0.039 C 
ENDROOT
BRANCH   2   4
ATOM      4  C   UNL     1      20.931 208.609  12.248  1.00  0.00     0.032 C 
BRANCH   4   5
ATOM      5  C   UNL     1      19.680 208.165  13.030  1.00  0.00     0.034 C 
BRANCH   5   6
ATOM      6  C   UNL     1      19.028 206.939  12.418  1.00  0.00    -0.077 C 
ATOM      7  C   UNL     1      18.569 207.013  10.984  1.00  0.00     0.039 C 
ATOM      8  C   UNL     1      18.810 205.790  13.095  1.00  0.00    -0.023 CG0
ATOM      9  G   UNL     1      19.163 205.536  14.540  1.00  0.00     0.000 G0
ENDBRANCH   5   6
ENDBRANCH   4   5
ENDBRANCH   2   4
BRANCH   1  10
ATOM     10  C   UNL     1      22.511 206.356  13.661  1.00  0.00     0.111 C 
BRANCH  10  11
ATOM     11  C   UNL     1      21.688 205.866  14.828  1.00  0.00     0.163 C 
ATOM     12  O   UNL     1      22.018 206.240  15.986  1.00  0.00    -0.294 OA
BRANCH  11  13
ATOM     13  C   UNL     1      20.542 204.922  14.647  1.00  0.00    -0.002 C 
ATOM     14  C   UNL     1      20.721 203.566  14.644  1.00  0.00    -0.069 C 
ATOM     15  C   UNL     1      19.562 202.618  14.422  1.00  0.00     0.039 C 
ATOM     16  C   UNL     1      22.077 202.945  14.897  1.00  0.00     0.039 C 
BRANCH  13  17
ATOM     17  C   UNL     1      19.155 205.531  14.541  1.00  0.00     0.066 CG0
ATOM     18  G   UNL     1      18.820 205.793  13.093  1.00  0.00     0.000 G0
ENDBRANCH  13  17
ENDBRANCH  11  13
ENDBRANCH  10  11
ENDBRANCH   1  10
TORSDOF 0
ENDMDL
MODEL 2
REMARK VINA RESULT:    -3.971      1.743      4.133
REMARK INTER + INTRA:          -5.144
REMARK INTER:                  -5.903
REMARK INTRA:                   0.759
REMARK UNBOUND:                 0.452
REMARK SMILES CC1=CCC(=C(C)C)C(=O)CC(C)=CCC1
REMARK SMILES IDX 12 1 14 2 13 3 15 4 16 5 2 6 1 7 3 8 11 10 9 11 10 12 5 13
REMARK SMILES IDX 6 14 7 15 8 16 4 17
REMARK H PARENT
REMARK Flexibility Score: 60.00
ROOT
ATOM      1  C   UNL     1      20.707 207.561  16.273  1.00  0.00    -0.070 C 
ATOM      2  C   UNL     1      20.148 206.553  16.984  1.00  0.00    -0.027 C 
ATOM      3  C   UNL     1      22.048 208.077  16.735  1.00  0.00     0.039 C 
ENDROOT
BRANCH   2   4
ATOM      4  C   UNL     1      18.873 205.819  16.644  1.00  0.00     0.032 C 
BRANCH   4   5
ATOM      5  C   UNL     1      19.108 204.321  16.375  1.00  0.00     0.034 C 
BRANCH   5   6
ATOM      6  C   UNL     1      20.172 204.088  15.320  1.00  0.00    -0.077 C 
ATOM      7  C   UNL     1      21.431 203.362  15.721  1.00  0.00     0.039 C 
ATOM      8  C   UNL     1      20.069 204.520  14.043  1.00  0.00    -0.023 CG0
ATOM      9  G   UNL     1      18.909 205.292  13.463  1.00  0.00     0.000 G0
ENDBRANCH   5   6
ENDBRANCH   4   5
ENDBRANCH   2   4
BRANCH   1  10
ATOM     10  C   UNL     1      20.093 208.147  15.013  1.00  0.00     0.111 C 
BRANCH  10  11
ATOM     11  C   UNL     1      20.449 207.333  13.793  1.00  0.00     0.163 C 
ATOM     12  O   UNL     1      21.661 207.273  13.452  1.00  0.00    -0.294 OA
BRANCH  11  13
ATOM     13  C   UNL     1      19.406 206.651  12.965  1.00  0.00    -0.002 C 
ATOM     14  C   UNL     1      18.955 207.188  11.792  1.00  0.00    -0.069 C 
ATOM     15  C   UNL     1      17.872 206.512  10.979  1.00  0.00     0.039 C 
ATOM     16  C   UNL     1      19.538 208.465  11.229  1.00  0.00     0.039 C 
BRANCH  13  17
ATOM     17  C   UNL     1      18.921 205.294  13.445  1.00  0.00     0.066 CG0
ATOM     18  G   UNL     1      20.073 204.519  14.037  1.00  0.00     0.000 G0
ENDBRANCH  13  17
ENDBRANCH  11  13
ENDBRANCH  10  11
ENDBRANCH   1  10
TORSDOF 0
ENDMDL
MODEL 3
REMARK VINA RESULT:    -3.932      2.075      2.782
REMARK INTER + INTRA:          -5.089
REMARK INTER:                  -5.744
REMARK INTRA:                   0.655
REMARK UNBOUND:                 0.452
REMARK SMILES CC1=CCC(=C(C)C)C(=O)CC(C)=CCC1
REMARK SMILES IDX 12 1 14 2 13 3 15 4 16 5 2 6 1 7 3 8 11 10 9 11 10 12 5 13
REMARK SMILES IDX 6 14 7 15 8 16 4 17
REMARK H PARENT
REMARK Flexibility Score: 60.00
ROOT
ATOM      1  C   UNL     1      20.496 208.272  16.888  1.00  0.00    -0.070 C 
ATOM      2  C   UNL     1      20.432 209.123  15.836  1.00  0.00    -0.027 C 
ATOM      3  C   UNL     1      21.266 208.726  18.104  1.00  0.00     0.039 C 
ENDROOT
BRANCH   2   4
ATOM      4  C   UNL     1      19.635 208.922  14.570  1.00  0.00     0.032 C 
BRANCH   4   5
ATOM      5  C   UNL     1      20.502 209.027  13.301  1.00  0.00     0.034 C 
BRANCH   5   6
ATOM      6  C   UNL     1      21.566 207.946  13.244  1.00  0.00    -0.077 C 
ATOM      7  C   UNL     1      22.986 208.356  12.949  1.00  0.00     0.039 C 
ATOM      8  C   UNL     1      21.308 206.631  13.418  1.00  0.00    -0.023 CG0
ATOM      9  G   UNL     1      19.952 206.025  13.685  1.00  0.00     0.000 G0
ENDBRANCH   5   6
ENDBRANCH   4   5
ENDBRANCH   2   4
BRANCH   1  10
ATOM     10  C   UNL     1      19.785 206.929  16.931  1.00  0.00     0.111 C 
BRANCH  10  11
ATOM     11  C   UNL     1      20.548 205.874  16.169  1.00  0.00     0.163 C 
ATOM     12  O   UNL     1      21.717 205.595  16.549  1.00  0.00    -0.294 OA
BRANCH  11  13
ATOM     13  C   UNL     1      19.975 205.201  14.961  1.00  0.00    -0.002 C 
ATOM     14  C   UNL     1      19.433 203.948  15.025  1.00  0.00    -0.069 C 
ATOM     15  C   UNL     1      18.891 203.258  13.792  1.00  0.00     0.039 C 
ATOM     16  C   UNL     1      19.317 203.201  16.336  1.00  0.00     0.039 C 
BRANCH  13  17
ATOM     17  C   UNL     1      19.951 206.002  13.671  1.00  0.00     0.066 CG0
ATOM     18  G   UNL     1      21.309 206.614  13.424  1.00  0.00     0.000 G0
ENDBRANCH  13  17
ENDBRANCH  11  13
ENDBRANCH  10  11
ENDBRANCH   1  10
TORSDOF 0
ENDMDL
MODEL 4
REMARK VINA RESULT:    -3.775      2.128      3.547
REMARK INTER + INTRA:          -4.868
REMARK INTER:                  -5.691
REMARK INTRA:                   0.823
REMARK UNBOUND:                 0.452
REMARK SMILES CC1=CCC(=C(C)C)C(=O)CC(C)=CCC1
REMARK SMILES IDX 12 1 14 2 13 3 15 4 16 5 2 6 1 7 3 8 11 10 9 11 10 12 5 13
REMARK SMILES IDX 6 14 7 15 8 16 4 17
REMARK H PARENT
REMARK Flexibility Score: 60.00
ROOT
ATOM      1  C   UNL     1      19.514 207.414  12.625  1.00  0.00    -0.070 C 
ATOM      2  C   UNL     1      19.674 208.645  13.165  1.00  0.00    -0.027 C 
ATOM      3  C   UNL     1      18.644 207.301  11.397  1.00  0.00     0.039 C 
ENDROOT
BRANCH   2   4
ATOM      4  C   UNL     1      20.578 209.004  14.321  1.00  0.00     0.032 C 
BRANCH   4   5
ATOM      5  C   UNL     1      20.006 208.558  15.679  1.00  0.00     0.034 C 
BRANCH   5   6
ATOM      6  C   UNL     1      20.857 207.485  16.333  1.00  0.00    -0.077 C 
ATOM      7  C   UNL     1      22.256 207.845  16.763  1.00  0.00     0.039 C 
ATOM      8  C   UNL     1      20.440 206.214  16.529  1.00  0.00    -0.023 CG0
ATOM      9  G   UNL     1      19.095 205.656  16.135  1.00  0.00     0.000 G0
ENDBRANCH   5   6
ENDBRANCH   4   5
ENDBRANCH   2   4
BRANCH   1  10
ATOM     10  C   UNL     1      20.209 206.167  13.145  1.00  0.00     0.111 C 
BRANCH  10  11
ATOM     11  C   UNL     1      19.216 205.140  13.632  1.00  0.00     0.163 C 
ATOM     12  O   UNL     1      18.322 204.752  12.831  1.00  0.00    -0.294 OA
BRANCH  11  13
ATOM     13  C   UNL     1      19.237 204.621  15.035  1.00  0.00    -0.002 C 
ATOM     14  C   UNL     1      19.447 203.299  15.310  1.00  0.00    -0.069 C 
ATOM     15  C   UNL     1      19.429 202.775  16.730  1.00  0.00     0.039 C 
ATOM     16  C   UNL     1      19.743 202.299  14.214  1.00  0.00     0.039 C 
BRANCH  13  17
ATOM     17  C   UNL     1      19.089 205.641  16.150  1.00  0.00     0.066 CG0
ATOM     18  G   UNL     1      20.440 206.210  16.507  1.00  0.00     0.000 G0
ENDBRANCH  13  17
ENDBRANCH  11  13
ENDBRANCH  10  11
ENDBRANCH   1  10
TORSDOF 0
ENDMDL
MODEL 5
REMARK VINA RESULT:    -3.519      1.725      3.520
REMARK INTER + INTRA:          -4.508
REMARK INTER:                  -5.289
REMARK INTRA:                   0.781
REMARK UNBOUND:                 0.452
REMARK SMILES CC1=CCC(=C(C)C)C(=O)CC(C)=CCC1
REMARK SMILES IDX 12 1 14 2 13 3 15 4 16 5 2 6 1 7 3 8 11 10 9 11 10 12 5 13
REMARK SMILES IDX 6 14 7 15 8 16 4 17
REMARK H PARENT
REMARK Flexibility Score: 60.00
ROOT
ATOM      1  C   UNL     1      20.071 207.727  13.012  1.00  0.00    -0.070 C 
ATOM      2  C   UNL     1      21.342 208.193  13.039  1.00  0.00    -0.027 C 
ATOM      3  C   UNL     1      18.966 208.731  12.788  1.00  0.00     0.039 C 
ENDROOT
BRANCH   2   4
ATOM      4  C   UNL     1      22.598 207.361  13.143  1.00  0.00     0.032 C 
BRANCH   4   5
ATOM      5  C   UNL     1      23.399 207.657  14.425  1.00  0.00     0.034 C 
BRANCH   5   6
ATOM      6  C   UNL     1      22.516 207.679  15.659  1.00  0.00    -0.077 C 
ATOM      7  C   UNL     1      22.342 208.986  16.390  1.00  0.00     0.039 C 
ATOM      8  C   UNL     1      21.896 206.586  16.157  1.00  0.00    -0.023 CG0
ATOM      9  G   UNL     1      21.977 205.190  15.590  1.00  0.00     0.000 G0
ENDBRANCH   5   6
ENDBRANCH   4   5
ENDBRANCH   2   4
BRANCH   1  10
ATOM     10  C   UNL     1      19.709 206.256  13.128  1.00  0.00     0.111 C 
BRANCH  10  11
ATOM     11  C   UNL     1      19.699 205.799  14.566  1.00  0.00     0.163 C 
ATOM     12  O   UNL     1      18.914 206.375  15.367  1.00  0.00    -0.294 OA
BRANCH  11  13
ATOM     13  C   UNL     1      20.622 204.732  15.064  1.00  0.00    -0.002 C 
ATOM     14  C   UNL     1      20.299 203.406  14.981  1.00  0.00    -0.069 C 
ATOM     15  C   UNL     1      21.221 202.334  15.521  1.00  0.00     0.039 C 
ATOM     16  C   UNL     1      19.023 202.941  14.315  1.00  0.00     0.039 C 
BRANCH  13  17
ATOM     17  C   UNL     1      21.971 205.180  15.599  1.00  0.00     0.066 CG0
ATOM     18  G   UNL     1      21.861 206.578  16.157  1.00  0.00     0.000 G0
ENDBRANCH  13  17
ENDBRANCH  11  13
ENDBRANCH  10  11
ENDBRANCH   1  10
TORSDOF 0
ENDMDL
MODEL 6
REMARK VINA RESULT:    -3.492      1.331      4.047
REMARK INTER + INTRA:          -4.470
REMARK INTER:                  -5.719
REMARK INTRA:                   1.249
REMARK UNBOUND:                 0.452
REMARK SMILES CC1=CCC(=C(C)C)C(=O)CC(C)=CCC1
REMARK SMILES IDX 12 1 14 2 13 3 15 4 16 5 2 6 1 7 3 8 11 10 9 11 10 12 5 13
REMARK SMILES IDX 6 14 7 15 8 16 4 17
REMARK H PARENT
REMARK Flexibility Score: 60.00
ROOT
ATOM      1  C   UNL     1      22.383 205.786  14.458  1.00  0.00    -0.070 C 
ATOM      2  C   UNL     1      22.478 204.450  14.254  1.00  0.00    -0.027 C 
ATOM      3  C   UNL     1      22.930 206.694  13.384  1.00  0.00     0.039 C 
ENDROOT
BRANCH   2   4
ATOM      4  C   UNL     1      21.908 203.367  15.138  1.00  0.00     0.032 C 
BRANCH   4   5
ATOM      5  C   UNL     1      20.505 202.917  14.692  1.00  0.00     0.034 C 
BRANCH   5   6
ATOM      6  C   UNL     1      19.405 203.648  15.438  1.00  0.00    -0.077 C 
ATOM      7  C   UNL     1      18.927 203.075  16.748  1.00  0.00     0.039 C 
ATOM      8  C   UNL     1      18.808 204.772  14.982  1.00  0.00    -0.023 CG0
ATOM      9  G   UNL     1      19.121 205.471  13.682  1.00  0.00     0.000 G0
ENDBRANCH   5   6
ENDBRANCH   4   5
ENDBRANCH   2   4
BRANCH   1  10
ATOM     10  C   UNL     1      21.704 206.409  15.666  1.00  0.00     0.111 C 
BRANCH  10  11
ATOM     11  C   UNL     1      20.382 207.034  15.297  1.00  0.00     0.163 C 
ATOM     12  O   UNL     1      19.780 207.712  16.173  1.00  0.00    -0.294 OA
BRANCH  11  13
ATOM     13  C   UNL     1      19.756 206.827  13.953  1.00  0.00    -0.002 C 
ATOM     14  C   UNL     1      19.806 207.788  12.982  1.00  0.00    -0.069 C 
ATOM     15  C   UNL     1      19.138 207.587  11.638  1.00  0.00     0.039 C 
ATOM     16  C   UNL     1      20.559 209.084  13.186  1.00  0.00     0.039 C 
BRANCH  13  17
ATOM     17  C   UNL     1      19.126 205.472  13.686  1.00  0.00     0.066 CG0
ATOM     18  G   UNL     1      18.818 204.784  14.994  1.00  0.00     0.000 G0
ENDBRANCH  13  17
ENDBRANCH  11  13
ENDBRANCH  10  11
ENDBRANCH   1  10
TORSDOF 0
ENDMDL
MODEL 7
REMARK VINA RESULT:    -3.464      1.801      4.824
REMARK INTER + INTRA:          -4.429
REMARK INTER:                  -5.366
REMARK INTRA:                   0.937
REMARK UNBOUND:                 0.452
REMARK SMILES CC1=CCC(=C(C)C)C(=O)CC(C)=CCC1
REMARK SMILES IDX 12 1 14 2 13 3 15 4 16 5 2 6 1 7 3 8 11 10 9 11 10 12 5 13
REMARK SMILES IDX 6 14 7 15 8 16 4 17
REMARK H PARENT
REMARK Flexibility Score: 60.00
ROOT
ATOM      1  C   UNL     1      19.032 205.454  13.829  1.00  0.00    -0.070 C 
ATOM      2  C   UNL     1      18.950 204.197  13.332  1.00  0.00    -0.027 C 
ATOM      3  C   UNL     1      19.027 206.594  12.840  1.00  0.00     0.039 C 
ENDROOT
BRANCH   2   4
ATOM      4  C   UNL     1      18.834 202.924  14.135  1.00  0.00     0.032 C 
BRANCH   4   5
ATOM      5  C   UNL     1      20.203 202.284  14.432  1.00  0.00     0.034 C 
BRANCH   5   6
ATOM      6  C   UNL     1      20.760 202.719  15.775  1.00  0.00    -0.077 C 
ATOM      7  C   UNL     1      20.281 202.004  17.012  1.00  0.00     0.039 C 
ATOM      8  C   UNL     1      21.642 203.732  15.928  1.00  0.00    -0.023 CG0
ATOM      9  G   UNL     1      22.207 204.586  14.819  1.00  0.00     0.000 G0
ENDBRANCH   5   6
ENDBRANCH   4   5
ENDBRANCH   2   4
BRANCH   1  10
ATOM     10  C   UNL     1      19.061 205.775  15.314  1.00  0.00     0.111 C 
BRANCH  10  11
ATOM     11  C   UNL     1      20.439 206.197  15.762  1.00  0.00     0.163 C 
ATOM     12  O   UNL     1      20.550 206.775  16.877  1.00  0.00    -0.294 OA
BRANCH  11  13
ATOM     13  C   UNL     1      21.648 205.994  14.903  1.00  0.00    -0.002 C 
ATOM     14  C   UNL     1      22.263 207.037  14.270  1.00  0.00    -0.069 C 
ATOM     15  C   UNL     1      23.462 206.819  13.372  1.00  0.00     0.039 C 
ATOM     16  C   UNL     1      21.801 208.465  14.463  1.00  0.00     0.039 C 
BRANCH  13  17
ATOM     17  C   UNL     1      22.209 204.585  14.823  1.00  0.00     0.066 CG0
ATOM     18  G   UNL     1      21.630 203.740  15.931  1.00  0.00     0.000 G0
ENDBRANCH  13  17
ENDBRANCH  11  13
ENDBRANCH  10  11
ENDBRANCH   1  10
TORSDOF 0
ENDMDL
MODEL 8
REMARK VINA RESULT:    -3.441      2.101      4.337
REMARK INTER + INTRA:          -4.397
REMARK INTER:                  -5.317
REMARK INTRA:                   0.920
REMARK UNBOUND:                 0.452
REMARK SMILES CC1=CCC(=C(C)C)C(=O)CC(C)=CCC1
REMARK SMILES IDX 12 1 14 2 13 3 15 4 16 5 2 6 1 7 3 8 11 10 9 11 10 12 5 13
REMARK SMILES IDX 6 14 7 15 8 16 4 17
REMARK H PARENT
REMARK Flexibility Score: 60.00
ROOT
ATOM      1  C   UNL     1      19.843 207.898  16.447  1.00  0.00    -0.070 C 
ATOM      2  C   UNL     1      19.473 206.730  17.024  1.00  0.00    -0.027 C 
ATOM      3  C   UNL     1      20.675 208.848  17.273  1.00  0.00     0.039 C 
ENDROOT
BRANCH   2   4
ATOM      4  C   UNL     1      18.736 205.596  16.353  1.00  0.00     0.032 C 
BRANCH   4   5
ATOM      5  C   UNL     1      19.526 204.274  16.388  1.00  0.00     0.034 C 
BRANCH   5   6
ATOM      6  C   UNL     1      20.012 203.861  15.011  1.00  0.00    -0.077 C 
ATOM      7  C   UNL     1      19.328 202.704  14.329  1.00  0.00     0.039 C 
ATOM      8  C   UNL     1      21.043 204.456  14.371  1.00  0.00    -0.023 CG0
ATOM      9  G   UNL     1      21.871 205.599  14.904  1.00  0.00     0.000 G0
ENDBRANCH   5   6
ENDBRANCH   4   5
ENDBRANCH   2   4
BRANCH   1  10
ATOM     10  C   UNL     1      19.524 208.267  15.008  1.00  0.00     0.111 C 
BRANCH  10  11
ATOM     11  C   UNL     1      20.126 207.282  14.037  1.00  0.00     0.163 C 
ATOM     12  O   UNL     1      19.372 206.768  13.167  1.00  0.00    -0.294 OA
BRANCH  11  13
ATOM     13  C   UNL     1      21.563 206.869  14.116  1.00  0.00    -0.002 C 
ATOM     14  C   UNL     1      22.560 207.627  13.569  1.00  0.00    -0.069 C 
ATOM     15  C   UNL     1      24.006 207.185  13.620  1.00  0.00     0.039 C 
ATOM     16  C   UNL     1      22.274 208.962  12.918  1.00  0.00     0.039 C 
BRANCH  13  17
ATOM     17  C   UNL     1      21.875 205.606  14.898  1.00  0.00     0.066 CG0
ATOM     18  G   UNL     1      21.035 204.463  14.383  1.00  0.00     0.000 G0
ENDBRANCH  13  17
ENDBRANCH  11  13
ENDBRANCH  10  11
ENDBRANCH   1  10
TORSDOF 0
ENDMDL
MODEL 9
REMARK VINA RESULT:    -3.372      2.129      3.613
REMARK INTER + INTRA:          -4.300
REMARK INTER:                  -5.279
REMARK INTRA:                   0.979
REMARK UNBOUND:                 0.452
REMARK SMILES CC1=CCC(=C(C)C)C(=O)CC(C)=CCC1
REMARK SMILES IDX 12 1 14 2 13 3 15 4 16 5 2 6 1 7 3 8 11 10 9 11 10 12 5 13
REMARK SMILES IDX 6 14 7 15 8 16 4 17
REMARK H PARENT
REMARK Flexibility Score: 60.00
ROOT
ATOM      1  C   UNL     1      20.271 207.525  16.135  1.00  0.00    -0.070 C 
ATOM      2  C   UNL     1      21.410 208.086  16.608  1.00  0.00    -0.027 C 
ATOM      3  C   UNL     1      19.440 206.718  17.101  1.00  0.00     0.039 C 
ENDROOT
BRANCH   2   4
ATOM      4  C   UNL     1      22.331 209.013  15.853  1.00  0.00     0.032 C 
BRANCH   4   5
ATOM      5  C   UNL     1      23.470 208.263  15.138  1.00  0.00     0.034 C 
BRANCH   5   6
ATOM      6  C   UNL     1      23.117 207.919  13.704  1.00  0.00    -0.077 C 
ATOM      7  C   UNL     1      23.304 208.979  12.648  1.00  0.00     0.039 C 
ATOM      8  C   UNL     1      22.618 206.723  13.320  1.00  0.00    -0.023 CG0
ATOM      9  G   UNL     1      22.328 205.555  14.231  1.00  0.00     0.000 G0
ENDBRANCH   5   6
ENDBRANCH   4   5
ENDBRANCH   2   4
BRANCH   1  10
ATOM     10  C   UNL     1      19.761 207.720  14.717  1.00  0.00     0.111 C 
BRANCH  10  11
ATOM     11  C   UNL     1      19.934 206.470  13.889  1.00  0.00     0.163 C 
ATOM     12  O   UNL     1      19.276 206.371  12.818  1.00  0.00    -0.294 OA
BRANCH  11  13
ATOM     13  C   UNL     1      20.814 205.343  14.332  1.00  0.00    -0.002 C 
ATOM     14  C   UNL     1      20.297 204.146  14.742  1.00  0.00    -0.069 C 
ATOM     15  C   UNL     1      21.191 203.024  15.225  1.00  0.00     0.039 C 
ATOM     16  C   UNL     1      18.810 203.869  14.702  1.00  0.00     0.039 C 
BRANCH  13  17
ATOM     17  C   UNL     1      22.313 205.560  14.236  1.00  0.00     0.066 CG0
ATOM     18  G   UNL     1      22.605 206.717  13.312  1.00  0.00     0.000 G0
ENDBRANCH  13  17
ENDBRANCH  11  13
ENDBRANCH  10  11
ENDBRANCH   1  10
TORSDOF 0
ENDMDL
