MODEL 1
REMARK VINA RESULT:    -2.719      0.000      0.000
REMARK INTER + INTRA:          -2.884
REMARK INTER:                  -3.355
REMARK INTRA:                   0.471
REMARK UNBOUND:                 0.471
REMARK SMILES Oc1cc(O)c2cc(O)c(-c3cc(O)c(O)c(O)c3)[o+]c2c1.[Cl-]
REMARK SMILES IDX 10 1 20 2 21 3 22 4 2 5 3 6 4 7 6 8 7 9 8 10 11 11 12 12
REMARK SMILES IDX 13 13 19 14 15 15 17 16 14 17 16 19 18 21 9 23 1 25 5 27
REMARK H PARENT 14 18 16 20 18 22 9 24 1 26 5 28
REMARK Flexibility Score: inf
ROOT
ATOM      1  C   UNL     1      29.097  23.181  -2.400  1.00  0.00     0.402 A 
ATOM      2  O   UNL     1      29.056  22.062  -1.683  1.00  0.00    -0.202 OA
ATOM      3  C   UNL     1      29.037  20.849  -2.223  1.00  0.00     0.368 A 
ATOM      4  C   UNL     1      28.997  19.731  -1.385  1.00  0.00     0.162 A 
ATOM      5  C   UNL     1      28.979  18.445  -1.925  1.00  0.00     0.128 A 
ATOM      6  C   UNL     1      29.004  18.271  -3.313  1.00  0.00     0.093 A 
ATOM      7  C   UNL     1      29.044  19.375  -4.175  1.00  0.00     0.136 A 
ATOM      8  C   UNL     1      29.059  20.685  -3.629  1.00  0.00     0.125 A 
ATOM      9  C   UNL     1      29.086  21.848  -4.415  1.00  0.00     0.078 A 
ATOM     10  C   UNL     1      29.095  23.107  -3.805  1.00  0.00     0.223 A 
ENDROOT
BRANCH   1  11
ATOM     11  C   UNL     1      29.124  24.475  -1.680  1.00  0.00     0.091 A 
ATOM     12  C   UNL     1      29.115  25.672  -2.411  1.00  0.00     0.068 A 
ATOM     13  C   UNL     1      29.119  26.909  -1.757  1.00  0.00     0.162 A 
ATOM     14  C   UNL     1      29.100  24.531  -0.275  1.00  0.00     0.068 A 
ATOM     15  C   UNL     1      29.116  26.961  -0.353  1.00  0.00     0.200 A 
ATOM     16  C   UNL     1      29.102  25.766   0.388  1.00  0.00     0.162 A 
BRANCH  13  17
ATOM     17  O   UNL     1      29.125  28.076  -2.522  1.00  0.00    -0.504 OA
ATOM     18  H   UNL     1      28.499  28.209  -3.306  1.00  0.00     0.293 HD
ENDBRANCH  13  17
BRANCH  15  19
ATOM     19  O   UNL     1      29.124  28.198   0.291  1.00  0.00    -0.502 OA
ATOM     20  H   UNL     1      29.147  28.281   1.301  1.00  0.00     0.293 HD
ENDBRANCH  15  19
BRANCH  16  21
ATOM     21  O   UNL     1      29.085  25.811   1.781  1.00  0.00    -0.504 OA
ATOM     22  H   UNL     1      29.251  24.983   2.342  1.00  0.00     0.293 HD
ENDBRANCH  16  21
ENDBRANCH   1  11
BRANCH  10  23
ATOM     23  O   UNL     1      29.071  24.262  -4.585  1.00  0.00    -0.500 OA
ATOM     24  H   UNL     1      29.390  25.155  -4.227  1.00  0.00     0.294 HD
ENDBRANCH  10  23
BRANCH   5  25
ATOM     25  O   UNL     1      28.939  17.344  -1.073  1.00  0.00    -0.507 OA
ATOM     26  H   UNL     1      29.392  17.358  -0.166  1.00  0.00     0.293 HD
ENDBRANCH   5  25
BRANCH   7  27
ATOM     27  O   UNL     1      29.069  19.118  -5.549  1.00  0.00    -0.507 OA
ATOM     28  H   UNL     1      28.381  19.458  -6.205  1.00  0.00     0.293 HD
ENDBRANCH   7  27
TORSDOF 7
ENDMDL
MODEL 2
REMARK VINA RESULT:    -2.713      3.339      8.966
REMARK INTER + INTRA:          -2.877
REMARK INTER:                  -3.347
REMARK INTRA:                   0.471
REMARK UNBOUND:                 0.471
REMARK SMILES Oc1cc(O)c2cc(O)c(-c3cc(O)c(O)c(O)c3)[o+]c2c1.[Cl-]
REMARK SMILES IDX 10 1 20 2 21 3 22 4 2 5 3 6 4 7 6 8 7 9 8 10 11 11 12 12
REMARK SMILES IDX 13 13 19 14 15 15 17 16 14 17 16 19 18 21 9 23 1 25 5 27
REMARK H PARENT 14 18 16 20 18 22 9 24 1 26 5 28
REMARK Flexibility Score: inf
ROOT
ATOM      1  C   UNL     1      29.104  26.823   1.393  1.00  0.00     0.402 A 
ATOM      2  O   UNL     1      29.112  28.149   1.491  1.00  0.00    -0.202 OA
ATOM      3  C   UNL     1      29.104  28.795   2.652  1.00  0.00     0.368 A 
ATOM      4  C   UNL     1      29.117  30.193   2.653  1.00  0.00     0.162 A 
ATOM      5  C   UNL     1      29.111  30.898   3.857  1.00  0.00     0.128 A 
ATOM      6  C   UNL     1      29.093  30.202   5.071  1.00  0.00     0.093 A 
ATOM      7  C   UNL     1      29.079  28.802   5.098  1.00  0.00     0.136 A 
ATOM      8  C   UNL     1      29.082  28.082   3.875  1.00  0.00     0.125 A 
ATOM      9  C   UNL     1      29.056  26.679   3.805  1.00  0.00     0.078 A 
ATOM     10  C   UNL     1      29.056  26.039   2.561  1.00  0.00     0.223 A 
ENDROOT
BRANCH   1  11
ATOM     11  C   UNL     1      29.124  26.220   0.041  1.00  0.00     0.091 A 
ATOM     12  C   UNL     1      29.087  24.824  -0.093  1.00  0.00     0.068 A 
ATOM     13  C   UNL     1      29.085  24.227  -1.358  1.00  0.00     0.162 A 
ATOM     14  C   UNL     1      29.123  27.018  -1.116  1.00  0.00     0.068 A 
ATOM     15  C   UNL     1      29.105  25.028  -2.512  1.00  0.00     0.200 A 
ATOM     16  C   UNL     1      29.120  26.429  -2.389  1.00  0.00     0.162 A 
BRANCH  13  17
ATOM     17  O   UNL     1      29.063  22.835  -1.447  1.00  0.00    -0.504 OA
ATOM     18  H   UNL     1      29.159  22.351  -2.331  1.00  0.00     0.293 HD
ENDBRANCH  13  17
BRANCH  15  19
ATOM     19  O   UNL     1      29.106  24.425  -3.770  1.00  0.00    -0.502 OA
ATOM     20  H   UNL     1      29.840  24.593  -4.449  1.00  0.00     0.293 HD
ENDBRANCH  15  19
BRANCH  16  21
ATOM     21  O   UNL     1      29.125  27.229  -3.529  1.00  0.00    -0.504 OA
ATOM     22  H   UNL     1      28.297  27.731  -3.830  1.00  0.00     0.293 HD
ENDBRANCH  16  21
ENDBRANCH   1  11
BRANCH  10  23
ATOM     23  O   UNL     1      28.980  24.649   2.491  1.00  0.00    -0.500 OA
ATOM     24  H   UNL     1      28.945  24.073   3.324  1.00  0.00     0.294 HD
ENDBRANCH  10  23
BRANCH   5  25
ATOM     25  O   UNL     1      29.125  32.290   3.837  1.00  0.00    -0.507 OA
ATOM     26  H   UNL     1      29.925  32.817   4.168  1.00  0.00     0.293 HD
ENDBRANCH   5  25
BRANCH   7  27
ATOM     27  O   UNL     1      29.064  28.182   6.351  1.00  0.00    -0.507 OA
ATOM     28  H   UNL     1      29.669  27.418   6.616  1.00  0.00     0.293 HD
ENDBRANCH   7  27
TORSDOF 7
ENDMDL
MODEL 3
REMARK VINA RESULT:    -2.632      1.650      3.173
REMARK INTER + INTRA:          -2.777
REMARK INTER:                  -3.247
REMARK INTRA:                   0.471
REMARK UNBOUND:                 0.471
REMARK SMILES Oc1cc(O)c2cc(O)c(-c3cc(O)c(O)c(O)c3)[o+]c2c1.[Cl-]
REMARK SMILES IDX 10 1 20 2 21 3 22 4 2 5 3 6 4 7 6 8 7 9 8 10 11 11 12 12
REMARK SMILES IDX 13 13 19 14 15 15 17 16 14 17 16 19 18 21 9 23 1 25 5 27
REMARK H PARENT 14 18 16 20 18 22 9 24 1 26 5 28
REMARK Flexibility Score: inf
ROOT
ATOM      1  C   UNL     1      29.110  25.152  -0.957  1.00  0.00     0.402 A 
ATOM      2  O   UNL     1      29.088  23.824  -1.009  1.00  0.00    -0.202 OA
ATOM      3  C   UNL     1      29.081  23.137  -2.146  1.00  0.00     0.368 A 
ATOM      4  C   UNL     1      29.061  21.741  -2.098  1.00  0.00     0.162 A 
ATOM      5  C   UNL     1      29.056  20.994  -3.277  1.00  0.00     0.128 A 
ATOM      6  C   UNL     1      29.073  21.647  -4.515  1.00  0.00     0.093 A 
ATOM      7  C   UNL     1      29.094  23.045  -4.590  1.00  0.00     0.136 A 
ATOM      8  C   UNL     1      29.096  23.807  -3.393  1.00  0.00     0.125 A 
ATOM      9  C   UNL     1      29.102  25.212  -3.372  1.00  0.00     0.078 A 
ATOM     10  C   UNL     1      29.099  25.895  -2.152  1.00  0.00     0.223 A 
ENDROOT
BRANCH   1  11
ATOM     11  C   UNL     1      29.125  25.801   0.374  1.00  0.00     0.091 A 
ATOM     12  C   UNL     1      29.120  27.201   0.459  1.00  0.00     0.068 A 
ATOM     13  C   UNL     1      29.114  27.843   1.702  1.00  0.00     0.162 A 
ATOM     14  C   UNL     1      29.085  25.045   1.558  1.00  0.00     0.068 A 
ATOM     15  C   UNL     1      29.096  27.082   2.883  1.00  0.00     0.200 A 
ATOM     16  C   UNL     1      29.078  25.678   2.809  1.00  0.00     0.162 A 
BRANCH  13  17
ATOM     17  O   UNL     1      29.125  29.237   1.742  1.00  0.00    -0.504 OA
ATOM     18  H   UNL     1      28.273  29.781   1.794  1.00  0.00     0.293 HD
ENDBRANCH  13  17
BRANCH  15  19
ATOM     19  O   UNL     1      29.093  27.729   4.120  1.00  0.00    -0.502 OA
ATOM     20  H   UNL     1      29.568  27.348   4.930  1.00  0.00     0.293 HD
ENDBRANCH  15  19
BRANCH  16  21
ATOM     21  O   UNL     1      29.045  24.919   3.977  1.00  0.00    -0.504 OA
ATOM     22  H   UNL     1      29.877  24.765   4.534  1.00  0.00     0.293 HD
ENDBRANCH  16  21
ENDBRANCH   1  11
BRANCH  10  23
ATOM     23  O   UNL     1      29.055  27.288  -2.131  1.00  0.00    -0.500 OA
ATOM     24  H   UNL     1      28.186  27.797  -2.247  1.00  0.00     0.294 HD
ENDBRANCH  10  23
BRANCH   5  25
ATOM     25  O   UNL     1      29.035  19.603  -3.208  1.00  0.00    -0.507 OA
ATOM     26  H   UNL     1      29.886  19.057  -3.282  1.00  0.00     0.293 HD
ENDBRANCH   5  25
BRANCH   7  27
ATOM     27  O   UNL     1      29.112  23.621  -5.864  1.00  0.00    -0.507 OA
ATOM     28  H   UNL     1      28.303  23.711  -6.461  1.00  0.00     0.293 HD
ENDBRANCH   7  27
TORSDOF 7
ENDMDL
MODEL 4
REMARK VINA RESULT:    -2.388      1.551      3.349
REMARK INTER + INTRA:          -2.476
REMARK INTER:                  -2.869
REMARK INTRA:                   0.394
REMARK UNBOUND:                 0.471
REMARK SMILES Oc1cc(O)c2cc(O)c(-c3cc(O)c(O)c(O)c3)[o+]c2c1.[Cl-]
REMARK SMILES IDX 10 1 20 2 21 3 22 4 2 5 3 6 4 7 6 8 7 9 8 10 11 11 12 12
REMARK SMILES IDX 13 13 19 14 15 15 17 16 14 17 16 19 18 21 9 23 1 25 5 27
REMARK H PARENT 14 18 16 20 18 22 9 24 1 26 5 28
REMARK Flexibility Score: inf
ROOT
ATOM      1  C   UNL     1      29.026  24.836  -1.023  1.00  0.00     0.402 A 
ATOM      2  O   UNL     1      28.941  23.510  -1.043  1.00  0.00    -0.202 OA
ATOM      3  C   UNL     1      28.936  22.795  -2.162  1.00  0.00     0.368 A 
ATOM      4  C   UNL     1      28.846  21.402  -2.080  1.00  0.00     0.162 A 
ATOM      5  C   UNL     1      28.841  20.626  -3.239  1.00  0.00     0.128 A 
ATOM      6  C   UNL     1      28.927  21.243  -4.492  1.00  0.00     0.093 A 
ATOM      7  C   UNL     1      29.018  22.636  -4.602  1.00  0.00     0.136 A 
ATOM      8  C   UNL     1      29.021  23.430  -3.425  1.00  0.00     0.125 A 
ATOM      9  C   UNL     1      29.095  24.832  -3.439  1.00  0.00     0.078 A 
ATOM     10  C   UNL     1      29.088  25.547  -2.237  1.00  0.00     0.223 A 
ENDROOT
BRANCH   1  11
ATOM     11  C   UNL     1      29.032  25.520   0.290  1.00  0.00     0.091 A 
ATOM     12  C   UNL     1      29.063  24.755   1.466  1.00  0.00     0.068 A 
ATOM     13  C   UNL     1      29.090  25.373   2.720  1.00  0.00     0.162 A 
ATOM     14  C   UNL     1      29.065  26.922   0.386  1.00  0.00     0.068 A 
ATOM     15  C   UNL     1      29.101  26.775   2.812  1.00  0.00     0.200 A 
ATOM     16  C   UNL     1      29.093  27.550   1.639  1.00  0.00     0.162 A 
BRANCH  13  17
ATOM     17  O   UNL     1      29.106  24.576   3.865  1.00  0.00    -0.504 OA
ATOM     18  H   UNL     1      28.271  24.403   4.412  1.00  0.00     0.293 HD
ENDBRANCH  13  17
BRANCH  15  19
ATOM     19  O   UNL     1      29.125  27.384   4.066  1.00  0.00    -0.502 OA
ATOM     20  H   UNL     1      28.283  27.536   4.609  1.00  0.00     0.293 HD
ENDBRANCH  15  19
BRANCH  16  21
ATOM     21  O   UNL     1      29.119  28.941   1.722  1.00  0.00    -0.504 OA
ATOM     22  H   UNL     1      29.801  29.427   2.293  1.00  0.00     0.293 HD
ENDBRANCH  16  21
ENDBRANCH   1  11
BRANCH  10  23
ATOM     23  O   UNL     1      29.111  26.941  -2.252  1.00  0.00    -0.500 OA
ATOM     24  H   UNL     1      28.353  27.483  -2.651  1.00  0.00     0.294 HD
ENDBRANCH  10  23
BRANCH   5  25
ATOM     25  O   UNL     1      28.751  19.240  -3.136  1.00  0.00    -0.507 OA
ATOM     26  H   UNL     1      29.576  18.652  -3.156  1.00  0.00     0.293 HD
ENDBRANCH   5  25
BRANCH   7  27
ATOM     27  O   UNL     1      29.104  23.177  -5.888  1.00  0.00    -0.507 OA
ATOM     28  H   UNL     1      28.424  23.022  -6.618  1.00  0.00     0.293 HD
ENDBRANCH   7  27
TORSDOF 7
ENDMDL
MODEL 5
REMARK VINA RESULT:    -2.143      0.872      7.053
REMARK INTER + INTRA:          -2.174
REMARK INTER:                  -2.568
REMARK INTRA:                   0.394
REMARK UNBOUND:                 0.471
REMARK SMILES Oc1cc(O)c2cc(O)c(-c3cc(O)c(O)c(O)c3)[o+]c2c1.[Cl-]
REMARK SMILES IDX 10 1 20 2 21 3 22 4 2 5 3 6 4 7 6 8 7 9 8 10 11 11 12 12
REMARK SMILES IDX 13 13 19 14 15 15 17 16 14 17 16 19 18 21 9 23 1 25 5 27
REMARK H PARENT 14 18 16 20 18 22 9 24 1 26 5 28
REMARK Flexibility Score: inf
ROOT
ATOM      1  C   UNL     1      29.102  23.032  -2.492  1.00  0.00     0.402 A 
ATOM      2  O   UNL     1      29.124  23.500  -1.248  1.00  0.00    -0.202 OA
ATOM      3  C   UNL     1      29.102  24.796  -0.955  1.00  0.00     0.368 A 
ATOM      4  C   UNL     1      29.125  25.190   0.386  1.00  0.00     0.162 A 
ATOM      5  C   UNL     1      29.100  26.544   0.724  1.00  0.00     0.128 A 
ATOM      6  C   UNL     1      29.049  27.513  -0.285  1.00  0.00     0.093 A 
ATOM      7  C   UNL     1      29.024  27.144  -1.636  1.00  0.00     0.136 A 
ATOM      8  C   UNL     1      29.053  25.768  -1.983  1.00  0.00     0.125 A 
ATOM      9  C   UNL     1      29.045  25.306  -3.309  1.00  0.00     0.078 A 
ATOM     10  C   UNL     1      29.080  23.933  -3.574  1.00  0.00     0.223 A 
ENDROOT
BRANCH   1  11
ATOM     11  C   UNL     1      29.122  21.565  -2.690  1.00  0.00     0.091 A 
ATOM     12  C   UNL     1      29.113  20.718  -1.572  1.00  0.00     0.068 A 
ATOM     13  C   UNL     1      29.111  19.328  -1.728  1.00  0.00     0.162 A 
ATOM     14  C   UNL     1      29.090  20.999  -3.976  1.00  0.00     0.068 A 
ATOM     15  C   UNL     1      29.101  18.766  -3.016  1.00  0.00     0.200 A 
ATOM     16  C   UNL     1      29.087  19.607  -4.143  1.00  0.00     0.162 A 
BRANCH  13  17
ATOM     17  O   UNL     1      29.117  18.520  -0.590  1.00  0.00    -0.504 OA
ATOM     18  H   UNL     1      29.800  17.785  -0.456  1.00  0.00     0.293 HD
ENDBRANCH  13  17
BRANCH  15  19
ATOM     19  O   UNL     1      29.102  17.379  -3.164  1.00  0.00    -0.502 OA
ATOM     20  H   UNL     1      29.945  16.826  -3.068  1.00  0.00     0.293 HD
ENDBRANCH  15  19
BRANCH  16  21
ATOM     21  O   UNL     1      29.062  19.057  -5.423  1.00  0.00    -0.504 OA
ATOM     22  H   UNL     1      28.318  19.268  -6.078  1.00  0.00     0.293 HD
ENDBRANCH  16  21
ENDBRANCH   1  11
BRANCH  10  23
ATOM     23  O   UNL     1      29.123  23.475  -4.890  1.00  0.00    -0.500 OA
ATOM     24  H   UNL     1      28.301  23.104  -5.353  1.00  0.00     0.294 HD
ENDBRANCH  10  23
BRANCH   5  25
ATOM     25  O   UNL     1      29.123  26.917   2.065  1.00  0.00    -0.507 OA
ATOM     26  H   UNL     1      28.275  27.161   2.563  1.00  0.00     0.293 HD
ENDBRANCH   5  25
BRANCH   7  27
ATOM     27  O   UNL     1      28.970  28.170  -2.583  1.00  0.00    -0.507 OA
ATOM     28  H   UNL     1      28.168  28.764  -2.736  1.00  0.00     0.293 HD
ENDBRANCH   7  27
TORSDOF 7
ENDMDL
MODEL 6
REMARK VINA RESULT:    -2.067      0.876      6.841
REMARK INTER + INTRA:          -2.079
REMARK INTER:                  -2.540
REMARK INTRA:                   0.460
REMARK UNBOUND:                 0.471
REMARK SMILES Oc1cc(O)c2cc(O)c(-c3cc(O)c(O)c(O)c3)[o+]c2c1.[Cl-]
REMARK SMILES IDX 10 1 20 2 21 3 22 4 2 5 3 6 4 7 6 8 7 9 8 10 11 11 12 12
REMARK SMILES IDX 13 13 19 14 15 15 17 16 14 17 16 19 18 21 9 23 1 25 5 27
REMARK H PARENT 14 18 16 20 18 22 9 24 1 26 5 28
REMARK Flexibility Score: inf
ROOT
ATOM      1  C   UNL     1      29.041  22.930  -2.486  1.00  0.00     0.402 A 
ATOM      2  O   UNL     1      29.059  23.497  -1.284  1.00  0.00    -0.202 OA
ATOM      3  C   UNL     1      29.069  24.813  -1.098  1.00  0.00     0.368 A 
ATOM      4  C   UNL     1      29.083  25.315   0.207  1.00  0.00     0.162 A 
ATOM      5  C   UNL     1      29.092  26.692   0.432  1.00  0.00     0.128 A 
ATOM      6  C   UNL     1      29.084  27.576  -0.653  1.00  0.00     0.093 A 
ATOM      7  C   UNL     1      29.069  27.098  -1.969  1.00  0.00     0.136 A 
ATOM      8  C   UNL     1      29.063  25.698  -2.202  1.00  0.00     0.125 A 
ATOM      9  C   UNL     1      29.062  25.129  -3.487  1.00  0.00     0.078 A 
ATOM     10  C   UNL     1      29.061  23.738  -3.638  1.00  0.00     0.223 A 
ENDROOT
BRANCH   1  11
ATOM     11  C   UNL     1      29.022  21.451  -2.563  1.00  0.00     0.091 A 
ATOM     12  C   UNL     1      29.008  20.825  -3.818  1.00  0.00     0.068 A 
ATOM     13  C   UNL     1      29.009  19.430  -3.922  1.00  0.00     0.162 A 
ATOM     14  C   UNL     1      29.075  20.657  -1.404  1.00  0.00     0.068 A 
ATOM     15  C   UNL     1      29.041  18.640  -2.760  1.00  0.00     0.200 A 
ATOM     16  C   UNL     1      29.078  19.258  -1.498  1.00  0.00     0.162 A 
BRANCH  13  17
ATOM     17  O   UNL     1      28.980  18.847  -5.189  1.00  0.00    -0.504 OA
ATOM     18  H   UNL     1      28.809  19.389  -6.027  1.00  0.00     0.293 HD
ENDBRANCH  13  17
BRANCH  15  19
ATOM     19  O   UNL     1      29.040  17.250  -2.871  1.00  0.00    -0.502 OA
ATOM     20  H   UNL     1      28.964  16.780  -3.766  1.00  0.00     0.293 HD
ENDBRANCH  15  19
BRANCH  16  21
ATOM     21  O   UNL     1      29.125  18.481  -0.342  1.00  0.00    -0.504 OA
ATOM     22  H   UNL     1      28.502  18.652   0.439  1.00  0.00     0.293 HD
ENDBRANCH  16  21
ENDBRANCH   1  11
BRANCH  10  23
ATOM     23  O   UNL     1      29.110  23.174  -4.911  1.00  0.00    -0.500 OA
ATOM     24  H   UNL     1      29.796  23.465  -5.598  1.00  0.00     0.294 HD
ENDBRANCH  10  23
BRANCH   5  25
ATOM     25  O   UNL     1      29.107  27.173   1.739  1.00  0.00    -0.507 OA
ATOM     26  H   UNL     1      28.555  26.739   2.470  1.00  0.00     0.293 HD
ENDBRANCH   5  25
BRANCH   7  27
ATOM     27  O   UNL     1      29.059  28.045  -2.998  1.00  0.00    -0.507 OA
ATOM     28  H   UNL     1      29.419  28.984  -2.912  1.00  0.00     0.293 HD
ENDBRANCH   7  27
TORSDOF 7
ENDMDL
MODEL 7
REMARK VINA RESULT:    -2.049      1.676      7.166
REMARK INTER + INTRA:          -2.058
REMARK INTER:                  -2.452
REMARK INTRA:                   0.394
REMARK UNBOUND:                 0.471
REMARK SMILES Oc1cc(O)c2cc(O)c(-c3cc(O)c(O)c(O)c3)[o+]c2c1.[Cl-]
REMARK SMILES IDX 10 1 20 2 21 3 22 4 2 5 3 6 4 7 6 8 7 9 8 10 11 11 12 12
REMARK SMILES IDX 13 13 19 14 15 15 17 16 14 17 16 19 18 21 9 23 1 25 5 27
REMARK H PARENT 14 18 16 20 18 22 9 24 1 26 5 28
REMARK Flexibility Score: inf
ROOT
ATOM      1  C   UNL     1      29.037  24.880  -1.254  1.00  0.00     0.402 A 
ATOM      2  O   UNL     1      29.052  24.609   0.047  1.00  0.00    -0.202 OA
ATOM      3  C   UNL     1      29.076  25.547   0.988  1.00  0.00     0.368 A 
ATOM      4  C   UNL     1      29.088  25.163   2.332  1.00  0.00     0.162 A 
ATOM      5  C   UNL     1      29.110  26.126   3.341  1.00  0.00     0.128 A 
ATOM      6  C   UNL     1      29.119  27.485   3.007  1.00  0.00     0.093 A 
ATOM      7  C   UNL     1      29.107  27.896   1.668  1.00  0.00     0.136 A 
ATOM      8  C   UNL     1      29.088  26.919   0.639  1.00  0.00     0.125 A 
ATOM      9  C   UNL     1      29.088  27.238  -0.729  1.00  0.00     0.078 A 
ATOM     10  C   UNL     1      29.073  26.219  -1.687  1.00  0.00     0.223 A 
ENDROOT
BRANCH   1  11
ATOM     11  C   UNL     1      29.001  23.746  -2.206  1.00  0.00     0.091 A 
ATOM     12  C   UNL     1      28.820  22.443  -1.720  1.00  0.00     0.068 A 
ATOM     13  C   UNL     1      28.761  21.355  -2.597  1.00  0.00     0.162 A 
ATOM     14  C   UNL     1      29.088  23.953  -3.594  1.00  0.00     0.068 A 
ATOM     15  C   UNL     1      28.870  21.563  -3.983  1.00  0.00     0.200 A 
ATOM     16  C   UNL     1      29.029  22.868  -4.481  1.00  0.00     0.162 A 
BRANCH  13  17
ATOM     17  O   UNL     1      28.595  20.073  -2.072  1.00  0.00    -0.504 OA
ATOM     18  H   UNL     1      27.991  19.890  -1.281  1.00  0.00     0.293 HD
ENDBRANCH  13  17
BRANCH  15  19
ATOM     19  O   UNL     1      28.814  20.472  -4.851  1.00  0.00    -0.502 OA
ATOM     20  H   UNL     1      28.336  20.516  -5.743  1.00  0.00     0.293 HD
ENDBRANCH  15  19
BRANCH  16  21
ATOM     21  O   UNL     1      29.122  23.084  -5.854  1.00  0.00    -0.504 OA
ATOM     22  H   UNL     1      29.771  23.758  -6.244  1.00  0.00     0.293 HD
ENDBRANCH  16  21
ENDBRANCH   1  11
BRANCH  10  23
ATOM     23  O   UNL     1      29.124  26.534  -3.044  1.00  0.00    -0.500 OA
ATOM     24  H   UNL     1      29.643  25.966  -3.704  1.00  0.00     0.294 HD
ENDBRANCH  10  23
BRANCH   5  25
ATOM     25  O   UNL     1      29.121  25.723   4.674  1.00  0.00    -0.507 OA
ATOM     26  H   UNL     1      28.317  25.277   5.100  1.00  0.00     0.293 HD
ENDBRANCH   5  25
BRANCH   7  27
ATOM     27  O   UNL     1      29.115  29.271   1.417  1.00  0.00    -0.507 OA
ATOM     28  H   UNL     1      28.285  29.831   1.281  1.00  0.00     0.293 HD
ENDBRANCH   7  27
TORSDOF 7
ENDMDL
