MODEL 1
REMARK VINA RESULT:    -6.578      0.000      0.000
REMARK INTER + INTRA:         -11.071
REMARK INTER:                  -9.654
REMARK INTRA:                  -1.417
REMARK UNBOUND:                -1.417
REMARK SMILES O=c1c(O[C@H]2O[C@H](CO)[C@@H](O)[C@H](O)[C@@H]2O)c(-c2ccc(O)c(O)c2)oc2cc(O)cc(O)c12
REMARK SMILES IDX 4 1 3 2 16 3 25 4 2 5 26 6 1 7 33 8 27 9 31 10 28 11 30 12
REMARK SMILES IDX 17 13 18 14 19 15 20 16 24 17 22 18 21 19 23 21 32 23 29 25
REMARK SMILES IDX 5 27 14 28 6 29 12 30 7 31 10 32 15 33 13 35 8 37 9 38 11 40
REMARK H PARENT 21 20 23 22 32 24 29 26 15 34 13 36 9 39 11 41
REMARK Flexibility Score: inf
ROOT
ATOM      1  O   UNL     1     -37.911   5.074  80.482  1.00  0.00    -0.454 OA
ENDROOT
BRANCH   1   2
ATOM      2  C   UNL     1     -38.075   5.870  79.344  1.00  0.00     0.214 A 
ATOM      3  C   UNL     1     -39.183   5.706  78.490  1.00  0.00     0.180 A 
ATOM      4  O   UNL     1     -39.351   6.530  77.460  1.00  0.00    -0.452 OA
ATOM      5  C   UNL     1     -37.134   6.865  79.052  1.00  0.00     0.239 A 
ATOM      6  C   UNL     1     -38.496   7.501  77.158  1.00  0.00     0.146 A 
ATOM      7  O   UNL     1     -36.128   6.996  79.799  1.00  0.00    -0.285 OA
ATOM      8  C   UNL     1     -37.336   7.710  77.941  1.00  0.00     0.111 A 
ATOM      9  C   UNL     1     -38.752   8.312  76.048  1.00  0.00     0.094 A 
ATOM     10  C   UNL     1     -36.442   8.747  77.587  1.00  0.00     0.134 A 
ATOM     11  C   UNL     1     -37.862   9.330  75.698  1.00  0.00     0.123 A 
ATOM     12  C   UNL     1     -36.711   9.545  76.465  1.00  0.00     0.093 A 
BRANCH   3  13
ATOM     13  C   UNL     1     -40.173   4.629  78.696  1.00  0.00     0.025 A 
ATOM     14  C   UNL     1     -40.135   3.457  77.921  1.00  0.00     0.016 A 
ATOM     15  C   UNL     1     -41.095   2.459  78.104  1.00  0.00     0.051 A 
ATOM     16  C   UNL     1     -42.109   2.619  79.053  1.00  0.00     0.157 A 
ATOM     17  C   UNL     1     -41.203   4.798  79.633  1.00  0.00     0.062 A 
ATOM     18  C   UNL     1     -42.166   3.794  79.822  1.00  0.00     0.158 A 
BRANCH  16  19
ATOM     19  O   UNL     1     -43.050   1.603  79.217  1.00  0.00    -0.504 OA
ATOM     20  H   UNL     1     -42.815   0.716  79.647  1.00  0.00     0.293 HD
ENDBRANCH  16  19
BRANCH  18  21
ATOM     21  O   UNL     1     -43.177   3.961  80.767  1.00  0.00    -0.504 OA
ATOM     22  H   UNL     1     -44.079   4.349  80.517  1.00  0.00     0.293 HD
ENDBRANCH  18  21
ENDBRANCH   3  13
BRANCH  10  23
ATOM     23  O   UNL     1     -35.293   8.994  78.340  1.00  0.00    -0.507 OA
ATOM     24  H   UNL     1     -34.375   8.698  78.027  1.00  0.00     0.293 HD
ENDBRANCH  10  23
BRANCH  11  25
ATOM     25  O   UNL     1     -38.133  10.125  74.587  1.00  0.00    -0.508 OA
ATOM     26  H   UNL     1     -39.082  10.292  74.275  1.00  0.00     0.293 HD
ENDBRANCH  11  25
ENDBRANCH   1   2
BRANCH   1  27
ATOM     27  C   UNL     1     -37.945   5.620  81.805  1.00  0.00     0.339 C 
ATOM     28  C   UNL     1     -36.704   5.159  82.601  1.00  0.00     0.214 C 
ATOM     29  O   UNL     1     -39.154   5.275  82.466  1.00  0.00    -0.332 OA
ATOM     30  C   UNL     1     -36.783   3.652  82.906  1.00  0.00     0.180 C 
ATOM     31  C   UNL     1     -39.292   3.871  82.618  1.00  0.00     0.179 C 
ATOM     32  C   UNL     1     -38.157   3.291  83.505  1.00  0.00     0.177 C 
BRANCH  28  33
ATOM     33  O   UNL     1     -36.543   5.914  83.779  1.00  0.00    -0.384 OA
ATOM     34  H   UNL     1     -35.621   6.284  83.787  1.00  0.00     0.211 HD
ENDBRANCH  28  33
BRANCH  30  35
ATOM     35  O   UNL     1     -35.752   3.295  83.789  1.00  0.00    -0.387 OA
ATOM     36  H   UNL     1     -35.717   2.302  83.804  1.00  0.00     0.211 HD
ENDBRANCH  30  35
BRANCH  31  37
ATOM     37  C   UNL     1     -40.677   3.579  83.219  1.00  0.00     0.191 C 
BRANCH  37  38
ATOM     38  O   UNL     1     -41.273   2.466  82.609  1.00  0.00    -0.394 OA
ATOM     39  H   UNL     1     -41.269   1.733  83.278  1.00  0.00     0.210 HD
ENDBRANCH  37  38
ENDBRANCH  31  37
BRANCH  32  40
ATOM     40  O   UNL     1     -38.281   1.896  83.650  1.00  0.00    -0.387 OA
ATOM     41  H   UNL     1     -37.749   1.624  84.444  1.00  0.00     0.211 HD
ENDBRANCH  32  40
ENDBRANCH   1  27
TORSDOF 12
ENDMDL
MODEL 2
REMARK VINA RESULT:    -6.529      2.389      6.351
REMARK INTER + INTRA:         -10.999
REMARK INTER:                 -10.036
REMARK INTRA:                  -0.964
REMARK UNBOUND:                -1.417
REMARK SMILES O=c1c(O[C@H]2O[C@H](CO)[C@@H](O)[C@H](O)[C@@H]2O)c(-c2ccc(O)c(O)c2)oc2cc(O)cc(O)c12
REMARK SMILES IDX 4 1 3 2 16 3 25 4 2 5 26 6 1 7 33 8 27 9 31 10 28 11 30 12
REMARK SMILES IDX 17 13 18 14 19 15 20 16 24 17 22 18 21 19 23 21 32 23 29 25
REMARK SMILES IDX 5 27 14 28 6 29 12 30 7 31 10 32 15 33 13 35 8 37 9 38 11 40
REMARK H PARENT 21 20 23 22 32 24 29 26 15 34 13 36 9 39 11 41
REMARK Flexibility Score: inf
ROOT
ATOM      1  O   UNL     1     -37.876   5.075  81.823  1.00  0.00    -0.454 OA
ENDROOT
BRANCH   1   2
ATOM      2  C   UNL     1     -38.633   4.706  80.707  1.00  0.00     0.214 A 
ATOM      3  C   UNL     1     -38.066   4.671  79.418  1.00  0.00     0.180 A 
ATOM      4  O   UNL     1     -38.790   4.240  78.389  1.00  0.00    -0.452 OA
ATOM      5  C   UNL     1     -39.975   4.342  80.868  1.00  0.00     0.239 A 
ATOM      6  C   UNL     1     -40.059   3.865  78.499  1.00  0.00     0.146 A 
ATOM      7  O   UNL     1     -40.492   4.397  82.016  1.00  0.00    -0.285 OA
ATOM      8  C   UNL     1     -40.718   3.906  79.751  1.00  0.00     0.111 A 
ATOM      9  C   UNL     1     -40.743   3.436  77.357  1.00  0.00     0.094 A 
ATOM     10  C   UNL     1     -42.073   3.508  79.831  1.00  0.00     0.134 A 
ATOM     11  C   UNL     1     -42.083   3.051  77.441  1.00  0.00     0.123 A 
ATOM     12  C   UNL     1     -42.745   3.088  78.674  1.00  0.00     0.093 A 
BRANCH   3  13
ATOM     13  C   UNL     1     -36.679   5.112  79.165  1.00  0.00     0.025 A 
ATOM     14  C   UNL     1     -35.596   4.495  79.815  1.00  0.00     0.016 A 
ATOM     15  C   UNL     1     -34.291   4.942  79.591  1.00  0.00     0.051 A 
ATOM     16  C   UNL     1     -34.050   6.013  78.726  1.00  0.00     0.157 A 
ATOM     17  C   UNL     1     -36.437   6.200  78.313  1.00  0.00     0.062 A 
ATOM     18  C   UNL     1     -35.127   6.647  78.083  1.00  0.00     0.158 A 
BRANCH  16  19
ATOM     19  O   UNL     1     -32.737   6.433  78.517  1.00  0.00    -0.504 OA
ATOM     20  H   UNL     1     -32.148   6.026  77.800  1.00  0.00     0.293 HD
ENDBRANCH  16  19
BRANCH  18  21
ATOM     21  O   UNL     1     -34.893   7.719  77.222  1.00  0.00    -0.504 OA
ATOM     22  H   UNL     1     -33.993   7.855  76.776  1.00  0.00     0.293 HD
ENDBRANCH  18  21
ENDBRANCH   3  13
BRANCH  10  23
ATOM     23  O   UNL     1     -42.754   3.521  81.049  1.00  0.00    -0.507 OA
ATOM     24  H   UNL     1     -42.297   3.278  81.921  1.00  0.00     0.293 HD
ENDBRANCH  10  23
BRANCH  11  25
ATOM     25  O   UNL     1     -42.748   2.630  76.291  1.00  0.00    -0.508 OA
ATOM     26  H   UNL     1     -43.656   2.185  76.339  1.00  0.00     0.293 HD
ENDBRANCH  11  25
ENDBRANCH   1   2
BRANCH   1  27
ATOM     27  C   UNL     1     -38.190   6.229  82.609  1.00  0.00     0.339 C 
ATOM     28  C   UNL     1     -38.393   7.455  81.693  1.00  0.00     0.214 C 
ATOM     29  O   UNL     1     -37.190   6.463  83.590  1.00  0.00    -0.332 OA
ATOM     30  C   UNL     1     -37.059   7.889  81.060  1.00  0.00     0.180 C 
ATOM     31  C   UNL     1     -35.923   6.721  83.002  1.00  0.00     0.179 C 
ATOM     32  C   UNL     1     -35.962   8.010  82.137  1.00  0.00     0.177 C 
BRANCH  28  33
ATOM     33  O   UNL     1     -39.001   8.519  82.389  1.00  0.00    -0.384 OA
ATOM     34  H   UNL     1     -39.947   8.584  82.093  1.00  0.00     0.211 HD
ENDBRANCH  28  33
BRANCH  30  35
ATOM     35  O   UNL     1     -37.229   9.112  80.391  1.00  0.00    -0.387 OA
ATOM     36  H   UNL     1     -36.785   9.806  80.945  1.00  0.00     0.211 HD
ENDBRANCH  30  35
BRANCH  31  37
ATOM     37  C   UNL     1     -34.878   6.833  84.125  1.00  0.00     0.191 C 
BRANCH  37  38
ATOM     38  O   UNL     1     -33.581   6.616  83.636  1.00  0.00    -0.394 OA
ATOM     39  H   UNL     1     -33.004   6.434  84.423  1.00  0.00     0.210 HD
ENDBRANCH  37  38
ENDBRANCH  31  37
BRANCH  32  40
ATOM     40  O   UNL     1     -34.712   8.265  81.541  1.00  0.00    -0.387 OA
ATOM     41  H   UNL     1     -34.241   7.395  81.439  1.00  0.00     0.211 HD
ENDBRANCH  32  40
ENDBRANCH   1  27
TORSDOF 12
ENDMDL
MODEL 3
REMARK VINA RESULT:    -6.295      2.272      5.241
REMARK INTER + INTRA:         -10.655
REMARK INTER:                 -10.768
REMARK INTRA:                   0.113
REMARK UNBOUND:                -1.417
REMARK SMILES O=c1c(O[C@H]2O[C@H](CO)[C@@H](O)[C@H](O)[C@@H]2O)c(-c2ccc(O)c(O)c2)oc2cc(O)cc(O)c12
REMARK SMILES IDX 4 1 3 2 16 3 25 4 2 5 26 6 1 7 33 8 27 9 31 10 28 11 30 12
REMARK SMILES IDX 17 13 18 14 19 15 20 16 24 17 22 18 21 19 23 21 32 23 29 25
REMARK SMILES IDX 5 27 14 28 6 29 12 30 7 31 10 32 15 33 13 35 8 37 9 38 11 40
REMARK H PARENT 21 20 23 22 32 24 29 26 15 34 13 36 9 39 11 41
REMARK Flexibility Score: inf
ROOT
ATOM      1  O   UNL     1     -39.435   5.387  78.987  1.00  0.00    -0.454 OA
ENDROOT
BRANCH   1   2
ATOM      2  C   UNL     1     -38.164   5.957  78.870  1.00  0.00     0.214 A 
ATOM      3  C   UNL     1     -37.975   7.199  78.234  1.00  0.00     0.180 A 
ATOM      4  O   UNL     1     -36.765   7.752  78.208  1.00  0.00    -0.452 OA
ATOM      5  C   UNL     1     -37.055   5.297  79.414  1.00  0.00     0.239 A 
ATOM      6  C   UNL     1     -35.690   7.172  78.729  1.00  0.00     0.146 A 
ATOM      7  O   UNL     1     -37.217   4.174  79.961  1.00  0.00    -0.285 OA
ATOM      8  C   UNL     1     -35.784   5.905  79.353  1.00  0.00     0.111 A 
ATOM      9  C   UNL     1     -34.457   7.826  78.645  1.00  0.00     0.094 A 
ATOM     10  C   UNL     1     -34.617   5.312  79.890  1.00  0.00     0.134 A 
ATOM     11  C   UNL     1     -33.307   7.233  79.170  1.00  0.00     0.123 A 
ATOM     12  C   UNL     1     -33.388   5.980  79.789  1.00  0.00     0.093 A 
BRANCH   3  13
ATOM     13  C   UNL     1     -39.087   7.914  77.574  1.00  0.00     0.025 A 
ATOM     14  C   UNL     1     -38.974   8.351  76.243  1.00  0.00     0.016 A 
ATOM     15  C   UNL     1     -40.021   9.054  75.640  1.00  0.00     0.051 A 
ATOM     16  C   UNL     1     -41.188   9.336  76.357  1.00  0.00     0.157 A 
ATOM     17  C   UNL     1     -40.250   8.217  78.299  1.00  0.00     0.062 A 
ATOM     18  C   UNL     1     -41.304   8.917  77.693  1.00  0.00     0.158 A 
BRANCH  16  19
ATOM     19  O   UNL     1     -42.218  10.034  75.727  1.00  0.00    -0.504 OA
ATOM     20  H   UNL     1     -43.142  10.113  76.134  1.00  0.00     0.293 HD
ENDBRANCH  16  19
BRANCH  18  21
ATOM     21  O   UNL     1     -42.464   9.199  78.414  1.00  0.00    -0.504 OA
ATOM     22  H   UNL     1     -42.482   9.163  79.427  1.00  0.00     0.293 HD
ENDBRANCH  18  21
ENDBRANCH   3  13
BRANCH  10  23
ATOM     23  O   UNL     1     -34.669   4.071  80.525  1.00  0.00    -0.507 OA
ATOM     24  H   UNL     1     -34.191   3.897  81.402  1.00  0.00     0.293 HD
ENDBRANCH  10  23
BRANCH  11  25
ATOM     25  O   UNL     1     -32.087   7.899  79.073  1.00  0.00    -0.508 OA
ATOM     26  H   UNL     1     -31.220   7.459  79.358  1.00  0.00     0.293 HD
ENDBRANCH  11  25
ENDBRANCH   1   2
BRANCH   1  27
ATOM     27  C   UNL     1     -39.639   3.971  78.974  1.00  0.00     0.339 C 
ATOM     28  C   UNL     1     -40.837   3.615  78.067  1.00  0.00     0.214 C 
ATOM     29  O   UNL     1     -39.809   3.470  80.292  1.00  0.00    -0.332 OA
ATOM     30  C   UNL     1     -42.158   4.093  78.696  1.00  0.00     0.180 C 
ATOM     31  C   UNL     1     -40.952   4.025  80.926  1.00  0.00     0.179 C 
ATOM     32  C   UNL     1     -42.252   3.641  80.168  1.00  0.00     0.177 C 
BRANCH  28  33
ATOM     33  O   UNL     1     -40.873   2.235  77.784  1.00  0.00    -0.384 OA
ATOM     34  H   UNL     1     -40.244   2.054  77.037  1.00  0.00     0.211 HD
ENDBRANCH  28  33
BRANCH  30  35
ATOM     35  O   UNL     1     -43.242   3.593  77.958  1.00  0.00    -0.387 OA
ATOM     36  H   UNL     1     -43.414   2.672  78.287  1.00  0.00     0.211 HD
ENDBRANCH  30  35
BRANCH  31  37
ATOM     37  C   UNL     1     -40.989   3.535  82.383  1.00  0.00     0.191 C 
BRANCH  37  38
ATOM     38  O   UNL     1     -41.703   2.334  82.498  1.00  0.00    -0.394 OA
ATOM     39  H   UNL     1     -42.413   2.353  81.805  1.00  0.00     0.210 HD
ENDBRANCH  37  38
ENDBRANCH  31  37
BRANCH  32  40
ATOM     40  O   UNL     1     -43.389   4.199  80.784  1.00  0.00    -0.387 OA
ATOM     41  H   UNL     1     -43.993   3.452  81.040  1.00  0.00     0.211 HD
ENDBRANCH  32  40
ENDBRANCH   1  27
TORSDOF 12
ENDMDL
MODEL 4
REMARK VINA RESULT:    -6.213      2.371      5.673
REMARK INTER + INTRA:         -10.535
REMARK INTER:                  -9.395
REMARK INTRA:                  -1.140
REMARK UNBOUND:                -1.417
REMARK SMILES O=c1c(O[C@H]2O[C@H](CO)[C@@H](O)[C@H](O)[C@@H]2O)c(-c2ccc(O)c(O)c2)oc2cc(O)cc(O)c12
REMARK SMILES IDX 4 1 3 2 16 3 25 4 2 5 26 6 1 7 33 8 27 9 31 10 28 11 30 12
REMARK SMILES IDX 17 13 18 14 19 15 20 16 24 17 22 18 21 19 23 21 32 23 29 25
REMARK SMILES IDX 5 27 14 28 6 29 12 30 7 31 10 32 15 33 13 35 8 37 9 38 11 40
REMARK H PARENT 21 20 23 22 32 24 29 26 15 34 13 36 9 39 11 41
REMARK Flexibility Score: inf
ROOT
ATOM      1  O   UNL     1     -38.705   5.449  80.717  1.00  0.00    -0.454 OA
ENDROOT
BRANCH   1   2
ATOM      2  C   UNL     1     -37.468   6.078  80.886  1.00  0.00     0.214 A 
ATOM      3  C   UNL     1     -37.046   7.105  80.019  1.00  0.00     0.180 A 
ATOM      4  O   UNL     1     -35.900   7.738  80.253  1.00  0.00    -0.452 OA
ATOM      5  C   UNL     1     -36.637   5.701  81.947  1.00  0.00     0.239 A 
ATOM      6  C   UNL     1     -35.090   7.428  81.259  1.00  0.00     0.146 A 
ATOM      7  O   UNL     1     -37.000   4.765  82.708  1.00  0.00    -0.285 OA
ATOM      8  C   UNL     1     -35.420   6.383  82.155  1.00  0.00     0.111 A 
ATOM      9  C   UNL     1     -33.899   8.143  81.420  1.00  0.00     0.094 A 
ATOM     10  C   UNL     1     -34.531   6.073  83.211  1.00  0.00     0.134 A 
ATOM     11  C   UNL     1     -33.022   7.829  82.459  1.00  0.00     0.123 A 
ATOM     12  C   UNL     1     -33.337   6.796  83.350  1.00  0.00     0.093 A 
BRANCH   3  13
ATOM     13  C   UNL     1     -37.838   7.502  78.837  1.00  0.00     0.025 A 
ATOM     14  C   UNL     1     -37.699   6.822  77.615  1.00  0.00     0.016 A 
ATOM     15  C   UNL     1     -38.431   7.226  76.495  1.00  0.00     0.051 A 
ATOM     16  C   UNL     1     -39.302   8.317  76.577  1.00  0.00     0.157 A 
ATOM     17  C   UNL     1     -38.697   8.609  78.912  1.00  0.00     0.062 A 
ATOM     18  C   UNL     1     -39.437   9.013  77.790  1.00  0.00     0.158 A 
BRANCH  16  19
ATOM     19  O   UNL     1     -40.024   8.693  75.444  1.00  0.00    -0.504 OA
ATOM     20  H   UNL     1     -40.326   9.648  75.291  1.00  0.00     0.293 HD
ENDBRANCH  16  19
BRANCH  18  21
ATOM     21  O   UNL     1     -40.302  10.104  77.876  1.00  0.00    -0.504 OA
ATOM     22  H   UNL     1     -40.275  10.858  77.200  1.00  0.00     0.293 HD
ENDBRANCH  18  21
ENDBRANCH   3  13
BRANCH  10  23
ATOM     23  O   UNL     1     -34.825   5.058  84.122  1.00  0.00    -0.507 OA
ATOM     24  H   UNL     1     -34.171   4.786  84.849  1.00  0.00     0.293 HD
ENDBRANCH  10  23
BRANCH  11  25
ATOM     25  O   UNL     1     -31.839   8.550  82.599  1.00  0.00    -0.508 OA
ATOM     26  H   UNL     1     -31.615   9.038  83.459  1.00  0.00     0.293 HD
ENDBRANCH  11  25
ENDBRANCH   1   2
BRANCH   1  27
ATOM     27  C   UNL     1     -38.824   4.031  80.565  1.00  0.00     0.339 C 
ATOM     28  C   UNL     1     -38.877   3.660  79.067  1.00  0.00     0.214 C 
ATOM     29  O   UNL     1     -39.954   3.538  81.270  1.00  0.00    -0.332 OA
ATOM     30  C   UNL     1     -40.198   4.131  78.435  1.00  0.00     0.180 C 
ATOM     31  C   UNL     1     -41.167   4.088  80.778  1.00  0.00     0.179 C 
ATOM     32  C   UNL     1     -41.399   3.688  79.295  1.00  0.00     0.177 C 
BRANCH  28  33
ATOM     33  O   UNL     1     -38.680   2.278  78.875  1.00  0.00    -0.384 OA
ATOM     34  H   UNL     1     -38.048   2.156  78.118  1.00  0.00     0.211 HD
ENDBRANCH  28  33
BRANCH  30  35
ATOM     35  O   UNL     1     -40.310   3.618  77.133  1.00  0.00    -0.387 OA
ATOM     36  H   UNL     1     -40.671   4.349  76.566  1.00  0.00     0.211 HD
ENDBRANCH  30  35
BRANCH  31  37
ATOM     37  C   UNL     1     -42.320   3.607  81.674  1.00  0.00     0.191 C 
BRANCH  37  38
ATOM     38  O   UNL     1     -43.531   4.220  81.318  1.00  0.00    -0.394 OA
ATOM     39  H   UNL     1     -43.379   5.200  81.357  1.00  0.00     0.210 HD
ENDBRANCH  37  38
ENDBRANCH  31  37
BRANCH  32  40
ATOM     40  O   UNL     1     -42.594   4.241  78.796  1.00  0.00    -0.387 OA
ATOM     41  H   UNL     1     -42.825   5.025  79.362  1.00  0.00     0.211 HD
ENDBRANCH  32  40
ENDBRANCH   1  27
TORSDOF 12
ENDMDL
MODEL 5
REMARK VINA RESULT:    -6.007      2.160      6.245
REMARK INTER + INTRA:         -10.233
REMARK INTER:                  -9.744
REMARK INTRA:                  -0.490
REMARK UNBOUND:                -1.417
REMARK SMILES O=c1c(O[C@H]2O[C@H](CO)[C@@H](O)[C@H](O)[C@@H]2O)c(-c2ccc(O)c(O)c2)oc2cc(O)cc(O)c12
REMARK SMILES IDX 4 1 3 2 16 3 25 4 2 5 26 6 1 7 33 8 27 9 31 10 28 11 30 12
REMARK SMILES IDX 17 13 18 14 19 15 20 16 24 17 22 18 21 19 23 21 32 23 29 25
REMARK SMILES IDX 5 27 14 28 6 29 12 30 7 31 10 32 15 33 13 35 8 37 9 38 11 40
REMARK H PARENT 21 20 23 22 32 24 29 26 15 34 13 36 9 39 11 41
REMARK Flexibility Score: inf
ROOT
ATOM      1  O   UNL     1     -38.715   7.254  78.702  1.00  0.00    -0.454 OA
ENDROOT
BRANCH   1   2
ATOM      2  C   UNL     1     -37.923   6.435  79.513  1.00  0.00     0.214 A 
ATOM      3  C   UNL     1     -38.316   5.121  79.832  1.00  0.00     0.180 A 
ATOM      4  O   UNL     1     -37.505   4.341  80.540  1.00  0.00    -0.452 OA
ATOM      5  C   UNL     1     -36.704   6.917  80.005  1.00  0.00     0.239 A 
ATOM      6  C   UNL     1     -36.331   4.749  81.009  1.00  0.00     0.146 A 
ATOM      7  O   UNL     1     -36.361   8.101  79.744  1.00  0.00    -0.285 OA
ATOM      8  C   UNL     1     -35.876   6.067  80.768  1.00  0.00     0.111 A 
ATOM      9  C   UNL     1     -35.550   3.859  81.753  1.00  0.00     0.094 A 
ATOM     10  C   UNL     1     -34.624   6.471  81.289  1.00  0.00     0.134 A 
ATOM     11  C   UNL     1     -34.319   4.265  82.272  1.00  0.00     0.123 A 
ATOM     12  C   UNL     1     -33.859   5.567  82.040  1.00  0.00     0.093 A 
BRANCH   3  13
ATOM     13  C   UNL     1     -39.622   4.575  79.409  1.00  0.00     0.025 A 
ATOM     14  C   UNL     1     -39.808   4.078  78.107  1.00  0.00     0.016 A 
ATOM     15  C   UNL     1     -41.056   3.592  77.709  1.00  0.00     0.051 A 
ATOM     16  C   UNL     1     -42.136   3.605  78.598  1.00  0.00     0.157 A 
ATOM     17  C   UNL     1     -40.711   4.607  80.293  1.00  0.00     0.062 A 
ATOM     18  C   UNL     1     -41.964   4.115  79.896  1.00  0.00     0.158 A 
BRANCH  16  19
ATOM     19  O   UNL     1     -43.368   3.108  78.174  1.00  0.00    -0.504 OA
ATOM     20  H   UNL     1     -43.706   3.242  77.228  1.00  0.00     0.293 HD
ENDBRANCH  16  19
BRANCH  18  21
ATOM     21  O   UNL     1     -43.038   4.133  80.786  1.00  0.00    -0.504 OA
ATOM     22  H   UNL     1     -43.788   4.809  80.700  1.00  0.00     0.293 HD
ENDBRANCH  18  21
ENDBRANCH   3  13
BRANCH  10  23
ATOM     23  O   UNL     1     -34.134   7.758  81.063  1.00  0.00    -0.507 OA
ATOM     24  H   UNL     1     -34.519   8.358  80.342  1.00  0.00     0.293 HD
ENDBRANCH  10  23
BRANCH  11  25
ATOM     25  O   UNL     1     -33.557   3.366  83.015  1.00  0.00    -0.508 OA
ATOM     26  H   UNL     1     -32.968   2.675  82.565  1.00  0.00     0.293 HD
ENDBRANCH  11  25
ENDBRANCH   1   2
BRANCH   1  27
ATOM     27  C   UNL     1     -38.959   8.629  79.015  1.00  0.00     0.339 C 
ATOM     28  C   UNL     1     -40.468   8.860  79.249  1.00  0.00     0.214 C 
ATOM     29  O   UNL     1     -38.447   9.480  78.000  1.00  0.00    -0.332 OA
ATOM     30  C   UNL     1     -41.251   8.718  77.931  1.00  0.00     0.180 C 
ATOM     31  C   UNL     1     -39.072   9.245  76.747  1.00  0.00     0.179 C 
ATOM     32  C   UNL     1     -40.593   9.555  76.816  1.00  0.00     0.177 C 
BRANCH  28  33
ATOM     33  O   UNL     1     -40.707  10.109  79.855  1.00  0.00    -0.384 OA
ATOM     34  H   UNL     1     -41.337   9.971  80.611  1.00  0.00     0.211 HD
ENDBRANCH  28  33
BRANCH  30  35
ATOM     35  O   UNL     1     -42.583   9.119  78.127  1.00  0.00    -0.387 OA
ATOM     36  H   UNL     1     -42.665   9.386  79.080  1.00  0.00     0.211 HD
ENDBRANCH  30  35
BRANCH  31  37
ATOM     37  C   UNL     1     -38.374  10.108  75.683  1.00  0.00     0.191 C 
BRANCH  37  38
ATOM     38  O   UNL     1     -36.984  10.125  75.873  1.00  0.00    -0.394 OA
ATOM     39  H   UNL     1     -36.623  10.841  75.289  1.00  0.00     0.210 HD
ENDBRANCH  37  38
ENDBRANCH  31  37
BRANCH  32  40
ATOM     40  O   UNL     1     -41.222   9.312  75.580  1.00  0.00    -0.387 OA
ATOM     41  H   UNL     1     -40.525   9.011  74.939  1.00  0.00     0.211 HD
ENDBRANCH  32  40
ENDBRANCH   1  27
TORSDOF 12
ENDMDL
MODEL 6
REMARK VINA RESULT:    -5.956      2.123      6.778
REMARK INTER + INTRA:         -10.159
REMARK INTER:                  -9.010
REMARK INTRA:                  -1.149
REMARK UNBOUND:                -1.417
REMARK SMILES O=c1c(O[C@H]2O[C@H](CO)[C@@H](O)[C@H](O)[C@@H]2O)c(-c2ccc(O)c(O)c2)oc2cc(O)cc(O)c12
REMARK SMILES IDX 4 1 3 2 16 3 25 4 2 5 26 6 1 7 33 8 27 9 31 10 28 11 30 12
REMARK SMILES IDX 17 13 18 14 19 15 20 16 24 17 22 18 21 19 23 21 32 23 29 25
REMARK SMILES IDX 5 27 14 28 6 29 12 30 7 31 10 32 15 33 13 35 8 37 9 38 11 40
REMARK H PARENT 21 20 23 22 32 24 29 26 15 34 13 36 9 39 11 41
REMARK Flexibility Score: inf
ROOT
ATOM      1  O   UNL     1     -36.687   6.360  79.153  1.00  0.00    -0.454 OA
ENDROOT
BRANCH   1   2
ATOM      2  C   UNL     1     -37.766   5.746  79.795  1.00  0.00     0.214 A 
ATOM      3  C   UNL     1     -39.091   5.967  79.371  1.00  0.00     0.180 A 
ATOM      4  O   UNL     1     -40.090   5.307  79.951  1.00  0.00    -0.452 OA
ATOM      5  C   UNL     1     -37.533   4.875  80.866  1.00  0.00     0.239 A 
ATOM      6  C   UNL     1     -39.913   4.456  80.955  1.00  0.00     0.146 A 
ATOM      7  O   UNL     1     -36.351   4.695  81.264  1.00  0.00    -0.285 OA
ATOM      8  C   UNL     1     -38.617   4.204  81.468  1.00  0.00     0.111 A 
ATOM      9  C   UNL     1     -41.026   3.815  81.509  1.00  0.00     0.094 A 
ATOM     10  C   UNL     1     -38.466   3.299  82.544  1.00  0.00     0.134 A 
ATOM     11  C   UNL     1     -40.871   2.928  82.576  1.00  0.00     0.123 A 
ATOM     12  C   UNL     1     -39.595   2.672  83.091  1.00  0.00     0.093 A 
BRANCH   3  13
ATOM     13  C   UNL     1     -39.415   6.929  78.298  1.00  0.00     0.025 A 
ATOM     14  C   UNL     1     -38.916   6.751  76.996  1.00  0.00     0.016 A 
ATOM     15  C   UNL     1     -39.203   7.684  75.996  1.00  0.00     0.051 A 
ATOM     16  C   UNL     1     -39.984   8.808  76.282  1.00  0.00     0.157 A 
ATOM     17  C   UNL     1     -40.180   8.068  78.588  1.00  0.00     0.062 A 
ATOM     18  C   UNL     1     -40.475   9.003  77.585  1.00  0.00     0.158 A 
BRANCH  16  19
ATOM     19  O   UNL     1     -40.259   9.719  75.263  1.00  0.00    -0.504 OA
ATOM     20  H   UNL     1     -39.790   9.681  74.365  1.00  0.00     0.293 HD
ENDBRANCH  16  19
BRANCH  18  21
ATOM     21  O   UNL     1     -41.250  10.125  77.877  1.00  0.00    -0.504 OA
ATOM     22  H   UNL     1     -41.061  11.027  77.455  1.00  0.00     0.293 HD
ENDBRANCH  18  21
ENDBRANCH   3  13
BRANCH  10  23
ATOM     23  O   UNL     1     -37.205   3.014  83.070  1.00  0.00    -0.507 OA
ATOM     24  H   UNL     1     -36.352   3.254  82.576  1.00  0.00     0.293 HD
ENDBRANCH  10  23
BRANCH  11  25
ATOM     25  O   UNL     1     -41.993   2.303  83.115  1.00  0.00    -0.508 OA
ATOM     26  H   UNL     1     -42.367   2.575  84.016  1.00  0.00     0.293 HD
ENDBRANCH  11  25
ENDBRANCH   1   2
BRANCH   1  27
ATOM     27  C   UNL     1     -36.377   7.745  79.340  1.00  0.00     0.339 C 
ATOM     28  C   UNL     1     -35.786   8.337  78.042  1.00  0.00     0.214 C 
ATOM     29  O   UNL     1     -35.505   7.926  80.446  1.00  0.00    -0.332 OA
ATOM     30  C   UNL     1     -34.386   7.760  77.769  1.00  0.00     0.180 C 
ATOM     31  C   UNL     1     -34.262   7.268  80.253  1.00  0.00     0.179 C 
ATOM     32  C   UNL     1     -33.505   7.856  79.031  1.00  0.00     0.177 C 
BRANCH  28  33
ATOM     33  O   UNL     1     -35.762   9.745  78.086  1.00  0.00    -0.384 OA
ATOM     34  H   UNL     1     -36.663  10.063  78.359  1.00  0.00     0.211 HD
ENDBRANCH  28  33
BRANCH  30  35
ATOM     35  O   UNL     1     -33.790   8.449  76.700  1.00  0.00    -0.387 OA
ATOM     36  H   UNL     1     -34.418   8.386  75.933  1.00  0.00     0.211 HD
ENDBRANCH  30  35
BRANCH  31  37
ATOM     37  C   UNL     1     -33.433   7.402  81.542  1.00  0.00     0.191 C 
BRANCH  37  38
ATOM     38  O   UNL     1     -32.643   8.561  81.521  1.00  0.00    -0.394 OA
ATOM     39  H   UNL     1     -32.448   8.759  80.568  1.00  0.00     0.210 HD
ENDBRANCH  37  38
ENDBRANCH  31  37
BRANCH  32  40
ATOM     40  O   UNL     1     -32.276   7.200  78.826  1.00  0.00    -0.387 OA
ATOM     41  H   UNL     1     -31.692   7.807  78.297  1.00  0.00     0.211 HD
ENDBRANCH  32  40
ENDBRANCH   1  27
TORSDOF 12
ENDMDL
MODEL 7
REMARK VINA RESULT:    -5.924      2.237      5.191
REMARK INTER + INTRA:         -10.112
REMARK INTER:                  -9.224
REMARK INTRA:                  -0.888
REMARK UNBOUND:                -1.417
REMARK SMILES O=c1c(O[C@H]2O[C@H](CO)[C@@H](O)[C@H](O)[C@@H]2O)c(-c2ccc(O)c(O)c2)oc2cc(O)cc(O)c12
REMARK SMILES IDX 4 1 3 2 16 3 25 4 2 5 26 6 1 7 33 8 27 9 31 10 28 11 30 12
REMARK SMILES IDX 17 13 18 14 19 15 20 16 24 17 22 18 21 19 23 21 32 23 29 25
REMARK SMILES IDX 5 27 14 28 6 29 12 30 7 31 10 32 15 33 13 35 8 37 9 38 11 40
REMARK H PARENT 21 20 23 22 32 24 29 26 15 34 13 36 9 39 11 41
REMARK Flexibility Score: inf
ROOT
ATOM      1  O   UNL     1     -37.725   4.818  78.784  1.00  0.00    -0.454 OA
ENDROOT
BRANCH   1   2
ATOM      2  C   UNL     1     -36.759   5.555  79.475  1.00  0.00     0.214 A 
ATOM      3  C   UNL     1     -36.719   5.571  80.883  1.00  0.00     0.180 A 
ATOM      4  O   UNL     1     -35.740   6.218  81.510  1.00  0.00    -0.452 OA
ATOM      5  C   UNL     1     -35.794   6.276  78.761  1.00  0.00     0.239 A 
ATOM      6  C   UNL     1     -34.793   6.897  80.872  1.00  0.00     0.146 A 
ATOM      7  O   UNL     1     -35.843   6.285  77.502  1.00  0.00    -0.285 OA
ATOM      8  C   UNL     1     -34.781   6.965  79.459  1.00  0.00     0.111 A 
ATOM      9  C   UNL     1     -33.809   7.554  81.618  1.00  0.00     0.094 A 
ATOM     10  C   UNL     1     -33.762   7.704  78.813  1.00  0.00     0.134 A 
ATOM     11  C   UNL     1     -32.811   8.289  80.975  1.00  0.00     0.123 A 
ATOM     12  C   UNL     1     -32.789   8.364  79.578  1.00  0.00     0.093 A 
BRANCH   3  13
ATOM     13  C   UNL     1     -37.748   4.895  81.699  1.00  0.00     0.025 A 
ATOM     14  C   UNL     1     -38.665   5.637  82.463  1.00  0.00     0.016 A 
ATOM     15  C   UNL     1     -39.614   4.986  83.255  1.00  0.00     0.051 A 
ATOM     16  C   UNL     1     -39.656   3.589  83.303  1.00  0.00     0.157 A 
ATOM     17  C   UNL     1     -37.778   3.494  81.764  1.00  0.00     0.062 A 
ATOM     18  C   UNL     1     -38.733   2.838  82.555  1.00  0.00     0.158 A 
BRANCH  16  19
ATOM     19  O   UNL     1     -40.618   2.967  84.098  1.00  0.00    -0.504 OA
ATOM     20  H   UNL     1     -41.398   3.476  84.497  1.00  0.00     0.293 HD
ENDBRANCH  16  19
BRANCH  18  21
ATOM     21  O   UNL     1     -38.768   1.444  82.601  1.00  0.00    -0.504 OA
ATOM     22  H   UNL     1     -39.100   0.894  81.818  1.00  0.00     0.293 HD
ENDBRANCH  18  21
ENDBRANCH   3  13
BRANCH  10  23
ATOM     23  O   UNL     1     -33.707   7.785  77.421  1.00  0.00    -0.507 OA
ATOM     24  H   UNL     1     -33.106   8.451  76.947  1.00  0.00     0.293 HD
ENDBRANCH  10  23
BRANCH  11  25
ATOM     25  O   UNL     1     -31.842   8.940  81.736  1.00  0.00    -0.508 OA
ATOM     26  H   UNL     1     -31.478   8.533  82.588  1.00  0.00     0.293 HD
ENDBRANCH  11  25
ENDBRANCH   1   2
BRANCH   1  27
ATOM     27  C   UNL     1     -38.565   5.409  77.787  1.00  0.00     0.339 C 
ATOM     28  C   UNL     1     -39.216   6.697  78.336  1.00  0.00     0.214 C 
ATOM     29  O   UNL     1     -39.537   4.481  77.328  1.00  0.00    -0.332 OA
ATOM     30  C   UNL     1     -40.250   6.363  79.426  1.00  0.00     0.180 C 
ATOM     31  C   UNL     1     -40.403   4.062  78.372  1.00  0.00     0.179 C 
ATOM     32  C   UNL     1     -41.212   5.260  78.940  1.00  0.00     0.177 C 
BRANCH  28  33
ATOM     33  O   UNL     1     -39.790   7.462  77.302  1.00  0.00    -0.384 OA
ATOM     34  H   UNL     1     -39.344   7.216  76.449  1.00  0.00     0.211 HD
ENDBRANCH  28  33
BRANCH  30  35
ATOM     35  O   UNL     1     -40.964   7.521  79.772  1.00  0.00    -0.387 OA
ATOM     36  H   UNL     1     -40.666   7.780  80.684  1.00  0.00     0.211 HD
ENDBRANCH  30  35
BRANCH  31  37
ATOM     37  C   UNL     1     -41.335   2.968  77.824  1.00  0.00     0.191 C 
BRANCH  37  38
ATOM     38  O   UNL     1     -42.021   2.318  78.860  1.00  0.00    -0.394 OA
ATOM     39  H   UNL     1     -41.650   1.399  78.918  1.00  0.00     0.210 HD
ENDBRANCH  37  38
ENDBRANCH  31  37
BRANCH  32  40
ATOM     40  O   UNL     1     -42.064   4.853  79.985  1.00  0.00    -0.387 OA
ATOM     41  H   UNL     1     -41.496   4.613  80.765  1.00  0.00     0.211 HD
ENDBRANCH  32  40
ENDBRANCH   1  27
TORSDOF 12
ENDMDL
MODEL 8
REMARK VINA RESULT:    -5.907      1.488      2.528
REMARK INTER + INTRA:         -10.086
REMARK INTER:                  -9.713
REMARK INTRA:                  -0.373
REMARK UNBOUND:                -1.417
REMARK SMILES O=c1c(O[C@H]2O[C@H](CO)[C@@H](O)[C@H](O)[C@@H]2O)c(-c2ccc(O)c(O)c2)oc2cc(O)cc(O)c12
REMARK SMILES IDX 4 1 3 2 16 3 25 4 2 5 26 6 1 7 33 8 27 9 31 10 28 11 30 12
REMARK SMILES IDX 17 13 18 14 19 15 20 16 24 17 22 18 21 19 23 21 32 23 29 25
REMARK SMILES IDX 5 27 14 28 6 29 12 30 7 31 10 32 15 33 13 35 8 37 9 38 11 40
REMARK H PARENT 21 20 23 22 32 24 29 26 15 34 13 36 9 39 11 41
REMARK Flexibility Score: inf
ROOT
ATOM      1  O   UNL     1     -37.902   3.372  80.613  1.00  0.00    -0.454 OA
ENDROOT
BRANCH   1   2
ATOM      2  C   UNL     1     -37.685   4.489  79.801  1.00  0.00     0.214 A 
ATOM      3  C   UNL     1     -38.722   5.041  79.024  1.00  0.00     0.180 A 
ATOM      4  O   UNL     1     -38.505   6.150  78.323  1.00  0.00    -0.452 OA
ATOM      5  C   UNL     1     -36.421   5.090  79.771  1.00  0.00     0.239 A 
ATOM      6  C   UNL     1     -37.328   6.765  78.282  1.00  0.00     0.146 A 
ATOM      7  O   UNL     1     -35.484   4.583  80.445  1.00  0.00    -0.285 OA
ATOM      8  C   UNL     1     -36.221   6.256  79.003  1.00  0.00     0.111 A 
ATOM      9  C   UNL     1     -37.192   7.922  77.508  1.00  0.00     0.094 A 
ATOM     10  C   UNL     1     -34.980   6.931  78.930  1.00  0.00     0.134 A 
ATOM     11  C   UNL     1     -35.963   8.580  77.434  1.00  0.00     0.123 A 
ATOM     12  C   UNL     1     -34.861   8.085  78.142  1.00  0.00     0.093 A 
BRANCH   3  13
ATOM     13  C   UNL     1     -40.058   4.415  78.951  1.00  0.00     0.025 A 
ATOM     14  C   UNL     1     -40.442   3.665  77.826  1.00  0.00     0.016 A 
ATOM     15  C   UNL     1     -41.719   3.104  77.755  1.00  0.00     0.051 A 
ATOM     16  C   UNL     1     -42.633   3.290  78.797  1.00  0.00     0.157 A 
ATOM     17  C   UNL     1     -40.982   4.620  79.986  1.00  0.00     0.062 A 
ATOM     18  C   UNL     1     -42.264   4.053  79.919  1.00  0.00     0.158 A 
BRANCH  16  19
ATOM     19  O   UNL     1     -43.898   2.713  78.700  1.00  0.00    -0.504 OA
ATOM     20  H   UNL     1     -44.082   1.764  79.003  1.00  0.00     0.293 HD
ENDBRANCH  16  19
BRANCH  18  21
ATOM     21  O   UNL     1     -43.172   4.246  80.960  1.00  0.00    -0.504 OA
ATOM     22  H   UNL     1     -43.105   5.042  81.583  1.00  0.00     0.293 HD
ENDBRANCH  18  21
ENDBRANCH   3  13
BRANCH  10  23
ATOM     23  O   UNL     1     -33.869   6.468  79.635  1.00  0.00    -0.507 OA
ATOM     24  H   UNL     1     -33.614   6.848  80.541  1.00  0.00     0.293 HD
ENDBRANCH  10  23
BRANCH  11  25
ATOM     25  O   UNL     1     -35.846   9.729  76.654  1.00  0.00    -0.508 OA
ATOM     26  H   UNL     1     -35.142   9.808  75.931  1.00  0.00     0.293 HD
ENDBRANCH  11  25
ENDBRANCH   1   2
BRANCH   1  27
ATOM     27  C   UNL     1     -37.513   3.344  81.991  1.00  0.00     0.339 C 
ATOM     28  C   UNL     1     -38.310   2.258  82.745  1.00  0.00     0.214 C 
ATOM     29  O   UNL     1     -37.668   4.623  82.588  1.00  0.00    -0.332 OA
ATOM     30  C   UNL     1     -39.791   2.657  82.870  1.00  0.00     0.180 C 
ATOM     31  C   UNL     1     -39.021   5.054  82.571  1.00  0.00     0.179 C 
ATOM     32  C   UNL     1     -39.921   4.099  83.401  1.00  0.00     0.177 C 
BRANCH  28  33
ATOM     33  O   UNL     1     -37.743   1.990  84.007  1.00  0.00    -0.384 OA
ATOM     34  H   UNL     1     -38.327   2.394  84.702  1.00  0.00     0.211 HD
ENDBRANCH  28  33
BRANCH  30  35
ATOM     35  O   UNL     1     -40.454   1.758  83.720  1.00  0.00    -0.387 OA
ATOM     36  H   UNL     1     -40.809   1.029  83.147  1.00  0.00     0.211 HD
ENDBRANCH  30  35
BRANCH  31  37
ATOM     37  C   UNL     1     -39.081   6.492  83.113  1.00  0.00     0.191 C 
BRANCH  37  38
ATOM     38  O   UNL     1     -38.994   7.432  82.076  1.00  0.00    -0.394 OA
ATOM     39  H   UNL     1     -38.244   7.147  81.492  1.00  0.00     0.210 HD
ENDBRANCH  37  38
ENDBRANCH  31  37
BRANCH  32  40
ATOM     40  O   UNL     1     -41.267   4.514  83.378  1.00  0.00    -0.387 OA
ATOM     41  H   UNL     1     -41.497   4.744  82.439  1.00  0.00     0.211 HD
ENDBRANCH  32  40
ENDBRANCH   1  27
TORSDOF 12
ENDMDL
MODEL 9
REMARK VINA RESULT:    -5.902      2.062      7.964
REMARK INTER + INTRA:         -10.079
REMARK INTER:                  -8.313
REMARK INTRA:                  -1.766
REMARK UNBOUND:                -1.417
REMARK SMILES O=c1c(O[C@H]2O[C@H](CO)[C@@H](O)[C@H](O)[C@@H]2O)c(-c2ccc(O)c(O)c2)oc2cc(O)cc(O)c12
REMARK SMILES IDX 4 1 3 2 16 3 25 4 2 5 26 6 1 7 33 8 27 9 31 10 28 11 30 12
REMARK SMILES IDX 17 13 18 14 19 15 20 16 24 17 22 18 21 19 23 21 32 23 29 25
REMARK SMILES IDX 5 27 14 28 6 29 12 30 7 31 10 32 15 33 13 35 8 37 9 38 11 40
REMARK H PARENT 21 20 23 22 32 24 29 26 15 34 13 36 9 39 11 41
REMARK Flexibility Score: inf
ROOT
ATOM      1  O   UNL     1     -38.927   6.659  78.788  1.00  0.00    -0.454 OA
ENDROOT
BRANCH   1   2
ATOM      2  C   UNL     1     -38.873   5.620  79.721  1.00  0.00     0.214 A 
ATOM      3  C   UNL     1     -37.645   5.166  80.240  1.00  0.00     0.180 A 
ATOM      4  O   UNL     1     -37.631   4.230  81.185  1.00  0.00    -0.452 OA
ATOM      5  C   UNL     1     -40.060   5.028  80.170  1.00  0.00     0.239 A 
ATOM      6  C   UNL     1     -38.733   3.656  81.655  1.00  0.00     0.146 A 
ATOM      7  O   UNL     1     -41.158   5.413  79.689  1.00  0.00    -0.285 OA
ATOM      8  C   UNL     1     -40.007   4.025  81.161  1.00  0.00     0.111 A 
ATOM      9  C   UNL     1     -38.620   2.672  82.643  1.00  0.00     0.094 A 
ATOM     10  C   UNL     1     -41.159   3.388  81.678  1.00  0.00     0.134 A 
ATOM     11  C   UNL     1     -39.759   2.041  83.144  1.00  0.00     0.123 A 
ATOM     12  C   UNL     1     -41.024   2.398  82.662  1.00  0.00     0.093 A 
BRANCH   3  13
ATOM     13  C   UNL     1     -36.353   5.694  79.757  1.00  0.00     0.025 A 
ATOM     14  C   UNL     1     -35.791   5.233  78.553  1.00  0.00     0.016 A 
ATOM     15  C   UNL     1     -34.553   5.717  78.122  1.00  0.00     0.051 A 
ATOM     16  C   UNL     1     -33.856   6.657  78.887  1.00  0.00     0.157 A 
ATOM     17  C   UNL     1     -35.642   6.621  80.534  1.00  0.00     0.062 A 
ATOM     18  C   UNL     1     -34.402   7.112  80.100  1.00  0.00     0.158 A 
BRANCH  16  19
ATOM     19  O   UNL     1     -32.626   7.126  78.428  1.00  0.00    -0.504 OA
ATOM     20  H   UNL     1     -31.781   7.056  78.983  1.00  0.00     0.293 HD
ENDBRANCH  16  19
BRANCH  18  21
ATOM     21  O   UNL     1     -33.709   8.046  80.869  1.00  0.00    -0.504 OA
ATOM     22  H   UNL     1     -33.334   7.811  81.781  1.00  0.00     0.293 HD
ENDBRANCH  18  21
ENDBRANCH   3  13
BRANCH  10  23
ATOM     23  O   UNL     1     -42.434   3.732  81.226  1.00  0.00    -0.507 OA
ATOM     24  H   UNL     1     -42.582   4.491  80.571  1.00  0.00     0.293 HD
ENDBRANCH  10  23
BRANCH  11  25
ATOM     25  O   UNL     1     -39.624   1.061  84.125  1.00  0.00    -0.508 OA
ATOM     26  H   UNL     1     -40.236   0.254  84.154  1.00  0.00     0.293 HD
ENDBRANCH  11  25
ENDBRANCH   1   2
BRANCH   1  27
ATOM     27  C   UNL     1     -39.225   8.007  79.165  1.00  0.00     0.339 C 
ATOM     28  C   UNL     1     -40.322   8.586  78.245  1.00  0.00     0.214 C 
ATOM     29  O   UNL     1     -38.052   8.808  79.155  1.00  0.00    -0.332 OA
ATOM     30  C   UNL     1     -39.782   8.796  76.819  1.00  0.00     0.180 C 
ATOM     31  C   UNL     1     -37.472   8.881  77.861  1.00  0.00     0.179 C 
ATOM     32  C   UNL     1     -38.442   9.557  76.853  1.00  0.00     0.177 C 
BRANCH  28  33
ATOM     33  O   UNL     1     -40.855   9.779  78.772  1.00  0.00    -0.384 OA
ATOM     34  H   UNL     1     -40.189  10.504  78.637  1.00  0.00     0.211 HD
ENDBRANCH  28  33
BRANCH  30  35
ATOM     35  O   UNL     1     -40.727   9.497  76.054  1.00  0.00    -0.387 OA
ATOM     36  H   UNL     1     -40.230  10.198  75.555  1.00  0.00     0.211 HD
ENDBRANCH  30  35
BRANCH  31  37
ATOM     37  C   UNL     1     -36.146   9.652  77.963  1.00  0.00     0.191 C 
BRANCH  37  38
ATOM     38  O   UNL     1     -35.220   9.201  77.010  1.00  0.00    -0.394 OA
ATOM     39  H   UNL     1     -35.727   8.661  76.350  1.00  0.00     0.210 HD
ENDBRANCH  37  38
ENDBRANCH  31  37
BRANCH  32  40
ATOM     40  O   UNL     1     -37.878   9.622  75.564  1.00  0.00    -0.387 OA
ATOM     41  H   UNL     1     -37.907  10.571  75.268  1.00  0.00     0.211 HD
ENDBRANCH  32  40
ENDBRANCH   1  27
TORSDOF 12
ENDMDL
