MODEL 1
REMARK VINA RESULT:    -4.188      0.000      0.000
REMARK INTER + INTRA:          -7.427
REMARK INTER:                  -6.637
REMARK INTRA:                  -0.790
REMARK UNBOUND:                -0.790
REMARK SMILES CCCCCCCCCCCC(=O)[O-]
REMARK SMILES IDX 7 1 8 2 9 3 10 4 11 5 12 6 13 7 14 8 6 9 5 10 4 11 3 12 2 13
REMARK SMILES IDX 1 14
REMARK H PARENT
REMARK Flexibility Score: inf
ROOT
ATOM      1  C   UNL     1      41.043  23.994 225.001  1.00  0.00     0.000 C 
ENDROOT
BRANCH   1   2
ATOM      2  C   UNL     1      40.816  23.761 223.498  1.00  0.00     0.000 C 
BRANCH   2   3
ATOM      3  C   UNL     1      39.364  24.036 223.071  1.00  0.00     0.000 C 
BRANCH   3   4
ATOM      4  C   UNL     1      38.670  25.069 223.970  1.00  0.00     0.006 C 
BRANCH   4   5
ATOM      5  C   UNL     1      37.188  25.259 223.621  1.00  0.00     0.053 C 
BRANCH   5   6
ATOM      6  C   UNL     1      36.327  24.932 224.801  1.00  0.00     0.041 C 
ATOM      7  O   UNL     1      36.212  23.739 225.189  1.00  0.00    -0.550 OA
ATOM      8  O   UNL     1      35.610  25.935 225.439  1.00  0.00    -0.550 OA
ENDBRANCH   5   6
ENDBRANCH   4   5
ENDBRANCH   3   4
ENDBRANCH   2   3
ENDBRANCH   1   2
BRANCH   1   9
ATOM      9  C   UNL     1      42.301  24.827 225.289  1.00  0.00     0.000 C 
BRANCH   9  10
ATOM     10  C   UNL     1      42.066  25.788 226.460  1.00  0.00    -0.000 C 
BRANCH  10  11
ATOM     11  C   UNL     1      40.574  26.101 226.625  1.00  0.00    -0.000 C 
BRANCH  11  12
ATOM     12  C   UNL     1      40.290  27.588 226.360  1.00  0.00    -0.000 C 
BRANCH  12  13
ATOM     13  C   UNL     1      41.460  28.494 226.776  1.00  0.00    -0.003 C 
ATOM     14  C   UNL     1      41.207  29.968 226.463  1.00  0.00     0.004 C 
ENDBRANCH  12  13
ENDBRANCH  11  12
ENDBRANCH  10  11
ENDBRANCH   9  10
ENDBRANCH   1   9
TORSDOF 10
ENDMDL
MODEL 2
REMARK VINA RESULT:    -4.159      3.321      5.117
REMARK INTER + INTRA:          -7.381
REMARK INTER:                  -5.879
REMARK INTRA:                  -1.502
REMARK UNBOUND:                -0.790
REMARK SMILES CCCCCCCCCCCC(=O)[O-]
REMARK SMILES IDX 7 1 8 2 9 3 10 4 11 5 12 6 13 7 14 8 6 9 5 10 4 11 3 12 2 13
REMARK SMILES IDX 1 14
REMARK H PARENT
REMARK Flexibility Score: inf
ROOT
ATOM      1  C   UNL     1      40.170  23.727 224.256  1.00  0.00     0.000 C 
ENDROOT
BRANCH   1   2
ATOM      2  C   UNL     1      39.394  22.418 224.041  1.00  0.00     0.000 C 
BRANCH   2   3
ATOM      3  C   UNL     1      38.773  21.878 225.341  1.00  0.00     0.000 C 
BRANCH   3   4
ATOM      4  C   UNL     1      37.291  21.506 225.177  1.00  0.00     0.006 C 
BRANCH   4   5
ATOM      5  C   UNL     1      36.741  20.721 226.374  1.00  0.00     0.053 C 
BRANCH   5   6
ATOM      6  C   UNL     1      36.246  19.378 225.936  1.00  0.00     0.041 C 
ATOM      7  O   UNL     1      35.010  19.132 225.923  1.00  0.00    -0.550 OA
ATOM      8  O   UNL     1      37.149  18.382 225.591  1.00  0.00    -0.550 OA
ENDBRANCH   5   6
ENDBRANCH   4   5
ENDBRANCH   3   4
ENDBRANCH   2   3
ENDBRANCH   1   2
BRANCH   1   9
ATOM      9  C   UNL     1      39.612  24.564 225.418  1.00  0.00     0.000 C 
BRANCH   9  10
ATOM     10  C   UNL     1      38.580  25.580 224.915  1.00  0.00    -0.000 C 
BRANCH  10  11
ATOM     11  C   UNL     1      37.222  25.371 225.596  1.00  0.00    -0.000 C 
BRANCH  11  12
ATOM     12  C   UNL     1      36.145  24.990 224.569  1.00  0.00    -0.000 C 
BRANCH  12  13
ATOM     13  C   UNL     1      36.698  24.908 223.137  1.00  0.00    -0.003 C 
ATOM     14  C   UNL     1      36.242  23.650 222.398  1.00  0.00     0.004 C 
ENDBRANCH  12  13
ENDBRANCH  11  12
ENDBRANCH  10  11
ENDBRANCH   9  10
ENDBRANCH   1   9
TORSDOF 10
ENDMDL
MODEL 3
REMARK VINA RESULT:    -4.110      2.603      5.733
REMARK INTER + INTRA:          -7.303
REMARK INTER:                  -6.269
REMARK INTRA:                  -1.034
REMARK UNBOUND:                -0.790
REMARK SMILES CCCCCCCCCCCC(=O)[O-]
REMARK SMILES IDX 7 1 8 2 9 3 10 4 11 5 12 6 13 7 14 8 6 9 5 10 4 11 3 12 2 13
REMARK SMILES IDX 1 14
REMARK H PARENT
REMARK Flexibility Score: inf
ROOT
ATOM      1  C   UNL     1      38.172  25.970 224.401  1.00  0.00     0.000 C 
ENDROOT
BRANCH   1   2
ATOM      2  C   UNL     1      39.121  25.490 225.512  1.00  0.00     0.000 C 
BRANCH   2   3
ATOM      3  C   UNL     1      39.774  24.135 225.188  1.00  0.00     0.000 C 
BRANCH   3   4
ATOM      4  C   UNL     1      39.373  23.034 226.182  1.00  0.00     0.006 C 
BRANCH   4   5
ATOM      5  C   UNL     1      38.703  21.835 225.500  1.00  0.00     0.053 C 
BRANCH   5   6
ATOM      6  C   UNL     1      37.218  22.020 225.456  1.00  0.00     0.041 C 
ATOM      7  O   UNL     1      36.532  21.433 224.578  1.00  0.00    -0.550 OA
ATOM      8  O   UNL     1      36.598  22.880 226.352  1.00  0.00    -0.550 OA
ENDBRANCH   5   6
ENDBRANCH   4   5
ENDBRANCH   3   4
ENDBRANCH   2   3
ENDBRANCH   1   2
BRANCH   1   9
ATOM      9  C   UNL     1      37.925  24.899 223.328  1.00  0.00     0.000 C 
BRANCH   9  10
ATOM     10  C   UNL     1      36.427  24.613 223.173  1.00  0.00    -0.000 C 
BRANCH  10  11
ATOM     11  C   UNL     1      36.118  24.017 221.795  1.00  0.00    -0.000 C 
BRANCH  11  12
ATOM     12  C   UNL     1      37.363  23.347 221.194  1.00  0.00    -0.000 C 
BRANCH  12  13
ATOM     13  C   UNL     1      37.288  23.228 219.663  1.00  0.00    -0.003 C 
ATOM     14  C   UNL     1      36.127  24.022 219.065  1.00  0.00     0.004 C 
ENDBRANCH  12  13
ENDBRANCH  11  12
ENDBRANCH  10  11
ENDBRANCH   9  10
ENDBRANCH   1   9
TORSDOF 10
ENDMDL
MODEL 4
REMARK VINA RESULT:    -4.084      3.724      6.564
REMARK INTER + INTRA:          -7.262
REMARK INTER:                  -6.220
REMARK INTRA:                  -1.042
REMARK UNBOUND:                -0.790
REMARK SMILES CCCCCCCCCCCC(=O)[O-]
REMARK SMILES IDX 7 1 8 2 9 3 10 4 11 5 12 6 13 7 14 8 6 9 5 10 4 11 3 12 2 13
REMARK SMILES IDX 1 14
REMARK H PARENT
REMARK Flexibility Score: inf
ROOT
ATOM      1  C   UNL     1      37.094  25.005 224.277  1.00  0.00     0.000 C 
ENDROOT
BRANCH   1   2
ATOM      2  C   UNL     1      38.536  25.518 224.130  1.00  0.00     0.000 C 
BRANCH   2   3
ATOM      3  C   UNL     1      39.583  24.452 224.496  1.00  0.00     0.000 C 
BRANCH   3   4
ATOM      4  C   UNL     1      40.520  24.118 223.325  1.00  0.00     0.006 C 
BRANCH   4   5
ATOM      5  C   UNL     1      40.531  22.624 222.982  1.00  0.00     0.053 C 
BRANCH   5   6
ATOM      6  C   UNL     1      41.735  21.960 223.574  1.00  0.00     0.041 C 
ATOM      7  O   UNL     1      42.683  21.589 222.832  1.00  0.00    -0.550 OA
ATOM      8  O   UNL     1      41.788  21.703 224.937  1.00  0.00    -0.550 OA
ENDBRANCH   5   6
ENDBRANCH   4   5
ENDBRANCH   3   4
ENDBRANCH   2   3
ENDBRANCH   1   2
BRANCH   1   9
ATOM      9  C   UNL     1      37.003  23.471 224.243  1.00  0.00     0.000 C 
BRANCH   9  10
ATOM     10  C   UNL     1      36.164  22.998 223.050  1.00  0.00    -0.000 C 
BRANCH  10  11
ATOM     11  C   UNL     1      36.332  23.938 221.850  1.00  0.00    -0.000 C 
BRANCH  11  12
ATOM     12  C   UNL     1      37.452  23.448 220.920  1.00  0.00    -0.000 C 
BRANCH  12  13
ATOM     13  C   UNL     1      37.005  23.365 219.452  1.00  0.00    -0.003 C 
ATOM     14  C   UNL     1      35.655  24.037 219.206  1.00  0.00     0.004 C 
ENDBRANCH  12  13
ENDBRANCH  11  12
ENDBRANCH  10  11
ENDBRANCH   9  10
ENDBRANCH   1   9
TORSDOF 10
ENDMDL
MODEL 5
REMARK VINA RESULT:    -4.081      3.303      5.164
REMARK INTER + INTRA:          -7.257
REMARK INTER:                  -5.627
REMARK INTRA:                  -1.630
REMARK UNBOUND:                -0.790
REMARK SMILES CCCCCCCCCCCC(=O)[O-]
REMARK SMILES IDX 7 1 8 2 9 3 10 4 11 5 12 6 13 7 14 8 6 9 5 10 4 11 3 12 2 13
REMARK SMILES IDX 1 14
REMARK H PARENT
REMARK Flexibility Score: inf
ROOT
ATOM      1  C   UNL     1      36.708  25.192 224.610  1.00  0.00     0.000 C 
ENDROOT
BRANCH   1   2
ATOM      2  C   UNL     1      36.918  24.773 226.074  1.00  0.00     0.000 C 
BRANCH   2   3
ATOM      3  C   UNL     1      38.338  24.246 226.341  1.00  0.00     0.000 C 
BRANCH   3   4
ATOM      4  C   UNL     1      38.341  22.816 226.904  1.00  0.00     0.006 C 
BRANCH   4   5
ATOM      5  C   UNL     1      38.168  21.750 225.815  1.00  0.00     0.053 C 
BRANCH   5   6
ATOM      6  C   UNL     1      36.804  21.139 225.894  1.00  0.00     0.041 C 
ATOM      7  O   UNL     1      36.265  20.657 224.863  1.00  0.00    -0.550 OA
ATOM      8  O   UNL     1      36.106  21.147 227.095  1.00  0.00    -0.550 OA
ENDBRANCH   5   6
ENDBRANCH   4   5
ENDBRANCH   3   4
ENDBRANCH   2   3
ENDBRANCH   1   2
BRANCH   1   9
ATOM      9  C   UNL     1      35.948  24.136 223.793  1.00  0.00     0.000 C 
BRANCH   9  10
ATOM     10  C   UNL     1      36.839  23.549 222.692  1.00  0.00    -0.000 C 
BRANCH  10  11
ATOM     11  C   UNL     1      38.198  24.259 222.645  1.00  0.00    -0.000 C 
BRANCH  11  12
ATOM     12  C   UNL     1      39.351  23.247 222.729  1.00  0.00    -0.000 C 
BRANCH  12  13
ATOM     13  C   UNL     1      40.663  23.887 223.206  1.00  0.00    -0.003 C 
ATOM     14  C   UNL     1      41.400  23.031 224.236  1.00  0.00     0.004 C 
ENDBRANCH  12  13
ENDBRANCH  11  12
ENDBRANCH  10  11
ENDBRANCH   9  10
ENDBRANCH   1   9
TORSDOF 10
ENDMDL
MODEL 6
REMARK VINA RESULT:    -4.079      2.610      4.782
REMARK INTER + INTRA:          -7.254
REMARK INTER:                  -6.185
REMARK INTRA:                  -1.069
REMARK UNBOUND:                -0.790
REMARK SMILES CCCCCCCCCCCC(=O)[O-]
REMARK SMILES IDX 7 1 8 2 9 3 10 4 11 5 12 6 13 7 14 8 6 9 5 10 4 11 3 12 2 13
REMARK SMILES IDX 1 14
REMARK H PARENT
REMARK Flexibility Score: inf
ROOT
ATOM      1  C   UNL     1      41.448  24.131 224.419  1.00  0.00     0.000 C 
ENDROOT
BRANCH   1   2
ATOM      2  C   UNL     1      40.727  23.527 223.203  1.00  0.00     0.000 C 
BRANCH   2   3
ATOM      3  C   UNL     1      39.320  24.114 222.997  1.00  0.00     0.000 C 
BRANCH   3   4
ATOM      4  C   UNL     1      38.833  24.918 224.213  1.00  0.00     0.006 C 
BRANCH   4   5
ATOM      5  C   UNL     1      37.561  25.722 223.921  1.00  0.00     0.053 C 
BRANCH   5   6
ATOM      6  C   UNL     1      36.388  25.123 224.631  1.00  0.00     0.041 C 
ATOM      7  O   UNL     1      36.064  23.925 224.420  1.00  0.00    -0.550 OA
ATOM      8  O   UNL     1      35.621  25.902 225.488  1.00  0.00    -0.550 OA
ENDBRANCH   5   6
ENDBRANCH   4   5
ENDBRANCH   3   4
ENDBRANCH   2   3
ENDBRANCH   1   2
BRANCH   1   9
ATOM      9  C   UNL     1      41.993  23.061 225.378  1.00  0.00     0.000 C 
BRANCH   9  10
ATOM     10  C   UNL     1      40.967  21.943 225.592  1.00  0.00    -0.000 C 
BRANCH  10  11
ATOM     11  C   UNL     1      41.540  20.581 225.182  1.00  0.00    -0.000 C 
BRANCH  11  12
ATOM     12  C   UNL     1      40.661  19.914 224.113  1.00  0.00    -0.000 C 
BRANCH  12  13
ATOM     13  C   UNL     1      41.407  19.700 222.786  1.00  0.00    -0.003 C 
ATOM     14  C   UNL     1      42.753  20.423 222.741  1.00  0.00     0.004 C 
ENDBRANCH  12  13
ENDBRANCH  11  12
ENDBRANCH  10  11
ENDBRANCH   9  10
ENDBRANCH   1   9
TORSDOF 10
ENDMDL
MODEL 7
REMARK VINA RESULT:    -4.032      3.749      5.165
REMARK INTER + INTRA:          -7.179
REMARK INTER:                  -5.828
REMARK INTRA:                  -1.351
REMARK UNBOUND:                -0.790
REMARK SMILES CCCCCCCCCCCC(=O)[O-]
REMARK SMILES IDX 7 1 8 2 9 3 10 4 11 5 12 6 13 7 14 8 6 9 5 10 4 11 3 12 2 13
REMARK SMILES IDX 1 14
REMARK H PARENT
REMARK Flexibility Score: inf
ROOT
ATOM      1  C   UNL     1      40.154  22.892 225.298  1.00  0.00     0.000 C 
ENDROOT
BRANCH   1   2
ATOM      2  C   UNL     1      39.444  21.844 226.170  1.00  0.00     0.000 C 
BRANCH   2   3
ATOM      3  C   UNL     1      38.473  20.964 225.365  1.00  0.00     0.000 C 
BRANCH   3   4
ATOM      4  C   UNL     1      37.000  21.270 225.679  1.00  0.00     0.006 C 
BRANCH   4   5
ATOM      5  C   UNL     1      36.511  20.578 226.958  1.00  0.00     0.053 C 
BRANCH   5   6
ATOM      6  C   UNL     1      35.854  19.275 226.629  1.00  0.00     0.041 C 
ATOM      7  O   UNL     1      35.161  19.161 225.583  1.00  0.00    -0.550 OA
ATOM      8  O   UNL     1      35.964  18.200 227.501  1.00  0.00    -0.550 OA
ENDBRANCH   5   6
ENDBRANCH   4   5
ENDBRANCH   3   4
ENDBRANCH   2   3
ENDBRANCH   1   2
BRANCH   1   9
ATOM      9  C   UNL     1      40.018  22.605 223.795  1.00  0.00     0.000 C 
BRANCH   9  10
ATOM     10  C   UNL     1      39.617  23.871 223.029  1.00  0.00    -0.000 C 
BRANCH  10  11
ATOM     11  C   UNL     1      38.623  24.714 223.836  1.00  0.00    -0.000 C 
BRANCH  11  12
ATOM     12  C   UNL     1      37.182  24.464 223.367  1.00  0.00    -0.000 C 
BRANCH  12  13
ATOM     13  C   UNL     1      36.150  24.700 224.482  1.00  0.00    -0.003 C 
ATOM     14  C   UNL     1      36.796  25.056 225.820  1.00  0.00     0.004 C 
ENDBRANCH  12  13
ENDBRANCH  11  12
ENDBRANCH  10  11
ENDBRANCH   9  10
ENDBRANCH   1   9
TORSDOF 10
ENDMDL
MODEL 8
REMARK VINA RESULT:    -4.023      4.029      6.570
REMARK INTER + INTRA:          -7.165
REMARK INTER:                  -6.509
REMARK INTRA:                  -0.656
REMARK UNBOUND:                -0.790
REMARK SMILES CCCCCCCCCCCC(=O)[O-]
REMARK SMILES IDX 7 1 8 2 9 3 10 4 11 5 12 6 13 7 14 8 6 9 5 10 4 11 3 12 2 13
REMARK SMILES IDX 1 14
REMARK H PARENT
REMARK Flexibility Score: inf
ROOT
ATOM      1  C   UNL     1      37.923  24.727 225.092  1.00  0.00     0.000 C 
ENDROOT
BRANCH   1   2
ATOM      2  C   UNL     1      37.158  23.642 225.867  1.00  0.00     0.000 C 
BRANCH   2   3
ATOM      3  C   UNL     1      37.751  22.238 225.659  1.00  0.00     0.000 C 
BRANCH   3   4
ATOM      4  C   UNL     1      37.177  21.205 226.641  1.00  0.00     0.006 C 
BRANCH   4   5
ATOM      5  C   UNL     1      37.301  19.765 226.126  1.00  0.00     0.053 C 
BRANCH   5   6
ATOM      6  C   UNL     1      35.982  19.063 226.213  1.00  0.00     0.041 C 
ATOM      7  O   UNL     1      34.935  19.713 226.471  1.00  0.00    -0.550 OA
ATOM      8  O   UNL     1      35.917  17.684 226.061  1.00  0.00    -0.550 OA
ENDBRANCH   5   6
ENDBRANCH   4   5
ENDBRANCH   3   4
ENDBRANCH   2   3
ENDBRANCH   1   2
BRANCH   1   9
ATOM      9  C   UNL     1      37.286  25.046 223.731  1.00  0.00     0.000 C 
BRANCH   9  10
ATOM     10  C   UNL     1      35.907  24.387 223.604  1.00  0.00    -0.000 C 
BRANCH  10  11
ATOM     11  C   UNL     1      35.796  23.587 222.300  1.00  0.00    -0.000 C 
BRANCH  11  12
ATOM     12  C   UNL     1      37.116  23.629 221.515  1.00  0.00    -0.000 C 
BRANCH  12  13
ATOM     13  C   UNL     1      36.917  23.369 220.014  1.00  0.00    -0.003 C 
ATOM     14  C   UNL     1      35.819  24.239 219.403  1.00  0.00     0.004 C 
ENDBRANCH  12  13
ENDBRANCH  11  12
ENDBRANCH  10  11
ENDBRANCH   9  10
ENDBRANCH   1   9
TORSDOF 10
ENDMDL
MODEL 9
REMARK VINA RESULT:    -3.987      1.172      2.135
REMARK INTER + INTRA:          -7.109
REMARK INTER:                  -5.933
REMARK INTRA:                  -1.176
REMARK UNBOUND:                -0.790
REMARK SMILES CCCCCCCCCCCC(=O)[O-]
REMARK SMILES IDX 7 1 8 2 9 3 10 4 11 5 12 6 13 7 14 8 6 9 5 10 4 11 3 12 2 13
REMARK SMILES IDX 1 14
REMARK H PARENT
REMARK Flexibility Score: inf
ROOT
ATOM      1  C   UNL     1      41.103  23.571 224.865  1.00  0.00     0.000 C 
ENDROOT
BRANCH   1   2
ATOM      2  C   UNL     1      40.949  23.447 223.340  1.00  0.00     0.000 C 
BRANCH   2   3
ATOM      3  C   UNL     1      39.513  23.727 222.866  1.00  0.00     0.000 C 
BRANCH   3   4
ATOM      4  C   UNL     1      38.798  24.773 223.735  1.00  0.00     0.006 C 
BRANCH   4   5
ATOM      5  C   UNL     1      37.280  24.791 223.513  1.00  0.00     0.053 C 
BRANCH   5   6
ATOM      6  C   UNL     1      36.560  24.810 224.824  1.00  0.00     0.041 C 
ATOM      7  O   UNL     1      36.243  25.907 225.356  1.00  0.00    -0.550 OA
ATOM      8  O   UNL     1      36.284  23.620 225.485  1.00  0.00    -0.550 OA
ENDBRANCH   5   6
ENDBRANCH   4   5
ENDBRANCH   3   4
ENDBRANCH   2   3
ENDBRANCH   1   2
BRANCH   1   9
ATOM      9  C   UNL     1      42.142  24.627 225.273  1.00  0.00     0.000 C 
BRANCH   9  10
ATOM     10  C   UNL     1      41.711  25.354 226.552  1.00  0.00    -0.000 C 
BRANCH  10  11
ATOM     11  C   UNL     1      40.912  26.621 226.225  1.00  0.00    -0.000 C 
BRANCH  11  12
ATOM     12  C   UNL     1      39.512  26.568 226.857  1.00  0.00    -0.000 C 
BRANCH  12  13
ATOM     13  C   UNL     1      39.219  25.216 227.527  1.00  0.00    -0.003 C 
ATOM     14  C   UNL     1      38.905  25.350 229.017  1.00  0.00     0.004 C 
ENDBRANCH  12  13
ENDBRANCH  11  12
ENDBRANCH  10  11
ENDBRANCH   9  10
ENDBRANCH   1   9
TORSDOF 10
ENDMDL
