MODEL 1
REMARK VINA RESULT:    -5.573      0.000      0.000
REMARK INTER + INTRA:          -5.996
REMARK INTER:                  -5.899
REMARK INTRA:                  -0.097
REMARK UNBOUND:                -0.097
REMARK SMILES C=C(C)[C@@H]1CC=C(C)C(=O)C1
REMARK SMILES IDX 8 1 7 2 6 3 5 4 4 5 11 6 9 7 10 8 2 9 1 10 3 11
REMARK H PARENT
REMARK Flexibility Score: inf
ROOT
ATOM      1  C   UNL     1      83.760   4.649  24.776  1.00  0.00     0.048 C 
ATOM      2  C   UNL     1      83.253   4.549  26.188  1.00  0.00    -0.012 C 
ATOM      3  C   UNL     1      83.865   3.731  27.062  1.00  0.00    -0.019 C 
ATOM      4  C   UNL     1      83.410   3.605  28.491  1.00  0.00     0.036 C 
ATOM      5  C   UNL     1      81.886   3.794  28.606  1.00  0.00     0.025 C 
ATOM      6  C   UNL     1      81.464   5.134  27.977  1.00  0.00     0.089 C 
ATOM      7  C   UNL     1      82.007   5.255  26.579  1.00  0.00     0.158 C 
ATOM      8  O   UNL     1      81.412   5.996  25.750  1.00  0.00    -0.295 OA
ENDROOT
BRANCH   5   9
ATOM      9  C   UNL     1      81.419   3.688  30.052  1.00  0.00    -0.077 C 
ATOM     10  C   UNL     1      81.594   4.719  30.893  1.00  0.00     0.008 C 
ATOM     11  C   UNL     1      80.757   2.436  30.575  1.00  0.00     0.039 C 
ENDBRANCH   5   9
TORSDOF 1
ENDMDL
MODEL 2
REMARK VINA RESULT:    -4.684      2.287      3.777
REMARK INTER + INTRA:          -5.055
REMARK INTER:                  -4.958
REMARK INTRA:                  -0.097
REMARK UNBOUND:                -0.097
REMARK SMILES C=C(C)[C@@H]1CC=C(C)C(=O)C1
REMARK SMILES IDX 8 1 7 2 6 3 5 4 4 5 11 6 9 7 10 8 2 9 1 10 3 11
REMARK H PARENT
REMARK Flexibility Score: inf
ROOT
ATOM      1  C   UNL     1      85.630   3.102  28.363  1.00  0.00     0.048 C 
ATOM      2  C   UNL     1      84.378   3.730  27.816  1.00  0.00    -0.012 C 
ATOM      3  C   UNL     1      84.454   4.580  26.778  1.00  0.00    -0.019 C 
ATOM      4  C   UNL     1      83.231   5.223  26.181  1.00  0.00     0.036 C 
ATOM      5  C   UNL     1      82.154   5.470  27.255  1.00  0.00     0.025 C 
ATOM      6  C   UNL     1      81.823   4.159  27.991  1.00  0.00     0.089 C 
ATOM      7  C   UNL     1      83.079   3.507  28.500  1.00  0.00     0.158 C 
ATOM      8  O   UNL     1      83.012   2.737  29.496  1.00  0.00    -0.295 OA
ENDROOT
BRANCH   5   9
ATOM      9  C   UNL     1      80.905   6.102  26.656  1.00  0.00    -0.077 C 
ATOM     10  C   UNL     1      80.335   5.565  25.567  1.00  0.00     0.008 C 
ATOM     11  C   UNL     1      80.282   7.337  27.260  1.00  0.00     0.039 C 
ENDBRANCH   5   9
TORSDOF 1
ENDMDL
MODEL 3
REMARK VINA RESULT:    -4.367      1.707      3.368
REMARK INTER + INTRA:          -4.719
REMARK INTER:                  -4.623
REMARK INTRA:                  -0.097
REMARK UNBOUND:                -0.097
REMARK SMILES C=C(C)[C@@H]1CC=C(C)C(=O)C1
REMARK SMILES IDX 8 1 7 2 6 3 5 4 4 5 11 6 9 7 10 8 2 9 1 10 3 11
REMARK H PARENT
REMARK Flexibility Score: inf
ROOT
ATOM      1  C   UNL     1      80.034   7.153  26.875  1.00  0.00     0.048 C 
ATOM      2  C   UNL     1      81.066   6.116  27.219  1.00  0.00    -0.012 C 
ATOM      3  C   UNL     1      81.472   5.972  28.492  1.00  0.00    -0.019 C 
ATOM      4  C   UNL     1      82.489   4.938  28.895  1.00  0.00     0.036 C 
ATOM      5  C   UNL     1      83.511   4.698  27.767  1.00  0.00     0.025 C 
ATOM      6  C   UNL     1      82.788   4.326  26.460  1.00  0.00     0.089 C 
ATOM      7  C   UNL     1      81.724   5.340  26.137  1.00  0.00     0.158 C 
ATOM      8  O   UNL     1      81.369   5.499  24.938  1.00  0.00    -0.295 OA
ENDROOT
BRANCH   5   9
ATOM      9  C   UNL     1      84.533   3.639  28.157  1.00  0.00    -0.077 C 
ATOM     10  C   UNL     1      84.125   2.438  28.593  1.00  0.00     0.008 C 
ATOM     11  C   UNL     1      86.016   3.907  28.069  1.00  0.00     0.039 C 
ENDBRANCH   5   9
TORSDOF 1
ENDMDL
MODEL 4
REMARK VINA RESULT:    -4.327      1.559      2.142
REMARK INTER + INTRA:          -4.677
REMARK INTER:                  -4.589
REMARK INTRA:                  -0.087
REMARK UNBOUND:                -0.097
REMARK SMILES C=C(C)[C@@H]1CC=C(C)C(=O)C1
REMARK SMILES IDX 8 1 7 2 6 3 5 4 4 5 11 6 9 7 10 8 2 9 1 10 3 11
REMARK H PARENT
REMARK Flexibility Score: inf
ROOT
ATOM      1  C   UNL     1      84.039   4.882  25.137  1.00  0.00     0.048 C 
ATOM      2  C   UNL     1      83.346   4.430  26.393  1.00  0.00    -0.012 C 
ATOM      3  C   UNL     1      82.051   4.731  26.587  1.00  0.00    -0.019 C 
ATOM      4  C   UNL     1      81.304   4.290  27.817  1.00  0.00     0.036 C 
ATOM      5  C   UNL     1      82.236   4.234  29.042  1.00  0.00     0.025 C 
ATOM      6  C   UNL     1      83.454   3.340  28.747  1.00  0.00     0.089 C 
ATOM      7  C   UNL     1      84.123   3.763  27.468  1.00  0.00     0.158 C 
ATOM      8  O   UNL     1      85.347   3.511  27.302  1.00  0.00    -0.295 OA
ENDROOT
BRANCH   5   9
ATOM      9  C   UNL     1      81.494   3.769  30.287  1.00  0.00    -0.077 C 
ATOM     10  C   UNL     1      81.479   4.536  31.388  1.00  0.00     0.008 C 
ATOM     11  C   UNL     1      80.764   2.448  30.320  1.00  0.00     0.039 C 
ENDBRANCH   5   9
TORSDOF 1
ENDMDL
MODEL 5
REMARK VINA RESULT:    -4.251      1.718      4.390
REMARK INTER + INTRA:          -4.596
REMARK INTER:                  -4.509
REMARK INTRA:                  -0.087
REMARK UNBOUND:                -0.097
REMARK SMILES C=C(C)[C@@H]1CC=C(C)C(=O)C1
REMARK SMILES IDX 8 1 7 2 6 3 5 4 4 5 11 6 9 7 10 8 2 9 1 10 3 11
REMARK H PARENT
REMARK Flexibility Score: inf
ROOT
ATOM      1  C   UNL     1      81.405   3.772  31.333  1.00  0.00     0.048 C 
ATOM      2  C   UNL     1      81.634   4.034  29.870  1.00  0.00    -0.012 C 
ATOM      3  C   UNL     1      81.761   3.003  29.017  1.00  0.00    -0.019 C 
ATOM      4  C   UNL     1      81.975   3.208  27.541  1.00  0.00     0.036 C 
ATOM      5  C   UNL     1      82.788   4.488  27.272  1.00  0.00     0.025 C 
ATOM      6  C   UNL     1      82.113   5.701  27.938  1.00  0.00     0.089 C 
ATOM      7  C   UNL     1      81.843   5.424  29.391  1.00  0.00     0.158 C 
ATOM      8  O   UNL     1      81.759   6.390  30.196  1.00  0.00    -0.295 OA
ENDROOT
BRANCH   5   9
ATOM      9  C   UNL     1      82.992   4.715  25.780  1.00  0.00    -0.077 C 
ATOM     10  C   UNL     1      84.152   4.373  25.200  1.00  0.00     0.008 C 
ATOM     11  C   UNL     1      81.910   5.326  24.922  1.00  0.00     0.039 C 
ENDBRANCH   5   9
TORSDOF 1
ENDMDL
MODEL 6
REMARK VINA RESULT:    -4.103     10.673     11.790
REMARK INTER + INTRA:          -4.440
REMARK INTER:                  -4.351
REMARK INTRA:                  -0.089
REMARK UNBOUND:                -0.097
REMARK SMILES C=C(C)[C@@H]1CC=C(C)C(=O)C1
REMARK SMILES IDX 8 1 7 2 6 3 5 4 4 5 11 6 9 7 10 8 2 9 1 10 3 11
REMARK H PARENT
REMARK Flexibility Score: inf
ROOT
ATOM      1  C   UNL     1      83.334  -4.578  28.577  1.00  0.00     0.048 C 
ATOM      2  C   UNL     1      84.377  -5.267  29.413  1.00  0.00    -0.012 C 
ATOM      3  C   UNL     1      84.892  -4.644  30.487  1.00  0.00    -0.019 C 
ATOM      4  C   UNL     1      85.925  -5.293  31.369  1.00  0.00     0.036 C 
ATOM      5  C   UNL     1      86.839  -6.228  30.554  1.00  0.00     0.025 C 
ATOM      6  C   UNL     1      85.998  -7.262  29.783  1.00  0.00     0.089 C 
ATOM      7  C   UNL     1      84.926  -6.577  28.981  1.00  0.00     0.158 C 
ATOM      8  O   UNL     1      84.469  -7.147  27.953  1.00  0.00    -0.295 OA
ENDROOT
BRANCH   5   9
ATOM      9  C   UNL     1      87.876  -6.905  31.440  1.00  0.00    -0.077 C 
ATOM     10  C   UNL     1      89.021  -6.273  31.740  1.00  0.00     0.008 C 
ATOM     11  C   UNL     1      87.650  -8.290  31.998  1.00  0.00     0.039 C 
ENDBRANCH   5   9
TORSDOF 1
ENDMDL
MODEL 7
REMARK VINA RESULT:    -4.057      9.614     10.878
REMARK INTER + INTRA:          -4.391
REMARK INTER:                  -4.294
REMARK INTRA:                  -0.097
REMARK UNBOUND:                -0.097
REMARK SMILES C=C(C)[C@@H]1CC=C(C)C(=O)C1
REMARK SMILES IDX 8 1 7 2 6 3 5 4 4 5 11 6 9 7 10 8 2 9 1 10 3 11
REMARK H PARENT
REMARK Flexibility Score: inf
ROOT
ATOM      1  C   UNL     1      86.805  -7.398  30.869  1.00  0.00     0.048 C 
ATOM      2  C   UNL     1      85.702  -6.706  30.117  1.00  0.00    -0.012 C 
ATOM      3  C   UNL     1      85.202  -7.263  29.000  1.00  0.00    -0.019 C 
ATOM      4  C   UNL     1      84.086  -6.622  28.218  1.00  0.00     0.036 C 
ATOM      5  C   UNL     1      84.162  -5.086  28.303  1.00  0.00     0.025 C 
ATOM      6  C   UNL     1      84.179  -4.631  29.773  1.00  0.00     0.089 C 
ATOM      7  C   UNL     1      85.254  -5.354  30.537  1.00  0.00     0.158 C 
ATOM      8  O   UNL     1      85.747  -4.815  31.565  1.00  0.00    -0.295 OA
ENDROOT
BRANCH   5   9
ATOM      9  C   UNL     1      83.025  -4.429  27.531  1.00  0.00    -0.077 C 
ATOM     10  C   UNL     1      81.766  -4.866  27.686  1.00  0.00     0.008 C 
ATOM     11  C   UNL     1      83.278  -3.285  26.579  1.00  0.00     0.039 C 
ENDBRANCH   5   9
TORSDOF 1
ENDMDL
MODEL 8
REMARK VINA RESULT:    -4.052      1.998      4.618
REMARK INTER + INTRA:          -4.386
REMARK INTER:                  -4.299
REMARK INTRA:                  -0.087
REMARK UNBOUND:                -0.097
REMARK SMILES C=C(C)[C@@H]1CC=C(C)C(=O)C1
REMARK SMILES IDX 8 1 7 2 6 3 5 4 4 5 11 6 9 7 10 8 2 9 1 10 3 11
REMARK H PARENT
REMARK Flexibility Score: inf
ROOT
ATOM      1  C   UNL     1      81.175   4.453  31.749  1.00  0.00     0.048 C 
ATOM      2  C   UNL     1      81.680   4.479  30.334  1.00  0.00    -0.012 C 
ATOM      3  C   UNL     1      82.109   5.635  29.798  1.00  0.00    -0.019 C 
ATOM      4  C   UNL     1      82.641   5.715  28.392  1.00  0.00     0.036 C 
ATOM      5  C   UNL     1      81.936   4.698  27.474  1.00  0.00     0.025 C 
ATOM      6  C   UNL     1      82.051   3.279  28.061  1.00  0.00     0.089 C 
ATOM      7  C   UNL     1      81.588   3.260  29.492  1.00  0.00     0.158 C 
ATOM      8  O   UNL     1      81.152   2.183  29.982  1.00  0.00    -0.295 OA
ENDROOT
BRANCH   5   9
ATOM      9  C   UNL     1      82.481   4.758  26.054  1.00  0.00    -0.077 C 
ATOM     10  C   UNL     1      81.716   5.231  25.059  1.00  0.00     0.008 C 
ATOM     11  C   UNL     1      83.879   4.290  25.727  1.00  0.00     0.039 C 
ENDBRANCH   5   9
TORSDOF 1
ENDMDL
MODEL 9
REMARK VINA RESULT:    -3.764     17.652     19.250
REMARK INTER + INTRA:          -4.081
REMARK INTER:                  -3.993
REMARK INTRA:                  -0.088
REMARK UNBOUND:                -0.097
REMARK SMILES C=C(C)[C@@H]1CC=C(C)C(=O)C1
REMARK SMILES IDX 8 1 7 2 6 3 5 4 4 5 11 6 9 7 10 8 2 9 1 10 3 11
REMARK H PARENT
REMARK Flexibility Score: inf
ROOT
ATOM      1  C   UNL     1      80.431  -9.316  17.857  1.00  0.00     0.048 C 
ATOM      2  C   UNL     1      79.848  -9.129  16.484  1.00  0.00    -0.012 C 
ATOM      3  C   UNL     1      80.553  -8.480  15.541  1.00  0.00    -0.019 C 
ATOM      4  C   UNL     1      80.025  -8.279  14.146  1.00  0.00     0.036 C 
ATOM      5  C   UNL     1      78.492  -8.128  14.150  1.00  0.00     0.025 C 
ATOM      6  C   UNL     1      77.838  -9.331  14.853  1.00  0.00     0.089 C 
ATOM      7  C   UNL     1      78.451  -9.547  16.210  1.00  0.00     0.158 C 
ATOM      8  O   UNL     1      77.775 -10.125  17.105  1.00  0.00    -0.295 OA
ENDROOT
BRANCH   5   9
ATOM      9  C   UNL     1      77.946  -7.944  12.741  1.00  0.00    -0.077 C 
ATOM     10  C   UNL     1      77.772  -6.711  12.242  1.00  0.00     0.008 C 
ATOM     11  C   UNL     1      77.588  -9.128  11.875  1.00  0.00     0.039 C 
ENDBRANCH   5   9
TORSDOF 1
ENDMDL
