MODEL 1
REMARK VINA RESULT:    -6.358      0.000      0.000
REMARK INTER + INTRA:          -6.915
REMARK INTER:                  -6.915
REMARK INTRA:                   0.000
REMARK UNBOUND:                 0.000
REMARK SMILES Cc1cc(O)c2c(c1)C(=O)c1cc(O)cc(O)c1C2=O
REMARK SMILES IDX 1 1 2 2 8 3 7 4 6 5 4 6 3 7 19 8 20 9 18 10 11 11 9 12 10 13
REMARK SMILES IDX 12 14 13 15 15 16 16 17 5 18 17 20 14 22
REMARK H PARENT 5 19 17 21 14 23
REMARK Flexibility Score: inf
ROOT
ATOM      1  C   UNL     1      22.061  19.586   7.128  1.00  0.00     0.044 C 
ATOM      2  C   UNL     1      21.006  19.990   8.117  1.00  0.00    -0.047 A 
ATOM      3  C   UNL     1      19.657  19.980   7.749  1.00  0.00     0.016 A 
ATOM      4  C   UNL     1      18.659  20.332   8.673  1.00  0.00     0.038 A 
ATOM      5  C   UNL     1      19.016  20.699   9.991  1.00  0.00     0.076 A 
ATOM      6  C   UNL     1      20.379  20.608  10.385  1.00  0.00     0.127 A 
ATOM      7  C   UNL     1      21.355  20.282   9.439  1.00  0.00     0.050 A 
ATOM      8  C   UNL     1      17.952  21.216  10.896  1.00  0.00     0.201 C 
ATOM      9  O   UNL     1      18.258  21.926  11.892  1.00  0.00    -0.288 OA
ATOM     10  C   UNL     1      16.518  20.998  10.566  1.00  0.00     0.076 A 
ATOM     11  C   UNL     1      16.171  20.567   9.268  1.00  0.00     0.041 A 
ATOM     12  C   UNL     1      17.232  20.305   8.270  1.00  0.00     0.194 C 
ATOM     13  O   UNL     1      16.920  20.041   7.075  1.00  0.00    -0.289 OA
ATOM     14  C   UNL     1      14.818  20.392   8.929  1.00  0.00     0.059 A 
ATOM     15  C   UNL     1      13.815  20.633   9.867  1.00  0.00     0.120 A 
ATOM     16  C   UNL     1      14.154  21.053  11.156  1.00  0.00     0.093 A 
ATOM     17  C   UNL     1      15.496  21.235  11.513  1.00  0.00     0.131 A 
ENDROOT
BRANCH   6  18
ATOM     18  O   UNL     1      20.804  20.793  11.702  1.00  0.00    -0.507 OA
ATOM     19  H   UNL     1      21.739  20.583  12.024  1.00  0.00     0.293 HD
ENDBRANCH   6  18
BRANCH  17  20
ATOM     20  O   UNL     1      15.808  21.642  12.811  1.00  0.00    -0.507 OA
ATOM     21  H   UNL     1      15.397  21.196  13.623  1.00  0.00     0.293 HD
ENDBRANCH  17  20
BRANCH  15  22
ATOM     22  O   UNL     1      12.481  20.452   9.508  1.00  0.00    -0.508 OA
ATOM     23  H   UNL     1      11.907  19.738   9.942  1.00  0.00     0.293 HD
ENDBRANCH  15  22
TORSDOF 3
ENDMDL
MODEL 2
REMARK VINA RESULT:    -6.088      1.233      6.274
REMARK INTER + INTRA:          -6.622
REMARK INTER:                  -6.622
REMARK INTRA:                   0.000
REMARK UNBOUND:                 0.000
REMARK SMILES Cc1cc(O)c2c(c1)C(=O)c1cc(O)cc(O)c1C2=O
REMARK SMILES IDX 1 1 2 2 8 3 7 4 6 5 4 6 3 7 19 8 20 9 18 10 11 11 9 12 10 13
REMARK SMILES IDX 12 14 13 15 15 16 16 17 5 18 17 20 14 22
REMARK H PARENT 5 19 17 21 14 23
REMARK Flexibility Score: inf
ROOT
ATOM      1  C   UNL     1      13.723  21.700  13.704  1.00  0.00     0.044 C 
ATOM      2  C   UNL     1      14.487  21.355  12.459  1.00  0.00    -0.047 A 
ATOM      3  C   UNL     1      15.876  21.514  12.420  1.00  0.00     0.016 A 
ATOM      4  C   UNL     1      16.605  21.171  11.268  1.00  0.00     0.038 A 
ATOM      5  C   UNL     1      15.933  20.656  10.136  1.00  0.00     0.076 A 
ATOM      6  C   UNL     1      14.537  20.404  10.220  1.00  0.00     0.127 A 
ATOM      7  C   UNL     1      13.831  20.780  11.367  1.00  0.00     0.050 A 
ATOM      8  C   UNL     1      16.711  20.452   8.882  1.00  0.00     0.201 C 
ATOM      9  O   UNL     1      16.119  20.404   7.770  1.00  0.00    -0.288 OA
ATOM     10  C   UNL     1      18.197  20.421   8.921  1.00  0.00     0.076 A 
ATOM     11  C   UNL     1      18.863  20.872  10.081  1.00  0.00     0.041 A 
ATOM     12  C   UNL     1      18.079  21.334  11.248  1.00  0.00     0.194 C 
ATOM     13  O   UNL     1      18.669  21.855  12.236  1.00  0.00    -0.289 OA
ATOM     14  C   UNL     1      20.268  20.883  10.120  1.00  0.00     0.059 A 
ATOM     15  C   UNL     1      21.012  20.444   9.025  1.00  0.00     0.120 A 
ATOM     16  C   UNL     1      20.357  19.989   7.877  1.00  0.00     0.093 A 
ATOM     17  C   UNL     1      18.958  19.972   7.817  1.00  0.00     0.131 A 
ENDROOT
BRANCH   6  18
ATOM     18  O   UNL     1      13.819  19.752   9.216  1.00  0.00    -0.507 OA
ATOM     19  H   UNL     1      14.227  19.079   8.582  1.00  0.00     0.293 HD
ENDBRANCH   6  18
BRANCH  17  20
ATOM     20  O   UNL     1      18.329  19.499   6.664  1.00  0.00    -0.507 OA
ATOM     21  H   UNL     1      17.320  19.503   6.567  1.00  0.00     0.293 HD
ENDBRANCH  17  20
BRANCH  15  22
ATOM     22  O   UNL     1      22.404  20.464   9.087  1.00  0.00    -0.508 OA
ATOM     23  H   UNL     1      22.952  21.067   8.486  1.00  0.00     0.293 HD
ENDBRANCH  15  22
TORSDOF 3
ENDMDL
MODEL 3
REMARK VINA RESULT:    -5.783      8.897     10.771
REMARK INTER + INTRA:          -6.290
REMARK INTER:                  -6.290
REMARK INTRA:                   0.000
REMARK UNBOUND:                 0.000
REMARK SMILES Cc1cc(O)c2c(c1)C(=O)c1cc(O)cc(O)c1C2=O
REMARK SMILES IDX 1 1 2 2 8 3 7 4 6 5 4 6 3 7 19 8 20 9 18 10 11 11 9 12 10 13
REMARK SMILES IDX 12 14 13 15 15 16 16 17 5 18 17 20 14 22
REMARK H PARENT 5 19 17 21 14 23
REMARK Flexibility Score: inf
ROOT
ATOM      1  C   UNL     1      26.238  14.727   0.794  1.00  0.00     0.044 C 
ATOM      2  C   UNL     1      25.210  15.797   0.568  1.00  0.00    -0.047 A 
ATOM      3  C   UNL     1      23.884  15.593   0.964  1.00  0.00     0.016 A 
ATOM      4  C   UNL     1      22.918  16.597   0.781  1.00  0.00     0.038 A 
ATOM      5  C   UNL     1      23.285  17.830   0.193  1.00  0.00     0.076 A 
ATOM      6  C   UNL     1      24.653  18.065  -0.113  1.00  0.00     0.127 A 
ATOM      7  C   UNL     1      25.589  17.040   0.053  1.00  0.00     0.050 A 
ATOM      8  C   UNL     1      22.209  18.808  -0.131  1.00  0.00     0.201 C 
ATOM      9  O   UNL     1      22.406  19.700  -1.000  1.00  0.00    -0.288 OA
ATOM     10  C   UNL     1      20.862  18.669   0.482  1.00  0.00     0.076 A 
ATOM     11  C   UNL     1      20.524  17.460   1.129  1.00  0.00     0.041 A 
ATOM     12  C   UNL     1      21.519  16.368   1.217  1.00  0.00     0.194 C 
ATOM     13  O   UNL     1      21.179  15.244   1.682  1.00  0.00    -0.289 OA
ATOM     14  C   UNL     1      19.241  17.299   1.680  1.00  0.00     0.059 A 
ATOM     15  C   UNL     1      18.301  18.326   1.604  1.00  0.00     0.120 A 
ATOM     16  C   UNL     1      18.634  19.528   0.972  1.00  0.00     0.093 A 
ATOM     17  C   UNL     1      19.906  19.708   0.413  1.00  0.00     0.131 A 
ENDROOT
BRANCH   6  18
ATOM     18  O   UNL     1      25.133  19.303  -0.545  1.00  0.00    -0.507 OA
ATOM     19  H   UNL     1      25.984  19.725  -0.201  1.00  0.00     0.293 HD
ENDBRANCH   6  18
BRANCH  17  20
ATOM     20  O   UNL     1      20.217  20.922  -0.200  1.00  0.00    -0.507 OA
ATOM     21  H   UNL     1      20.389  20.989  -1.196  1.00  0.00     0.293 HD
ENDBRANCH  17  20
BRANCH  15  22
ATOM     22  O   UNL     1      17.036  18.143   2.159  1.00  0.00    -0.508 OA
ATOM     23  H   UNL     1      16.396  17.445   1.800  1.00  0.00     0.293 HD
ENDBRANCH  15  22
TORSDOF 3
ENDMDL
MODEL 4
REMARK VINA RESULT:    -5.666      1.536      3.930
REMARK INTER + INTRA:          -6.163
REMARK INTER:                  -6.163
REMARK INTRA:                   0.000
REMARK UNBOUND:                 0.000
REMARK SMILES Cc1cc(O)c2c(c1)C(=O)c1cc(O)cc(O)c1C2=O
REMARK SMILES IDX 1 1 2 2 8 3 7 4 6 5 4 6 3 7 19 8 20 9 18 10 11 11 9 12 10 13
REMARK SMILES IDX 12 14 13 15 15 16 16 17 5 18 17 20 14 22
REMARK H PARENT 5 19 17 21 14 23
REMARK Flexibility Score: inf
ROOT
ATOM      1  C   UNL     1      20.627  20.431  10.048  1.00  0.00     0.044 C 
ATOM      2  C   UNL     1      19.147  20.420   9.800  1.00  0.00    -0.047 A 
ATOM      3  C   UNL     1      18.257  20.704  10.840  1.00  0.00     0.016 A 
ATOM      4  C   UNL     1      16.870  20.721  10.613  1.00  0.00     0.038 A 
ATOM      5  C   UNL     1      16.364  20.450   9.321  1.00  0.00     0.076 A 
ATOM      6  C   UNL     1      17.278  20.262   8.250  1.00  0.00     0.127 A 
ATOM      7  C   UNL     1      18.652  20.222   8.507  1.00  0.00     0.050 A 
ATOM      8  C   UNL     1      14.889  20.320   9.151  1.00  0.00     0.201 C 
ATOM      9  O   UNL     1      14.419  19.690   8.165  1.00  0.00    -0.288 OA
ATOM     10  C   UNL     1      13.968  20.831  10.199  1.00  0.00     0.076 A 
ATOM     11  C   UNL     1      14.489  21.165  11.468  1.00  0.00     0.041 A 
ATOM     12  C   UNL     1      15.941  21.037  11.725  1.00  0.00     0.194 C 
ATOM     13  O   UNL     1      16.391  21.215  12.892  1.00  0.00    -0.289 OA
ATOM     14  C   UNL     1      13.625  21.614  12.482  1.00  0.00     0.059 A 
ATOM     15  C   UNL     1      12.257  21.740  12.244  1.00  0.00     0.120 A 
ATOM     16  C   UNL     1      11.736  21.418  10.987  1.00  0.00     0.093 A 
ATOM     17  C   UNL     1      12.580  20.967   9.963  1.00  0.00     0.131 A 
ENDROOT
BRANCH   6  18
ATOM     18  O   UNL     1      16.877  20.149   6.917  1.00  0.00    -0.507 OA
ATOM     19  H   UNL     1      15.930  20.309   6.601  1.00  0.00     0.293 HD
ENDBRANCH   6  18
BRANCH  17  20
ATOM     20  O   UNL     1      12.038  20.666   8.714  1.00  0.00    -0.507 OA
ATOM     21  H   UNL     1      12.340  21.142   7.872  1.00  0.00     0.293 HD
ENDBRANCH  17  20
BRANCH  15  22
ATOM     22  O   UNL     1      11.420  22.188  13.264  1.00  0.00    -0.508 OA
ATOM     23  H   UNL     1      10.592  22.738  13.067  1.00  0.00     0.293 HD
ENDBRANCH  15  22
TORSDOF 3
ENDMDL
MODEL 5
REMARK VINA RESULT:    -5.644      9.242     11.805
REMARK INTER + INTRA:          -6.139
REMARK INTER:                  -6.139
REMARK INTRA:                   0.000
REMARK UNBOUND:                 0.000
REMARK SMILES Cc1cc(O)c2c(c1)C(=O)c1cc(O)cc(O)c1C2=O
REMARK SMILES IDX 1 1 2 2 8 3 7 4 6 5 4 6 3 7 19 8 20 9 18 10 11 11 9 12 10 13
REMARK SMILES IDX 12 14 13 15 15 16 16 17 5 18 17 20 14 22
REMARK H PARENT 5 19 17 21 14 23
REMARK Flexibility Score: inf
ROOT
ATOM      1  C   UNL     1      16.718  17.637   1.993  1.00  0.00     0.044 C 
ATOM      2  C   UNL     1      18.140  17.966   1.647  1.00  0.00    -0.047 A 
ATOM      3  C   UNL     1      19.128  16.979   1.720  1.00  0.00     0.016 A 
ATOM      4  C   UNL     1      20.459  17.269   1.375  1.00  0.00     0.038 A 
ATOM      5  C   UNL     1      20.809  18.571   0.947  1.00  0.00     0.076 A 
ATOM      6  C   UNL     1      19.781  19.539   0.780  1.00  0.00     0.127 A 
ATOM      7  C   UNL     1      18.470  19.233   1.156  1.00  0.00     0.050 A 
ATOM      8  C   UNL     1      22.250  18.886   0.741  1.00  0.00     0.201 C 
ATOM      9  O   UNL     1      22.647  20.082   0.772  1.00  0.00    -0.288 OA
ATOM     10  C   UNL     1      23.245  17.788   0.614  1.00  0.00     0.076 A 
ATOM     11  C   UNL     1      22.870  16.477   0.979  1.00  0.00     0.041 A 
ATOM     12  C   UNL     1      21.492  16.208   1.446  1.00  0.00     0.194 C 
ATOM     13  O   UNL     1      21.191  15.064   1.890  1.00  0.00    -0.289 OA
ATOM     14  C   UNL     1      23.811  15.435   0.900  1.00  0.00     0.059 A 
ATOM     15  C   UNL     1      25.109  15.683   0.457  1.00  0.00     0.120 A 
ATOM     16  C   UNL     1      25.483  16.978   0.087  1.00  0.00     0.093 A 
ATOM     17  C   UNL     1      24.562  18.031   0.160  1.00  0.00     0.131 A 
ENDROOT
BRANCH   6  18
ATOM     18  O   UNL     1      20.005  20.795   0.212  1.00  0.00    -0.507 OA
ATOM     19  H   UNL     1      20.861  21.055  -0.256  1.00  0.00     0.293 HD
ENDBRANCH   6  18
BRANCH  17  20
ATOM     20  O   UNL     1      24.956  19.312  -0.228  1.00  0.00    -0.507 OA
ATOM     21  H   UNL     1      25.275  19.510  -1.170  1.00  0.00     0.293 HD
ENDBRANCH  17  20
BRANCH  15  22
ATOM     22  O   UNL     1      26.023  14.634   0.386  1.00  0.00    -0.508 OA
ATOM     23  H   UNL     1      25.750  13.678   0.583  1.00  0.00     0.293 HD
ENDBRANCH  15  22
TORSDOF 3
ENDMDL
MODEL 6
REMARK VINA RESULT:    -5.626      8.735      9.376
REMARK INTER + INTRA:          -6.119
REMARK INTER:                  -6.119
REMARK INTRA:                   0.000
REMARK UNBOUND:                 0.000
REMARK SMILES Cc1cc(O)c2c(c1)C(=O)c1cc(O)cc(O)c1C2=O
REMARK SMILES IDX 1 1 2 2 8 3 7 4 6 5 4 6 3 7 19 8 20 9 18 10 11 11 9 12 10 13
REMARK SMILES IDX 12 14 13 15 15 16 16 17 5 18 17 20 14 22
REMARK H PARENT 5 19 17 21 14 23
REMARK Flexibility Score: inf
ROOT
ATOM      1  C   UNL     1      23.028  19.207   1.126  1.00  0.00     0.044 C 
ATOM      2  C   UNL     1      21.566  19.433   0.873  1.00  0.00    -0.047 A 
ATOM      3  C   UNL     1      20.622  18.506   1.326  1.00  0.00     0.016 A 
ATOM      4  C   UNL     1      19.249  18.719   1.116  1.00  0.00     0.038 A 
ATOM      5  C   UNL     1      18.812  19.883   0.442  1.00  0.00     0.076 A 
ATOM      6  C   UNL     1      19.770  20.866   0.075  1.00  0.00     0.127 A 
ATOM      7  C   UNL     1      21.131  20.617   0.270  1.00  0.00     0.050 A 
ATOM      8  C   UNL     1      17.367  20.001   0.097  1.00  0.00     0.201 C 
ATOM      9  O   UNL     1      16.998  20.770  -0.831  1.00  0.00    -0.288 OA
ATOM     10  C   UNL     1      16.365  19.128   0.765  1.00  0.00     0.076 A 
ATOM     11  C   UNL     1      16.811  18.005   1.495  1.00  0.00     0.041 A 
ATOM     12  C   UNL     1      18.261  17.733   1.615  1.00  0.00     0.194 C 
ATOM     13  O   UNL     1      18.657  16.664   2.159  1.00  0.00    -0.289 OA
ATOM     14  C   UNL     1      15.875  17.149   2.101  1.00  0.00     0.059 A 
ATOM     15  C   UNL     1      14.508  17.404   1.995  1.00  0.00     0.120 A 
ATOM     16  C   UNL     1      14.061  18.519   1.280  1.00  0.00     0.093 A 
ATOM     17  C   UNL     1      14.978  19.383   0.667  1.00  0.00     0.131 A 
ENDROOT
BRANCH   6  18
ATOM     18  O   UNL     1      19.419  22.112  -0.448  1.00  0.00    -0.507 OA
ATOM     19  H   UNL     1      18.851  22.234  -1.275  1.00  0.00     0.293 HD
ENDBRANCH   6  18
BRANCH  17  20
ATOM     20  O   UNL     1      14.507  20.497  -0.029  1.00  0.00    -0.507 OA
ATOM     21  H   UNL     1      13.555  20.829   0.077  1.00  0.00     0.293 HD
ENDBRANCH  17  20
BRANCH  15  22
ATOM     22  O   UNL     1      13.599  16.542   2.605  1.00  0.00    -0.508 OA
ATOM     23  H   UNL     1      13.087  15.848   2.072  1.00  0.00     0.293 HD
ENDBRANCH  15  22
TORSDOF 3
ENDMDL
MODEL 7
REMARK VINA RESULT:    -5.625      2.045      3.138
REMARK INTER + INTRA:          -6.119
REMARK INTER:                  -6.119
REMARK INTRA:                   0.000
REMARK UNBOUND:                 0.000
REMARK SMILES Cc1cc(O)c2c(c1)C(=O)c1cc(O)cc(O)c1C2=O
REMARK SMILES IDX 1 1 2 2 8 3 7 4 6 5 4 6 3 7 19 8 20 9 18 10 11 11 9 12 10 13
REMARK SMILES IDX 12 14 13 15 15 16 16 17 5 18 17 20 14 22
REMARK H PARENT 5 19 17 21 14 23
REMARK Flexibility Score: inf
ROOT
ATOM      1  C   UNL     1      17.352  19.275   5.982  1.00  0.00     0.044 C 
ATOM      2  C   UNL     1      17.056  19.738   7.378  1.00  0.00    -0.047 A 
ATOM      3  C   UNL     1      15.744  20.040   7.756  1.00  0.00     0.016 A 
ATOM      4  C   UNL     1      15.450  20.451   9.067  1.00  0.00     0.038 A 
ATOM      5  C   UNL     1      16.489  20.560  10.020  1.00  0.00     0.076 A 
ATOM      6  C   UNL     1      17.802  20.156   9.656  1.00  0.00     0.127 A 
ATOM      7  C   UNL     1      18.072  19.777   8.338  1.00  0.00     0.050 A 
ATOM      8  C   UNL     1      16.170  21.148  11.352  1.00  0.00     0.201 C 
ATOM      9  O   UNL     1      17.087  21.645  12.060  1.00  0.00    -0.288 OA
ATOM     10  C   UNL     1      14.757  21.258  11.801  1.00  0.00     0.076 A 
ATOM     11  C   UNL     1      13.721  21.080  10.859  1.00  0.00     0.041 A 
ATOM     12  C   UNL     1      14.051  20.754   9.454  1.00  0.00     0.194 C 
ATOM     13  O   UNL     1      13.135  20.719   8.585  1.00  0.00    -0.289 OA
ATOM     14  C   UNL     1      12.381  21.218  11.261  1.00  0.00     0.059 A 
ATOM     15  C   UNL     1      12.064  21.520  12.585  1.00  0.00     0.120 A 
ATOM     16  C   UNL     1      13.086  21.689  13.523  1.00  0.00     0.093 A 
ATOM     17  C   UNL     1      14.428  21.558  13.143  1.00  0.00     0.131 A 
ENDROOT
BRANCH   6  18
ATOM     18  O   UNL     1      18.854  20.076  10.570  1.00  0.00    -0.507 OA
ATOM     19  H   UNL     1      18.960  20.697  11.360  1.00  0.00     0.293 HD
ENDBRANCH   6  18
BRANCH  17  20
ATOM     20  O   UNL     1      15.429  21.719  14.103  1.00  0.00    -0.507 OA
ATOM     21  H   UNL     1      16.393  21.469  13.915  1.00  0.00     0.293 HD
ENDBRANCH  17  20
BRANCH  15  22
ATOM     22  O   UNL     1      10.729  21.650  12.960  1.00  0.00    -0.508 OA
ATOM     23  H   UNL     1       9.988  21.703  12.271  1.00  0.00     0.293 HD
ENDBRANCH  15  22
TORSDOF 3
ENDMDL
MODEL 8
REMARK VINA RESULT:    -4.932      8.743     11.254
REMARK INTER + INTRA:          -5.365
REMARK INTER:                  -5.365
REMARK INTRA:                   0.000
REMARK UNBOUND:                 0.000
REMARK SMILES Cc1cc(O)c2c(c1)C(=O)c1cc(O)cc(O)c1C2=O
REMARK SMILES IDX 1 1 2 2 8 3 7 4 6 5 4 6 3 7 19 8 20 9 18 10 11 11 9 12 10 13
REMARK SMILES IDX 12 14 13 15 15 16 16 17 5 18 17 20 14 22
REMARK H PARENT 5 19 17 21 14 23
REMARK Flexibility Score: inf
ROOT
ATOM      1  C   UNL     1      15.416  20.010   0.412  1.00  0.00     0.044 C 
ATOM      2  C   UNL     1      16.688  19.265   0.696  1.00  0.00    -0.047 A 
ATOM      3  C   UNL     1      17.885  19.662   0.092  1.00  0.00     0.016 A 
ATOM      4  C   UNL     1      19.087  18.988   0.368  1.00  0.00     0.038 A 
ATOM      5  C   UNL     1      19.092  17.897   1.268  1.00  0.00     0.076 A 
ATOM      6  C   UNL     1      17.892  17.566   1.953  1.00  0.00     0.127 A 
ATOM      7  C   UNL     1      16.704  18.234   1.640  1.00  0.00     0.050 A 
ATOM      8  C   UNL     1      20.346  17.108   1.417  1.00  0.00     0.201 C 
ATOM      9  O   UNL     1      20.302  15.926   1.855  1.00  0.00    -0.288 OA
ATOM     10  C   UNL     1      21.641  17.665   0.944  1.00  0.00     0.076 A 
ATOM     11  C   UNL     1      21.633  18.796   0.100  1.00  0.00     0.041 A 
ATOM     12  C   UNL     1      20.349  19.430  -0.272  1.00  0.00     0.194 C 
ATOM     13  O   UNL     1      20.331  20.362  -1.124  1.00  0.00    -0.289 OA
ATOM     14  C   UNL     1      22.848  19.311  -0.387  1.00  0.00     0.059 A 
ATOM     15  C   UNL     1      24.061  18.720  -0.037  1.00  0.00     0.120 A 
ATOM     16  C   UNL     1      24.074  17.605   0.805  1.00  0.00     0.093 A 
ATOM     17  C   UNL     1      22.875  17.074   1.299  1.00  0.00     0.131 A 
ENDROOT
BRANCH   6  18
ATOM     18  O   UNL     1      17.836  16.614   2.974  1.00  0.00    -0.507 OA
ATOM     19  H   UNL     1      17.946  16.835   3.953  1.00  0.00     0.293 HD
ENDBRANCH   6  18
BRANCH  17  20
ATOM     20  O   UNL     1      22.917  15.968   2.149  1.00  0.00    -0.507 OA
ATOM     21  H   UNL     1      23.525  15.178   1.968  1.00  0.00     0.293 HD
ENDBRANCH  17  20
BRANCH  15  22
ATOM     22  O   UNL     1      25.252  19.250  -0.530  1.00  0.00    -0.508 OA
ATOM     23  H   UNL     1      25.770  18.790  -1.270  1.00  0.00     0.293 HD
ENDBRANCH  15  22
TORSDOF 3
ENDMDL
MODEL 9
REMARK VINA RESULT:    -4.892      8.840     10.885
REMARK INTER + INTRA:          -5.321
REMARK INTER:                  -5.321
REMARK INTRA:                   0.000
REMARK UNBOUND:                 0.000
REMARK SMILES Cc1cc(O)c2c(c1)C(=O)c1cc(O)cc(O)c1C2=O
REMARK SMILES IDX 1 1 2 2 8 3 7 4 6 5 4 6 3 7 19 8 20 9 18 10 11 11 9 12 10 13
REMARK SMILES IDX 12 14 13 15 15 16 16 17 5 18 17 20 14 22
REMARK H PARENT 5 19 17 21 14 23
REMARK Flexibility Score: inf
ROOT
ATOM      1  C   UNL     1      13.430  17.031   1.872  1.00  0.00     0.044 C 
ATOM      2  C   UNL     1      14.644  17.805   1.449  1.00  0.00    -0.047 A 
ATOM      3  C   UNL     1      15.920  17.369   1.819  1.00  0.00     0.016 A 
ATOM      4  C   UNL     1      17.065  18.072   1.408  1.00  0.00     0.038 A 
ATOM      5  C   UNL     1      16.932  19.233   0.612  1.00  0.00     0.076 A 
ATOM      6  C   UNL     1      15.640  19.611   0.158  1.00  0.00     0.127 A 
ATOM      7  C   UNL     1      14.514  18.911   0.603  1.00  0.00     0.050 A 
ATOM      8  C   UNL     1      18.151  20.041   0.327  1.00  0.00     0.201 C 
ATOM      9  O   UNL     1      18.045  21.254   0.001  1.00  0.00    -0.288 OA
ATOM     10  C   UNL     1      19.502  19.456   0.540  1.00  0.00     0.076 A 
ATOM     11  C   UNL     1      19.623  18.260   1.278  1.00  0.00     0.041 A 
ATOM     12  C   UNL     1      18.411  17.588   1.799  1.00  0.00     0.194 C 
ATOM     13  O   UNL     1      18.526  16.590   2.564  1.00  0.00    -0.289 OA
ATOM     14  C   UNL     1      20.897  17.715   1.520  1.00  0.00     0.059 A 
ATOM     15  C   UNL     1      22.042  18.341   1.028  1.00  0.00     0.120 A 
ATOM     16  C   UNL     1      21.926  19.522   0.289  1.00  0.00     0.093 A 
ATOM     17  C   UNL     1      20.666  20.083   0.040  1.00  0.00     0.131 A 
ENDROOT
BRANCH   6  18
ATOM     18  O   UNL     1      15.427  20.642  -0.759  1.00  0.00    -0.507 OA
ATOM     19  H   UNL     1      15.331  21.614  -0.498  1.00  0.00     0.293 HD
ENDBRANCH   6  18
BRANCH  17  20
ATOM     20  O   UNL     1      20.578  21.255  -0.713  1.00  0.00    -0.507 OA
ATOM     21  H   UNL     1      20.475  22.163  -0.276  1.00  0.00     0.293 HD
ENDBRANCH  17  20
BRANCH  15  22
ATOM     22  O   UNL     1      23.293  17.782   1.279  1.00  0.00    -0.508 OA
ATOM     23  H   UNL     1      23.911  17.507   0.525  1.00  0.00     0.293 HD
ENDBRANCH  15  22
TORSDOF 3
ENDMDL
