MODEL 1
REMARK VINA RESULT:    -4.794      0.000      0.000
REMARK INTER + INTRA:          -6.121
REMARK INTER:                  -5.775
REMARK INTRA:                  -0.346
REMARK UNBOUND:                -0.346
REMARK SMILES Oc1cc(O)c2cc(O)c(-c3ccc(O)c(O)c3)[o+]c2c1.[Cl-]
REMARK SMILES IDX 10 1 19 2 20 3 21 4 2 5 3 6 4 7 6 8 7 9 8 10 11 11 12 12
REMARK SMILES IDX 13 13 14 14 18 15 16 16 15 17 17 19 9 21 1 23 5 25
REMARK H PARENT 15 18 17 20 9 22 1 24 5 26
REMARK Flexibility Score: inf
ROOT
ATOM      1  C   UNL     1     102.772 101.940  92.943  1.00  0.00     0.402 A 
ATOM      2  O   UNL     1     102.191 100.802  93.312  1.00  0.00    -0.202 OA
ATOM      3  C   UNL     1     102.809  99.626  93.292  1.00  0.00     0.368 A 
ATOM      4  C   UNL     1     102.114  98.485  93.703  1.00  0.00     0.162 A 
ATOM      5  C   UNL     1     102.738  97.237  93.695  1.00  0.00     0.128 A 
ATOM      6  C   UNL     1     104.068  97.127  93.275  1.00  0.00     0.093 A 
ATOM      7  C   UNL     1     104.788  98.255  92.859  1.00  0.00     0.136 A 
ATOM      8  C   UNL     1     104.154  99.526  92.863  1.00  0.00     0.125 A 
ATOM      9  C   UNL     1     104.792 100.707  92.451  1.00  0.00     0.078 A 
ATOM     10  C   UNL     1     104.101 101.922  92.479  1.00  0.00     0.223 A 
ENDROOT
BRANCH   1  11
ATOM     11  C   UNL     1     101.981 103.189  93.020  1.00  0.00     0.087 A 
ATOM     12  C   UNL     1     101.257 103.668  91.914  1.00  0.00     0.022 A 
ATOM     13  C   UNL     1     100.537 104.862  92.004  1.00  0.00     0.051 A 
ATOM     14  C   UNL     1     100.540 105.600  93.194  1.00  0.00     0.157 A 
ATOM     15  C   UNL     1     101.997 103.945  94.204  1.00  0.00     0.068 A 
ATOM     16  C   UNL     1     101.274 105.143  94.295  1.00  0.00     0.158 A 
BRANCH  14  17
ATOM     17  O   UNL     1      99.822 106.791  93.288  1.00  0.00    -0.504 OA
ATOM     18  H   UNL     1      99.291 107.026  94.119  1.00  0.00     0.293 HD
ENDBRANCH  14  17
BRANCH  16  19
ATOM     19  O   UNL     1     101.282 105.883  95.476  1.00  0.00    -0.504 OA
ATOM     20  H   UNL     1     101.568 106.855  95.491  1.00  0.00     0.293 HD
ENDBRANCH  16  19
ENDBRANCH   1  11
BRANCH  10  21
ATOM     21  O   UNL     1     104.717 103.088  92.022  1.00  0.00    -0.500 OA
ATOM     22  H   UNL     1     105.425 103.565  92.568  1.00  0.00     0.294 HD
ENDBRANCH  10  21
BRANCH   5  23
ATOM     23  O   UNL     1     102.028  96.113  94.107  1.00  0.00    -0.507 OA
ATOM     24  H   UNL     1     102.433  95.434  94.741  1.00  0.00     0.293 HD
ENDBRANCH   5  23
BRANCH   7  25
ATOM     25  O   UNL     1     106.112  98.062  92.457  1.00  0.00    -0.507 OA
ATOM     26  H   UNL     1     106.725  98.799  92.140  1.00  0.00     0.293 HD
ENDBRANCH   7  25
TORSDOF 6
ENDMDL
MODEL 2
REMARK VINA RESULT:    -4.779      1.227      2.828
REMARK INTER + INTRA:          -6.103
REMARK INTER:                  -5.829
REMARK INTRA:                  -0.274
REMARK UNBOUND:                -0.346
REMARK SMILES Oc1cc(O)c2cc(O)c(-c3ccc(O)c(O)c3)[o+]c2c1.[Cl-]
REMARK SMILES IDX 10 1 19 2 20 3 21 4 2 5 3 6 4 7 6 8 7 9 8 10 11 11 12 12
REMARK SMILES IDX 13 13 14 14 18 15 16 16 15 17 17 19 9 21 1 23 5 25
REMARK H PARENT 15 18 17 20 9 22 1 24 5 26
REMARK Flexibility Score: inf
ROOT
ATOM      1  C   UNL     1     101.164 101.264  93.552  1.00  0.00     0.402 A 
ATOM      2  O   UNL     1     102.417 100.978  93.208  1.00  0.00    -0.202 OA
ATOM      3  C   UNL     1     102.924  99.751  93.250  1.00  0.00     0.368 A 
ATOM      4  C   UNL     1     104.253  99.551  92.866  1.00  0.00     0.162 A 
ATOM      5  C   UNL     1     104.812  98.273  92.897  1.00  0.00     0.128 A 
ATOM      6  C   UNL     1     104.038  97.184  93.314  1.00  0.00     0.093 A 
ATOM      7  C   UNL     1     102.703  97.358  93.703  1.00  0.00     0.136 A 
ATOM      8  C   UNL     1     102.133  98.658  93.676  1.00  0.00     0.125 A 
ATOM      9  C   UNL     1     100.810  98.927  94.061  1.00  0.00     0.078 A 
ATOM     10  C   UNL     1     100.319 100.236  94.011  1.00  0.00     0.223 A 
ENDROOT
BRANCH   1  11
ATOM     11  C   UNL     1     100.712 102.670  93.453  1.00  0.00     0.087 A 
ATOM     12  C   UNL     1      99.775 103.072  92.484  1.00  0.00     0.022 A 
ATOM     13  C   UNL     1      99.382 104.411  92.395  1.00  0.00     0.051 A 
ATOM     14  C   UNL     1      99.928 105.366  93.261  1.00  0.00     0.157 A 
ATOM     15  C   UNL     1     101.271 103.636  94.305  1.00  0.00     0.068 A 
ATOM     16  C   UNL     1     100.876 104.980  94.216  1.00  0.00     0.158 A 
BRANCH  14  17
ATOM     17  O   UNL     1      99.537 106.701  93.176  1.00  0.00    -0.504 OA
ATOM     18  H   UNL     1     100.208 107.441  93.008  1.00  0.00     0.293 HD
ENDBRANCH  14  17
BRANCH  16  19
ATOM     19  O   UNL     1     101.423 105.934  95.073  1.00  0.00    -0.504 OA
ATOM     20  H   UNL     1     102.287 106.414  94.849  1.00  0.00     0.293 HD
ENDBRANCH  16  19
ENDBRANCH   1  11
BRANCH  10  21
ATOM     21  O   UNL     1      99.021 100.513  94.441  1.00  0.00    -0.500 OA
ATOM     22  H   UNL     1      98.612 101.435  94.340  1.00  0.00     0.294 HD
ENDBRANCH  10  21
BRANCH   5  23
ATOM     23  O   UNL     1     106.138  98.095  92.511  1.00  0.00    -0.507 OA
ATOM     24  H   UNL     1     106.885  98.045  93.193  1.00  0.00     0.293 HD
ENDBRANCH   5  23
BRANCH   7  25
ATOM     25  O   UNL     1     101.997  96.221  94.104  1.00  0.00    -0.507 OA
ATOM     26  H   UNL     1     102.334  95.274  94.004  1.00  0.00     0.293 HD
ENDBRANCH   7  25
TORSDOF 6
ENDMDL
MODEL 3
REMARK VINA RESULT:    -4.647      4.908      6.689
REMARK INTER + INTRA:          -5.944
REMARK INTER:                  -5.595
REMARK INTRA:                  -0.349
REMARK UNBOUND:                -0.346
REMARK SMILES Oc1cc(O)c2cc(O)c(-c3ccc(O)c(O)c3)[o+]c2c1.[Cl-]
REMARK SMILES IDX 10 1 19 2 20 3 21 4 2 5 3 6 4 7 6 8 7 9 8 10 11 11 12 12
REMARK SMILES IDX 13 13 14 14 18 15 16 16 15 17 17 19 9 21 1 23 5 25
REMARK H PARENT 15 18 17 20 9 22 1 24 5 26
REMARK Flexibility Score: inf
ROOT
ATOM      1  C   UNL     1     102.093 106.389  93.037  1.00  0.00     0.402 A 
ATOM      2  O   UNL     1     102.827 107.058  92.151  1.00  0.00    -0.202 OA
ATOM      3  C   UNL     1     104.113 106.809  91.931  1.00  0.00     0.368 A 
ATOM      4  C   UNL     1     104.799 107.566  90.976  1.00  0.00     0.162 A 
ATOM      5  C   UNL     1     106.150 107.325  90.723  1.00  0.00     0.128 A 
ATOM      6  C   UNL     1     106.822 106.320  91.427  1.00  0.00     0.093 A 
ATOM      7  C   UNL     1     106.158 105.548  92.389  1.00  0.00     0.136 A 
ATOM      8  C   UNL     1     104.785 105.792  92.652  1.00  0.00     0.125 A 
ATOM      9  C   UNL     1     104.043 105.078  93.606  1.00  0.00     0.078 A 
ATOM     10  C   UNL     1     102.693 105.378  93.812  1.00  0.00     0.223 A 
ENDROOT
BRANCH   1  11
ATOM     11  C   UNL     1     100.666 106.752  93.183  1.00  0.00     0.087 A 
ATOM     12  C   UNL     1     100.251 107.749  94.084  1.00  0.00     0.022 A 
ATOM     13  C   UNL     1      98.895 108.058  94.221  1.00  0.00     0.051 A 
ATOM     14  C   UNL     1      97.935 107.368  93.471  1.00  0.00     0.157 A 
ATOM     15  C   UNL     1      99.696 106.050  92.448  1.00  0.00     0.068 A 
ATOM     16  C   UNL     1      98.335 106.360  92.585  1.00  0.00     0.158 A 
BRANCH  14  17
ATOM     17  O   UNL     1      96.582 107.674  93.603  1.00  0.00    -0.504 OA
ATOM     18  H   UNL     1      96.181 107.929  94.498  1.00  0.00     0.293 HD
ENDBRANCH  14  17
BRANCH  16  19
ATOM     19  O   UNL     1      97.377 105.671  91.844  1.00  0.00    -0.504 OA
ATOM     20  H   UNL     1      97.549 104.735  91.494  1.00  0.00     0.293 HD
ENDBRANCH  16  19
ENDBRANCH   1  11
BRANCH  10  21
ATOM     21  O   UNL     1     101.968 104.704  94.795  1.00  0.00    -0.500 OA
ATOM     22  H   UNL     1     101.998 104.988  95.767  1.00  0.00     0.294 HD
ENDBRANCH  10  21
BRANCH   5  23
ATOM     23  O   UNL     1     106.815 108.090  89.768  1.00  0.00    -0.507 OA
ATOM     24  H   UNL     1     107.572 108.713  90.023  1.00  0.00     0.293 HD
ENDBRANCH   5  23
BRANCH   7  25
ATOM     25  O   UNL     1     106.899 104.563  93.047  1.00  0.00    -0.507 OA
ATOM     26  H   UNL     1     106.567 104.033  93.840  1.00  0.00     0.293 HD
ENDBRANCH   7  25
TORSDOF 6
ENDMDL
MODEL 4
REMARK VINA RESULT:    -4.585      2.509      7.529
REMARK INTER + INTRA:          -5.870
REMARK INTER:                  -5.712
REMARK INTRA:                  -0.158
REMARK UNBOUND:                -0.346
REMARK SMILES Oc1cc(O)c2cc(O)c(-c3ccc(O)c(O)c3)[o+]c2c1.[Cl-]
REMARK SMILES IDX 10 1 19 2 20 3 21 4 2 5 3 6 4 7 6 8 7 9 8 10 11 11 12 12
REMARK SMILES IDX 13 13 14 14 18 15 16 16 15 17 17 19 9 21 1 23 5 25
REMARK H PARENT 15 18 17 20 9 22 1 24 5 26
REMARK Flexibility Score: inf
ROOT
ATOM      1  C   UNL     1     100.907 103.607  93.695  1.00  0.00     0.402 A 
ATOM      2  O   UNL     1      99.874 104.349  93.305  1.00  0.00    -0.202 OA
ATOM      3  C   UNL     1      99.931 105.670  93.179  1.00  0.00     0.368 A 
ATOM      4  C   UNL     1      98.791 106.363  92.760  1.00  0.00     0.162 A 
ATOM      5  C   UNL     1      98.822 107.751  92.616  1.00  0.00     0.128 A 
ATOM      6  C   UNL     1     100.000 108.453  92.892  1.00  0.00     0.093 A 
ATOM      7  C   UNL     1     101.156 107.783  93.313  1.00  0.00     0.136 A 
ATOM      8  C   UNL     1     101.127 106.372  93.464  1.00  0.00     0.125 A 
ATOM      9  C   UNL     1     102.232 105.619  93.893  1.00  0.00     0.078 A 
ATOM     10  C   UNL     1     102.126 104.231  94.021  1.00  0.00     0.223 A 
ENDROOT
BRANCH   1  11
ATOM     11  C   UNL     1     100.722 102.141  93.787  1.00  0.00     0.087 A 
ATOM     12  C   UNL     1      99.805 101.573  94.688  1.00  0.00     0.022 A 
ATOM     13  C   UNL     1      99.665 100.185  94.773  1.00  0.00     0.051 A 
ATOM     14  C   UNL     1     100.448  99.346  93.970  1.00  0.00     0.157 A 
ATOM     15  C   UNL     1     101.520 101.294  92.999  1.00  0.00     0.068 A 
ATOM     16  C   UNL     1     101.380  99.901  93.084  1.00  0.00     0.158 A 
BRANCH  14  17
ATOM     17  O   UNL     1     100.311  97.961  94.051  1.00  0.00    -0.504 OA
ATOM     18  H   UNL     1     100.150  97.495  94.936  1.00  0.00     0.293 HD
ENDBRANCH  14  17
BRANCH  16  19
ATOM     19  O   UNL     1     102.163  99.064  92.291  1.00  0.00    -0.504 OA
ATOM     20  H   UNL     1     103.175  99.108  92.312  1.00  0.00     0.293 HD
ENDBRANCH  16  19
ENDBRANCH   1  11
BRANCH  10  21
ATOM     21  O   UNL     1     103.207 103.488  94.496  1.00  0.00    -0.500 OA
ATOM     22  H   UNL     1     104.130 103.567  94.084  1.00  0.00     0.294 HD
ENDBRANCH  10  21
BRANCH   5  23
ATOM     23  O   UNL     1      97.675 108.422  92.197  1.00  0.00    -0.507 OA
ATOM     24  H   UNL     1      97.088 108.924  92.853  1.00  0.00     0.293 HD
ENDBRANCH   5  23
BRANCH   7  25
ATOM     25  O   UNL     1     102.292 108.556  93.566  1.00  0.00    -0.507 OA
ATOM     26  H   UNL     1     102.404 109.517  93.278  1.00  0.00     0.293 HD
ENDBRANCH   7  25
TORSDOF 6
ENDMDL
MODEL 5
REMARK VINA RESULT:    -4.466      4.128      7.121
REMARK INTER + INTRA:          -5.727
REMARK INTER:                  -5.373
REMARK INTRA:                  -0.353
REMARK UNBOUND:                -0.346
REMARK SMILES Oc1cc(O)c2cc(O)c(-c3ccc(O)c(O)c3)[o+]c2c1.[Cl-]
REMARK SMILES IDX 10 1 19 2 20 3 21 4 2 5 3 6 4 7 6 8 7 9 8 10 11 11 12 12
REMARK SMILES IDX 13 13 14 14 18 15 16 16 15 17 17 19 9 21 1 23 5 25
REMARK H PARENT 15 18 17 20 9 22 1 24 5 26
REMARK Flexibility Score: inf
ROOT
ATOM      1  C   UNL     1     101.287 108.284  93.346  1.00  0.00     0.402 A 
ATOM      2  O   UNL     1     102.408 107.847  92.777  1.00  0.00    -0.202 OA
ATOM      3  C   UNL     1     102.846 106.598  92.893  1.00  0.00     0.368 A 
ATOM      4  C   UNL     1     104.035 106.232  92.255  1.00  0.00     0.162 A 
ATOM      5  C   UNL     1     104.518 104.927  92.356  1.00  0.00     0.128 A 
ATOM      6  C   UNL     1     103.807 103.978  93.099  1.00  0.00     0.093 A 
ATOM      7  C   UNL     1     102.613 104.318  93.747  1.00  0.00     0.136 A 
ATOM      8  C   UNL     1     102.121 105.646  93.649  1.00  0.00     0.125 A 
ATOM      9  C   UNL     1     100.941 106.079  94.275  1.00  0.00     0.078 A 
ATOM     10  C   UNL     1     100.521 107.406  94.136  1.00  0.00     0.223 A 
ENDROOT
BRANCH   1  11
ATOM     11  C   UNL     1     100.899 109.697  93.135  1.00  0.00     0.087 A 
ATOM     12  C   UNL     1     100.059 110.076  92.073  1.00  0.00     0.022 A 
ATOM     13  C   UNL     1      99.726 111.419  91.881  1.00  0.00     0.051 A 
ATOM     14  C   UNL     1     100.235 112.402  92.737  1.00  0.00     0.157 A 
ATOM     15  C   UNL     1     101.423 110.690  93.979  1.00  0.00     0.068 A 
ATOM     16  C   UNL     1     101.088 112.039  93.787  1.00  0.00     0.158 A 
BRANCH  14  17
ATOM     17  O   UNL     1      99.903 113.743  92.550  1.00  0.00    -0.504 OA
ATOM     18  H   UNL     1      99.222 114.208  93.138  1.00  0.00     0.293 HD
ENDBRANCH  14  17
BRANCH  16  19
ATOM     19  O   UNL     1     101.599 113.020  94.634  1.00  0.00    -0.504 OA
ATOM     20  H   UNL     1     101.457 114.006  94.449  1.00  0.00     0.293 HD
ENDBRANCH  16  19
ENDBRANCH   1  11
BRANCH  10  21
ATOM     21  O   UNL     1      99.377 107.851  94.799  1.00  0.00    -0.500 OA
ATOM     22  H   UNL     1      99.314 108.786  95.184  1.00  0.00     0.294 HD
ENDBRANCH  10  21
BRANCH   5  23
ATOM     23  O   UNL     1     105.705 104.584  91.714  1.00  0.00    -0.507 OA
ATOM     24  H   UNL     1     106.566 104.448  92.231  1.00  0.00     0.293 HD
ENDBRANCH   5  23
BRANCH   7  25
ATOM     25  O   UNL     1     101.962 103.312  94.466  1.00  0.00    -0.507 OA
ATOM     26  H   UNL     1     101.782 102.383  94.114  1.00  0.00     0.293 HD
ENDBRANCH   7  25
TORSDOF 6
ENDMDL
MODEL 6
REMARK VINA RESULT:    -4.465      2.154      7.323
REMARK INTER + INTRA:          -5.725
REMARK INTER:                  -5.392
REMARK INTRA:                  -0.333
REMARK UNBOUND:                -0.346
REMARK SMILES Oc1cc(O)c2cc(O)c(-c3ccc(O)c(O)c3)[o+]c2c1.[Cl-]
REMARK SMILES IDX 10 1 19 2 20 3 21 4 2 5 3 6 4 7 6 8 7 9 8 10 11 11 12 12
REMARK SMILES IDX 13 13 14 14 18 15 16 16 15 17 17 19 9 21 1 23 5 25
REMARK H PARENT 15 18 17 20 9 22 1 24 5 26
REMARK Flexibility Score: inf
ROOT
ATOM      1  C   UNL     1     101.105 102.961  93.286  1.00  0.00     0.402 A 
ATOM      2  O   UNL     1      99.948 103.469  92.871  1.00  0.00    -0.202 OA
ATOM      3  C   UNL     1      99.613 104.745  93.026  1.00  0.00     0.368 A 
ATOM      4  C   UNL     1      98.374 105.186  92.553  1.00  0.00     0.162 A 
ATOM      5  C   UNL     1      97.997 106.521  92.699  1.00  0.00     0.128 A 
ATOM      6  C   UNL     1      98.864 107.426  93.322  1.00  0.00     0.093 A 
ATOM      7  C   UNL     1     100.112 107.010  93.804  1.00  0.00     0.136 A 
ATOM      8  C   UNL     1     100.497 105.651  93.659  1.00  0.00     0.125 A 
ATOM      9  C   UNL     1     101.721 105.144  94.124  1.00  0.00     0.078 A 
ATOM     10  C   UNL     1     102.030 103.791  93.949  1.00  0.00     0.223 A 
ENDROOT
BRANCH   1  11
ATOM     11  C   UNL     1     101.367 101.524  93.046  1.00  0.00     0.087 A 
ATOM     12  C   UNL     1     102.195 101.095  91.994  1.00  0.00     0.022 A 
ATOM     13  C   UNL     1     102.408  99.732  91.773  1.00  0.00     0.051 A 
ATOM     14  C   UNL     1     101.788  98.779  92.590  1.00  0.00     0.157 A 
ATOM     15  C   UNL     1     100.731 100.563  93.849  1.00  0.00     0.068 A 
ATOM     16  C   UNL     1     100.945  99.194  93.628  1.00  0.00     0.158 A 
BRANCH  14  17
ATOM     17  O   UNL     1     101.999  97.418  92.374  1.00  0.00    -0.504 OA
ATOM     18  H   UNL     1     101.299  96.728  92.618  1.00  0.00     0.293 HD
ENDBRANCH  14  17
BRANCH  16  19
ATOM     19  O   UNL     1     100.323  98.244  94.436  1.00  0.00    -0.504 OA
ATOM     20  H   UNL     1      99.783  97.483  94.040  1.00  0.00     0.293 HD
ENDBRANCH  16  19
ENDBRANCH   1  11
BRANCH  10  21
ATOM     21  O   UNL     1     103.223 103.274  94.454  1.00  0.00    -0.500 OA
ATOM     22  H   UNL     1     103.337 102.286  94.645  1.00  0.00     0.294 HD
ENDBRANCH  10  21
BRANCH   5  23
ATOM     23  O   UNL     1      96.757 106.940  92.222  1.00  0.00    -0.507 OA
ATOM     24  H   UNL     1      96.053 107.323  92.842  1.00  0.00     0.293 HD
ENDBRANCH   5  23
BRANCH   7  25
ATOM     25  O   UNL     1     100.921 107.974  94.410  1.00  0.00    -0.507 OA
ATOM     26  H   UNL     1     100.574 108.755  94.947  1.00  0.00     0.293 HD
ENDBRANCH   7  25
TORSDOF 6
ENDMDL
MODEL 7
REMARK VINA RESULT:    -4.424      3.500      6.760
REMARK INTER + INTRA:          -5.676
REMARK INTER:                  -5.338
REMARK INTRA:                  -0.337
REMARK UNBOUND:                -0.346
REMARK SMILES Oc1cc(O)c2cc(O)c(-c3ccc(O)c(O)c3)[o+]c2c1.[Cl-]
REMARK SMILES IDX 10 1 19 2 20 3 21 4 2 5 3 6 4 7 6 8 7 9 8 10 11 11 12 12
REMARK SMILES IDX 13 13 14 14 18 15 16 16 15 17 17 19 9 21 1 23 5 25
REMARK H PARENT 15 18 17 20 9 22 1 24 5 26
REMARK Flexibility Score: inf
ROOT
ATOM      1  C   UNL     1     105.058 103.768  92.155  1.00  0.00     0.402 A 
ATOM      2  O   UNL     1     103.850 103.276  91.894  1.00  0.00    -0.202 OA
ATOM      3  C   UNL     1     102.769 103.580  92.604  1.00  0.00     0.368 A 
ATOM      4  C   UNL     1     101.541 103.013  92.250  1.00  0.00     0.162 A 
ATOM      5  C   UNL     1     100.388 103.316  92.975  1.00  0.00     0.128 A 
ATOM      6  C   UNL     1     100.461 104.193  94.064  1.00  0.00     0.093 A 
ATOM      7  C   UNL     1     101.679 104.775  94.439  1.00  0.00     0.136 A 
ATOM      8  C   UNL     1     102.854 104.466  93.705  1.00  0.00     0.125 A 
ATOM      9  C   UNL     1     104.119 104.991  94.017  1.00  0.00     0.078 A 
ATOM     10  C   UNL     1     105.233 104.637  93.249  1.00  0.00     0.223 A 
ENDROOT
BRANCH   1  11
ATOM     11  C   UNL     1     106.184 103.361  91.284  1.00  0.00     0.087 A 
ATOM     12  C   UNL     1     106.658 104.200  90.260  1.00  0.00     0.022 A 
ATOM     13  C   UNL     1     107.707 103.784  89.435  1.00  0.00     0.051 A 
ATOM     14  C   UNL     1     108.287 102.522  89.614  1.00  0.00     0.157 A 
ATOM     15  C   UNL     1     106.757 102.089  91.446  1.00  0.00     0.068 A 
ATOM     16  C   UNL     1     107.810 101.671  90.619  1.00  0.00     0.158 A 
BRANCH  14  17
ATOM     17  O   UNL     1     109.335 102.104  88.795  1.00  0.00    -0.504 OA
ATOM     18  H   UNL     1     110.241 102.558  88.819  1.00  0.00     0.293 HD
ENDBRANCH  14  17
BRANCH  16  19
ATOM     19  O   UNL     1     108.386 100.414  90.790  1.00  0.00    -0.504 OA
ATOM     20  H   UNL     1     107.953  99.577  90.416  1.00  0.00     0.293 HD
ENDBRANCH  16  19
ENDBRANCH   1  11
BRANCH  10  21
ATOM     21  O   UNL     1     106.497 105.117  93.588  1.00  0.00    -0.500 OA
ATOM     22  H   UNL     1     106.646 105.691  94.410  1.00  0.00     0.294 HD
ENDBRANCH  10  21
BRANCH   5  23
ATOM     23  O   UNL     1      99.175 102.741  92.607  1.00  0.00    -0.507 OA
ATOM     24  H   UNL     1      98.954 101.779  92.837  1.00  0.00     0.293 HD
ENDBRANCH   5  23
BRANCH   7  25
ATOM     25  O   UNL     1     101.668 105.642  95.535  1.00  0.00    -0.507 OA
ATOM     26  H   UNL     1     101.275 105.416  96.437  1.00  0.00     0.293 HD
ENDBRANCH   7  25
TORSDOF 6
ENDMDL
MODEL 8
REMARK VINA RESULT:    -4.371      3.791      5.345
REMARK INTER + INTRA:          -5.612
REMARK INTER:                  -5.262
REMARK INTRA:                  -0.350
REMARK UNBOUND:                -0.346
REMARK SMILES Oc1cc(O)c2cc(O)c(-c3ccc(O)c(O)c3)[o+]c2c1.[Cl-]
REMARK SMILES IDX 10 1 19 2 20 3 21 4 2 5 3 6 4 7 6 8 7 9 8 10 11 11 12 12
REMARK SMILES IDX 13 13 14 14 18 15 16 16 15 17 17 19 9 21 1 23 5 25
REMARK H PARENT 15 18 17 20 9 22 1 24 5 26
REMARK Flexibility Score: inf
ROOT
ATOM      1  C   UNL     1     100.561 105.451  93.473  1.00  0.00     0.402 A 
ATOM      2  O   UNL     1      99.478 104.893  92.937  1.00  0.00    -0.202 OA
ATOM      3  C   UNL     1      99.178 103.606  93.072  1.00  0.00     0.368 A 
ATOM      4  C   UNL     1      98.015 103.112  92.474  1.00  0.00     0.162 A 
ATOM      5  C   UNL     1      97.673 101.766  92.601  1.00  0.00     0.128 A 
ATOM      6  C   UNL     1      98.498 100.904  93.331  1.00  0.00     0.093 A 
ATOM      7  C   UNL     1      99.668 101.373  93.941  1.00  0.00     0.136 A 
ATOM      8  C   UNL     1     100.021 102.742  93.811  1.00  0.00     0.125 A 
ATOM      9  C   UNL     1     101.181 103.297  94.376  1.00  0.00     0.078 A 
ATOM     10  C   UNL     1     101.464 104.655  94.202  1.00  0.00     0.223 A 
ENDROOT
BRANCH   1  11
ATOM     11  C   UNL     1     100.780 106.900  93.261  1.00  0.00     0.087 A 
ATOM     12  C   UNL     1     100.394 107.849  94.224  1.00  0.00     0.022 A 
ATOM     13  C   UNL     1     100.591 109.213  93.990  1.00  0.00     0.051 A 
ATOM     14  C   UNL     1     101.163 109.648  92.789  1.00  0.00     0.157 A 
ATOM     15  C   UNL     1     101.335 107.344  92.049  1.00  0.00     0.068 A 
ATOM     16  C   UNL     1     101.534 108.713  91.815  1.00  0.00     0.158 A 
BRANCH  14  17
ATOM     17  O   UNL     1     101.363 111.007  92.553  1.00  0.00    -0.504 OA
ATOM     18  H   UNL     1     101.416 111.380  91.613  1.00  0.00     0.293 HD
ENDBRANCH  14  17
BRANCH  16  19
ATOM     19  O   UNL     1     102.097 109.149  90.617  1.00  0.00    -0.504 OA
ATOM     20  H   UNL     1     103.003 109.603  90.592  1.00  0.00     0.293 HD
ENDBRANCH  16  19
ENDBRANCH   1  11
BRANCH  10  21
ATOM     21  O   UNL     1     102.641 105.196  94.720  1.00  0.00    -0.500 OA
ATOM     22  H   UNL     1     103.512 104.679  94.715  1.00  0.00     0.294 HD
ENDBRANCH  10  21
BRANCH   5  23
ATOM     23  O   UNL     1      96.510 101.294  91.996  1.00  0.00    -0.507 OA
ATOM     24  H   UNL     1      95.593 101.516  92.367  1.00  0.00     0.293 HD
ENDBRANCH   5  23
BRANCH   7  25
ATOM     25  O   UNL     1     100.437 100.450  94.655  1.00  0.00    -0.507 OA
ATOM     26  H   UNL     1     101.438 100.353  94.569  1.00  0.00     0.293 HD
ENDBRANCH   7  25
TORSDOF 6
ENDMDL
MODEL 9
REMARK VINA RESULT:    -4.341      4.465      7.809
REMARK INTER + INTRA:          -5.576
REMARK INTER:                  -5.235
REMARK INTRA:                  -0.341
REMARK UNBOUND:                -0.346
REMARK SMILES Oc1cc(O)c2cc(O)c(-c3ccc(O)c(O)c3)[o+]c2c1.[Cl-]
REMARK SMILES IDX 10 1 19 2 20 3 21 4 2 5 3 6 4 7 6 8 7 9 8 10 11 11 12 12
REMARK SMILES IDX 13 13 14 14 18 15 16 16 15 17 17 19 9 21 1 23 5 25
REMARK H PARENT 15 18 17 20 9 22 1 24 5 26
REMARK Flexibility Score: inf
ROOT
ATOM      1  C   UNL     1     100.693 108.797  93.098  1.00  0.00     0.402 A 
ATOM      2  O   UNL     1     101.447 107.790  93.532  1.00  0.00    -0.202 OA
ATOM      3  C   UNL     1     101.055 106.521  93.504  1.00  0.00     0.368 A 
ATOM      4  C   UNL     1     101.920 105.531  93.981  1.00  0.00     0.162 A 
ATOM      5  C   UNL     1     101.538 104.190  93.962  1.00  0.00     0.128 A 
ATOM      6  C   UNL     1     100.281 103.832  93.462  1.00  0.00     0.093 A 
ATOM      7  C   UNL     1      99.395 104.803  92.978  1.00  0.00     0.136 A 
ATOM      8  C   UNL     1      99.780 106.169  92.999  1.00  0.00     0.125 A 
ATOM      9  C   UNL     1      98.954 107.211  92.548  1.00  0.00     0.078 A 
ATOM     10  C   UNL     1      99.401 108.534  92.603  1.00  0.00     0.223 A 
ENDROOT
BRANCH   1  11
ATOM     11  C   UNL     1     101.245 110.168  93.171  1.00  0.00     0.087 A 
ATOM     12  C   UNL     1     101.135 110.941  94.340  1.00  0.00     0.022 A 
ATOM     13  C   UNL     1     101.644 112.243  94.377  1.00  0.00     0.051 A 
ATOM     14  C   UNL     1     102.257 112.793  93.245  1.00  0.00     0.157 A 
ATOM     15  C   UNL     1     101.843 110.733  92.032  1.00  0.00     0.068 A 
ATOM     16  C   UNL     1     102.354 112.039  92.069  1.00  0.00     0.158 A 
BRANCH  14  17
ATOM     17  O   UNL     1     102.767 114.090  93.278  1.00  0.00    -0.504 OA
ATOM     18  H   UNL     1     102.209 114.871  93.602  1.00  0.00     0.293 HD
ENDBRANCH  14  17
BRANCH  16  19
ATOM     19  O   UNL     1     102.959 112.592  90.941  1.00  0.00    -0.504 OA
ATOM     20  H   UNL     1     102.446 113.191  90.305  1.00  0.00     0.293 HD
ENDBRANCH  16  19
ENDBRANCH   1  11
BRANCH  10  21
ATOM     21  O   UNL     1      98.562 109.574  92.202  1.00  0.00    -0.500 OA
ATOM     22  H   UNL     1      97.557 109.520  92.314  1.00  0.00     0.294 HD
ENDBRANCH  10  21
BRANCH   5  23
ATOM     23  O   UNL     1     102.414 103.220  94.442  1.00  0.00    -0.507 OA
ATOM     24  H   UNL     1     102.214 102.231  94.344  1.00  0.00     0.293 HD
ENDBRANCH   5  23
BRANCH   7  25
ATOM     25  O   UNL     1      98.160 104.364  92.493  1.00  0.00    -0.507 OA
ATOM     26  H   UNL     1      97.423 104.975  92.173  1.00  0.00     0.293 HD
ENDBRANCH   7  25
TORSDOF 6
ENDMDL
