MODEL 1
REMARK VINA RESULT:    -4.472      0.000      0.000
REMARK INTER + INTRA:          -8.027
REMARK INTER:                  -6.826
REMARK INTRA:                  -1.202
REMARK UNBOUND:                -1.202
REMARK SMILES CC(=O)CCC=C(C)CCC=C(C)CCC=C(C)C
REMARK SMILES IDX 10 1 11 2 12 3 13 4 14 5 15 6 16 7 18 8 17 9 19 10 9 11 7 12
REMARK SMILES IDX 6 13 8 14 5 15 4 16 2 17 3 18 1 19
REMARK H PARENT
REMARK Flexibility Score: inf
ROOT
ATOM      1  C   UNL     1      28.354  34.471  20.776  1.00  0.00     0.032 C 
ENDROOT
BRANCH   1   2
ATOM      2  C   UNL     1      28.963  35.705  20.158  1.00  0.00    -0.028 C 
ATOM      3  C   UNL     1      28.307  36.883  20.056  1.00  0.00    -0.077 C 
ATOM      4  C   UNL     1      26.891  37.042  20.556  1.00  0.00     0.039 C 
BRANCH   3   5
ATOM      5  C   UNL     1      29.008  38.063  19.420  1.00  0.00     0.034 C 
BRANCH   5   6
ATOM      6  C   UNL     1      28.987  39.274  20.358  1.00  0.00     0.032 C 
BRANCH   6   7
ATOM      7  C   UNL     1      28.547  40.513  19.618  1.00  0.00    -0.028 C 
ATOM      8  C   UNL     1      26.369  40.658  20.845  1.00  0.00     0.039 C 
ATOM      9  C   UNL     1      27.383  41.163  19.845  1.00  0.00    -0.080 C 
ATOM     10  C   UNL     1      27.094  42.416  19.060  1.00  0.00     0.039 C 
ENDBRANCH   6   7
ENDBRANCH   5   6
ENDBRANCH   3   5
ENDBRANCH   1   2
BRANCH   1  11
ATOM     11  C   UNL     1      29.125  34.039  22.027  1.00  0.00     0.034 C 
BRANCH  11  12
ATOM     12  C   UNL     1      28.183  33.866  23.202  1.00  0.00    -0.077 C 
ATOM     13  C   UNL     1      28.219  32.795  24.026  1.00  0.00    -0.028 C 
ATOM     14  C   UNL     1      27.213  34.977  23.515  1.00  0.00     0.039 C 
BRANCH  13  15
ATOM     15  C   UNL     1      29.125  31.598  23.854  1.00  0.00     0.035 C 
BRANCH  15  16
ATOM     16  C   UNL     1      28.365  30.381  23.308  1.00  0.00     0.079 C 
BRANCH  16  17
ATOM     17  C   UNL     1      27.755  29.563  24.418  1.00  0.00     0.130 C 
ATOM     18  O   UNL     1      26.542  29.563  24.569  1.00  0.00    -0.300 OA
ATOM     19  C   UNL     1      28.609  28.744  25.341  1.00  0.00     0.087 C 
ENDBRANCH  16  17
ENDBRANCH  15  16
ENDBRANCH  13  15
ENDBRANCH  11  12
ENDBRANCH   1  11
TORSDOF 9
ENDMDL
MODEL 2
REMARK VINA RESULT:    -4.415      3.789      9.685
REMARK INTER + INTRA:          -7.940
REMARK INTER:                  -7.220
REMARK INTRA:                  -0.720
REMARK UNBOUND:                -1.202
REMARK SMILES CC(=O)CCC=C(C)CCC=C(C)CCC=C(C)C
REMARK SMILES IDX 10 1 11 2 12 3 13 4 14 5 15 6 16 7 18 8 17 9 19 10 9 11 7 12
REMARK SMILES IDX 6 13 8 14 5 15 4 16 2 17 3 18 1 19
REMARK H PARENT
REMARK Flexibility Score: inf
ROOT
ATOM      1  C   UNL     1      26.959  36.504  20.600  1.00  0.00     0.032 C 
ENDROOT
BRANCH   1   2
ATOM      2  C   UNL     1      27.611  35.719  21.711  1.00  0.00    -0.028 C 
ATOM      3  C   UNL     1      28.396  34.640  21.493  1.00  0.00    -0.077 C 
ATOM      4  C   UNL     1      28.672  34.136  20.096  1.00  0.00     0.039 C 
BRANCH   3   5
ATOM      5  C   UNL     1      29.004  33.921  22.676  1.00  0.00     0.034 C 
BRANCH   5   6
ATOM      6  C   UNL     1      28.919  32.403  22.490  1.00  0.00     0.032 C 
BRANCH   6   7
ATOM      7  C   UNL     1      28.607  31.723  23.799  1.00  0.00    -0.028 C 
ATOM      8  C   UNL     1      28.577  29.435  22.780  1.00  0.00     0.039 C 
ATOM      9  C   UNL     1      28.477  30.385  23.951  1.00  0.00    -0.080 C 
ATOM     10  C   UNL     1      28.207  29.840  25.329  1.00  0.00     0.039 C 
ENDBRANCH   6   7
ENDBRANCH   5   6
ENDBRANCH   3   5
ENDBRANCH   1   2
BRANCH   1  11
ATOM     11  C   UNL     1      27.270  37.998  20.721  1.00  0.00     0.034 C 
BRANCH  11  12
ATOM     12  C   UNL     1      25.990  38.807  20.797  1.00  0.00    -0.077 C 
ATOM     13  C   UNL     1      25.960  40.154  20.695  1.00  0.00    -0.028 C 
ATOM     14  C   UNL     1      24.680  38.070  20.915  1.00  0.00     0.039 C 
BRANCH  13  15
ATOM     15  C   UNL     1      27.177  41.042  20.576  1.00  0.00     0.035 C 
BRANCH  15  16
ATOM     16  C   UNL     1      27.184  41.826  19.255  1.00  0.00     0.079 C 
BRANCH  16  17
ATOM     17  C   UNL     1      26.775  43.262  19.459  1.00  0.00     0.130 C 
ATOM     18  O   UNL     1      26.423  43.930  18.497  1.00  0.00    -0.300 OA
ATOM     19  C   UNL     1      26.787  43.890  20.822  1.00  0.00     0.087 C 
ENDBRANCH  16  17
ENDBRANCH  15  16
ENDBRANCH  13  15
ENDBRANCH  11  12
ENDBRANCH   1  11
TORSDOF 9
ENDMDL
MODEL 3
REMARK VINA RESULT:    -4.394      3.135      8.712
REMARK INTER + INTRA:          -7.907
REMARK INTER:                  -6.814
REMARK INTRA:                  -1.094
REMARK UNBOUND:                -1.202
REMARK SMILES CC(=O)CCC=C(C)CCC=C(C)CCC=C(C)C
REMARK SMILES IDX 10 1 11 2 12 3 13 4 14 5 15 6 16 7 18 8 17 9 19 10 9 11 7 12
REMARK SMILES IDX 6 13 8 14 5 15 4 16 2 17 3 18 1 19
REMARK H PARENT
REMARK Flexibility Score: inf
ROOT
ATOM      1  C   UNL     1      26.353  36.581  21.957  1.00  0.00     0.032 C 
ENDROOT
BRANCH   1   2
ATOM      2  C   UNL     1      27.380  35.504  21.708  1.00  0.00    -0.028 C 
ATOM      3  C   UNL     1      27.854  34.695  22.681  1.00  0.00    -0.077 C 
ATOM      4  C   UNL     1      27.382  34.821  24.110  1.00  0.00     0.039 C 
BRANCH   3   5
ATOM      5  C   UNL     1      28.883  33.645  22.328  1.00  0.00     0.034 C 
BRANCH   5   6
ATOM      6  C   UNL     1      28.907  32.533  23.382  1.00  0.00     0.032 C 
BRANCH   6   7
ATOM      7  C   UNL     1      29.124  31.189  22.735  1.00  0.00    -0.028 C 
ATOM      8  C   UNL     1      27.644  29.993  24.363  1.00  0.00     0.039 C 
ATOM      9  C   UNL     1      28.541  30.040  23.148  1.00  0.00    -0.080 C 
ATOM     10  C   UNL     1      28.816  28.776  22.377  1.00  0.00     0.039 C 
ENDBRANCH   6   7
ENDBRANCH   5   6
ENDBRANCH   3   5
ENDBRANCH   1   2
BRANCH   1  11
ATOM     11  C   UNL     1      25.802  37.136  20.640  1.00  0.00     0.034 C 
BRANCH  11  12
ATOM     12  C   UNL     1      25.072  38.443  20.874  1.00  0.00    -0.077 C 
ATOM     13  C   UNL     1      25.647  39.653  20.694  1.00  0.00    -0.028 C 
ATOM     14  C   UNL     1      23.612  38.395  21.250  1.00  0.00     0.039 C 
BRANCH  13  15
ATOM     15  C   UNL     1      27.094  39.878  20.323  1.00  0.00     0.035 C 
BRANCH  15  16
ATOM     16  C   UNL     1      27.270  40.084  18.812  1.00  0.00     0.079 C 
BRANCH  16  17
ATOM     17  C   UNL     1      28.096  38.985  18.194  1.00  0.00     0.130 C 
ATOM     18  O   UNL     1      28.053  38.806  16.985  1.00  0.00    -0.300 OA
ATOM     19  C   UNL     1      28.976  38.106  19.033  1.00  0.00     0.087 C 
ENDBRANCH  16  17
ENDBRANCH  15  16
ENDBRANCH  13  15
ENDBRANCH  11  12
ENDBRANCH   1  11
TORSDOF 9
ENDMDL
MODEL 4
REMARK VINA RESULT:    -4.213      3.706      9.103
REMARK INTER + INTRA:          -7.631
REMARK INTER:                  -6.580
REMARK INTRA:                  -1.051
REMARK UNBOUND:                -1.202
REMARK SMILES CC(=O)CCC=C(C)CCC=C(C)CCC=C(C)C
REMARK SMILES IDX 10 1 11 2 12 3 13 4 14 5 15 6 16 7 18 8 17 9 19 10 9 11 7 12
REMARK SMILES IDX 6 13 8 14 5 15 4 16 2 17 3 18 1 19
REMARK H PARENT
REMARK Flexibility Score: inf
ROOT
ATOM      1  C   UNL     1      26.646  38.498  20.636  1.00  0.00     0.032 C 
ENDROOT
BRANCH   1   2
ATOM      2  C   UNL     1      27.366  37.213  20.307  1.00  0.00    -0.028 C 
ATOM      3  C   UNL     1      27.332  36.121  21.102  1.00  0.00    -0.077 C 
ATOM      4  C   UNL     1      26.562  36.116  22.401  1.00  0.00     0.039 C 
BRANCH   3   5
ATOM      5  C   UNL     1      28.089  34.881  20.681  1.00  0.00     0.034 C 
BRANCH   5   6
ATOM      6  C   UNL     1      29.124  34.492  21.741  1.00  0.00     0.032 C 
BRANCH   6   7
ATOM      7  C   UNL     1      28.748  33.190  22.402  1.00  0.00    -0.028 C 
ATOM      8  C   UNL     1      29.036  34.104  24.716  1.00  0.00     0.039 C 
ATOM      9  C   UNL     1      28.677  33.007  23.740  1.00  0.00    -0.080 C 
ATOM     10  C   UNL     1      28.243  31.662  24.261  1.00  0.00     0.039 C 
ENDBRANCH   6   7
ENDBRANCH   5   6
ENDBRANCH   3   5
ENDBRANCH   1   2
BRANCH   1  11
ATOM     11  C   UNL     1      26.573  39.420  19.416  1.00  0.00     0.034 C 
BRANCH  11  12
ATOM     12  C   UNL     1      27.940  39.578  18.782  1.00  0.00    -0.077 C 
ATOM     13  C   UNL     1      28.917  40.346  19.314  1.00  0.00    -0.028 C 
ATOM     14  C   UNL     1      28.255  38.781  17.541  1.00  0.00     0.039 C 
BRANCH  13  15
ATOM     15  C   UNL     1      28.769  41.208  20.546  1.00  0.00     0.035 C 
BRANCH  15  16
ATOM     16  C   UNL     1      28.631  42.695  20.190  1.00  0.00     0.079 C 
BRANCH  16  17
ATOM     17  C   UNL     1      27.237  43.027  19.721  1.00  0.00     0.130 C 
ATOM     18  O   UNL     1      27.019  43.159  18.526  1.00  0.00    -0.300 OA
ATOM     19  C   UNL     1      26.108  43.197  20.695  1.00  0.00     0.087 C 
ENDBRANCH  16  17
ENDBRANCH  15  16
ENDBRANCH  13  15
ENDBRANCH  11  12
ENDBRANCH   1  11
TORSDOF 9
ENDMDL
MODEL 5
REMARK VINA RESULT:    -4.185      3.334      9.373
REMARK INTER + INTRA:          -7.589
REMARK INTER:                  -6.805
REMARK INTRA:                  -0.784
REMARK UNBOUND:                -1.202
REMARK SMILES CC(=O)CCC=C(C)CCC=C(C)CCC=C(C)C
REMARK SMILES IDX 10 1 11 2 12 3 13 4 14 5 15 6 16 7 18 8 17 9 19 10 9 11 7 12
REMARK SMILES IDX 6 13 8 14 5 15 4 16 2 17 3 18 1 19
REMARK H PARENT
REMARK Flexibility Score: inf
ROOT
ATOM      1  C   UNL     1      27.572  36.390  20.243  1.00  0.00     0.032 C 
ENDROOT
BRANCH   1   2
ATOM      2  C   UNL     1      27.722  35.718  21.586  1.00  0.00    -0.028 C 
ATOM      3  C   UNL     1      28.315  34.515  21.749  1.00  0.00    -0.077 C 
ATOM      4  C   UNL     1      28.871  33.745  20.574  1.00  0.00     0.039 C 
BRANCH   3   5
ATOM      5  C   UNL     1      28.415  33.926  23.138  1.00  0.00     0.034 C 
BRANCH   5   6
ATOM      6  C   UNL     1      28.973  32.500  23.083  1.00  0.00     0.032 C 
BRANCH   6   7
ATOM      7  C   UNL     1      28.214  31.594  24.019  1.00  0.00    -0.028 C 
ATOM      8  C   UNL     1      28.741  29.532  22.698  1.00  0.00     0.039 C 
ATOM      9  C   UNL     1      28.123  30.252  23.874  1.00  0.00    -0.080 C 
ATOM     10  C   UNL     1      27.365  29.466  24.912  1.00  0.00     0.039 C 
ENDBRANCH   6   7
ENDBRANCH   5   6
ENDBRANCH   3   5
ENDBRANCH   1   2
BRANCH   1  11
ATOM     11  C   UNL     1      28.428  37.658  20.160  1.00  0.00     0.034 C 
BRANCH  11  12
ATOM     12  C   UNL     1      27.636  38.799  19.552  1.00  0.00    -0.077 C 
ATOM     13  C   UNL     1      27.589  40.036  20.093  1.00  0.00    -0.028 C 
ATOM     14  C   UNL     1      26.930  38.565  18.241  1.00  0.00     0.039 C 
BRANCH  13  15
ATOM     15  C   UNL     1      28.236  40.437  21.399  1.00  0.00     0.035 C 
BRANCH  15  16
ATOM     16  C   UNL     1      28.455  41.955  21.484  1.00  0.00     0.079 C 
BRANCH  16  17
ATOM     17  C   UNL     1      27.167  42.688  21.754  1.00  0.00     0.130 C 
ATOM     18  O   UNL     1      26.671  42.645  22.870  1.00  0.00    -0.300 OA
ATOM     19  C   UNL     1      26.479  43.476  20.677  1.00  0.00     0.087 C 
ENDBRANCH  16  17
ENDBRANCH  15  16
ENDBRANCH  13  15
ENDBRANCH  11  12
ENDBRANCH   1  11
TORSDOF 9
ENDMDL
MODEL 6
REMARK VINA RESULT:    -4.149      3.550      8.772
REMARK INTER + INTRA:          -7.534
REMARK INTER:                  -6.292
REMARK INTRA:                  -1.242
REMARK UNBOUND:                -1.202
REMARK SMILES CC(=O)CCC=C(C)CCC=C(C)CCC=C(C)C
REMARK SMILES IDX 10 1 11 2 12 3 13 4 14 5 15 6 16 7 18 8 17 9 19 10 9 11 7 12
REMARK SMILES IDX 6 13 8 14 5 15 4 16 2 17 3 18 1 19
REMARK H PARENT
REMARK Flexibility Score: inf
ROOT
ATOM      1  C   UNL     1      26.496  38.964  20.395  1.00  0.00     0.032 C 
ENDROOT
BRANCH   1   2
ATOM      2  C   UNL     1      27.279  37.698  20.639  1.00  0.00    -0.028 C 
ATOM      3  C   UNL     1      28.236  37.247  19.797  1.00  0.00    -0.077 C 
ATOM      4  C   UNL     1      28.586  37.990  18.530  1.00  0.00     0.039 C 
BRANCH   3   5
ATOM      5  C   UNL     1      28.966  35.965  20.133  1.00  0.00     0.034 C 
BRANCH   5   6
ATOM      6  C   UNL     1      28.002  34.934  20.730  1.00  0.00     0.032 C 
BRANCH   6   7
ATOM      7  C   UNL     1      28.640  34.221  21.895  1.00  0.00    -0.028 C 
ATOM      8  C   UNL     1      26.988  35.122  23.548  1.00  0.00     0.039 C 
ATOM      9  C   UNL     1      28.179  34.274  23.166  1.00  0.00    -0.080 C 
ATOM     10  C   UNL     1      28.893  33.474  24.224  1.00  0.00     0.039 C 
ENDBRANCH   6   7
ENDBRANCH   5   6
ENDBRANCH   3   5
ENDBRANCH   1   2
BRANCH   1  11
ATOM     11  C   UNL     1      27.162  40.167  21.070  1.00  0.00     0.034 C 
BRANCH  11  12
ATOM     12  C   UNL     1      26.979  41.418  20.234  1.00  0.00    -0.077 C 
ATOM     13  C   UNL     1      26.715  42.631  20.769  1.00  0.00    -0.028 C 
ATOM     14  C   UNL     1      27.177  41.323  18.743  1.00  0.00     0.039 C 
BRANCH  13  15
ATOM     15  C   UNL     1      26.485  42.900  22.238  1.00  0.00     0.035 C 
BRANCH  15  16
ATOM     16  C   UNL     1      27.680  43.621  22.880  1.00  0.00     0.079 C 
BRANCH  16  17
ATOM     17  C   UNL     1      28.173  42.896  24.106  1.00  0.00     0.130 C 
ATOM     18  O   UNL     1      28.652  41.778  23.991  1.00  0.00    -0.300 OA
ATOM     19  C   UNL     1      28.091  43.522  25.467  1.00  0.00     0.087 C 
ENDBRANCH  16  17
ENDBRANCH  15  16
ENDBRANCH  13  15
ENDBRANCH  11  12
ENDBRANCH   1  11
TORSDOF 9
ENDMDL
MODEL 7
REMARK VINA RESULT:    -4.145      1.484      2.071
REMARK INTER + INTRA:          -7.528
REMARK INTER:                  -6.538
REMARK INTRA:                  -0.990
REMARK UNBOUND:                -1.202
REMARK SMILES CC(=O)CCC=C(C)CCC=C(C)CCC=C(C)C
REMARK SMILES IDX 10 1 11 2 12 3 13 4 14 5 15 6 16 7 18 8 17 9 19 10 9 11 7 12
REMARK SMILES IDX 6 13 8 14 5 15 4 16 2 17 3 18 1 19
REMARK H PARENT
REMARK Flexibility Score: inf
ROOT
ATOM      1  C   UNL     1      27.540  35.829  20.945  1.00  0.00     0.032 C 
ENDROOT
BRANCH   1   2
ATOM      2  C   UNL     1      28.171  36.903  20.093  1.00  0.00    -0.028 C 
ATOM      3  C   UNL     1      27.472  37.931  19.561  1.00  0.00    -0.077 C 
ATOM      4  C   UNL     1      25.985  38.070  19.782  1.00  0.00     0.039 C 
BRANCH   3   5
ATOM      5  C   UNL     1      28.199  38.957  18.721  1.00  0.00     0.034 C 
BRANCH   5   6
ATOM      6  C   UNL     1      27.747  40.375  19.087  1.00  0.00     0.032 C 
BRANCH   6   7
ATOM      7  C   UNL     1      28.341  40.799  20.406  1.00  0.00    -0.028 C 
ATOM      8  C   UNL     1      26.133  41.519  21.344  1.00  0.00     0.039 C 
ATOM      9  C   UNL     1      27.623  41.290  21.442  1.00  0.00    -0.080 C 
ATOM     10  C   UNL     1      28.345  41.633  22.719  1.00  0.00     0.039 C 
ENDBRANCH   6   7
ENDBRANCH   5   6
ENDBRANCH   3   5
ENDBRANCH   1   2
BRANCH   1  11
ATOM     11  C   UNL     1      28.585  35.133  21.822  1.00  0.00     0.034 C 
BRANCH  11  12
ATOM     12  C   UNL     1      28.929  33.767  21.263  1.00  0.00    -0.077 C 
ATOM     13  C   UNL     1      29.124  32.678  22.040  1.00  0.00    -0.028 C 
ATOM     14  C   UNL     1      28.979  33.594  19.766  1.00  0.00     0.039 C 
BRANCH  13  15
ATOM     15  C   UNL     1      29.112  32.678  23.551  1.00  0.00     0.035 C 
BRANCH  15  16
ATOM     16  C   UNL     1      28.047  31.725  24.112  1.00  0.00     0.079 C 
BRANCH  16  17
ATOM     17  C   UNL     1      28.663  30.460  24.654  1.00  0.00     0.130 C 
ATOM     18  O   UNL     1      28.915  30.376  25.847  1.00  0.00    -0.300 OA
ATOM     19  C   UNL     1      28.971  29.297  23.756  1.00  0.00     0.087 C 
ENDBRANCH  16  17
ENDBRANCH  15  16
ENDBRANCH  13  15
ENDBRANCH  11  12
ENDBRANCH   1  11
TORSDOF 9
ENDMDL
MODEL 8
REMARK VINA RESULT:    -3.984      4.414      5.875
REMARK INTER + INTRA:          -7.282
REMARK INTER:                  -5.866
REMARK INTRA:                  -1.416
REMARK UNBOUND:                -1.202
REMARK SMILES CC(=O)CCC=C(C)CCC=C(C)CCC=C(C)C
REMARK SMILES IDX 10 1 11 2 12 3 13 4 14 5 15 6 16 7 18 8 17 9 19 10 9 11 7 12
REMARK SMILES IDX 6 13 8 14 5 15 4 16 2 17 3 18 1 19
REMARK H PARENT
REMARK Flexibility Score: inf
ROOT
ATOM      1  C   UNL     1      27.484  38.743  18.951  1.00  0.00     0.032 C 
ENDROOT
BRANCH   1   2
ATOM      2  C   UNL     1      27.602  40.248  18.948  1.00  0.00    -0.028 C 
ATOM      3  C   UNL     1      26.896  41.047  19.779  1.00  0.00    -0.077 C 
ATOM      4  C   UNL     1      25.919  40.476  20.780  1.00  0.00     0.039 C 
BRANCH   3   5
ATOM      5  C   UNL     1      27.086  42.545  19.697  1.00  0.00     0.034 C 
BRANCH   5   6
ATOM      6  C   UNL     1      28.399  42.961  20.369  1.00  0.00     0.032 C 
BRANCH   6   7
ATOM      7  C   UNL     1      28.167  43.316  21.816  1.00  0.00    -0.028 C 
ATOM      8  C   UNL     1      29.121  41.158  22.657  1.00  0.00     0.039 C 
ATOM      9  C   UNL     1      28.512  42.526  22.859  1.00  0.00    -0.080 C 
ATOM     10  C   UNL     1      28.260  43.028  24.256  1.00  0.00     0.039 C 
ENDBRANCH   6   7
ENDBRANCH   5   6
ENDBRANCH   3   5
ENDBRANCH   1   2
BRANCH   1  11
ATOM     11  C   UNL     1      28.620  38.101  19.753  1.00  0.00     0.034 C 
BRANCH  11  12
ATOM     12  C   UNL     1      28.285  36.664  20.098  1.00  0.00    -0.077 C 
ATOM     13  C   UNL     1      27.248  36.318  20.894  1.00  0.00    -0.028 C 
ATOM     14  C   UNL     1      29.096  35.563  19.464  1.00  0.00     0.039 C 
BRANCH  13  15
ATOM     15  C   UNL     1      26.341  37.293  21.608  1.00  0.00     0.035 C 
BRANCH  15  16
ATOM     16  C   UNL     1      24.990  36.657  21.967  1.00  0.00     0.079 C 
BRANCH  16  17
ATOM     17  C   UNL     1      23.887  37.147  21.064  1.00  0.00     0.130 C 
ATOM     18  O   UNL     1      23.202  38.098  21.412  1.00  0.00    -0.300 OA
ATOM     19  C   UNL     1      23.615  36.494  19.741  1.00  0.00     0.087 C 
ENDBRANCH  16  17
ENDBRANCH  15  16
ENDBRANCH  13  15
ENDBRANCH  11  12
ENDBRANCH   1  11
TORSDOF 9
ENDMDL
MODEL 9
REMARK VINA RESULT:    -3.953      2.650      5.531
REMARK INTER + INTRA:          -7.235
REMARK INTER:                  -6.185
REMARK INTRA:                  -1.049
REMARK UNBOUND:                -1.202
REMARK SMILES CC(=O)CCC=C(C)CCC=C(C)CCC=C(C)C
REMARK SMILES IDX 10 1 11 2 12 3 13 4 14 5 15 6 16 7 18 8 17 9 19 10 9 11 7 12
REMARK SMILES IDX 6 13 8 14 5 15 4 16 2 17 3 18 1 19
REMARK H PARENT
REMARK Flexibility Score: inf
ROOT
ATOM      1  C   UNL     1      26.212  39.611  20.139  1.00  0.00     0.032 C 
ENDROOT
BRANCH   1   2
ATOM      2  C   UNL     1      26.178  40.928  20.874  1.00  0.00    -0.028 C 
ATOM      3  C   UNL     1      26.623  42.086  20.337  1.00  0.00    -0.077 C 
ATOM      4  C   UNL     1      27.200  42.138  18.942  1.00  0.00     0.039 C 
BRANCH   3   5
ATOM      5  C   UNL     1      26.544  43.355  21.156  1.00  0.00     0.034 C 
BRANCH   5   6
ATOM      6  C   UNL     1      27.941  43.800  21.601  1.00  0.00     0.032 C 
BRANCH   6   7
ATOM      7  C   UNL     1      28.610  42.721  22.414  1.00  0.00    -0.028 C 
ATOM      8  C   UNL     1      27.553  43.468  24.558  1.00  0.00     0.039 C 
ATOM      9  C   UNL     1      28.424  42.542  23.742  1.00  0.00    -0.080 C 
ATOM     10  C   UNL     1      29.125  41.393  24.418  1.00  0.00     0.039 C 
ENDBRANCH   6   7
ENDBRANCH   5   6
ENDBRANCH   3   5
ENDBRANCH   1   2
BRANCH   1  11
ATOM     11  C   UNL     1      27.488  38.828  20.466  1.00  0.00     0.034 C 
BRANCH  11  12
ATOM     12  C   UNL     1      28.099  38.252  19.204  1.00  0.00    -0.077 C 
ATOM     13  C   UNL     1      28.792  37.091  19.182  1.00  0.00    -0.028 C 
ATOM     14  C   UNL     1      27.858  38.964  17.897  1.00  0.00     0.039 C 
BRANCH  13  15
ATOM     15  C   UNL     1      29.125  36.257  20.397  1.00  0.00     0.035 C 
BRANCH  15  16
ATOM     16  C   UNL     1      28.440  34.884  20.352  1.00  0.00     0.079 C 
BRANCH  16  17
ATOM     17  C   UNL     1      28.387  34.244  21.716  1.00  0.00     0.130 C 
ATOM     18  O   UNL     1      27.815  34.820  22.629  1.00  0.00    -0.300 OA
ATOM     19  C   UNL     1      29.020  32.908  21.974  1.00  0.00     0.087 C 
ENDBRANCH  16  17
ENDBRANCH  15  16
ENDBRANCH  13  15
ENDBRANCH  11  12
ENDBRANCH   1  11
TORSDOF 9
ENDMDL
