MODEL 1
REMARK VINA RESULT:    -3.847      0.000      0.000
REMARK INTER + INTRA:          -4.630
REMARK INTER:                  -4.634
REMARK INTRA:                   0.004
REMARK UNBOUND:                 0.004
REMARK SMILES CC[C@@H](C)[C@@H]([NH3+])C(=O)[O-]
REMARK SMILES IDX 3 1 4 2 5 3 6 4 7 8 8 9 9 10 2 11 1 12
REMARK H PARENT 6 5 6 6 6 7
REMARK Flexibility Score: inf
ROOT
ATOM      1  C   UNL     1     138.659 137.770 124.605  1.00  0.00     0.050 C 
ATOM      2  C   UNL     1     137.390 138.340 125.269  1.00  0.00     0.014 C 
ENDROOT
BRANCH   1   3
ATOM      3  C   UNL     1     138.643 136.209 124.589  1.00  0.00     0.230 C 
BRANCH   3   4
ATOM      4  N   UNL     1     139.285 135.667 123.382  1.00  0.00    -0.350 N 
ATOM      5  H   UNL     1     138.775 134.820 123.041  1.00  0.00     0.345 HD
ATOM      6  H   UNL     1     140.281 135.420 123.580  1.00  0.00     0.345 HD
ATOM      7  H   UNL     1     139.293 136.388 122.625  1.00  0.00     0.345 HD
ENDBRANCH   3   4
BRANCH   3   8
ATOM      8  C   UNL     1     139.338 135.660 125.811  1.00  0.00     0.099 C 
ATOM      9  O   UNL     1     139.786 134.483 125.811  1.00  0.00    -0.544 OA
ATOM     10  O   UNL     1     139.482 136.447 126.948  1.00  0.00    -0.544 OA
ENDBRANCH   3   8
ENDBRANCH   1   3
BRANCH   1  11
ATOM     11  C   UNL     1     138.880 138.411 123.208  1.00  0.00     0.006 C 
ATOM     12  C   UNL     1     137.592 138.745 122.449  1.00  0.00     0.004 C 
ENDBRANCH   1  11
TORSDOF 4
ENDMDL
MODEL 2
REMARK VINA RESULT:    -3.840      1.651      2.048
REMARK INTER + INTRA:          -4.621
REMARK INTER:                  -4.559
REMARK INTRA:                  -0.062
REMARK UNBOUND:                 0.004
REMARK SMILES CC[C@@H](C)[C@@H]([NH3+])C(=O)[O-]
REMARK SMILES IDX 3 1 4 2 5 3 6 4 7 8 8 9 9 10 2 11 1 12
REMARK H PARENT 6 5 6 6 6 7
REMARK Flexibility Score: inf
ROOT
ATOM      1  C   UNL     1     138.844 137.904 123.711  1.00  0.00     0.050 C 
ATOM      2  C   UNL     1     140.200 138.313 123.100  1.00  0.00     0.014 C 
ENDROOT
BRANCH   1   3
ATOM      3  C   UNL     1     138.910 137.861 125.270  1.00  0.00     0.230 C 
BRANCH   3   4
ATOM      4  N   UNL     1     137.649 138.305 125.883  1.00  0.00    -0.350 N 
ATOM      5  H   UNL     1     136.833 137.818 125.447  1.00  0.00     0.345 HD
ATOM      6  H   UNL     1     137.537 139.339 125.777  1.00  0.00     0.345 HD
ATOM      7  H   UNL     1     137.658 138.102 126.910  1.00  0.00     0.345 HD
ENDBRANCH   3   4
BRANCH   3   8
ATOM      8  C   UNL     1     139.231 136.467 125.749  1.00  0.00     0.099 C 
ATOM      9  O   UNL     1     139.335 135.521 124.924  1.00  0.00    -0.544 OA
ATOM     10  O   UNL     1     139.406 136.215 127.105  1.00  0.00    -0.544 OA
ENDBRANCH   3   8
ENDBRANCH   1   3
BRANCH   1  11
ATOM     11  C   UNL     1     137.702 138.794 123.153  1.00  0.00     0.006 C 
ATOM     12  C   UNL     1     137.143 138.342 121.801  1.00  0.00     0.004 C 
ENDBRANCH   1  11
TORSDOF 4
ENDMDL
MODEL 3
REMARK VINA RESULT:    -3.840     11.169     12.020
REMARK INTER + INTRA:          -4.621
REMARK INTER:                  -4.549
REMARK INTRA:                  -0.072
REMARK UNBOUND:                 0.004
REMARK SMILES CC[C@@H](C)[C@@H]([NH3+])C(=O)[O-]
REMARK SMILES IDX 3 1 4 2 5 3 6 4 7 8 8 9 9 10 2 11 1 12
REMARK H PARENT 6 5 6 6 6 7
REMARK Flexibility Score: inf
ROOT
ATOM      1  C   UNL     1     134.479 125.777 123.692  1.00  0.00     0.050 C 
ATOM      2  C   UNL     1     134.117 124.389 123.125  1.00  0.00     0.014 C 
ENDROOT
BRANCH   1   3
ATOM      3  C   UNL     1     134.429 125.787 125.252  1.00  0.00     0.230 C 
BRANCH   3   4
ATOM      4  N   UNL     1     135.436 126.693 125.826  1.00  0.00    -0.350 N 
ATOM      5  H   UNL     1     135.103 127.684 125.794  1.00  0.00     0.345 HD
ATOM      6  H   UNL     1     136.338 126.610 125.307  1.00  0.00     0.345 HD
ATOM      7  H   UNL     1     135.629 126.431 126.821  1.00  0.00     0.345 HD
ENDBRANCH   3   4
BRANCH   3   8
ATOM      8  C   UNL     1     133.059 126.196 125.737  1.00  0.00     0.099 C 
ATOM      9  O   UNL     1     132.777 126.137 126.963  1.00  0.00    -0.544 OA
ATOM     10  O   UNL     1     132.098 126.631 124.833  1.00  0.00    -0.544 OA
ENDBRANCH   3   8
ENDBRANCH   1   3
BRANCH   1  11
ATOM     11  C   UNL     1     135.825 126.275 123.102  1.00  0.00     0.006 C 
ATOM     12  C   UNL     1     135.690 127.121 121.832  1.00  0.00     0.004 C 
ENDBRANCH   1  11
TORSDOF 4
ENDMDL
MODEL 4
REMARK VINA RESULT:    -3.820     11.986     12.609
REMARK INTER + INTRA:          -4.598
REMARK INTER:                  -4.522
REMARK INTRA:                  -0.076
REMARK UNBOUND:                 0.004
REMARK SMILES CC[C@@H](C)[C@@H]([NH3+])C(=O)[O-]
REMARK SMILES IDX 3 1 4 2 5 3 6 4 7 8 8 9 9 10 2 11 1 12
REMARK H PARENT 6 5 6 6 6 7
REMARK Flexibility Score: inf
ROOT
ATOM      1  C   UNL     1     126.062 135.620 123.630  1.00  0.00     0.050 C 
ATOM      2  C   UNL     1     125.031 136.623 123.072  1.00  0.00     0.014 C 
ENDROOT
BRANCH   1   3
ATOM      3  C   UNL     1     126.184 135.733 125.182  1.00  0.00     0.230 C 
BRANCH   3   4
ATOM      4  N   UNL     1     126.452 134.428 125.807  1.00  0.00    -0.350 N 
ATOM      5  H   UNL     1     125.988 134.364 126.742  1.00  0.00     0.345 HD
ATOM      6  H   UNL     1     127.481 134.282 125.915  1.00  0.00     0.345 HD
ATOM      7  H   UNL     1     126.095 133.658 125.196  1.00  0.00     0.345 HD
ENDBRANCH   3   4
BRANCH   3   8
ATOM      8  C   UNL     1     127.281 136.699 125.559  1.00  0.00     0.099 C 
ATOM      9  O   UNL     1     127.469 137.005 126.766  1.00  0.00    -0.544 OA
ATOM     10  O   UNL     1     128.086 137.262 124.576  1.00  0.00    -0.544 OA
ENDBRANCH   3   8
ENDBRANCH   1   3
BRANCH   1  11
ATOM     11  C   UNL     1     125.757 134.185 123.126  1.00  0.00     0.006 C 
ATOM     12  C   UNL     1     126.578 133.749 121.909  1.00  0.00     0.004 C 
ENDBRANCH   1  11
TORSDOF 4
ENDMDL
MODEL 5
REMARK VINA RESULT:    -3.771     11.137     11.906
REMARK INTER + INTRA:          -4.539
REMARK INTER:                  -4.488
REMARK INTRA:                  -0.050
REMARK UNBOUND:                 0.004
REMARK SMILES CC[C@@H](C)[C@@H]([NH3+])C(=O)[O-]
REMARK SMILES IDX 3 1 4 2 5 3 6 4 7 8 8 9 9 10 2 11 1 12
REMARK H PARENT 6 5 6 6 6 7
REMARK Flexibility Score: inf
ROOT
ATOM      1  C   UNL     1     134.544 126.231 124.515  1.00  0.00     0.050 C 
ATOM      2  C   UNL     1     135.609 127.184 125.093  1.00  0.00     0.014 C 
ENDROOT
BRANCH   1   3
ATOM      3  C   UNL     1     133.132 126.896 124.497  1.00  0.00     0.230 C 
BRANCH   3   4
ATOM      4  N   UNL     1     132.371 126.534 123.292  1.00  0.00    -0.350 N 
ATOM      5  H   UNL     1     132.641 125.581 122.956  1.00  0.00     0.345 HD
ATOM      6  H   UNL     1     132.537 127.233 122.533  1.00  0.00     0.345 HD
ATOM      7  H   UNL     1     131.345 126.544 123.498  1.00  0.00     0.345 HD
ENDBRANCH   3   4
BRANCH   3   8
ATOM      8  C   UNL     1     132.343 126.499 125.721  1.00  0.00     0.099 C 
ATOM      9  O   UNL     1     131.100 126.697 125.766  1.00  0.00    -0.544 OA
ATOM     10  O   UNL     1     132.984 125.919 126.809  1.00  0.00    -0.544 OA
ENDBRANCH   3   8
ENDBRANCH   1   3
BRANCH   1  11
ATOM     11  C   UNL     1     134.996 125.677 123.137  1.00  0.00     0.006 C 
ATOM     12  C   UNL     1     135.950 126.592 122.364  1.00  0.00     0.004 C 
ENDBRANCH   1  11
TORSDOF 4
ENDMDL
MODEL 6
REMARK VINA RESULT:    -3.764     11.216     11.858
REMARK INTER + INTRA:          -4.530
REMARK INTER:                  -4.477
REMARK INTRA:                  -0.052
REMARK UNBOUND:                 0.004
REMARK SMILES CC[C@@H](C)[C@@H]([NH3+])C(=O)[O-]
REMARK SMILES IDX 3 1 4 2 5 3 6 4 7 8 8 9 9 10 2 11 1 12
REMARK H PARENT 6 5 6 6 6 7
REMARK Flexibility Score: inf
ROOT
ATOM      1  C   UNL     1     126.194 135.929 125.198  1.00  0.00     0.050 C 
ATOM      2  C   UNL     1     126.416 134.478 125.673  1.00  0.00     0.014 C 
ENDROOT
BRANCH   1   3
ATOM      3  C   UNL     1     127.408 136.840 125.560  1.00  0.00     0.230 C 
BRANCH   3   4
ATOM      4  N   UNL     1     128.041 136.433 126.824  1.00  0.00    -0.350 N 
ATOM      5  H   UNL     1     129.029 136.133 126.663  1.00  0.00     0.345 HD
ATOM      6  H   UNL     1     127.504 135.652 127.264  1.00  0.00     0.345 HD
ATOM      7  H   UNL     1     128.033 137.230 127.502  1.00  0.00     0.345 HD
ENDBRANCH   3   4
BRANCH   3   8
ATOM      8  C   UNL     1     128.439 136.812 124.458  1.00  0.00     0.099 C 
ATOM      9  O   UNL     1     129.212 135.825 124.336  1.00  0.00    -0.544 OA
ATOM     10  O   UNL     1     128.549 137.880 123.575  1.00  0.00    -0.544 OA
ENDBRANCH   3   8
ENDBRANCH   1   3
BRANCH   1  11
ATOM     11  C   UNL     1     125.811 135.958 123.694  1.00  0.00     0.006 C 
ATOM     12  C   UNL     1     125.795 134.587 123.013  1.00  0.00     0.004 C 
ENDBRANCH   1  11
TORSDOF 4
ENDMDL
MODEL 7
REMARK VINA RESULT:    -3.758     12.115     12.751
REMARK INTER + INTRA:          -4.523
REMARK INTER:                  -4.428
REMARK INTRA:                  -0.095
REMARK UNBOUND:                 0.004
REMARK SMILES CC[C@@H](C)[C@@H]([NH3+])C(=O)[O-]
REMARK SMILES IDX 3 1 4 2 5 3 6 4 7 8 8 9 9 10 2 11 1 12
REMARK H PARENT 6 5 6 6 6 7
REMARK Flexibility Score: inf
ROOT
ATOM      1  C   UNL     1     126.201 134.628 123.763  1.00  0.00     0.050 C 
ATOM      2  C   UNL     1     125.728 135.982 123.197  1.00  0.00     0.014 C 
ENDROOT
BRANCH   1   3
ATOM      3  C   UNL     1     127.471 134.111 123.016  1.00  0.00     0.230 C 
BRANCH   3   4
ATOM      4  N   UNL     1     128.036 132.915 123.660  1.00  0.00    -0.350 N 
ATOM      5  H   UNL     1     127.276 132.252 123.939  1.00  0.00     0.345 HD
ATOM      6  H   UNL     1     128.592 133.184 124.502  1.00  0.00     0.345 HD
ATOM      7  H   UNL     1     128.689 132.428 123.004  1.00  0.00     0.345 HD
ENDBRANCH   3   4
BRANCH   3   8
ATOM      8  C   UNL     1     127.148 133.794 121.576  1.00  0.00     0.099 C 
ATOM      9  O   UNL     1     127.698 134.440 120.646  1.00  0.00    -0.544 OA
ATOM     10  O   UNL     1     126.235 132.792 121.268  1.00  0.00    -0.544 OA
ENDBRANCH   3   8
ENDBRANCH   1   3
BRANCH   1  11
ATOM     11  C   UNL     1     126.365 134.706 125.304  1.00  0.00     0.006 C 
ATOM     12  C   UNL     1     126.259 136.119 125.886  1.00  0.00     0.004 C 
ENDBRANCH   1  11
TORSDOF 4
ENDMDL
MODEL 8
REMARK VINA RESULT:    -3.757      3.613      4.441
REMARK INTER + INTRA:          -4.521
REMARK INTER:                  -4.427
REMARK INTRA:                  -0.094
REMARK UNBOUND:                 0.004
REMARK SMILES CC[C@@H](C)[C@@H]([NH3+])C(=O)[O-]
REMARK SMILES IDX 3 1 4 2 5 3 6 4 7 8 8 9 9 10 2 11 1 12
REMARK H PARENT 6 5 6 6 6 7
REMARK Flexibility Score: inf
ROOT
ATOM      1  C   UNL     1     137.947 138.396 123.732  1.00  0.00     0.050 C 
ATOM      2  C   UNL     1     139.361 138.199 123.150  1.00  0.00     0.014 C 
ENDROOT
BRANCH   1   3
ATOM      3  C   UNL     1     136.894 137.522 122.981  1.00  0.00     0.230 C 
BRANCH   3   4
ATOM      4  N   UNL     1     135.568 137.597 123.614  1.00  0.00    -0.350 N 
ATOM      5  H   UNL     1     135.030 138.416 123.248  1.00  0.00     0.345 HD
ATOM      6  H   UNL     1     135.664 137.677 124.651  1.00  0.00     0.345 HD
ATOM      7  H   UNL     1     135.028 136.722 123.422  1.00  0.00     0.345 HD
ENDBRANCH   3   4
BRANCH   3   8
ATOM      8  C   UNL     1     136.781 137.950 121.538  1.00  0.00     0.099 C 
ATOM      9  O   UNL     1     137.087 137.151 120.614  1.00  0.00    -0.544 OA
ATOM     10  O   UNL     1     136.346 139.231 121.220  1.00  0.00    -0.544 OA
ENDBRANCH   3   8
ENDBRANCH   1   3
BRANCH   1  11
ATOM     11  C   UNL     1     137.955 138.189 125.270  1.00  0.00     0.006 C 
ATOM     12  C   UNL     1     139.269 137.639 125.832  1.00  0.00     0.004 C 
ENDBRANCH   1  11
TORSDOF 4
ENDMDL
MODEL 9
REMARK VINA RESULT:    -3.735      1.895      2.085
REMARK INTER + INTRA:          -4.495
REMARK INTER:                  -4.445
REMARK INTRA:                  -0.051
REMARK UNBOUND:                 0.004
REMARK SMILES CC[C@@H](C)[C@@H]([NH3+])C(=O)[O-]
REMARK SMILES IDX 3 1 4 2 5 3 6 4 7 8 8 9 9 10 2 11 1 12
REMARK H PARENT 6 5 6 6 6 7
REMARK Flexibility Score: inf
ROOT
ATOM      1  C   UNL     1     139.016 137.831 125.020  1.00  0.00     0.050 C 
ATOM      2  C   UNL     1     137.622 138.255 125.526  1.00  0.00     0.014 C 
ENDROOT
BRANCH   1   3
ATOM      3  C   UNL     1     139.321 136.341 125.371  1.00  0.00     0.230 C 
BRANCH   3   4
ATOM      4  N   UNL     1     138.730 135.950 126.660  1.00  0.00    -0.350 N 
ATOM      5  H   UNL     1     138.593 134.914 126.705  1.00  0.00     0.345 HD
ATOM      6  H   UNL     1     137.813 136.430 126.800  1.00  0.00     0.345 HD
ATOM      7  H   UNL     1     139.354 136.245 127.446  1.00  0.00     0.345 HD
ENDBRANCH   3   4
BRANCH   3   8
ATOM      8  C   UNL     1     138.804 135.424 124.289  1.00  0.00     0.099 C 
ATOM      9  O   UNL     1     137.572 135.177 124.202  1.00  0.00    -0.544 OA
ATOM     10  O   UNL     1     139.685 134.841 123.387  1.00  0.00    -0.544 OA
ENDBRANCH   3   8
ENDBRANCH   1   3
BRANCH   1  11
ATOM     11  C   UNL     1     139.177 138.169 123.514  1.00  0.00     0.006 C 
ATOM     12  C   UNL     1     137.941 138.801 122.867  1.00  0.00     0.004 C 
ENDBRANCH   1  11
TORSDOF 4
ENDMDL
