MODEL 1
REMARK VINA RESULT:    -2.447      0.000      0.000
REMARK INTER + INTRA:          -2.743
REMARK INTER:                  -2.733
REMARK INTRA:                  -0.010
REMARK UNBOUND:                -0.010
REMARK SMILES CCCC(=O)[O-]
REMARK SMILES IDX 3 1 4 2 5 3 6 4 2 5 1 6
REMARK H PARENT
REMARK Flexibility Score: inf
ROOT
ATOM      1  C   UNL     1      -9.652 -17.614  21.200  1.00  0.00     0.052 C 
ENDROOT
BRANCH   1   2
ATOM      2  C   UNL     1      -9.709 -17.967  22.653  1.00  0.00     0.041 C 
ATOM      3  O   UNL     1     -10.475 -18.883  23.052  1.00  0.00    -0.550 OA
ATOM      4  O   UNL     1      -8.953 -17.251  23.572  1.00  0.00    -0.550 OA
ENDBRANCH   1   2
BRANCH   1   5
ATOM      5  C   UNL     1     -10.986 -17.926  20.519  1.00  0.00     0.003 C 
ATOM      6  C   UNL     1     -10.887 -19.185  19.663  1.00  0.00     0.004 C 
ENDBRANCH   1   5
TORSDOF 2
ENDMDL
MODEL 2
REMARK VINA RESULT:    -2.442      2.045      2.589
REMARK INTER + INTRA:          -2.738
REMARK INTER:                  -2.697
REMARK INTRA:                  -0.041
REMARK UNBOUND:                -0.010
REMARK SMILES CCCC(=O)[O-]
REMARK SMILES IDX 3 1 4 2 5 3 6 4 2 5 1 6
REMARK H PARENT
REMARK Flexibility Score: inf
ROOT
ATOM      1  C   UNL     1     -10.669 -19.081  22.896  1.00  0.00     0.052 C 
ENDROOT
BRANCH   1   2
ATOM      2  C   UNL     1      -9.796 -17.972  22.401  1.00  0.00     0.041 C 
ATOM      3  O   UNL     1      -9.791 -17.666  21.180  1.00  0.00    -0.550 OA
ATOM      4  O   UNL     1      -8.950 -17.309  23.281  1.00  0.00    -0.550 OA
ENDBRANCH   1   2
BRANCH   1   5
ATOM      5  C   UNL     1     -10.259 -20.411  22.260  1.00  0.00     0.003 C 
ATOM      6  C   UNL     1      -9.318 -21.193  23.173  1.00  0.00     0.004 C 
ENDBRANCH   1   5
TORSDOF 2
ENDMDL
MODEL 3
REMARK VINA RESULT:    -2.437      1.988      2.707
REMARK INTER + INTRA:          -2.732
REMARK INTER:                  -2.687
REMARK INTRA:                  -0.046
REMARK UNBOUND:                -0.010
REMARK SMILES CCCC(=O)[O-]
REMARK SMILES IDX 3 1 4 2 5 3 6 4 2 5 1 6
REMARK H PARENT
REMARK Flexibility Score: inf
ROOT
ATOM      1  C   UNL     1     -10.701 -18.892  23.012  1.00  0.00     0.052 C 
ENDROOT
BRANCH   1   2
ATOM      2  C   UNL     1      -9.748 -17.855  22.509  1.00  0.00     0.041 C 
ATOM      3  O   UNL     1      -8.953 -17.286  23.302  1.00  0.00    -0.550 OA
ATOM      4  O   UNL     1      -9.773 -17.480  21.172  1.00  0.00    -0.550 OA
ENDBRANCH   1   2
BRANCH   1   5
ATOM      5  C   UNL     1     -10.438 -20.238  22.331  1.00  0.00     0.003 C 
ATOM      6  C   UNL     1      -9.414 -21.059  23.109  1.00  0.00     0.004 C 
ENDBRANCH   1   5
TORSDOF 2
ENDMDL
MODEL 4
REMARK VINA RESULT:    -2.321     19.033     19.565
REMARK INTER + INTRA:          -2.603
REMARK INTER:                  -2.584
REMARK INTRA:                  -0.020
REMARK UNBOUND:                -0.010
REMARK SMILES CCCC(=O)[O-]
REMARK SMILES IDX 3 1 4 2 5 3 6 4 2 5 1 6
REMARK H PARENT
REMARK Flexibility Score: inf
ROOT
ATOM      1  C   UNL     1       7.329 -21.918  15.326  1.00  0.00     0.052 C 
ENDROOT
BRANCH   1   2
ATOM      2  C   UNL     1       8.351 -21.206  14.497  1.00  0.00     0.041 C 
ATOM      3  O   UNL     1       8.481 -19.957  14.588  1.00  0.00    -0.550 OA
ATOM      4  O   UNL     1       9.125 -21.915  13.588  1.00  0.00    -0.550 OA
ENDBRANCH   1   2
BRANCH   1   5
ATOM      5  C   UNL     1       7.529 -21.604  16.810  1.00  0.00     0.003 C 
ATOM      6  C   UNL     1       6.191 -21.516  17.540  1.00  0.00     0.004 C 
ENDBRANCH   1   5
TORSDOF 2
ENDMDL
MODEL 5
REMARK VINA RESULT:    -2.308     19.035     19.543
REMARK INTER + INTRA:          -2.588
REMARK INTER:                  -2.571
REMARK INTRA:                  -0.017
REMARK UNBOUND:                -0.010
REMARK SMILES CCCC(=O)[O-]
REMARK SMILES IDX 3 1 4 2 5 3 6 4 2 5 1 6
REMARK H PARENT
REMARK Flexibility Score: inf
ROOT
ATOM      1  C   UNL     1       7.327 -21.964  15.297  1.00  0.00     0.052 C 
ENDROOT
BRANCH   1   2
ATOM      2  C   UNL     1       8.358 -21.270  14.464  1.00  0.00     0.041 C 
ATOM      3  O   UNL     1       9.125 -21.936  13.720  1.00  0.00    -0.550 OA
ATOM      4  O   UNL     1       8.504 -19.891  14.546  1.00  0.00    -0.550 OA
ENDBRANCH   1   2
BRANCH   1   5
ATOM      5  C   UNL     1       7.518 -21.625  16.778  1.00  0.00     0.003 C 
ATOM      6  C   UNL     1       6.176 -21.515  17.496  1.00  0.00     0.004 C 
ENDBRANCH   1   5
TORSDOF 2
ENDMDL
MODEL 6
REMARK VINA RESULT:    -2.233     19.928     20.468
REMARK INTER + INTRA:          -2.505
REMARK INTER:                  -2.479
REMARK INTRA:                  -0.025
REMARK UNBOUND:                -0.010
REMARK SMILES CCCC(=O)[O-]
REMARK SMILES IDX 3 1 4 2 5 3 6 4 2 5 1 6
REMARK H PARENT
REMARK Flexibility Score: inf
ROOT
ATOM      1  C   UNL     1       8.807 -19.936  14.103  1.00  0.00     0.052 C 
ENDROOT
BRANCH   1   2
ATOM      2  C   UNL     1       8.431 -19.610  12.692  1.00  0.00     0.041 C 
ATOM      3  O   UNL     1       8.964 -18.633  12.103  1.00  0.00    -0.550 OA
ATOM      4  O   UNL     1       7.455 -20.356  12.044  1.00  0.00    -0.550 OA
ENDBRANCH   1   2
BRANCH   1   5
ATOM      5  C   UNL     1       8.235 -21.295  14.510  1.00  0.00     0.003 C 
ATOM      6  C   UNL     1       7.588 -21.230  15.891  1.00  0.00     0.004 C 
ENDBRANCH   1   5
TORSDOF 2
ENDMDL
MODEL 7
REMARK VINA RESULT:    -2.102      2.378      3.215
REMARK INTER + INTRA:          -2.358
REMARK INTER:                  -2.340
REMARK INTRA:                  -0.018
REMARK UNBOUND:                -0.010
REMARK SMILES CCCC(=O)[O-]
REMARK SMILES IDX 3 1 4 2 5 3 6 4 2 5 1 6
REMARK H PARENT
REMARK Flexibility Score: inf
ROOT
ATOM      1  C   UNL     1     -10.636 -20.045  22.256  1.00  0.00     0.052 C 
ENDROOT
BRANCH   1   2
ATOM      2  C   UNL     1     -10.055 -21.042  23.208  1.00  0.00     0.041 C 
ATOM      3  O   UNL     1      -8.807 -21.158  23.321  1.00  0.00    -0.550 OA
ATOM      4  O   UNL     1     -10.893 -21.878  23.934  1.00  0.00    -0.550 OA
ENDBRANCH   1   2
BRANCH   1   5
ATOM      5  C   UNL     1     -10.105 -18.641  22.558  1.00  0.00     0.003 C 
ATOM      6  C   UNL     1      -9.953 -17.821  21.280  1.00  0.00     0.004 C 
ENDBRANCH   1   5
TORSDOF 2
ENDMDL
MODEL 8
REMARK VINA RESULT:    -2.021     19.285     19.736
REMARK INTER + INTRA:          -2.268
REMARK INTER:                  -2.236
REMARK INTRA:                  -0.032
REMARK UNBOUND:                -0.010
REMARK SMILES CCCC(=O)[O-]
REMARK SMILES IDX 3 1 4 2 5 3 6 4 2 5 1 6
REMARK H PARENT
REMARK Flexibility Score: inf
ROOT
ATOM      1  C   UNL     1       8.817 -21.208  14.460  1.00  0.00     0.052 C 
ENDROOT
BRANCH   1   2
ATOM      2  C   UNL     1       7.576 -21.614  15.190  1.00  0.00     0.041 C 
ATOM      3  O   UNL     1       6.687 -22.286  14.604  1.00  0.00    -0.550 OA
ATOM      4  O   UNL     1       7.379 -21.208  16.503  1.00  0.00    -0.550 OA
ENDBRANCH   1   2
BRANCH   1   5
ATOM      5  C   UNL     1       8.785 -19.711  14.138  1.00  0.00     0.003 C 
ATOM      6  C   UNL     1       8.507 -19.471  12.657  1.00  0.00     0.004 C 
ENDBRANCH   1   5
TORSDOF 2
ENDMDL
