MODEL 1
REMARK VINA RESULT:    -4.551      0.000      0.000
REMARK INTER + INTRA:         -10.042
REMARK INTER:                  -8.542
REMARK INTRA:                  -1.500
REMARK UNBOUND:                -1.500
REMARK SMILES O=C([O-])CCCCCCCCCCCCCCC(=O)[O-]
REMARK SMILES IDX 10 1 9 2 8 3 7 4 6 5 5 6 4 7 2 8 1 9 3 10 11 11 12 12 13 13
REMARK SMILES IDX 14 14 15 15 16 16 17 17 18 18 19 19 20 20
REMARK H PARENT
REMARK Flexibility Score: inf
ROOT
ATOM      1  C   UNL     1      -1.580   2.212  -3.283  1.00  0.00     0.000 C 
ENDROOT
BRANCH   1   2
ATOM      2  C   UNL     1      -1.871   2.620  -4.743  1.00  0.00     0.000 C 
BRANCH   2   3
ATOM      3  C   UNL     1      -0.642   3.231  -5.432  1.00  0.00     0.000 C 
BRANCH   3   4
ATOM      4  C   UNL     1       0.281   3.909  -4.410  1.00  0.00     0.000 C 
BRANCH   4   5
ATOM      5  C   UNL     1       1.736   3.421  -4.511  1.00  0.00     0.000 C 
BRANCH   5   6
ATOM      6  C   UNL     1       2.110   2.440  -3.386  1.00  0.00     0.006 C 
BRANCH   6   7
ATOM      7  C   UNL     1       3.439   1.725  -3.661  1.00  0.00     0.053 C 
BRANCH   7   8
ATOM      8  C   UNL     1       4.597   2.452  -3.050  1.00  0.00     0.041 C 
ATOM      9  O   UNL     1       5.278   3.256  -3.740  1.00  0.00    -0.550 OA
ATOM     10  O   UNL     1       4.904   2.269  -1.707  1.00  0.00    -0.550 OA
ENDBRANCH   7   8
ENDBRANCH   6   7
ENDBRANCH   5   6
ENDBRANCH   4   5
ENDBRANCH   3   4
ENDBRANCH   2   3
ENDBRANCH   1   2
BRANCH   1  11
ATOM     11  C   UNL     1      -2.739   2.514  -2.317  1.00  0.00     0.000 C 
BRANCH  11  12
ATOM     12  C   UNL     1      -3.988   3.051  -3.034  1.00  0.00     0.000 C 
BRANCH  12  13
ATOM     13  C   UNL     1      -5.212   2.141  -2.851  1.00  0.00     0.000 C 
BRANCH  13  14
ATOM     14  C   UNL     1      -5.623   1.436  -4.152  1.00  0.00     0.000 C 
BRANCH  14  15
ATOM     15  C   UNL     1      -5.470  -0.085  -4.025  1.00  0.00     0.000 C 
BRANCH  15  16
ATOM     16  C   UNL     1      -3.991  -0.492  -4.027  1.00  0.00     0.006 C 
BRANCH  16  17
ATOM     17  C   UNL     1      -3.743  -1.668  -3.078  1.00  0.00     0.053 C 
BRANCH  17  18
ATOM     18  C   UNL     1      -3.486  -2.921  -3.853  1.00  0.00     0.041 C 
ATOM     19  O   UNL     1      -2.308  -3.245  -4.160  1.00  0.00    -0.550 OA
ATOM     20  O   UNL     1      -4.540  -3.758  -4.192  1.00  0.00    -0.550 OA
ENDBRANCH  17  18
ENDBRANCH  16  17
ENDBRANCH  15  16
ENDBRANCH  14  15
ENDBRANCH  13  14
ENDBRANCH  12  13
ENDBRANCH  11  12
ENDBRANCH   1  11
TORSDOF 15
ENDMDL
MODEL 2
REMARK VINA RESULT:    -4.424      2.229      3.203
REMARK INTER + INTRA:          -9.803
REMARK INTER:                  -8.876
REMARK INTRA:                  -0.928
REMARK UNBOUND:                -1.500
REMARK SMILES O=C([O-])CCCCCCCCCCCCCCC(=O)[O-]
REMARK SMILES IDX 10 1 9 2 8 3 7 4 6 5 5 6 4 7 2 8 1 9 3 10 11 11 12 12 13 13
REMARK SMILES IDX 14 14 15 15 16 16 17 17 18 18 19 19 20 20
REMARK H PARENT
REMARK Flexibility Score: inf
ROOT
ATOM      1  C   UNL     1       0.377   3.348  -2.896  1.00  0.00     0.000 C 
ENDROOT
BRANCH   1   2
ATOM      2  C   UNL     1       1.649   3.161  -3.750  1.00  0.00     0.000 C 
BRANCH   2   3
ATOM      3  C   UNL     1       2.475   1.946  -3.305  1.00  0.00     0.000 C 
BRANCH   3   4
ATOM      4  C   UNL     1       3.745   1.803  -4.155  1.00  0.00     0.000 C 
BRANCH   4   5
ATOM      5  C   UNL     1       4.440   3.150  -4.413  1.00  0.00     0.000 C 
BRANCH   5   6
ATOM      6  C   UNL     1       4.740   3.385  -5.904  1.00  0.00     0.006 C 
BRANCH   6   7
ATOM      7  C   UNL     1       3.667   2.770  -6.813  1.00  0.00     0.053 C 
BRANCH   7   8
ATOM      8  C   UNL     1       4.262   1.832  -7.818  1.00  0.00     0.041 C 
ATOM      9  O   UNL     1       4.754   2.278  -8.888  1.00  0.00    -0.550 OA
ATOM     10  O   UNL     1       4.304   0.468  -7.557  1.00  0.00    -0.550 OA
ENDBRANCH   7   8
ENDBRANCH   6   7
ENDBRANCH   5   6
ENDBRANCH   4   5
ENDBRANCH   3   4
ENDBRANCH   2   3
ENDBRANCH   1   2
BRANCH   1  11
ATOM     11  C   UNL     1      -0.921   2.983  -3.638  1.00  0.00     0.000 C 
BRANCH  11  12
ATOM     12  C   UNL     1      -1.811   2.016  -2.840  1.00  0.00     0.000 C 
BRANCH  12  13
ATOM     13  C   UNL     1      -3.199   2.603  -2.539  1.00  0.00     0.000 C 
BRANCH  13  14
ATOM     14  C   UNL     1      -4.338   1.754  -3.123  1.00  0.00     0.000 C 
BRANCH  14  15
ATOM     15  C   UNL     1      -3.788   0.634  -4.015  1.00  0.00     0.000 C 
BRANCH  15  16
ATOM     16  C   UNL     1      -4.580  -0.664  -3.821  1.00  0.00     0.006 C 
BRANCH  16  17
ATOM     17  C   UNL     1      -3.709  -1.751  -3.185  1.00  0.00     0.053 C 
BRANCH  17  18
ATOM     18  C   UNL     1      -3.471  -2.866  -4.152  1.00  0.00     0.041 C 
ATOM     19  O   UNL     1      -4.375  -3.207  -4.961  1.00  0.00    -0.550 OA
ATOM     20  O   UNL     1      -2.235  -3.497  -4.197  1.00  0.00    -0.550 OA
ENDBRANCH  17  18
ENDBRANCH  16  17
ENDBRANCH  15  16
ENDBRANCH  14  15
ENDBRANCH  13  14
ENDBRANCH  12  13
ENDBRANCH  11  12
ENDBRANCH   1  11
TORSDOF 15
ENDMDL
MODEL 3
REMARK VINA RESULT:    -4.415      1.266      7.775
REMARK INTER + INTRA:          -9.786
REMARK INTER:                  -8.430
REMARK INTRA:                  -1.356
REMARK UNBOUND:                -1.500
REMARK SMILES O=C([O-])CCCCCCCCCCCCCCC(=O)[O-]
REMARK SMILES IDX 10 1 9 2 8 3 7 4 6 5 5 6 4 7 2 8 1 9 3 10 11 11 12 12 13 13
REMARK SMILES IDX 14 14 15 15 16 16 17 17 18 18 19 19 20 20
REMARK H PARENT
REMARK Flexibility Score: inf
ROOT
ATOM      1  C   UNL     1      -0.075   2.731  -3.097  1.00  0.00     0.000 C 
ENDROOT
BRANCH   1   2
ATOM      2  C   UNL     1      -1.544   2.609  -2.637  1.00  0.00     0.000 C 
BRANCH   2   3
ATOM      3  C   UNL     1      -2.526   3.188  -3.665  1.00  0.00     0.000 C 
BRANCH   3   4
ATOM      4  C   UNL     1      -2.897   2.140  -4.723  1.00  0.00     0.000 C 
BRANCH   4   5
ATOM      5  C   UNL     1      -4.029   1.208  -4.261  1.00  0.00     0.000 C 
BRANCH   5   6
ATOM      6  C   UNL     1      -3.504  -0.068  -3.579  1.00  0.00     0.006 C 
BRANCH   6   7
ATOM      7  C   UNL     1      -4.545  -1.195  -3.581  1.00  0.00     0.053 C 
BRANCH   7   8
ATOM      8  C   UNL     1      -3.912  -2.537  -3.377  1.00  0.00     0.041 C 
ATOM      9  O   UNL     1      -4.612  -3.520  -3.018  1.00  0.00    -0.550 OA
ATOM     10  O   UNL     1      -2.555  -2.711  -3.617  1.00  0.00    -0.550 OA
ENDBRANCH   7   8
ENDBRANCH   6   7
ENDBRANCH   5   6
ENDBRANCH   4   5
ENDBRANCH   3   4
ENDBRANCH   2   3
ENDBRANCH   1   2
BRANCH   1  11
ATOM     11  C   UNL     1       0.498   4.151  -2.954  1.00  0.00     0.000 C 
BRANCH  11  12
ATOM     12  C   UNL     1       1.053   4.706  -4.276  1.00  0.00     0.000 C 
BRANCH  12  13
ATOM     13  C   UNL     1       0.940   3.701  -5.433  1.00  0.00     0.000 C 
BRANCH  13  14
ATOM     14  C   UNL     1       2.246   3.571  -6.232  1.00  0.00     0.000 C 
BRANCH  14  15
ATOM     15  C   UNL     1       3.456   3.482  -5.295  1.00  0.00     0.000 C 
BRANCH  15  16
ATOM     16  C   UNL     1       3.723   2.031  -4.876  1.00  0.00     0.006 C 
BRANCH  16  17
ATOM     17  C   UNL     1       3.406   1.819  -3.393  1.00  0.00     0.053 C 
BRANCH  17  18
ATOM     18  C   UNL     1       4.440   2.479  -2.537  1.00  0.00     0.041 C 
ATOM     19  O   UNL     1       5.534   1.898  -2.303  1.00  0.00    -0.550 OA
ATOM     20  O   UNL     1       4.219   3.755  -2.038  1.00  0.00    -0.550 OA
ENDBRANCH  17  18
ENDBRANCH  16  17
ENDBRANCH  15  16
ENDBRANCH  14  15
ENDBRANCH  13  14
ENDBRANCH  12  13
ENDBRANCH  11  12
ENDBRANCH   1  11
TORSDOF 15
ENDMDL
MODEL 4
REMARK VINA RESULT:    -4.396      3.208      4.654
REMARK INTER + INTRA:          -9.750
REMARK INTER:                  -7.545
REMARK INTRA:                  -2.205
REMARK UNBOUND:                -1.500
REMARK SMILES O=C([O-])CCCCCCCCCCCCCCC(=O)[O-]
REMARK SMILES IDX 10 1 9 2 8 3 7 4 6 5 5 6 4 7 2 8 1 9 3 10 11 11 12 12 13 13
REMARK SMILES IDX 14 14 15 15 16 16 17 17 18 18 19 19 20 20
REMARK H PARENT
REMARK Flexibility Score: inf
ROOT
ATOM      1  C   UNL     1      -4.629   1.593  -3.179  1.00  0.00     0.000 C 
ENDROOT
BRANCH   1   2
ATOM      2  C   UNL     1      -3.125   1.250  -3.135  1.00  0.00     0.000 C 
BRANCH   2   3
ATOM      3  C   UNL     1      -2.295   2.358  -2.470  1.00  0.00     0.000 C 
BRANCH   3   4
ATOM      4  C   UNL     1      -0.802   2.193  -2.788  1.00  0.00     0.000 C 
BRANCH   4   5
ATOM      5  C   UNL     1      -0.111   3.532  -3.093  1.00  0.00     0.000 C 
BRANCH   5   6
ATOM      6  C   UNL     1       1.365   3.358  -3.493  1.00  0.00     0.006 C 
BRANCH   6   7
ATOM      7  C   UNL     1       1.933   2.009  -3.031  1.00  0.00     0.053 C 
BRANCH   7   8
ATOM      8  C   UNL     1       3.395   1.888  -3.334  1.00  0.00     0.041 C 
ATOM      9  O   UNL     1       3.785   1.719  -4.520  1.00  0.00    -0.550 OA
ATOM     10  O   UNL     1       4.329   1.998  -2.312  1.00  0.00    -0.550 OA
ENDBRANCH   7   8
ENDBRANCH   6   7
ENDBRANCH   5   6
ENDBRANCH   4   5
ENDBRANCH   3   4
ENDBRANCH   2   3
ENDBRANCH   1   2
BRANCH   1  11
ATOM     11  C   UNL     1      -4.930   3.079  -2.921  1.00  0.00     0.000 C 
BRANCH  11  12
ATOM     12  C   UNL     1      -5.410   3.818  -4.180  1.00  0.00     0.000 C 
BRANCH  12  13
ATOM     13  C   UNL     1      -4.521   5.019  -4.537  1.00  0.00     0.000 C 
BRANCH  13  14
ATOM     14  C   UNL     1      -3.177   4.597  -5.150  1.00  0.00     0.000 C 
BRANCH  14  15
ATOM     15  C   UNL     1      -3.385   3.591  -6.289  1.00  0.00     0.000 C 
BRANCH  15  16
ATOM     16  C   UNL     1      -2.179   2.653  -6.422  1.00  0.00     0.006 C 
BRANCH  16  17
ATOM     17  C   UNL     1      -0.877   3.447  -6.561  1.00  0.00     0.053 C 
BRANCH  17  18
ATOM     18  C   UNL     1      -0.786   4.071  -7.918  1.00  0.00     0.041 C 
ATOM     19  O   UNL     1      -0.633   3.348  -8.938  1.00  0.00    -0.550 OA
ATOM     20  O   UNL     1      -0.922   5.445  -8.063  1.00  0.00    -0.550 OA
ENDBRANCH  17  18
ENDBRANCH  16  17
ENDBRANCH  15  16
ENDBRANCH  14  15
ENDBRANCH  13  14
ENDBRANCH  12  13
ENDBRANCH  11  12
ENDBRANCH   1  11
TORSDOF 15
ENDMDL
MODEL 5
REMARK VINA RESULT:    -4.380      2.694      7.780
REMARK INTER + INTRA:          -9.721
REMARK INTER:                  -7.843
REMARK INTRA:                  -1.878
REMARK UNBOUND:                -1.500
REMARK SMILES O=C([O-])CCCCCCCCCCCCCCC(=O)[O-]
REMARK SMILES IDX 10 1 9 2 8 3 7 4 6 5 5 6 4 7 2 8 1 9 3 10 11 11 12 12 13 13
REMARK SMILES IDX 14 14 15 15 16 16 17 17 18 18 19 19 20 20
REMARK H PARENT
REMARK Flexibility Score: inf
ROOT
ATOM      1  C   UNL     1       0.648   4.814  -4.669  1.00  0.00     0.000 C 
ENDROOT
BRANCH   1   2
ATOM      2  C   UNL     1       0.334   3.720  -5.711  1.00  0.00     0.000 C 
BRANCH   2   3
ATOM      3  C   UNL     1      -1.153   3.689  -6.093  1.00  0.00     0.000 C 
BRANCH   3   4
ATOM      4  C   UNL     1      -1.915   2.655  -5.253  1.00  0.00     0.000 C 
BRANCH   4   5
ATOM      5  C   UNL     1      -2.563   3.270  -4.001  1.00  0.00     0.000 C 
BRANCH   5   6
ATOM      6  C   UNL     1      -2.731   2.249  -2.861  1.00  0.00     0.006 C 
BRANCH   6   7
ATOM      7  C   UNL     1      -3.066   0.847  -3.386  1.00  0.00     0.053 C 
BRANCH   7   8
ATOM      8  C   UNL     1      -4.544   0.614  -3.444  1.00  0.00     0.041 C 
ATOM      9  O   UNL     1      -5.343   1.510  -3.064  1.00  0.00    -0.550 OA
ATOM     10  O   UNL     1      -5.041  -0.580  -3.951  1.00  0.00    -0.550 OA
ENDBRANCH   7   8
ENDBRANCH   6   7
ENDBRANCH   5   6
ENDBRANCH   4   5
ENDBRANCH   3   4
ENDBRANCH   2   3
ENDBRANCH   1   2
BRANCH   1  11
ATOM     11  C   UNL     1       1.424   4.295  -3.447  1.00  0.00     0.000 C 
BRANCH  11  12
ATOM     12  C   UNL     1       1.036   2.858  -3.059  1.00  0.00     0.000 C 
BRANCH  12  13
ATOM     13  C   UNL     1       2.225   1.886  -3.124  1.00  0.00     0.000 C 
BRANCH  13  14
ATOM     14  C   UNL     1       3.533   2.581  -3.530  1.00  0.00     0.000 C 
BRANCH  14  15
ATOM     15  C   UNL     1       4.068   2.016  -4.851  1.00  0.00     0.000 C 
BRANCH  15  16
ATOM     16  C   UNL     1       4.068   3.087  -5.949  1.00  0.00     0.006 C 
BRANCH  16  17
ATOM     17  C   UNL     1       3.590   2.507  -7.283  1.00  0.00     0.053 C 
BRANCH  17  18
ATOM     18  C   UNL     1       4.655   1.652  -7.895  1.00  0.00     0.041 C 
ATOM     19  O   UNL     1       5.800   2.128  -8.115  1.00  0.00    -0.550 OA
ATOM     20  O   UNL     1       4.399   0.317  -8.175  1.00  0.00    -0.550 OA
ENDBRANCH  17  18
ENDBRANCH  16  17
ENDBRANCH  15  16
ENDBRANCH  14  15
ENDBRANCH  13  14
ENDBRANCH  12  13
ENDBRANCH  11  12
ENDBRANCH   1  11
TORSDOF 15
ENDMDL
MODEL 6
REMARK VINA RESULT:    -4.351      1.096      7.743
REMARK INTER + INTRA:          -9.666
REMARK INTER:                  -8.423
REMARK INTRA:                  -1.243
REMARK UNBOUND:                -1.500
REMARK SMILES O=C([O-])CCCCCCCCCCCCCCC(=O)[O-]
REMARK SMILES IDX 10 1 9 2 8 3 7 4 6 5 5 6 4 7 2 8 1 9 3 10 11 11 12 12 13 13
REMARK SMILES IDX 14 14 15 15 16 16 17 17 18 18 19 19 20 20
REMARK H PARENT
REMARK Flexibility Score: inf
ROOT
ATOM      1  C   UNL     1      -2.871   2.648  -4.978  1.00  0.00     0.000 C 
ENDROOT
BRANCH   1   2
ATOM      2  C   UNL     1      -3.804   1.480  -5.362  1.00  0.00     0.000 C 
BRANCH   2   3
ATOM      3  C   UNL     1      -4.980   1.330  -4.386  1.00  0.00     0.000 C 
BRANCH   3   4
ATOM      4  C   UNL     1      -5.059  -0.100  -3.836  1.00  0.00     0.000 C 
BRANCH   4   5
ATOM      5  C   UNL     1      -3.691  -0.639  -3.386  1.00  0.00     0.000 C 
BRANCH   5   6
ATOM      6  C   UNL     1      -3.634  -2.177  -3.381  1.00  0.00     0.006 C 
BRANCH   6   7
ATOM      7  C   UNL     1      -3.938  -2.770  -4.763  1.00  0.00     0.053 C 
BRANCH   7   8
ATOM      8  C   UNL     1      -3.124  -3.998  -5.032  1.00  0.00     0.041 C 
ATOM      9  O   UNL     1      -1.916  -4.049  -4.678  1.00  0.00    -0.550 OA
ATOM     10  O   UNL     1      -3.708  -5.102  -5.641  1.00  0.00    -0.550 OA
ENDBRANCH   7   8
ENDBRANCH   6   7
ENDBRANCH   5   6
ENDBRANCH   4   5
ENDBRANCH   3   4
ENDBRANCH   2   3
ENDBRANCH   1   2
BRANCH   1  11
ATOM     11  C   UNL     1      -2.999   3.081  -3.507  1.00  0.00     0.000 C 
BRANCH  11  12
ATOM     12  C   UNL     1      -1.854   2.552  -2.628  1.00  0.00     0.000 C 
BRANCH  12  13
ATOM     13  C   UNL     1      -0.495   2.585  -3.345  1.00  0.00     0.000 C 
BRANCH  13  14
ATOM     14  C   UNL     1       0.375   3.774  -2.909  1.00  0.00     0.000 C 
BRANCH  14  15
ATOM     15  C   UNL     1       1.835   3.568  -3.326  1.00  0.00     0.000 C 
BRANCH  15  16
ATOM     16  C   UNL     1       2.250   2.099  -3.178  1.00  0.00     0.006 C 
BRANCH  16  17
ATOM     17  C   UNL     1       3.591   1.833  -3.867  1.00  0.00     0.053 C 
BRANCH  17  18
ATOM     18  C   UNL     1       4.711   2.449  -3.090  1.00  0.00     0.041 C 
ATOM     19  O   UNL     1       4.964   2.052  -1.922  1.00  0.00    -0.550 OA
ATOM     20  O   UNL     1       5.507   3.425  -3.673  1.00  0.00    -0.550 OA
ENDBRANCH  17  18
ENDBRANCH  16  17
ENDBRANCH  15  16
ENDBRANCH  14  15
ENDBRANCH  13  14
ENDBRANCH  12  13
ENDBRANCH  11  12
ENDBRANCH   1  11
TORSDOF 15
ENDMDL
MODEL 7
REMARK VINA RESULT:    -4.340      1.634      3.458
REMARK INTER + INTRA:          -9.645
REMARK INTER:                  -7.817
REMARK INTRA:                  -1.828
REMARK UNBOUND:                -1.500
REMARK SMILES O=C([O-])CCCCCCCCCCCCCCC(=O)[O-]
REMARK SMILES IDX 10 1 9 2 8 3 7 4 6 5 5 6 4 7 2 8 1 9 3 10 11 11 12 12 13 13
REMARK SMILES IDX 14 14 15 15 16 16 17 17 18 18 19 19 20 20
REMARK H PARENT
REMARK Flexibility Score: inf
ROOT
ATOM      1  C   UNL     1       0.170   4.114  -6.549  1.00  0.00     0.000 C 
ENDROOT
BRANCH   1   2
ATOM      2  C   UNL     1       1.629   4.617  -6.524  1.00  0.00     0.000 C 
BRANCH   2   3
ATOM      3  C   UNL     1       2.638   3.488  -6.779  1.00  0.00     0.000 C 
BRANCH   3   4
ATOM      4  C   UNL     1       3.638   3.372  -5.621  1.00  0.00     0.000 C 
BRANCH   4   5
ATOM      5  C   UNL     1       3.654   1.969  -4.991  1.00  0.00     0.000 C 
BRANCH   5   6
ATOM      6  C   UNL     1       3.260   1.985  -3.503  1.00  0.00     0.006 C 
BRANCH   6   7
ATOM      7  C   UNL     1       3.730   3.262  -2.794  1.00  0.00     0.053 C 
BRANCH   7   8
ATOM      8  C   UNL     1       5.123   3.121  -2.263  1.00  0.00     0.041 C 
ATOM      9  O   UNL     1       5.384   2.251  -1.390  1.00  0.00    -0.550 OA
ATOM     10  O   UNL     1       6.142   3.926  -2.756  1.00  0.00    -0.550 OA
ENDBRANCH   7   8
ENDBRANCH   6   7
ENDBRANCH   5   6
ENDBRANCH   4   5
ENDBRANCH   3   4
ENDBRANCH   2   3
ENDBRANCH   1   2
BRANCH   1  11
ATOM     11  C   UNL     1      -0.223   3.303  -5.303  1.00  0.00     0.000 C 
BRANCH  11  12
ATOM     12  C   UNL     1      -0.008   4.078  -3.994  1.00  0.00     0.000 C 
BRANCH  12  13
ATOM     13  C   UNL     1      -0.178   3.194  -2.748  1.00  0.00     0.000 C 
BRANCH  13  14
ATOM     14  C   UNL     1      -1.272   2.131  -2.923  1.00  0.00     0.000 C 
BRANCH  14  15
ATOM     15  C   UNL     1      -2.541   2.516  -2.153  1.00  0.00     0.000 C 
BRANCH  15  16
ATOM     16  C   UNL     1      -3.800   2.183  -2.961  1.00  0.00     0.006 C 
BRANCH  16  17
ATOM     17  C   UNL     1      -3.483   1.202  -4.094  1.00  0.00     0.053 C 
BRANCH  17  18
ATOM     18  C   UNL     1      -4.150  -0.114  -3.850  1.00  0.00     0.041 C 
ATOM     19  O   UNL     1      -5.368  -0.269  -4.131  1.00  0.00    -0.550 OA
ATOM     20  O   UNL     1      -3.416  -1.186  -3.360  1.00  0.00    -0.550 OA
ENDBRANCH  17  18
ENDBRANCH  16  17
ENDBRANCH  15  16
ENDBRANCH  14  15
ENDBRANCH  13  14
ENDBRANCH  12  13
ENDBRANCH  11  12
ENDBRANCH   1  11
TORSDOF 15
ENDMDL
MODEL 8
REMARK VINA RESULT:    -4.326      2.532      8.130
REMARK INTER + INTRA:          -9.620
REMARK INTER:                  -8.650
REMARK INTRA:                  -0.970
REMARK UNBOUND:                -1.500
REMARK SMILES O=C([O-])CCCCCCCCCCCCCCC(=O)[O-]
REMARK SMILES IDX 10 1 9 2 8 3 7 4 6 5 5 6 4 7 2 8 1 9 3 10 11 11 12 12 13 13
REMARK SMILES IDX 14 14 15 15 16 16 17 17 18 18 19 19 20 20
REMARK H PARENT
REMARK Flexibility Score: inf
ROOT
ATOM      1  C   UNL     1      -0.133   3.332  -4.448  1.00  0.00     0.000 C 
ENDROOT
BRANCH   1   2
ATOM      2  C   UNL     1      -1.597   2.843  -4.460  1.00  0.00     0.000 C 
BRANCH   2   3
ATOM      3  C   UNL     1      -2.049   2.326  -3.087  1.00  0.00     0.000 C 
BRANCH   3   4
ATOM      4  C   UNL     1      -3.552   2.555  -2.880  1.00  0.00     0.000 C 
BRANCH   4   5
ATOM      5  C   UNL     1      -4.405   1.378  -3.382  1.00  0.00     0.000 C 
BRANCH   5   6
ATOM      6  C   UNL     1      -3.647   0.039  -3.341  1.00  0.00     0.006 C 
BRANCH   6   7
ATOM      7  C   UNL     1      -4.375  -1.061  -4.126  1.00  0.00     0.053 C 
BRANCH   7   8
ATOM      8  C   UNL     1      -3.779  -2.411  -3.872  1.00  0.00     0.041 C 
ATOM      9  O   UNL     1      -2.625  -2.514  -3.379  1.00  0.00    -0.550 OA
ATOM     10  O   UNL     1      -4.513  -3.559  -4.147  1.00  0.00    -0.550 OA
ENDBRANCH   7   8
ENDBRANCH   6   7
ENDBRANCH   5   6
ENDBRANCH   4   5
ENDBRANCH   3   4
ENDBRANCH   2   3
ENDBRANCH   1   2
BRANCH   1  11
ATOM     11  C   UNL     1       0.622   2.982  -3.155  1.00  0.00     0.000 C 
BRANCH  11  12
ATOM     12  C   UNL     1       2.138   3.214  -3.267  1.00  0.00     0.000 C 
BRANCH  12  13
ATOM     13  C   UNL     1       2.926   1.905  -3.439  1.00  0.00     0.000 C 
BRANCH  13  14
ATOM     14  C   UNL     1       4.071   2.034  -4.454  1.00  0.00     0.000 C 
BRANCH  14  15
ATOM     15  C   UNL     1       3.910   3.299  -5.305  1.00  0.00     0.000 C 
BRANCH  15  16
ATOM     16  C   UNL     1       3.889   2.958  -6.801  1.00  0.00     0.006 C 
BRANCH  16  17
ATOM     17  C   UNL     1       4.124   1.461  -7.026  1.00  0.00     0.053 C 
BRANCH  17  18
ATOM     18  C   UNL     1       4.774   1.227  -8.353  1.00  0.00     0.041 C 
ATOM     19  O   UNL     1       5.487   2.124  -8.876  1.00  0.00    -0.550 OA
ATOM     20  O   UNL     1       4.635   0.001  -8.989  1.00  0.00    -0.550 OA
ENDBRANCH  17  18
ENDBRANCH  16  17
ENDBRANCH  15  16
ENDBRANCH  14  15
ENDBRANCH  13  14
ENDBRANCH  12  13
ENDBRANCH  11  12
ENDBRANCH   1  11
TORSDOF 15
ENDMDL
MODEL 9
REMARK VINA RESULT:    -4.304      1.124      1.715
REMARK INTER + INTRA:          -9.578
REMARK INTER:                  -8.724
REMARK INTRA:                  -0.854
REMARK UNBOUND:                -1.500
REMARK SMILES O=C([O-])CCCCCCCCCCCCCCC(=O)[O-]
REMARK SMILES IDX 10 1 9 2 8 3 7 4 6 5 5 6 4 7 2 8 1 9 3 10 11 11 12 12 13 13
REMARK SMILES IDX 14 14 15 15 16 16 17 17 18 18 19 19 20 20
REMARK H PARENT
REMARK Flexibility Score: inf
ROOT
ATOM      1  C   UNL     1      -1.718   2.628  -4.089  1.00  0.00     0.000 C 
ENDROOT
BRANCH   1   2
ATOM      2  C   UNL     1      -0.305   3.154  -4.419  1.00  0.00     0.000 C 
BRANCH   2   3
ATOM      3  C   UNL     1       0.392   3.758  -3.192  1.00  0.00     0.000 C 
BRANCH   3   4
ATOM      4  C   UNL     1       1.919   3.690  -3.338  1.00  0.00     0.000 C 
BRANCH   4   5
ATOM      5  C   UNL     1       2.456   2.250  -3.283  1.00  0.00     0.000 C 
BRANCH   5   6
ATOM      6  C   UNL     1       3.663   2.033  -4.213  1.00  0.00     0.006 C 
BRANCH   6   7
ATOM      7  C   UNL     1       4.840   2.949  -3.853  1.00  0.00     0.053 C 
BRANCH   7   8
ATOM      8  C   UNL     1       5.206   2.841  -2.405  1.00  0.00     0.041 C 
ATOM      9  O   UNL     1       5.704   1.776  -1.953  1.00  0.00    -0.550 OA
ATOM     10  O   UNL     1       5.029   3.929  -1.559  1.00  0.00    -0.550 OA
ENDBRANCH   7   8
ENDBRANCH   6   7
ENDBRANCH   5   6
ENDBRANCH   4   5
ENDBRANCH   3   4
ENDBRANCH   2   3
ENDBRANCH   1   2
BRANCH   1  11
ATOM     11  C   UNL     1      -2.020   2.581  -2.581  1.00  0.00     0.000 C 
BRANCH  11  12
ATOM     12  C   UNL     1      -3.526   2.543  -2.276  1.00  0.00     0.000 C 
BRANCH  12  13
ATOM     13  C   UNL     1      -4.369   2.155  -3.501  1.00  0.00     0.000 C 
BRANCH  13  14
ATOM     14  C   UNL     1      -4.910   0.720  -3.416  1.00  0.00     0.000 C 
BRANCH  14  15
ATOM     15  C   UNL     1      -3.770  -0.302  -3.504  1.00  0.00     0.000 C 
BRANCH  15  16
ATOM     16  C   UNL     1      -4.233  -1.584  -4.207  1.00  0.00     0.006 C 
BRANCH  16  17
ATOM     17  C   UNL     1      -3.484  -2.807  -3.668  1.00  0.00     0.053 C 
BRANCH  17  18
ATOM     18  C   UNL     1      -3.026  -3.679  -4.794  1.00  0.00     0.041 C 
ATOM     19  O   UNL     1      -3.728  -3.792  -5.834  1.00  0.00    -0.550 OA
ATOM     20  O   UNL     1      -1.799  -4.325  -4.718  1.00  0.00    -0.550 OA
ENDBRANCH  17  18
ENDBRANCH  16  17
ENDBRANCH  15  16
ENDBRANCH  14  15
ENDBRANCH  13  14
ENDBRANCH  12  13
ENDBRANCH  11  12
ENDBRANCH   1  11
TORSDOF 15
ENDMDL
