MODEL 1
REMARK VINA RESULT:    -6.705      0.000      0.000
REMARK INTER + INTRA:          -9.651
REMARK INTER:                  -9.449
REMARK INTRA:                  -0.202
REMARK UNBOUND:                -0.202
REMARK SMILES CCCCCCCCC(=O)[O-]
REMARK SMILES IDX 6 1 7 2 8 3 9 4 10 5 11 6 5 7 4 8 3 9 2 10 1 11
REMARK H PARENT
REMARK Flexibility Score: inf
ROOT
ATOM      1  C   UNL     1       6.929  -3.532  20.385  1.00  0.00     0.000 C 
ENDROOT
BRANCH   1   2
ATOM      2  C   UNL     1       6.546  -2.411  21.363  1.00  0.00     0.006 C 
BRANCH   2   3
ATOM      3  C   UNL     1       5.319  -2.804  22.192  1.00  0.00     0.053 C 
BRANCH   3   4
ATOM      4  C   UNL     1       4.093  -2.131  21.662  1.00  0.00     0.041 C 
ATOM      5  O   UNL     1       3.136  -1.857  22.434  1.00  0.00    -0.550 OA
ATOM      6  O   UNL     1       3.986  -1.847  20.306  1.00  0.00    -0.550 OA
ENDBRANCH   3   4
ENDBRANCH   2   3
ENDBRANCH   1   2
BRANCH   1   7
ATOM      7  C   UNL     1       7.703  -4.679  21.060  1.00  0.00     0.000 C 
BRANCH   7   8
ATOM      8  C   UNL     1       6.971  -6.032  21.085  1.00  0.00    -0.000 C 
BRANCH   8   9
ATOM      9  C   UNL     1       7.789  -7.144  21.758  1.00  0.00    -0.000 C 
BRANCH   9  10
ATOM     10  C   UNL     1       7.259  -8.528  21.367  1.00  0.00    -0.003 C 
ATOM     11  C   UNL     1       6.524  -9.187  22.532  1.00  0.00     0.004 C 
ENDBRANCH   9  10
ENDBRANCH   8   9
ENDBRANCH   7   8
ENDBRANCH   1   7
TORSDOF 7
ENDMDL
MODEL 2
REMARK VINA RESULT:    -6.677      1.115      1.560
REMARK INTER + INTRA:          -9.612
REMARK INTER:                  -9.282
REMARK INTRA:                  -0.330
REMARK UNBOUND:                -0.202
REMARK SMILES CCCCCCCCC(=O)[O-]
REMARK SMILES IDX 6 1 7 2 8 3 9 4 10 5 11 6 5 7 4 8 3 9 2 10 1 11
REMARK H PARENT
REMARK Flexibility Score: inf
ROOT
ATOM      1  C   UNL     1       6.338  -3.141  21.909  1.00  0.00     0.000 C 
ENDROOT
BRANCH   1   2
ATOM      2  C   UNL     1       6.151  -1.670  21.507  1.00  0.00     0.006 C 
BRANCH   2   3
ATOM      3  C   UNL     1       5.449  -1.559  20.149  1.00  0.00     0.053 C 
BRANCH   3   4
ATOM      4  C   UNL     1       4.096  -2.194  20.206  1.00  0.00     0.041 C 
ATOM      5  O   UNL     1       3.829  -3.186  19.476  1.00  0.00    -0.550 OA
ATOM      6  O   UNL     1       3.112  -1.662  21.030  1.00  0.00    -0.550 OA
ENDBRANCH   3   4
ENDBRANCH   2   3
ENDBRANCH   1   2
BRANCH   1   7
ATOM      7  C   UNL     1       7.212  -3.928  20.916  1.00  0.00     0.000 C 
BRANCH   7   8
ATOM      8  C   UNL     1       6.789  -5.391  20.694  1.00  0.00    -0.000 C 
BRANCH   8   9
ATOM      9  C   UNL     1       7.597  -6.384  21.543  1.00  0.00    -0.000 C 
BRANCH   9  10
ATOM     10  C   UNL     1       7.260  -7.830  21.164  1.00  0.00    -0.003 C 
ATOM     11  C   UNL     1       6.794  -8.625  22.381  1.00  0.00     0.004 C 
ENDBRANCH   9  10
ENDBRANCH   8   9
ENDBRANCH   7   8
ENDBRANCH   1   7
TORSDOF 7
ENDMDL
MODEL 3
REMARK VINA RESULT:    -6.644      3.630      5.889
REMARK INTER + INTRA:          -9.566
REMARK INTER:                  -9.180
REMARK INTRA:                  -0.386
REMARK UNBOUND:                -0.202
REMARK SMILES CCCCCCCCC(=O)[O-]
REMARK SMILES IDX 6 1 7 2 8 3 9 4 10 5 11 6 5 7 4 8 3 9 2 10 1 11
REMARK H PARENT
REMARK Flexibility Score: inf
ROOT
ATOM      1  C   UNL     1       6.957  -5.724  21.161  1.00  0.00     0.000 C 
ENDROOT
BRANCH   1   2
ATOM      2  C   UNL     1       7.846  -6.853  21.702  1.00  0.00     0.006 C 
BRANCH   2   3
ATOM      3  C   UNL     1       7.311  -8.224  21.276  1.00  0.00     0.053 C 
BRANCH   3   4
ATOM      4  C   UNL     1       6.918  -9.028  22.474  1.00  0.00     0.041 C 
ATOM      5  O   UNL     1       6.268 -10.098  22.335  1.00  0.00    -0.550 OA
ATOM      6  O   UNL     1       7.227  -8.572  23.750  1.00  0.00    -0.550 OA
ENDBRANCH   3   4
ENDBRANCH   2   3
ENDBRANCH   1   2
BRANCH   1   7
ATOM      7  C   UNL     1       7.759  -4.479  20.740  1.00  0.00     0.000 C 
BRANCH   7   8
ATOM      8  C   UNL     1       6.945  -3.175  20.665  1.00  0.00    -0.000 C 
BRANCH   8   9
ATOM      9  C   UNL     1       6.301  -2.792  22.006  1.00  0.00    -0.000 C 
BRANCH   9  10
ATOM     10  C   UNL     1       4.775  -2.729  21.884  1.00  0.00    -0.003 C 
ATOM     11  C   UNL     1       4.331  -2.879  20.431  1.00  0.00     0.004 C 
ENDBRANCH   9  10
ENDBRANCH   8   9
ENDBRANCH   7   8
ENDBRANCH   1   7
TORSDOF 7
ENDMDL
MODEL 4
REMARK VINA RESULT:    -6.420      1.347      1.803
REMARK INTER + INTRA:          -9.250
REMARK INTER:                  -8.951
REMARK INTRA:                  -0.299
REMARK UNBOUND:                -0.202
REMARK SMILES CCCCCCCCC(=O)[O-]
REMARK SMILES IDX 6 1 7 2 8 3 9 4 10 5 11 6 5 7 4 8 3 9 2 10 1 11
REMARK H PARENT
REMARK Flexibility Score: inf
ROOT
ATOM      1  C   UNL     1       5.644  -3.977  21.498  1.00  0.00     0.000 C 
ENDROOT
BRANCH   1   2
ATOM      2  C   UNL     1       5.233  -2.561  21.930  1.00  0.00     0.006 C 
BRANCH   2   3
ATOM      3  C   UNL     1       6.080  -1.503  21.216  1.00  0.00     0.053 C 
BRANCH   3   4
ATOM      4  C   UNL     1       5.286  -0.835  20.139  1.00  0.00     0.041 C 
ATOM      5  O   UNL     1       4.249  -1.386  19.682  1.00  0.00    -0.550 OA
ATOM      6  O   UNL     1       5.715   0.374  19.606  1.00  0.00    -0.550 OA
ENDBRANCH   3   4
ENDBRANCH   2   3
ENDBRANCH   1   2
BRANCH   1   7
ATOM      7  C   UNL     1       7.063  -4.034  20.904  1.00  0.00     0.000 C 
BRANCH   7   8
ATOM      8  C   UNL     1       7.807  -5.364  21.120  1.00  0.00    -0.000 C 
BRANCH   8   9
ATOM      9  C   UNL     1       6.870  -6.581  21.123  1.00  0.00    -0.000 C 
BRANCH   9  10
ATOM     10  C   UNL     1       7.627  -7.855  21.514  1.00  0.00    -0.003 C 
ATOM     11  C   UNL     1       6.835  -8.680  22.524  1.00  0.00     0.004 C 
ENDBRANCH   9  10
ENDBRANCH   8   9
ENDBRANCH   7   8
ENDBRANCH   1   7
TORSDOF 7
ENDMDL
MODEL 5
REMARK VINA RESULT:    -6.279      1.578      2.679
REMARK INTER + INTRA:          -9.052
REMARK INTER:                  -8.640
REMARK INTRA:                  -0.412
REMARK UNBOUND:                -0.202
REMARK SMILES CCCCCCCCC(=O)[O-]
REMARK SMILES IDX 6 1 7 2 8 3 9 4 10 5 11 6 5 7 4 8 3 9 2 10 1 11
REMARK H PARENT
REMARK Flexibility Score: inf
ROOT
ATOM      1  C   UNL     1       4.984  -2.623  22.071  1.00  0.00     0.000 C 
ENDROOT
BRANCH   1   2
ATOM      2  C   UNL     1       4.210  -2.753  20.751  1.00  0.00     0.006 C 
BRANCH   2   3
ATOM      3  C   UNL     1       3.276  -1.556  20.544  1.00  0.00     0.053 C 
BRANCH   3   4
ATOM      4  C   UNL     1       3.822  -0.642  19.493  1.00  0.00     0.041 C 
ATOM      5  O   UNL     1       4.986  -0.175  19.601  1.00  0.00    -0.550 OA
ATOM      6  O   UNL     1       3.028  -0.269  18.415  1.00  0.00    -0.550 OA
ENDBRANCH   3   4
ENDBRANCH   2   3
ENDBRANCH   1   2
BRANCH   1   7
ATOM      7  C   UNL     1       6.510  -2.716  21.884  1.00  0.00     0.000 C 
BRANCH   7   8
ATOM      8  C   UNL     1       6.969  -3.610  20.719  1.00  0.00    -0.000 C 
BRANCH   8   9
ATOM      9  C   UNL     1       7.694  -4.880  21.187  1.00  0.00    -0.000 C 
BRANCH   9  10
ATOM     10  C   UNL     1       6.787  -6.109  21.055  1.00  0.00    -0.003 C 
ATOM     11  C   UNL     1       7.505  -7.376  21.513  1.00  0.00     0.004 C 
ENDBRANCH   9  10
ENDBRANCH   8   9
ENDBRANCH   7   8
ENDBRANCH   1   7
TORSDOF 7
ENDMDL
MODEL 6
REMARK VINA RESULT:    -6.192      1.933      3.523
REMARK INTER + INTRA:          -8.929
REMARK INTER:                  -8.490
REMARK INTRA:                  -0.439
REMARK UNBOUND:                -0.202
REMARK SMILES CCCCCCCCC(=O)[O-]
REMARK SMILES IDX 6 1 7 2 8 3 9 4 10 5 11 6 5 7 4 8 3 9 2 10 1 11
REMARK H PARENT
REMARK Flexibility Score: inf
ROOT
ATOM      1  C   UNL     1       3.955  -2.118  21.790  1.00  0.00     0.000 C 
ENDROOT
BRANCH   1   2
ATOM      2  C   UNL     1       3.682  -2.289  20.289  1.00  0.00     0.006 C 
BRANCH   2   3
ATOM      3  C   UNL     1       2.635  -1.280  19.805  1.00  0.00     0.053 C 
BRANCH   3   4
ATOM      4  C   UNL     1       3.300  -0.041  19.293  1.00  0.00     0.041 C 
ATOM      5  O   UNL     1       2.609   0.899  18.818  1.00  0.00    -0.550 OA
ATOM      6  O   UNL     1       4.686   0.057  19.296  1.00  0.00    -0.550 OA
ENDBRANCH   3   4
ENDBRANCH   2   3
ENDBRANCH   1   2
BRANCH   1   7
ATOM      7  C   UNL     1       5.246  -2.820  22.249  1.00  0.00     0.000 C 
BRANCH   7   8
ATOM      8  C   UNL     1       6.505  -2.461  21.440  1.00  0.00    -0.000 C 
BRANCH   8   9
ATOM      9  C   UNL     1       7.214  -3.693  20.856  1.00  0.00    -0.000 C 
BRANCH   9  10
ATOM     10  C   UNL     1       6.291  -4.916  20.872  1.00  0.00    -0.003 C 
ATOM     11  C   UNL     1       7.070  -6.192  21.180  1.00  0.00     0.004 C 
ENDBRANCH   9  10
ENDBRANCH   8   9
ENDBRANCH   7   8
ENDBRANCH   1   7
TORSDOF 7
ENDMDL
MODEL 7
REMARK VINA RESULT:    -6.059      3.451      5.773
REMARK INTER + INTRA:          -8.741
REMARK INTER:                  -8.367
REMARK INTRA:                  -0.374
REMARK UNBOUND:                -0.202
REMARK SMILES CCCCCCCCC(=O)[O-]
REMARK SMILES IDX 6 1 7 2 8 3 9 4 10 5 11 6 5 7 4 8 3 9 2 10 1 11
REMARK H PARENT
REMARK Flexibility Score: inf
ROOT
ATOM      1  C   UNL     1       7.575  -4.056  20.348  1.00  0.00     0.000 C 
ENDROOT
BRANCH   1   2
ATOM      2  C   UNL     1       7.836  -5.253  21.275  1.00  0.00     0.006 C 
BRANCH   2   3
ATOM      3  C   UNL     1       6.784  -6.347  21.066  1.00  0.00     0.053 C 
BRANCH   3   4
ATOM      4  C   UNL     1       7.293  -7.663  21.564  1.00  0.00     0.041 C 
ATOM      5  O   UNL     1       7.438  -8.629  20.769  1.00  0.00    -0.550 OA
ATOM      6  O   UNL     1       7.562  -7.838  22.915  1.00  0.00    -0.550 OA
ENDBRANCH   3   4
ENDBRANCH   2   3
ENDBRANCH   1   2
BRANCH   1   7
ATOM      7  C   UNL     1       6.883  -2.882  21.064  1.00  0.00     0.000 C 
BRANCH   7   8
ATOM      8  C   UNL     1       5.365  -3.042  21.260  1.00  0.00    -0.000 C 
BRANCH   8   9
ATOM      9  C   UNL     1       4.635  -3.452  19.973  1.00  0.00    -0.000 C 
BRANCH   9  10
ATOM     10  C   UNL     1       3.456  -2.514  19.688  1.00  0.00    -0.003 C 
ATOM     11  C   UNL     1       3.891  -1.052  19.731  1.00  0.00     0.004 C 
ENDBRANCH   9  10
ENDBRANCH   8   9
ENDBRANCH   7   8
ENDBRANCH   1   7
TORSDOF 7
ENDMDL
MODEL 8
REMARK VINA RESULT:    -5.947      3.106      6.415
REMARK INTER + INTRA:          -8.584
REMARK INTER:                  -8.181
REMARK INTRA:                  -0.403
REMARK UNBOUND:                -0.202
REMARK SMILES CCCCCCCCC(=O)[O-]
REMARK SMILES IDX 6 1 7 2 8 3 9 4 10 5 11 6 5 7 4 8 3 9 2 10 1 11
REMARK H PARENT
REMARK Flexibility Score: inf
ROOT
ATOM      1  C   UNL     1       6.251  -0.783  20.580  1.00  0.00     0.000 C 
ENDROOT
BRANCH   1   2
ATOM      2  C   UNL     1       6.027  -2.006  21.481  1.00  0.00     0.006 C 
BRANCH   2   3
ATOM      3  C   UNL     1       6.961  -3.154  21.088  1.00  0.00     0.053 C 
BRANCH   3   4
ATOM      4  C   UNL     1       6.229  -4.459  21.120  1.00  0.00     0.041 C 
ATOM      5  O   UNL     1       4.982  -4.481  21.295  1.00  0.00    -0.550 OA
ATOM      6  O   UNL     1       6.930  -5.653  21.004  1.00  0.00    -0.550 OA
ENDBRANCH   3   4
ENDBRANCH   2   3
ENDBRANCH   1   2
BRANCH   1   7
ATOM      7  C   UNL     1       4.996  -0.389  19.780  1.00  0.00     0.000 C 
BRANCH   7   8
ATOM      8  C   UNL     1       3.867  -1.434  19.783  1.00  0.00    -0.000 C 
BRANCH   8   9
ATOM      9  C   UNL     1       2.515  -0.858  19.335  1.00  0.00    -0.000 C 
BRANCH   9  10
ATOM     10  C   UNL     1       2.676   0.572  18.809  1.00  0.00    -0.003 C 
ATOM     11  C   UNL     1       1.321   1.197  18.487  1.00  0.00     0.004 C 
ENDBRANCH   9  10
ENDBRANCH   8   9
ENDBRANCH   7   8
ENDBRANCH   1   7
TORSDOF 7
ENDMDL
MODEL 9
REMARK VINA RESULT:    -5.762      3.040      4.444
REMARK INTER + INTRA:          -8.323
REMARK INTER:                  -7.993
REMARK INTRA:                  -0.329
REMARK UNBOUND:                -0.202
REMARK SMILES CCCCCCCCC(=O)[O-]
REMARK SMILES IDX 6 1 7 2 8 3 9 4 10 5 11 6 5 7 4 8 3 9 2 10 1 11
REMARK H PARENT
REMARK Flexibility Score: inf
ROOT
ATOM      1  C   UNL     1       4.667  -1.427  20.006  1.00  0.00     0.000 C 
ENDROOT
BRANCH   1   2
ATOM      2  C   UNL     1       4.058  -0.127  19.459  1.00  0.00     0.006 C 
BRANCH   2   3
ATOM      3  C   UNL     1       2.539  -0.257  19.307  1.00  0.00     0.053 C 
BRANCH   3   4
ATOM      4  C   UNL     1       2.036   0.686  18.260  1.00  0.00     0.041 C 
ATOM      5  O   UNL     1       2.524   0.664  17.099  1.00  0.00    -0.550 OA
ATOM      6  O   UNL     1       1.060   1.623  18.578  1.00  0.00    -0.550 OA
ENDBRANCH   3   4
ENDBRANCH   2   3
ENDBRANCH   1   2
BRANCH   1   7
ATOM      7  C   UNL     1       6.035  -1.211  20.679  1.00  0.00     0.000 C 
BRANCH   7   8
ATOM      8  C   UNL     1       6.503  -2.362  21.587  1.00  0.00    -0.000 C 
BRANCH   8   9
ATOM      9  C   UNL     1       5.526  -3.547  21.605  1.00  0.00    -0.000 C 
BRANCH   9  10
ATOM     10  C   UNL     1       6.224  -4.840  21.169  1.00  0.00    -0.003 C 
ATOM     11  C   UNL     1       7.665  -4.573  20.743  1.00  0.00     0.004 C 
ENDBRANCH   9  10
ENDBRANCH   8   9
ENDBRANCH   7   8
ENDBRANCH   1   7
TORSDOF 7
ENDMDL
