MODEL 1
REMARK VINA RESULT:    -3.176      0.000      0.000
REMARK INTER + INTRA:          -3.378
REMARK INTER:                  -3.361
REMARK INTRA:                  -0.017
REMARK UNBOUND:                -0.017
REMARK SMILES O=C([O-])c1cccnc1
REMARK SMILES IDX 4 1 5 2 9 3 6 4 8 5 7 6 2 7 1 8 3 9
REMARK H PARENT
REMARK Flexibility Score: inf
ROOT
ATOM      1  C   UNL     1      18.059  -1.755  17.142  1.00  0.00     0.016 A 
ATOM      2  C   UNL     1      17.618  -2.805  17.963  1.00  0.00     0.013 A 
ATOM      3  C   UNL     1      19.397  -1.763  16.708  1.00  0.00     0.120 A 
ATOM      4  C   UNL     1      18.496  -3.824  18.331  1.00  0.00     0.021 A 
ATOM      5  N   UNL     1      20.233  -2.768  17.081  1.00  0.00    -0.264 NA
ATOM      6  C   UNL     1      19.815  -3.788  17.876  1.00  0.00     0.111 A 
ENDROOT
BRANCH   1   7
ATOM      7  C   UNL     1      17.137  -0.670  16.744  1.00  0.00     0.073 C 
ATOM      8  O   UNL     1      16.816   0.231  17.564  1.00  0.00    -0.545 OA
ATOM      9  O   UNL     1      16.610  -0.630  15.458  1.00  0.00    -0.545 OA
ENDBRANCH   1   7
TORSDOF 1
ENDMDL
MODEL 2
REMARK VINA RESULT:    -3.079      1.106      1.959
REMARK INTER + INTRA:          -3.276
REMARK INTER:                  -3.259
REMARK INTRA:                  -0.016
REMARK UNBOUND:                -0.017
REMARK SMILES O=C([O-])c1cccnc1
REMARK SMILES IDX 4 1 5 2 9 3 6 4 8 5 7 6 2 7 1 8 3 9
REMARK H PARENT
REMARK Flexibility Score: inf
ROOT
ATOM      1  C   UNL     1      17.754  -1.855  16.820  1.00  0.00     0.016 A 
ATOM      2  C   UNL     1      19.148  -1.703  16.865  1.00  0.00     0.013 A 
ATOM      3  C   UNL     1      17.213  -3.136  17.032  1.00  0.00     0.120 A 
ATOM      4  C   UNL     1      19.966  -2.806  17.115  1.00  0.00     0.021 A 
ATOM      5  N   UNL     1      18.031  -4.194  17.273  1.00  0.00    -0.264 NA
ATOM      6  C   UNL     1      19.383  -4.058  17.318  1.00  0.00     0.111 A 
ENDROOT
BRANCH   1   7
ATOM      7  C   UNL     1      16.877  -0.693  16.557  1.00  0.00     0.073 C 
ATOM      8  O   UNL     1      16.331  -0.544  15.431  1.00  0.00    -0.545 OA
ATOM      9  O   UNL     1      16.644   0.252  17.549  1.00  0.00    -0.545 OA
ENDBRANCH   1   7
TORSDOF 1
ENDMDL
MODEL 3
REMARK VINA RESULT:    -3.072      2.758      3.869
REMARK INTER + INTRA:          -3.268
REMARK INTER:                  -3.252
REMARK INTRA:                  -0.016
REMARK UNBOUND:                -0.017
REMARK SMILES O=C([O-])c1cccnc1
REMARK SMILES IDX 4 1 5 2 9 3 6 4 8 5 7 6 2 7 1 8 3 9
REMARK H PARENT
REMARK Flexibility Score: inf
ROOT
ATOM      1  C   UNL     1      17.930  -2.088  17.232  1.00  0.00     0.016 A 
ATOM      2  C   UNL     1      17.605  -0.742  17.460  1.00  0.00     0.013 A 
ATOM      3  C   UNL     1      16.931  -2.942  16.730  1.00  0.00     0.120 A 
ATOM      4  C   UNL     1      16.317  -0.276  17.191  1.00  0.00     0.021 A 
ATOM      5  N   UNL     1      15.684  -2.463  16.477  1.00  0.00    -0.264 NA
ATOM      6  C   UNL     1      15.359  -1.161  16.695  1.00  0.00     0.111 A 
ENDROOT
BRANCH   1   7
ATOM      7  C   UNL     1      19.291  -2.593  17.512  1.00  0.00     0.073 C 
ATOM      8  O   UNL     1      20.211  -2.462  16.661  1.00  0.00    -0.545 OA
ATOM      9  O   UNL     1      19.575  -3.221  18.719  1.00  0.00    -0.545 OA
ENDBRANCH   1   7
TORSDOF 1
ENDMDL
MODEL 4
REMARK VINA RESULT:    -3.023      2.844      3.734
REMARK INTER + INTRA:          -3.216
REMARK INTER:                  -3.200
REMARK INTRA:                  -0.016
REMARK UNBOUND:                -0.017
REMARK SMILES O=C([O-])c1cccnc1
REMARK SMILES IDX 4 1 5 2 9 3 6 4 8 5 7 6 2 7 1 8 3 9
REMARK H PARENT
REMARK Flexibility Score: inf
ROOT
ATOM      1  C   UNL     1      17.955  -2.095  17.190  1.00  0.00     0.016 A 
ATOM      2  C   UNL     1      16.941  -2.897  16.645  1.00  0.00     0.013 A 
ATOM      3  C   UNL     1      17.667  -0.745  17.462  1.00  0.00     0.120 A 
ATOM      4  C   UNL     1      15.682  -2.354  16.383  1.00  0.00     0.021 A 
ATOM      5  N   UNL     1      16.432  -0.241  17.197  1.00  0.00    -0.264 NA
ATOM      6  C   UNL     1      15.444  -1.010  16.669  1.00  0.00     0.111 A 
ENDROOT
BRANCH   1   7
ATOM      7  C   UNL     1      19.293  -2.658  17.473  1.00  0.00     0.073 C 
ATOM      8  O   UNL     1      20.221  -2.561  16.626  1.00  0.00    -0.545 OA
ATOM      9  O   UNL     1      19.544  -3.305  18.677  1.00  0.00    -0.545 OA
ENDBRANCH   1   7
TORSDOF 1
ENDMDL
MODEL 5
REMARK VINA RESULT:    -3.006      3.146      3.810
REMARK INTER + INTRA:          -3.198
REMARK INTER:                  -3.176
REMARK INTRA:                  -0.022
REMARK UNBOUND:                -0.017
REMARK SMILES O=C([O-])c1cccnc1
REMARK SMILES IDX 4 1 5 2 9 3 6 4 8 5 7 6 2 7 1 8 3 9
REMARK H PARENT
REMARK Flexibility Score: inf
ROOT
ATOM      1  C   UNL     1      19.337  -3.138  17.142  1.00  0.00     0.016 A 
ATOM      2  C   UNL     1      18.092  -3.779  17.050  1.00  0.00     0.013 A 
ATOM      3  C   UNL     1      19.359  -1.748  17.353  1.00  0.00     0.120 A 
ATOM      4  C   UNL     1      16.912  -3.042  17.167  1.00  0.00     0.021 A 
ATOM      5  N   UNL     1      18.195  -1.052  17.464  1.00  0.00    -0.264 NA
ATOM      6  C   UNL     1      16.985  -1.664  17.376  1.00  0.00     0.111 A 
ENDROOT
BRANCH   1   7
ATOM      7  C   UNL     1      20.593  -3.908  17.020  1.00  0.00     0.073 C 
ATOM      8  O   UNL     1      20.653  -5.104  17.414  1.00  0.00    -0.545 OA
ATOM      9  O   UNL     1      21.727  -3.323  16.469  1.00  0.00    -0.545 OA
ENDBRANCH   1   7
TORSDOF 1
ENDMDL
MODEL 6
REMARK VINA RESULT:    -2.849      2.814      3.777
REMARK INTER + INTRA:          -3.032
REMARK INTER:                  -3.011
REMARK INTRA:                  -0.021
REMARK UNBOUND:                -0.017
REMARK SMILES O=C([O-])c1cccnc1
REMARK SMILES IDX 4 1 5 2 9 3 6 4 8 5 7 6 2 7 1 8 3 9
REMARK H PARENT
REMARK Flexibility Score: inf
ROOT
ATOM      1  C   UNL     1      15.674  -2.628  15.981  1.00  0.00     0.016 A 
ATOM      2  C   UNL     1      15.858  -1.266  15.694  1.00  0.00     0.013 A 
ATOM      3  C   UNL     1      16.682  -3.304  16.691  1.00  0.00     0.120 A 
ATOM      4  C   UNL     1      17.019  -0.613  16.109  1.00  0.00     0.021 A 
ATOM      5  N   UNL     1      17.805  -2.644  17.084  1.00  0.00    -0.264 NA
ATOM      6  C   UNL     1      17.992  -1.326  16.811  1.00  0.00     0.111 A 
ENDROOT
BRANCH   1   7
ATOM      7  C   UNL     1      14.448  -3.331  15.547  1.00  0.00     0.073 C 
ATOM      8  O   UNL     1      13.878  -3.019  14.467  1.00  0.00    -0.545 OA
ATOM      9  O   UNL     1      13.906  -4.347  16.326  1.00  0.00    -0.545 OA
ENDBRANCH   1   7
TORSDOF 1
ENDMDL
MODEL 7
REMARK VINA RESULT:    -2.764      2.531      3.424
REMARK INTER + INTRA:          -2.942
REMARK INTER:                  -2.921
REMARK INTRA:                  -0.022
REMARK UNBOUND:                -0.017
REMARK SMILES O=C([O-])c1cccnc1
REMARK SMILES IDX 4 1 5 2 9 3 6 4 8 5 7 6 2 7 1 8 3 9
REMARK H PARENT
REMARK Flexibility Score: inf
ROOT
ATOM      1  C   UNL     1      16.730  -1.919  16.787  1.00  0.00     0.016 A 
ATOM      2  C   UNL     1      15.641  -1.505  16.004  1.00  0.00     0.013 A 
ATOM      3  C   UNL     1      16.901  -3.295  17.020  1.00  0.00     0.120 A 
ATOM      4  C   UNL     1      14.757  -2.448  15.477  1.00  0.00     0.021 A 
ATOM      5  N   UNL     1      16.025  -4.194  16.496  1.00  0.00    -0.264 NA
ATOM      6  C   UNL     1      14.968  -3.803  15.737  1.00  0.00     0.111 A 
ENDROOT
BRANCH   1   7
ATOM      7  C   UNL     1      17.673  -0.929  17.350  1.00  0.00     0.073 C 
ATOM      8  O   UNL     1      18.876  -1.239  17.564  1.00  0.00    -0.545 OA
ATOM      9  O   UNL     1      17.245   0.358  17.653  1.00  0.00    -0.545 OA
ENDBRANCH   1   7
TORSDOF 1
ENDMDL
MODEL 8
REMARK VINA RESULT:    -2.676      1.714      2.142
REMARK INTER + INTRA:          -2.849
REMARK INTER:                  -2.832
REMARK INTRA:                  -0.016
REMARK UNBOUND:                -0.017
REMARK SMILES O=C([O-])c1cccnc1
REMARK SMILES IDX 4 1 5 2 9 3 6 4 8 5 7 6 2 7 1 8 3 9
REMARK H PARENT
REMARK Flexibility Score: inf
ROOT
ATOM      1  C   UNL     1      17.195  -2.515  16.911  1.00  0.00     0.016 A 
ATOM      2  C   UNL     1      18.115  -1.457  16.990  1.00  0.00     0.013 A 
ATOM      3  C   UNL     1      17.690  -3.831  16.885  1.00  0.00     0.120 A 
ATOM      4  C   UNL     1      19.484  -1.721  17.039  1.00  0.00     0.021 A 
ATOM      5  N   UNL     1      19.030  -4.061  16.933  1.00  0.00    -0.264 NA
ATOM      6  C   UNL     1      19.928  -3.043  17.009  1.00  0.00     0.111 A 
ENDROOT
BRANCH   1   7
ATOM      7  C   UNL     1      15.742  -2.248  16.859  1.00  0.00     0.073 C 
ATOM      8  O   UNL     1      15.035  -2.340  17.898  1.00  0.00    -0.545 OA
ATOM      9  O   UNL     1      15.134  -1.892  15.660  1.00  0.00    -0.545 OA
ENDBRANCH   1   7
TORSDOF 1
ENDMDL
MODEL 9
REMARK VINA RESULT:    -2.589      2.611      3.208
REMARK INTER + INTRA:          -2.757
REMARK INTER:                  -2.736
REMARK INTRA:                  -0.021
REMARK UNBOUND:                -0.017
REMARK SMILES O=C([O-])c1cccnc1
REMARK SMILES IDX 4 1 5 2 9 3 6 4 8 5 7 6 2 7 1 8 3 9
REMARK H PARENT
REMARK Flexibility Score: inf
ROOT
ATOM      1  C   UNL     1      18.943  -3.133  17.909  1.00  0.00     0.016 A 
ATOM      2  C   UNL     1      17.562  -2.922  17.773  1.00  0.00     0.013 A 
ATOM      3  C   UNL     1      19.400  -3.888  19.003  1.00  0.00     0.120 A 
ATOM      4  C   UNL     1      16.676  -3.455  18.710  1.00  0.00     0.021 A 
ATOM      5  N   UNL     1      18.516  -4.396  19.903  1.00  0.00    -0.264 NA
ATOM      6  C   UNL     1      17.177  -4.197  19.780  1.00  0.00     0.111 A 
ENDROOT
BRANCH   1   7
ATOM      7  C   UNL     1      19.892  -2.573  16.922  1.00  0.00     0.073 C 
ATOM      8  O   UNL     1      19.660  -1.467  16.365  1.00  0.00    -0.545 OA
ATOM      9  O   UNL     1      21.054  -3.262  16.594  1.00  0.00    -0.545 OA
ENDBRANCH   1   7
TORSDOF 1
ENDMDL
