MODEL 1
REMARK VINA RESULT:    -5.265      0.000      0.000
REMARK INTER + INTRA:          -8.012
REMARK INTER:                  -7.112
REMARK INTRA:                  -0.900
REMARK UNBOUND:                -0.900
REMARK SMILES CC(=O)CCC=C(C)CCC=C(C)C
REMARK SMILES IDX 7 1 6 2 8 3 9 4 10 5 11 6 13 7 12 8 14 9 5 10 4 11 2 12 3 13
REMARK SMILES IDX 1 14
REMARK H PARENT
REMARK Flexibility Score: inf
ROOT
ATOM      1  C   UNL     1      84.116   3.022  28.180  1.00  0.00    -0.077 C 
ATOM      2  C   UNL     1      82.936   2.579  28.670  1.00  0.00    -0.028 C 
ATOM      3  C   UNL     1      85.391   2.965  28.990  1.00  0.00     0.039 C 
ENDROOT
BRANCH   1   4
ATOM      4  C   UNL     1      84.180   3.543  26.759  1.00  0.00     0.034 C 
BRANCH   4   5
ATOM      5  C   UNL     1      84.265   5.073  26.717  1.00  0.00     0.032 C 
BRANCH   5   6
ATOM      6  C   UNL     1      82.904   5.695  26.500  1.00  0.00    -0.028 C 
ATOM      7  C   UNL     1      82.510   6.129  28.936  1.00  0.00     0.039 C 
ATOM      8  C   UNL     1      82.118   6.195  27.479  1.00  0.00    -0.080 C 
ATOM      9  C   UNL     1      80.814   6.842  27.091  1.00  0.00     0.039 C 
ENDBRANCH   5   6
ENDBRANCH   4   5
ENDBRANCH   1   4
BRANCH   2  10
ATOM     10  C   UNL     1      82.738   2.034  30.062  1.00  0.00     0.035 C 
BRANCH  10  11
ATOM     11  C   UNL     1      81.762   2.914  30.856  1.00  0.00     0.079 C 
BRANCH  11  12
ATOM     12  C   UNL     1      80.978   2.202  31.940  1.00  0.00     0.130 C 
ATOM     13  O   UNL     1      80.979   0.981  31.932  1.00  0.00    -0.300 OA
ATOM     14  C   UNL     1      80.196   2.894  33.028  1.00  0.00     0.087 C 
ENDBRANCH  11  12
ENDBRANCH  10  11
ENDBRANCH   2  10
TORSDOF 6
ENDMDL
MODEL 2
REMARK VINA RESULT:    -5.096      2.011      4.670
REMARK INTER + INTRA:          -7.783
REMARK INTER:                  -6.701
REMARK INTRA:                  -1.082
REMARK UNBOUND:                -0.900
REMARK SMILES CC(=O)CCC=C(C)CCC=C(C)C
REMARK SMILES IDX 7 1 6 2 8 3 9 4 10 5 11 6 13 7 12 8 14 9 5 10 4 11 2 12 3 13
REMARK SMILES IDX 1 14
REMARK H PARENT
REMARK Flexibility Score: inf
ROOT
ATOM      1  C   UNL     1      85.009   4.888  27.567  1.00  0.00    -0.077 C 
ATOM      2  C   UNL     1      84.333   4.572  26.438  1.00  0.00    -0.028 C 
ATOM      3  C   UNL     1      84.718   6.150  28.346  1.00  0.00     0.039 C 
ENDROOT
BRANCH   1   4
ATOM      4  C   UNL     1      86.053   3.928  28.099  1.00  0.00     0.034 C 
BRANCH   4   5
ATOM      5  C   UNL     1      85.422   2.628  28.611  1.00  0.00     0.032 C 
BRANCH   5   6
ATOM      6  C   UNL     1      84.303   2.906  29.589  1.00  0.00    -0.028 C 
ATOM      7  C   UNL     1      82.533   1.884  28.141  1.00  0.00     0.039 C 
ATOM      8  C   UNL     1      83.011   2.557  29.405  1.00  0.00    -0.080 C 
ATOM      9  C   UNL     1      82.025   2.849  30.506  1.00  0.00     0.039 C 
ENDBRANCH   5   6
ENDBRANCH   4   5
ENDBRANCH   1   4
BRANCH   2  10
ATOM     10  C   UNL     1      83.270   5.436  25.807  1.00  0.00     0.035 C 
BRANCH  10  11
ATOM     11  C   UNL     1      81.888   5.103  26.384  1.00  0.00     0.079 C 
BRANCH  11  12
ATOM     12  C   UNL     1      81.387   6.045  27.460  1.00  0.00     0.130 C 
ATOM     13  O   UNL     1      81.407   5.648  28.615  1.00  0.00    -0.300 OA
ATOM     14  C   UNL     1      80.867   7.437  27.208  1.00  0.00     0.087 C 
ENDBRANCH  11  12
ENDBRANCH  10  11
ENDBRANCH   2  10
TORSDOF 6
ENDMDL
MODEL 3
REMARK VINA RESULT:    -4.904      2.471      5.540
REMARK INTER + INTRA:          -7.524
REMARK INTER:                  -6.473
REMARK INTRA:                  -1.052
REMARK UNBOUND:                -0.900
REMARK SMILES CC(=O)CCC=C(C)CCC=C(C)C
REMARK SMILES IDX 7 1 6 2 8 3 9 4 10 5 11 6 13 7 12 8 14 9 5 10 4 11 2 12 3 13
REMARK SMILES IDX 1 14
REMARK H PARENT
REMARK Flexibility Score: inf
ROOT
ATOM      1  C   UNL     1      82.205   5.012  29.801  1.00  0.00    -0.077 C 
ATOM      2  C   UNL     1      81.703   5.053  28.545  1.00  0.00    -0.028 C 
ATOM      3  C   UNL     1      82.895   6.202  30.426  1.00  0.00     0.039 C 
ENDROOT
BRANCH   1   4
ATOM      4  C   UNL     1      82.027   3.756  30.629  1.00  0.00     0.034 C 
BRANCH   4   5
ATOM      5  C   UNL     1      82.608   2.523  29.926  1.00  0.00     0.032 C 
BRANCH   5   6
ATOM      6  C   UNL     1      84.066   2.723  29.580  1.00  0.00    -0.028 C 
ATOM      7  C   UNL     1      83.725   2.358  27.125  1.00  0.00     0.039 C 
ATOM      8  C   UNL     1      84.577   2.677  28.330  1.00  0.00    -0.080 C 
ATOM      9  C   UNL     1      86.045   2.962  28.144  1.00  0.00     0.039 C 
ENDBRANCH   5   6
ENDBRANCH   4   5
ENDBRANCH   1   4
BRANCH   2  10
ATOM     10  C   UNL     1      81.808   6.239  27.620  1.00  0.00     0.035 C 
BRANCH  10  11
ATOM     11  C   UNL     1      82.446   5.832  26.285  1.00  0.00     0.079 C 
BRANCH  11  12
ATOM     12  C   UNL     1      83.948   5.636  26.315  1.00  0.00     0.130 C 
ATOM     13  O   UNL     1      84.553   6.034  27.298  1.00  0.00    -0.300 OA
ATOM     14  C   UNL     1      84.750   4.985  25.216  1.00  0.00     0.087 C 
ENDBRANCH  11  12
ENDBRANCH  10  11
ENDBRANCH   2  10
TORSDOF 6
ENDMDL
MODEL 4
REMARK VINA RESULT:    -4.904      1.813      5.202
REMARK INTER + INTRA:          -7.524
REMARK INTER:                  -6.834
REMARK INTRA:                  -0.690
REMARK UNBOUND:                -0.900
REMARK SMILES CC(=O)CCC=C(C)CCC=C(C)C
REMARK SMILES IDX 7 1 6 2 8 3 9 4 10 5 11 6 13 7 12 8 14 9 5 10 4 11 2 12 3 13
REMARK SMILES IDX 1 14
REMARK H PARENT
REMARK Flexibility Score: inf
ROOT
ATOM      1  C   UNL     1      82.627   5.951  27.823  1.00  0.00    -0.077 C 
ATOM      2  C   UNL     1      83.914   5.806  27.431  1.00  0.00    -0.028 C 
ATOM      3  C   UNL     1      81.475   5.812  26.855  1.00  0.00     0.039 C 
ENDROOT
BRANCH   1   4
ATOM      4  C   UNL     1      82.322   6.208  29.285  1.00  0.00     0.034 C 
BRANCH   4   5
ATOM      5  C   UNL     1      83.072   5.234  30.202  1.00  0.00     0.032 C 
BRANCH   5   6
ATOM      6  C   UNL     1      82.121   4.500  31.121  1.00  0.00    -0.028 C 
ATOM      7  C   UNL     1      82.463   2.283  30.005  1.00  0.00     0.039 C 
ATOM      8  C   UNL     1      81.858   3.176  31.062  1.00  0.00    -0.080 C 
ATOM      9  C   UNL     1      80.933   2.582  32.092  1.00  0.00     0.039 C 
ENDBRANCH   5   6
ENDBRANCH   4   5
ENDBRANCH   1   4
BRANCH   2  10
ATOM     10  C   UNL     1      84.351   5.543  26.012  1.00  0.00     0.035 C 
BRANCH  10  11
ATOM     11  C   UNL     1      84.949   4.136  25.880  1.00  0.00     0.079 C 
BRANCH  11  12
ATOM     12  C   UNL     1      84.649   3.191  27.026  1.00  0.00     0.130 C 
ATOM     13  O   UNL     1      83.609   2.552  26.977  1.00  0.00    -0.300 OA
ATOM     14  C   UNL     1      85.542   2.982  28.222  1.00  0.00     0.087 C 
ENDBRANCH  11  12
ENDBRANCH  10  11
ENDBRANCH   2  10
TORSDOF 6
ENDMDL
MODEL 5
REMARK VINA RESULT:    -4.697      1.666      3.845
REMARK INTER + INTRA:          -7.244
REMARK INTER:                  -6.604
REMARK INTRA:                  -0.639
REMARK UNBOUND:                -0.900
REMARK SMILES CC(=O)CCC=C(C)CCC=C(C)C
REMARK SMILES IDX 7 1 6 2 8 3 9 4 10 5 11 6 13 7 12 8 14 9 5 10 4 11 2 12 3 13
REMARK SMILES IDX 1 14
REMARK H PARENT
REMARK Flexibility Score: inf
ROOT
ATOM      1  C   UNL     1      82.803   5.867  26.788  1.00  0.00    -0.077 C 
ATOM      2  C   UNL     1      83.133   5.997  28.094  1.00  0.00    -0.028 C 
ATOM      3  C   UNL     1      81.365   5.797  26.330  1.00  0.00     0.039 C 
ENDROOT
BRANCH   1   4
ATOM      4  C   UNL     1      83.901   5.843  25.745  1.00  0.00     0.034 C 
BRANCH   4   5
ATOM      5  C   UNL     1      84.500   4.440  25.581  1.00  0.00     0.032 C 
BRANCH   5   6
ATOM      6  C   UNL     1      85.201   3.990  26.843  1.00  0.00    -0.028 C 
ATOM      7  C   UNL     1      83.436   2.318  27.448  1.00  0.00     0.039 C 
ATOM      8  C   UNL     1      84.751   3.024  27.674  1.00  0.00    -0.080 C 
ATOM      9  C   UNL     1      85.601   2.645  28.859  1.00  0.00     0.039 C 
ENDBRANCH   5   6
ENDBRANCH   4   5
ENDBRANCH   1   4
BRANCH   2  10
ATOM     10  C   UNL     1      82.139   6.039  29.227  1.00  0.00     0.035 C 
BRANCH  10  11
ATOM     11  C   UNL     1      82.818   5.686  30.557  1.00  0.00     0.079 C 
BRANCH  11  12
ATOM     12  C   UNL     1      82.380   4.378  31.185  1.00  0.00     0.130 C 
ATOM     13  O   UNL     1      82.161   4.371  32.386  1.00  0.00    -0.300 OA
ATOM     14  C   UNL     1      82.195   3.085  30.432  1.00  0.00     0.087 C 
ENDBRANCH  11  12
ENDBRANCH  10  11
ENDBRANCH   2  10
TORSDOF 6
ENDMDL
MODEL 6
REMARK VINA RESULT:    -4.503      2.251      4.336
REMARK INTER + INTRA:          -6.983
REMARK INTER:                  -6.361
REMARK INTRA:                  -0.621
REMARK UNBOUND:                -0.900
REMARK SMILES CC(=O)CCC=C(C)CCC=C(C)C
REMARK SMILES IDX 7 1 6 2 8 3 9 4 10 5 11 6 13 7 12 8 14 9 5 10 4 11 2 12 3 13
REMARK SMILES IDX 1 14
REMARK H PARENT
REMARK Flexibility Score: inf
ROOT
ATOM      1  C   UNL     1      83.208   3.786  30.043  1.00  0.00    -0.077 C 
ATOM      2  C   UNL     1      84.466   3.917  29.562  1.00  0.00    -0.028 C 
ATOM      3  C   UNL     1      82.497   2.453  30.069  1.00  0.00     0.039 C 
ENDROOT
BRANCH   1   4
ATOM      4  C   UNL     1      82.507   4.997  30.622  1.00  0.00     0.034 C 
BRANCH   4   5
ATOM      5  C   UNL     1      82.477   6.166  29.629  1.00  0.00     0.032 C 
BRANCH   5   6
ATOM      6  C   UNL     1      82.232   5.683  28.217  1.00  0.00    -0.028 C 
ATOM      7  C   UNL     1      80.772   7.626  27.610  1.00  0.00     0.039 C 
ATOM      8  C   UNL     1      81.493   6.338  27.294  1.00  0.00    -0.080 C 
ATOM      9  C   UNL     1      81.398   5.756  25.908  1.00  0.00     0.039 C 
ENDBRANCH   5   6
ENDBRANCH   4   5
ENDBRANCH   1   4
BRANCH   2  10
ATOM     10  C   UNL     1      85.275   2.793  28.964  1.00  0.00     0.035 C 
BRANCH  10  11
ATOM     11  C   UNL     1      85.739   3.152  27.546  1.00  0.00     0.079 C 
BRANCH  11  12
ATOM     12  C   UNL     1      84.639   3.557  26.585  1.00  0.00     0.130 C 
ATOM     13  O   UNL     1      83.591   2.933  26.627  1.00  0.00    -0.300 OA
ATOM     14  C   UNL     1      84.748   4.676  25.580  1.00  0.00     0.087 C 
ENDBRANCH  11  12
ENDBRANCH  10  11
ENDBRANCH   2  10
TORSDOF 6
ENDMDL
MODEL 7
REMARK VINA RESULT:    -4.359      2.425      4.181
REMARK INTER + INTRA:          -6.788
REMARK INTER:                  -6.040
REMARK INTRA:                  -0.748
REMARK UNBOUND:                -0.900
REMARK SMILES CC(=O)CCC=C(C)CCC=C(C)C
REMARK SMILES IDX 7 1 6 2 8 3 9 4 10 5 11 6 13 7 12 8 14 9 5 10 4 11 2 12 3 13
REMARK SMILES IDX 1 14
REMARK H PARENT
REMARK Flexibility Score: inf
ROOT
ATOM      1  C   UNL     1      82.002   5.447  28.845  1.00  0.00    -0.077 C 
ATOM      2  C   UNL     1      82.140   4.101  28.848  1.00  0.00    -0.028 C 
ATOM      3  C   UNL     1      82.781   6.333  29.789  1.00  0.00     0.039 C 
ENDROOT
BRANCH   1   4
ATOM      4  C   UNL     1      81.078   6.095  27.835  1.00  0.00     0.034 C 
BRANCH   4   5
ATOM      5  C   UNL     1      81.832   6.530  26.572  1.00  0.00     0.032 C 
BRANCH   5   6
ATOM      6  C   UNL     1      82.655   5.396  26.003  1.00  0.00    -0.028 C 
ATOM      7  C   UNL     1      84.845   6.388  26.707  1.00  0.00     0.039 C 
ATOM      8  C   UNL     1      84.001   5.306  26.078  1.00  0.00    -0.080 C 
ATOM      9  C   UNL     1      84.669   4.077  25.517  1.00  0.00     0.039 C 
ENDBRANCH   5   6
ENDBRANCH   4   5
ENDBRANCH   1   4
BRANCH   2  10
ATOM     10  C   UNL     1      83.028   3.334  29.796  1.00  0.00     0.035 C 
BRANCH  10  11
ATOM     11  C   UNL     1      84.079   2.527  29.022  1.00  0.00     0.079 C 
BRANCH  11  12
ATOM     12  C   UNL     1      85.423   3.205  28.848  1.00  0.00     0.130 C 
ATOM     13  O   UNL     1      85.477   4.411  29.027  1.00  0.00    -0.300 OA
ATOM     14  C   UNL     1      86.699   2.496  28.470  1.00  0.00     0.087 C 
ENDBRANCH  11  12
ENDBRANCH  10  11
ENDBRANCH   2  10
TORSDOF 6
ENDMDL
MODEL 8
REMARK VINA RESULT:    -4.335      2.596      4.757
REMARK INTER + INTRA:          -6.755
REMARK INTER:                  -6.019
REMARK INTRA:                  -0.736
REMARK UNBOUND:                -0.900
REMARK SMILES CC(=O)CCC=C(C)CCC=C(C)C
REMARK SMILES IDX 7 1 6 2 8 3 9 4 10 5 11 6 13 7 12 8 14 9 5 10 4 11 2 12 3 13
REMARK SMILES IDX 1 14
REMARK H PARENT
REMARK Flexibility Score: inf
ROOT
ATOM      1  C   UNL     1      84.670   5.248  28.286  1.00  0.00    -0.077 C 
ATOM      2  C   UNL     1      83.838   5.533  29.314  1.00  0.00    -0.028 C 
ATOM      3  C   UNL     1      84.440   5.795  26.896  1.00  0.00     0.039 C 
ENDROOT
BRANCH   1   4
ATOM      4  C   UNL     1      85.899   4.399  28.540  1.00  0.00     0.034 C 
BRANCH   4   5
ATOM      5  C   UNL     1      85.528   2.955  28.899  1.00  0.00     0.032 C 
BRANCH   5   6
ATOM      6  C   UNL     1      84.488   2.402  27.952  1.00  0.00    -0.028 C 
ATOM      7  C   UNL     1      82.721   2.201  29.717  1.00  0.00     0.039 C 
ATOM      8  C   UNL     1      83.221   2.083  28.297  1.00  0.00    -0.080 C 
ATOM      9  C   UNL     1      82.283   1.603  27.220  1.00  0.00     0.039 C 
ENDBRANCH   5   6
ENDBRANCH   4   5
ENDBRANCH   1   4
BRANCH   2  10
ATOM     10  C   UNL     1      82.588   6.367  29.197  1.00  0.00     0.035 C 
BRANCH  10  11
ATOM     11  C   UNL     1      81.526   5.639  28.362  1.00  0.00     0.079 C 
BRANCH  11  12
ATOM     12  C   UNL     1      81.053   6.375  27.124  1.00  0.00     0.130 C 
ATOM     13  O   UNL     1      80.995   5.747  26.079  1.00  0.00    -0.300 OA
ATOM     14  C   UNL     1      80.649   7.827  27.092  1.00  0.00     0.087 C 
ENDBRANCH  11  12
ENDBRANCH  10  11
ENDBRANCH   2  10
TORSDOF 6
ENDMDL
MODEL 9
REMARK VINA RESULT:    -4.132     10.058     11.989
REMARK INTER + INTRA:          -6.481
REMARK INTER:                  -5.504
REMARK INTRA:                  -0.977
REMARK UNBOUND:                -0.900
REMARK SMILES CC(=O)CCC=C(C)CCC=C(C)C
REMARK SMILES IDX 7 1 6 2 8 3 9 4 10 5 11 6 13 7 12 8 14 9 5 10 4 11 2 12 3 13
REMARK SMILES IDX 1 14
REMARK H PARENT
REMARK Flexibility Score: inf
ROOT
ATOM      1  C   UNL     1      80.885  -8.300  28.409  1.00  0.00    -0.077 C 
ATOM      2  C   UNL     1      81.959  -9.081  28.669  1.00  0.00    -0.028 C 
ATOM      3  C   UNL     1      80.234  -8.266  27.046  1.00  0.00     0.039 C 
ENDROOT
BRANCH   1   4
ATOM      4  C   UNL     1      80.281  -7.474  29.525  1.00  0.00     0.034 C 
BRANCH   4   5
ATOM      5  C   UNL     1      79.420  -6.327  28.983  1.00  0.00     0.032 C 
BRANCH   5   6
ATOM      6  C   UNL     1      79.982  -4.981  29.383  1.00  0.00    -0.028 C 
ATOM      7  C   UNL     1      81.354  -4.729  27.302  1.00  0.00     0.039 C 
ATOM      8  C   UNL     1      80.827  -4.242  28.630  1.00  0.00    -0.080 C 
ATOM      9  C   UNL     1      81.245  -2.888  29.142  1.00  0.00     0.039 C 
ENDBRANCH   5   6
ENDBRANCH   4   5
ENDBRANCH   1   4
BRANCH   2  10
ATOM     10  C   UNL     1      82.651  -9.952  27.651  1.00  0.00     0.035 C 
BRANCH  10  11
ATOM     11  C   UNL     1      84.145  -9.610  27.570  1.00  0.00     0.079 C 
BRANCH  11  12
ATOM     12  C   UNL     1      84.546  -8.713  26.416  1.00  0.00     0.130 C 
ATOM     13  O   UNL     1      85.514  -9.044  25.750  1.00  0.00    -0.300 OA
ATOM     14  C   UNL     1      83.834  -7.441  26.031  1.00  0.00     0.087 C 
ENDBRANCH  11  12
ENDBRANCH  10  11
ENDBRANCH   2  10
TORSDOF 6
ENDMDL
