MODEL 1
REMARK VINA RESULT:    -9.610      0.000      0.000
REMARK INTER + INTRA:         -13.872
REMARK INTER:                 -13.262
REMARK INTRA:                  -0.610
REMARK UNBOUND:                -0.610
REMARK SMILES O=C([O-])[C@H]1O[C@@H](Oc2cc3oc(-c4ccccc4)cc(=O)c3c(O)c2O)[C@H](O)[C@H](O)[C@@H]1O
REMARK SMILES IDX 7 1 6 2 4 3 31 4 5 5 29 6 27 7 2 8 1 9 3 10 32 11 30 13
REMARK SMILES IDX 28 15 8 17 25 18 9 19 23 20 10 21 22 22 11 23 20 24 12 25
REMARK SMILES IDX 19 26 21 27 26 28 24 30 13 32 14 33 18 34 15 35 17 36 16 37
REMARK H PARENT 32 12 30 14 28 16 26 29 24 31
REMARK Flexibility Score: inf
ROOT
ATOM      1  O   UNL     1       8.807 -46.727  33.202  1.00  0.00    -0.458 OA
ENDROOT
BRANCH   1   2
ATOM      2  C   UNL     1       8.327 -46.958  31.872  1.00  0.00     0.339 C 
ATOM      3  C   UNL     1       8.004 -44.647  31.380  1.00  0.00     0.199 C 
ATOM      4  C   UNL     1       6.461 -44.787  31.400  1.00  0.00     0.180 C 
ATOM      5  O   UNL     1       8.662 -45.860  31.029  1.00  0.00    -0.328 OA
ATOM      6  C   UNL     1       6.030 -45.992  32.256  1.00  0.00     0.181 C 
ATOM      7  C   UNL     1       6.809 -47.248  31.849  1.00  0.00     0.214 C 
BRANCH   3   8
ATOM      8  C   UNL     1       8.589 -44.027  32.629  1.00  0.00     0.073 C 
ATOM      9  O   UNL     1       7.821 -43.509  33.482  1.00  0.00    -0.547 OA
ATOM     10  O   UNL     1       9.959 -44.031  32.863  1.00  0.00    -0.547 OA
ENDBRANCH   3   8
BRANCH   4  11
ATOM     11  O   UNL     1       5.980 -44.947  30.088  1.00  0.00    -0.387 OA
ATOM     12  H   UNL     1       6.115 -44.080  29.623  1.00  0.00     0.211 HD
ENDBRANCH   4  11
BRANCH   6  13
ATOM     13  O   UNL     1       4.651 -46.226  32.120  1.00  0.00    -0.387 OA
ATOM     14  H   UNL     1       4.218 -45.336  32.036  1.00  0.00     0.211 HD
ENDBRANCH   6  13
BRANCH   7  15
ATOM     15  O   UNL     1       6.418 -47.660  30.563  1.00  0.00    -0.384 OA
ATOM     16  H   UNL     1       6.497 -46.865  29.972  1.00  0.00     0.211 HD
ENDBRANCH   7  15
ENDBRANCH   1   2
BRANCH   1  17
ATOM     17  C   UNL     1       8.313 -47.267  34.403  1.00  0.00     0.172 A 
ATOM     18  C   UNL     1       8.260 -46.559  35.629  1.00  0.00     0.201 A 
ATOM     19  C   UNL     1       7.828 -48.573  34.342  1.00  0.00     0.098 A 
ATOM     20  C   UNL     1       7.791 -47.212  36.798  1.00  0.00     0.176 A 
ATOM     21  C   UNL     1       7.324 -49.209  35.473  1.00  0.00     0.146 A 
ATOM     22  C   UNL     1       7.303 -48.540  36.715  1.00  0.00     0.111 A 
ATOM     23  O   UNL     1       6.870 -50.453  35.364  1.00  0.00    -0.456 OA
ATOM     24  C   UNL     1       6.793 -49.247  37.826  1.00  0.00     0.197 A 
ATOM     25  C   UNL     1       6.370 -51.142  36.387  1.00  0.00     0.138 A 
ATOM     26  C   UNL     1       6.327 -50.552  37.659  1.00  0.00     0.100 A 
ATOM     27  O   UNL     1       6.747 -48.729  38.974  1.00  0.00    -0.289 OA
BRANCH  18  28
ATOM     28  O   UNL     1       8.637 -45.216  35.656  1.00  0.00    -0.502 OA
ATOM     29  H   UNL     1       8.144 -44.473  35.182  1.00  0.00     0.293 HD
ENDBRANCH  18  28
BRANCH  20  30
ATOM     30  O   UNL     1       7.809 -46.573  38.043  1.00  0.00    -0.504 OA
ATOM     31  H   UNL     1       7.481 -46.988  38.903  1.00  0.00     0.293 HD
ENDBRANCH  20  30
BRANCH  25  32
ATOM     32  C   UNL     1       5.888 -52.526  36.149  1.00  0.00     0.017 A 
ATOM     33  C   UNL     1       4.886 -52.754  35.188  1.00  0.00     0.012 A 
ATOM     34  C   UNL     1       6.386 -53.620  36.884  1.00  0.00     0.012 A 
ATOM     35  C   UNL     1       4.408 -54.047  34.953  1.00  0.00     0.001 A 
ATOM     36  C   UNL     1       5.904 -54.912  36.645  1.00  0.00     0.001 A 
ATOM     37  C   UNL     1       4.919 -55.125  35.679  1.00  0.00     0.000 A 
ENDBRANCH  25  32
ENDBRANCH   1  17
TORSDOF 9
ENDMDL
MODEL 2
REMARK VINA RESULT:    -8.972     11.133     15.037
REMARK INTER + INTRA:         -12.992
REMARK INTER:                 -12.095
REMARK INTRA:                  -0.897
REMARK UNBOUND:                -0.610
REMARK SMILES O=C([O-])[C@H]1O[C@@H](Oc2cc3oc(-c4ccccc4)cc(=O)c3c(O)c2O)[C@H](O)[C@H](O)[C@@H]1O
REMARK SMILES IDX 7 1 6 2 4 3 31 4 5 5 29 6 27 7 2 8 1 9 3 10 32 11 30 13
REMARK SMILES IDX 28 15 8 17 25 18 9 19 23 20 10 21 22 22 11 23 20 24 12 25
REMARK SMILES IDX 19 26 21 27 26 28 24 30 13 32 14 33 18 34 15 35 17 36 16 37
REMARK H PARENT 32 12 30 14 28 16 26 29 24 31
REMARK Flexibility Score: inf
ROOT
ATOM      1  O   UNL     1      12.011 -45.726  45.101  1.00  0.00    -0.458 OA
ENDROOT
BRANCH   1   2
ATOM      2  C   UNL     1      13.218 -46.015  45.817  1.00  0.00     0.339 C 
ATOM      3  C   UNL     1      13.717 -47.982  44.567  1.00  0.00     0.199 C 
ATOM      4  C   UNL     1      13.400 -48.910  45.767  1.00  0.00     0.180 C 
ATOM      5  O   UNL     1      14.145 -46.686  44.971  1.00  0.00    -0.328 OA
ATOM      6  C   UNL     1      12.438 -48.223  46.752  1.00  0.00     0.181 C 
ATOM      7  C   UNL     1      12.943 -46.820  47.108  1.00  0.00     0.214 C 
BRANCH   3   8
ATOM      8  C   UNL     1      12.624 -47.918  43.525  1.00  0.00     0.073 C 
ATOM      9  O   UNL     1      11.588 -48.619  43.669  1.00  0.00    -0.547 OA
ATOM     10  O   UNL     1      12.731 -47.086  42.416  1.00  0.00    -0.547 OA
ENDBRANCH   3   8
BRANCH   4  11
ATOM     11  O   UNL     1      14.591 -49.250  46.434  1.00  0.00    -0.387 OA
ATOM     12  H   UNL     1      14.449 -49.056  47.397  1.00  0.00     0.211 HD
ENDBRANCH   4  11
BRANCH   6  13
ATOM     13  O   UNL     1      12.302 -48.988  47.923  1.00  0.00    -0.387 OA
ATOM     14  H   UNL     1      13.043 -48.719  48.527  1.00  0.00     0.211 HD
ENDBRANCH   6  13
BRANCH   7  15
ATOM     15  O   UNL     1      14.116 -46.912  47.876  1.00  0.00    -0.384 OA
ATOM     16  H   UNL     1      13.864 -47.350  48.731  1.00  0.00     0.211 HD
ENDBRANCH   7  15
ENDBRANCH   1   2
BRANCH   1  17
ATOM     17  C   UNL     1      10.967 -44.863  45.481  1.00  0.00     0.172 A 
ATOM     18  C   UNL     1       9.711 -45.303  45.966  1.00  0.00     0.201 A 
ATOM     19  C   UNL     1      11.228 -43.496  45.388  1.00  0.00     0.098 A 
ATOM     20  C   UNL     1       8.704 -44.351  46.275  1.00  0.00     0.176 A 
ATOM     21  C   UNL     1      10.263 -42.553  45.731  1.00  0.00     0.146 A 
ATOM     22  C   UNL     1       8.989 -42.968  46.173  1.00  0.00     0.111 A 
ATOM     23  O   UNL     1      10.560 -41.261  45.628  1.00  0.00    -0.456 OA
ATOM     24  C   UNL     1       8.051 -41.960  46.490  1.00  0.00     0.197 A 
ATOM     25  C   UNL     1       9.705 -40.288  45.932  1.00  0.00     0.138 A 
ATOM     26  C   UNL     1       8.412 -40.617  46.367  1.00  0.00     0.100 A 
ATOM     27  O   UNL     1       6.887 -42.242  46.883  1.00  0.00    -0.289 OA
BRANCH  18  28
ATOM     28  O   UNL     1       9.499 -46.668  46.168  1.00  0.00    -0.502 OA
ATOM     29  H   UNL     1       9.741 -47.389  45.504  1.00  0.00     0.293 HD
ENDBRANCH  18  28
BRANCH  20  30
ATOM     30  O   UNL     1       7.423 -44.753  46.671  1.00  0.00    -0.504 OA
ATOM     31  H   UNL     1       6.661 -44.937  46.035  1.00  0.00     0.293 HD
ENDBRANCH  20  30
BRANCH  25  32
ATOM     32  C   UNL     1      10.146 -38.878  45.784  1.00  0.00     0.017 A 
ATOM     33  C   UNL     1      10.863 -38.263  46.826  1.00  0.00     0.012 A 
ATOM     34  C   UNL     1       9.837 -38.123  44.633  1.00  0.00     0.012 A 
ATOM     35  C   UNL     1      11.281 -36.934  46.713  1.00  0.00     0.001 A 
ATOM     36  C   UNL     1      10.257 -36.793  44.527  1.00  0.00     0.001 A 
ATOM     37  C   UNL     1      10.980 -36.201  45.563  1.00  0.00     0.000 A 
ENDBRANCH  25  32
ENDBRANCH   1  17
TORSDOF 9
ENDMDL
MODEL 3
REMARK VINA RESULT:    -8.715     12.074     15.230
REMARK INTER + INTRA:         -12.637
REMARK INTER:                 -12.000
REMARK INTRA:                  -0.637
REMARK UNBOUND:                -0.610
REMARK SMILES O=C([O-])[C@H]1O[C@@H](Oc2cc3oc(-c4ccccc4)cc(=O)c3c(O)c2O)[C@H](O)[C@H](O)[C@@H]1O
REMARK SMILES IDX 7 1 6 2 4 3 31 4 5 5 29 6 27 7 2 8 1 9 3 10 32 11 30 13
REMARK SMILES IDX 28 15 8 17 25 18 9 19 23 20 10 21 22 22 11 23 20 24 12 25
REMARK SMILES IDX 19 26 21 27 26 28 24 30 13 32 14 33 18 34 15 35 17 36 16 37
REMARK H PARENT 32 12 30 14 28 16 26 29 24 31
REMARK Flexibility Score: inf
ROOT
ATOM      1  O   UNL     1      11.908 -45.550  45.496  1.00  0.00    -0.458 OA
ENDROOT
BRANCH   1   2
ATOM      2  C   UNL     1      11.812 -46.859  44.922  1.00  0.00     0.339 C 
ATOM      3  C   UNL     1      12.441 -47.994  46.922  1.00  0.00     0.199 C 
ATOM      4  C   UNL     1      13.815 -48.408  46.337  1.00  0.00     0.180 C 
ATOM      5  O   UNL     1      11.449 -47.810  45.917  1.00  0.00    -0.328 OA
ATOM      6  C   UNL     1      14.246 -47.448  45.215  1.00  0.00     0.181 C 
ATOM      7  C   UNL     1      13.115 -47.267  44.196  1.00  0.00     0.214 C 
BRANCH   3   8
ATOM      8  C   UNL     1      12.499 -46.827  47.881  1.00  0.00     0.073 C 
ATOM      9  O   UNL     1      11.540 -46.627  48.672  1.00  0.00    -0.547 OA
ATOM     10  O   UNL     1      13.598 -45.977  47.917  1.00  0.00    -0.547 OA
ENDBRANCH   3   8
BRANCH   4  11
ATOM     11  O   UNL     1      13.742 -49.719  45.832  1.00  0.00    -0.387 OA
ATOM     12  H   UNL     1      14.620 -50.148  46.012  1.00  0.00     0.211 HD
ENDBRANCH   4  11
BRANCH   6  13
ATOM     13  O   UNL     1      15.394 -47.931  44.566  1.00  0.00    -0.387 OA
ATOM     14  H   UNL     1      16.149 -47.824  45.203  1.00  0.00     0.211 HD
ENDBRANCH   6  13
BRANCH   7  15
ATOM     15  O   UNL     1      12.914 -48.463  43.484  1.00  0.00    -0.384 OA
ATOM     16  H   UNL     1      13.449 -49.162  43.945  1.00  0.00     0.211 HD
ENDBRANCH   7  15
ENDBRANCH   1   2
BRANCH   1  17
ATOM     17  C   UNL     1      10.865 -44.644  45.758  1.00  0.00     0.172 A 
ATOM     18  C   UNL     1       9.564 -45.028  46.167  1.00  0.00     0.201 A 
ATOM     19  C   UNL     1      11.171 -43.290  45.623  1.00  0.00     0.098 A 
ATOM     20  C   UNL     1       8.565 -44.038  46.356  1.00  0.00     0.176 A 
ATOM     21  C   UNL     1      10.211 -42.307  45.849  1.00  0.00     0.146 A 
ATOM     22  C   UNL     1       8.897 -42.668  46.213  1.00  0.00     0.111 A 
ATOM     23  O   UNL     1      10.552 -41.030  45.711  1.00  0.00    -0.456 OA
ATOM     24  C   UNL     1       7.968 -41.623  46.413  1.00  0.00     0.197 A 
ATOM     25  C   UNL     1       9.706 -40.022  45.905  1.00  0.00     0.138 A 
ATOM     26  C   UNL     1       8.376 -40.297  46.257  1.00  0.00     0.100 A 
ATOM     27  O   UNL     1       6.770 -41.856  46.730  1.00  0.00    -0.289 OA
BRANCH  18  28
ATOM     28  O   UNL     1       9.298 -46.376  46.414  1.00  0.00    -0.502 OA
ATOM     29  H   UNL     1       9.666 -47.141  45.867  1.00  0.00     0.293 HD
ENDBRANCH  18  28
BRANCH  20  30
ATOM     30  O   UNL     1       7.247 -44.388  46.672  1.00  0.00    -0.504 OA
ATOM     31  H   UNL     1       6.986 -45.201  47.210  1.00  0.00     0.293 HD
ENDBRANCH  20  30
BRANCH  25  32
ATOM     32  C   UNL     1      10.197 -38.633  45.727  1.00  0.00     0.017 A 
ATOM     33  C   UNL     1      10.957 -38.030  46.746  1.00  0.00     0.012 A 
ATOM     34  C   UNL     1       9.896 -37.884  44.571  1.00  0.00     0.012 A 
ATOM     35  C   UNL     1      11.423 -36.720  46.605  1.00  0.00     0.001 A 
ATOM     36  C   UNL     1      10.364 -36.572  44.435  1.00  0.00     0.001 A 
ATOM     37  C   UNL     1      11.128 -35.992  45.449  1.00  0.00     0.000 A 
ENDBRANCH  25  32
ENDBRANCH   1  17
TORSDOF 9
ENDMDL
MODEL 4
REMARK VINA RESULT:    -8.510      2.990      3.932
REMARK INTER + INTRA:         -12.354
REMARK INTER:                 -12.273
REMARK INTRA:                  -0.081
REMARK UNBOUND:                -0.610
REMARK SMILES O=C([O-])[C@H]1O[C@@H](Oc2cc3oc(-c4ccccc4)cc(=O)c3c(O)c2O)[C@H](O)[C@H](O)[C@@H]1O
REMARK SMILES IDX 7 1 6 2 4 3 31 4 5 5 29 6 27 7 2 8 1 9 3 10 32 11 30 13
REMARK SMILES IDX 28 15 8 17 25 18 9 19 23 20 10 21 22 22 11 23 20 24 12 25
REMARK SMILES IDX 19 26 21 27 26 28 24 30 13 32 14 33 18 34 15 35 17 36 16 37
REMARK H PARENT 32 12 30 14 28 16 26 29 24 31
REMARK Flexibility Score: inf
ROOT
ATOM      1  O   UNL     1       8.903 -45.055  33.023  1.00  0.00    -0.458 OA
ENDROOT
BRANCH   1   2
ATOM      2  C   UNL     1       8.600 -45.817  31.848  1.00  0.00     0.339 C 
ATOM      3  C   UNL     1       6.929 -44.307  31.066  1.00  0.00     0.199 C 
ATOM      4  C   UNL     1       5.784 -45.305  31.374  1.00  0.00     0.180 C 
ATOM      5  O   UNL     1       8.168 -44.957  30.799  1.00  0.00    -0.328 OA
ATOM      6  C   UNL     1       6.204 -46.302  32.468  1.00  0.00     0.181 C 
ATOM      7  C   UNL     1       7.563 -46.928  32.133  1.00  0.00     0.214 C 
BRANCH   3   8
ATOM      8  C   UNL     1       7.078 -43.198  32.082  1.00  0.00     0.073 C 
ATOM      9  O   UNL     1       8.189 -42.619  32.209  1.00  0.00    -0.547 OA
ATOM     10  O   UNL     1       6.008 -42.794  32.871  1.00  0.00    -0.547 OA
ENDBRANCH   3   8
BRANCH   4  11
ATOM     11  O   UNL     1       5.438 -46.008  30.205  1.00  0.00    -0.387 OA
ATOM     12  H   UNL     1       5.643 -46.965  30.373  1.00  0.00     0.211 HD
ENDBRANCH   4  11
BRANCH   6  13
ATOM     13  O   UNL     1       5.240 -47.313  32.610  1.00  0.00    -0.387 OA
ATOM     14  H   UNL     1       5.619 -47.982  33.239  1.00  0.00     0.211 HD
ENDBRANCH   6  13
BRANCH   7  15
ATOM     15  O   UNL     1       7.441 -47.770  31.015  1.00  0.00    -0.384 OA
ATOM     16  H   UNL     1       6.843 -48.516  31.283  1.00  0.00     0.211 HD
ENDBRANCH   7  15
ENDBRANCH   1   2
BRANCH   1  17
ATOM     17  C   UNL     1       9.258 -45.537  34.296  1.00  0.00     0.172 A 
ATOM     18  C   UNL     1      10.584 -45.558  34.795  1.00  0.00     0.201 A 
ATOM     19  C   UNL     1       8.214 -45.991  35.101  1.00  0.00     0.098 A 
ATOM     20  C   UNL     1      10.845 -46.113  36.075  1.00  0.00     0.176 A 
ATOM     21  C   UNL     1       8.452 -46.497  36.376  1.00  0.00     0.146 A 
ATOM     22  C   UNL     1       9.769 -46.569  36.876  1.00  0.00     0.111 A 
ATOM     23  O   UNL     1       7.424 -46.913  37.107  1.00  0.00    -0.456 OA
ATOM     24  C   UNL     1       9.944 -47.106  38.171  1.00  0.00     0.197 A 
ATOM     25  C   UNL     1       7.551 -47.412  38.333  1.00  0.00     0.138 A 
ATOM     26  C   UNL     1       8.831 -47.530  38.899  1.00  0.00     0.100 A 
ATOM     27  O   UNL     1      11.087 -47.217  38.691  1.00  0.00    -0.289 OA
BRANCH  18  28
ATOM     28  O   UNL     1      11.608 -44.995  34.031  1.00  0.00    -0.502 OA
ATOM     29  H   UNL     1      11.770 -45.195  33.056  1.00  0.00     0.293 HD
ENDBRANCH  18  28
BRANCH  20  30
ATOM     30  O   UNL     1      12.152 -46.232  36.562  1.00  0.00    -0.504 OA
ATOM     31  H   UNL     1      12.982 -46.160  35.992  1.00  0.00     0.293 HD
ENDBRANCH  20  30
BRANCH  25  32
ATOM     32  C   UNL     1       6.332 -47.843  39.061  1.00  0.00     0.017 A 
ATOM     33  C   UNL     1       5.708 -49.055  38.711  1.00  0.00     0.012 A 
ATOM     34  C   UNL     1       5.758 -47.053  40.078  1.00  0.00     0.012 A 
ATOM     35  C   UNL     1       4.553 -49.477  39.375  1.00  0.00     0.001 A 
ATOM     36  C   UNL     1       4.601 -47.480  40.739  1.00  0.00     0.001 A 
ATOM     37  C   UNL     1       4.002 -48.692  40.390  1.00  0.00     0.000 A 
ENDBRANCH  25  32
ENDBRANCH   1  17
TORSDOF 9
ENDMDL
MODEL 5
REMARK VINA RESULT:    -8.442      4.923      9.726
REMARK INTER + INTRA:         -12.260
REMARK INTER:                 -11.417
REMARK INTRA:                  -0.843
REMARK UNBOUND:                -0.610
REMARK SMILES O=C([O-])[C@H]1O[C@@H](Oc2cc3oc(-c4ccccc4)cc(=O)c3c(O)c2O)[C@H](O)[C@H](O)[C@@H]1O
REMARK SMILES IDX 7 1 6 2 4 3 31 4 5 5 29 6 27 7 2 8 1 9 3 10 32 11 30 13
REMARK SMILES IDX 28 15 8 17 25 18 9 19 23 20 10 21 22 22 11 23 20 24 12 25
REMARK SMILES IDX 19 26 21 27 26 28 24 30 13 32 14 33 18 34 15 35 17 36 16 37
REMARK H PARENT 32 12 30 14 28 16 26 29 24 31
REMARK Flexibility Score: inf
ROOT
ATOM      1  O   UNL     1       3.669 -47.638  41.405  1.00  0.00    -0.458 OA
ENDROOT
BRANCH   1   2
ATOM      2  C   UNL     1       3.370 -48.337  42.620  1.00  0.00     0.339 C 
ATOM      3  C   UNL     1       1.680 -46.805  43.312  1.00  0.00     0.199 C 
ATOM      4  C   UNL     1       2.557 -46.248  44.462  1.00  0.00     0.180 C 
ATOM      5  O   UNL     1       2.004 -48.150  42.974  1.00  0.00    -0.328 OA
ATOM      6  C   UNL     1       4.051 -46.465  44.166  1.00  0.00     0.181 C 
ATOM      7  C   UNL     1       4.316 -47.922  43.771  1.00  0.00     0.214 C 
BRANCH   3   8
ATOM      8  C   UNL     1       1.614 -45.914  42.092  1.00  0.00     0.073 C 
ATOM      9  O   UNL     1       0.920 -46.267  41.103  1.00  0.00    -0.547 OA
ATOM     10  O   UNL     1       2.295 -44.703  42.045  1.00  0.00    -0.547 OA
ENDBRANCH   3   8
BRANCH   4  11
ATOM     11  O   UNL     1       2.219 -46.885  45.670  1.00  0.00    -0.387 OA
ATOM     12  H   UNL     1       1.754 -47.729  45.431  1.00  0.00     0.211 HD
ENDBRANCH   4  11
BRANCH   6  13
ATOM     13  O   UNL     1       4.829 -46.131  45.287  1.00  0.00    -0.387 OA
ATOM     14  H   UNL     1       5.030 -45.161  45.217  1.00  0.00     0.211 HD
ENDBRANCH   6  13
BRANCH   7  15
ATOM     15  O   UNL     1       4.121 -48.765  44.879  1.00  0.00    -0.384 OA
ATOM     16  H   UNL     1       4.183 -48.190  45.688  1.00  0.00     0.211 HD
ENDBRANCH   7  15
ENDBRANCH   1   2
BRANCH   1  17
ATOM     17  C   UNL     1       4.337 -48.130  40.269  1.00  0.00     0.172 A 
ATOM     18  C   UNL     1       3.791 -49.089  39.381  1.00  0.00     0.201 A 
ATOM     19  C   UNL     1       5.602 -47.600  40.016  1.00  0.00     0.098 A 
ATOM     20  C   UNL     1       4.568 -49.559  38.290  1.00  0.00     0.176 A 
ATOM     21  C   UNL     1       6.355 -48.021  38.923  1.00  0.00     0.146 A 
ATOM     22  C   UNL     1       5.850 -49.008  38.051  1.00  0.00     0.111 A 
ATOM     23  O   UNL     1       7.553 -47.484  38.722  1.00  0.00    -0.456 OA
ATOM     24  C   UNL     1       6.671 -49.401  36.971  1.00  0.00     0.197 A 
ATOM     25  C   UNL     1       8.346 -47.821  37.708  1.00  0.00     0.138 A 
ATOM     26  C   UNL     1       7.922 -48.806  36.801  1.00  0.00     0.100 A 
ATOM     27  O   UNL     1       6.304 -50.284  36.149  1.00  0.00    -0.289 OA
BRANCH  18  28
ATOM     28  O   UNL     1       2.480 -49.527  39.574  1.00  0.00    -0.502 OA
ATOM     29  H   UNL     1       2.154 -50.013  40.397  1.00  0.00     0.293 HD
ENDBRANCH  18  28
BRANCH  20  30
ATOM     30  O   UNL     1       4.095 -50.571  37.446  1.00  0.00    -0.504 OA
ATOM     31  H   UNL     1       3.140 -50.651  37.130  1.00  0.00     0.293 HD
ENDBRANCH  20  30
BRANCH  25  32
ATOM     32  C   UNL     1       9.664 -47.152  37.577  1.00  0.00     0.017 A 
ATOM     33  C   UNL     1      10.508 -47.060  38.698  1.00  0.00     0.012 A 
ATOM     34  C   UNL     1      10.084 -46.576  36.361  1.00  0.00     0.012 A 
ATOM     35  C   UNL     1      11.751 -46.426  38.602  1.00  0.00     0.001 A 
ATOM     36  C   UNL     1      11.329 -45.942  36.271  1.00  0.00     0.001 A 
ATOM     37  C   UNL     1      12.161 -45.870  37.389  1.00  0.00     0.000 A 
ENDBRANCH  25  32
ENDBRANCH   1  17
TORSDOF 9
ENDMDL
MODEL 6
REMARK VINA RESULT:    -7.850      4.884      9.216
REMARK INTER + INTRA:         -11.443
REMARK INTER:                 -10.293
REMARK INTRA:                  -1.150
REMARK UNBOUND:                -0.610
REMARK SMILES O=C([O-])[C@H]1O[C@@H](Oc2cc3oc(-c4ccccc4)cc(=O)c3c(O)c2O)[C@H](O)[C@H](O)[C@@H]1O
REMARK SMILES IDX 7 1 6 2 4 3 31 4 5 5 29 6 27 7 2 8 1 9 3 10 32 11 30 13
REMARK SMILES IDX 28 15 8 17 25 18 9 19 23 20 10 21 22 22 11 23 20 24 12 25
REMARK SMILES IDX 19 26 21 27 26 28 24 30 13 32 14 33 18 34 15 35 17 36 16 37
REMARK H PARENT 32 12 30 14 28 16 26 29 24 31
REMARK Flexibility Score: inf
ROOT
ATOM      1  O   UNL     1       3.569 -47.639  41.257  1.00  0.00    -0.458 OA
ENDROOT
BRANCH   1   2
ATOM      2  C   UNL     1       3.012 -46.327  41.404  1.00  0.00     0.339 C 
ATOM      3  C   UNL     1       1.345 -47.000  42.970  1.00  0.00     0.199 C 
ATOM      4  C   UNL     1       0.201 -46.803  41.944  1.00  0.00     0.180 C 
ATOM      5  O   UNL     1       2.469 -46.164  42.710  1.00  0.00    -0.328 OA
ATOM      6  C   UNL     1       0.731 -46.915  40.504  1.00  0.00     0.181 C 
ATOM      7  C   UNL     1       1.962 -46.022  40.311  1.00  0.00     0.214 C 
BRANCH   3   8
ATOM      8  C   UNL     1       1.749 -48.441  43.183  1.00  0.00     0.073 C 
ATOM      9  O   UNL     1       2.519 -48.736  44.135  1.00  0.00    -0.547 OA
ATOM     10  O   UNL     1       1.274 -49.453  42.356  1.00  0.00    -0.547 OA
ENDBRANCH   3   8
BRANCH   4  11
ATOM     11  O   UNL     1      -0.392 -45.541  42.129  1.00  0.00    -0.387 OA
ATOM     12  H   UNL     1      -0.309 -45.053  41.268  1.00  0.00     0.211 HD
ENDBRANCH   4  11
BRANCH   6  13
ATOM     13  O   UNL     1      -0.265 -46.553  39.582  1.00  0.00    -0.387 OA
ATOM     14  H   UNL     1       0.048 -46.855  38.689  1.00  0.00     0.211 HD
ENDBRANCH   6  13
BRANCH   7  15
ATOM     15  O   UNL     1       1.587 -44.668  40.370  1.00  0.00    -0.384 OA
ATOM     16  H   UNL     1       1.304 -44.492  41.305  1.00  0.00     0.211 HD
ENDBRANCH   7  15
ENDBRANCH   1   2
BRANCH   1  17
ATOM     17  C   UNL     1       4.285 -48.155  40.162  1.00  0.00     0.172 A 
ATOM     18  C   UNL     1       3.790 -49.158  39.292  1.00  0.00     0.201 A 
ATOM     19  C   UNL     1       5.545 -47.606  39.931  1.00  0.00     0.098 A 
ATOM     20  C   UNL     1       4.612 -49.648  38.244  1.00  0.00     0.176 A 
ATOM     21  C   UNL     1       6.344 -48.048  38.879  1.00  0.00     0.146 A 
ATOM     22  C   UNL     1       5.890 -49.077  38.027  1.00  0.00     0.111 A 
ATOM     23  O   UNL     1       7.536 -47.491  38.697  1.00  0.00    -0.456 OA
ATOM     24  C   UNL     1       6.754 -49.489  36.989  1.00  0.00     0.197 A 
ATOM     25  C   UNL     1       8.369 -47.846  37.722  1.00  0.00     0.138 A 
ATOM     26  C   UNL     1       7.997 -48.872  36.839  1.00  0.00     0.100 A 
ATOM     27  O   UNL     1       6.433 -50.408  36.188  1.00  0.00    -0.289 OA
BRANCH  18  28
ATOM     28  O   UNL     1       2.483 -49.618  39.458  1.00  0.00    -0.502 OA
ATOM     29  H   UNL     1       2.213 -50.591  39.443  1.00  0.00     0.293 HD
ENDBRANCH  18  28
BRANCH  20  30
ATOM     30  O   UNL     1       4.190 -50.700  37.422  1.00  0.00    -0.504 OA
ATOM     31  H   UNL     1       4.467 -51.663  37.541  1.00  0.00     0.293 HD
ENDBRANCH  20  30
BRANCH  25  32
ATOM     32  C   UNL     1       9.676 -47.152  37.610  1.00  0.00     0.017 A 
ATOM     33  C   UNL     1      10.069 -46.609  36.373  1.00  0.00     0.012 A 
ATOM     34  C   UNL     1      10.554 -47.047  38.708  1.00  0.00     0.012 A 
ATOM     35  C   UNL     1      11.299 -45.960  36.241  1.00  0.00     0.001 A 
ATOM     36  C   UNL     1      11.785 -46.396  38.570  1.00  0.00     0.001 A 
ATOM     37  C   UNL     1      12.156 -45.851  37.339  1.00  0.00     0.000 A 
ENDBRANCH  25  32
ENDBRANCH   1  17
TORSDOF 9
ENDMDL
MODEL 7
REMARK VINA RESULT:    -7.831     11.603     14.190
REMARK INTER + INTRA:         -11.417
REMARK INTER:                 -10.415
REMARK INTRA:                  -1.001
REMARK UNBOUND:                -0.610
REMARK SMILES O=C([O-])[C@H]1O[C@@H](Oc2cc3oc(-c4ccccc4)cc(=O)c3c(O)c2O)[C@H](O)[C@H](O)[C@@H]1O
REMARK SMILES IDX 7 1 6 2 4 3 31 4 5 5 29 6 27 7 2 8 1 9 3 10 32 11 30 13
REMARK SMILES IDX 28 15 8 17 25 18 9 19 23 20 10 21 22 22 11 23 20 24 12 25
REMARK SMILES IDX 19 26 21 27 26 28 24 30 13 32 14 33 18 34 15 35 17 36 16 37
REMARK H PARENT 32 12 30 14 28 16 26 29 24 31
REMARK Flexibility Score: inf
ROOT
ATOM      1  O   UNL     1      11.452 -46.028  45.928  1.00  0.00    -0.458 OA
ENDROOT
BRANCH   1   2
ATOM      2  C   UNL     1      12.609 -46.314  46.723  1.00  0.00     0.339 C 
ATOM      3  C   UNL     1      13.807 -47.365  44.949  1.00  0.00     0.199 C 
ATOM      4  C   UNL     1      13.664 -48.768  45.591  1.00  0.00     0.180 C 
ATOM      5  O   UNL     1      13.779 -46.315  45.911  1.00  0.00    -0.328 OA
ATOM      6  C   UNL     1      12.443 -48.822  46.526  1.00  0.00     0.181 C 
ATOM      7  C   UNL     1      12.460 -47.641  47.503  1.00  0.00     0.214 C 
BRANCH   3   8
ATOM      8  C   UNL     1      12.858 -47.106  43.801  1.00  0.00     0.073 C 
ATOM      9  O   UNL     1      12.234 -48.069  43.284  1.00  0.00    -0.547 OA
ATOM     10  O   UNL     1      12.649 -45.821  43.313  1.00  0.00    -0.547 OA
ENDBRANCH   3   8
BRANCH   4  11
ATOM     11  O   UNL     1      14.827 -49.080  46.318  1.00  0.00    -0.387 OA
ATOM     12  H   UNL     1      15.595 -48.715  45.805  1.00  0.00     0.211 HD
ENDBRANCH   4  11
BRANCH   6  13
ATOM     13  O   UNL     1      12.425 -50.029  47.245  1.00  0.00    -0.387 OA
ATOM     14  H   UNL     1      13.093 -50.627  46.816  1.00  0.00     0.211 HD
ENDBRANCH   6  13
BRANCH   7  15
ATOM     15  O   UNL     1      13.521 -47.785  48.414  1.00  0.00    -0.384 OA
ATOM     16  H   UNL     1      14.360 -47.676  47.893  1.00  0.00     0.211 HD
ENDBRANCH   7  15
ENDBRANCH   1   2
BRANCH   1  17
ATOM     17  C   UNL     1      10.580 -44.930  46.038  1.00  0.00     0.172 A 
ATOM     18  C   UNL     1      10.882 -43.627  45.573  1.00  0.00     0.201 A 
ATOM     19  C   UNL     1       9.338 -45.182  46.621  1.00  0.00     0.098 A 
ATOM     20  C   UNL     1       9.953 -42.574  45.779  1.00  0.00     0.176 A 
ATOM     21  C   UNL     1       8.400 -44.166  46.787  1.00  0.00     0.146 A 
ATOM     22  C   UNL     1       8.697 -42.850  46.373  1.00  0.00     0.111 A 
ATOM     23  O   UNL     1       7.229 -44.455  47.345  1.00  0.00    -0.456 OA
ATOM     24  C   UNL     1       7.708 -41.864  46.585  1.00  0.00     0.197 A 
ATOM     25  C   UNL     1       6.272 -43.554  47.546  1.00  0.00     0.138 A 
ATOM     26  C   UNL     1       6.494 -42.219  47.174  1.00  0.00     0.100 A 
ATOM     27  O   UNL     1       7.894 -40.662  46.254  1.00  0.00    -0.289 OA
BRANCH  18  28
ATOM     28  O   UNL     1      12.077 -43.410  44.886  1.00  0.00    -0.502 OA
ATOM     29  H   UNL     1      12.195 -43.531  43.891  1.00  0.00     0.293 HD
ENDBRANCH  18  28
BRANCH  20  30
ATOM     30  O   UNL     1      10.256 -41.257  45.413  1.00  0.00    -0.504 OA
ATOM     31  H   UNL     1      10.583 -40.979  44.500  1.00  0.00     0.293 HD
ENDBRANCH  20  30
BRANCH  25  32
ATOM     32  C   UNL     1       5.000 -43.990  48.175  1.00  0.00     0.017 A 
ATOM     33  C   UNL     1       3.845 -44.122  47.382  1.00  0.00     0.012 A 
ATOM     34  C   UNL     1       4.908 -44.248  49.558  1.00  0.00     0.012 A 
ATOM     35  C   UNL     1       2.634 -44.523  47.953  1.00  0.00     0.001 A 
ATOM     36  C   UNL     1       3.693 -44.647  50.124  1.00  0.00     0.001 A 
ATOM     37  C   UNL     1       2.558 -44.787  49.323  1.00  0.00     0.000 A 
ENDBRANCH  25  32
ENDBRANCH   1  17
TORSDOF 9
ENDMDL
MODEL 8
REMARK VINA RESULT:    -7.762      1.195      1.642
REMARK INTER + INTRA:         -11.322
REMARK INTER:                 -10.612
REMARK INTRA:                  -0.710
REMARK UNBOUND:                -0.610
REMARK SMILES O=C([O-])[C@H]1O[C@@H](Oc2cc3oc(-c4ccccc4)cc(=O)c3c(O)c2O)[C@H](O)[C@H](O)[C@@H]1O
REMARK SMILES IDX 7 1 6 2 4 3 31 4 5 5 29 6 27 7 2 8 1 9 3 10 32 11 30 13
REMARK SMILES IDX 28 15 8 17 25 18 9 19 23 20 10 21 22 22 11 23 20 24 12 25
REMARK SMILES IDX 19 26 21 27 26 28 24 30 13 32 14 33 18 34 15 35 17 36 16 37
REMARK H PARENT 32 12 30 14 28 16 26 29 24 31
REMARK Flexibility Score: inf
ROOT
ATOM      1  O   UNL     1       8.477 -46.967  34.219  1.00  0.00    -0.458 OA
ENDROOT
BRANCH   1   2
ATOM      2  C   UNL     1       8.471 -47.185  32.803  1.00  0.00     0.339 C 
ATOM      3  C   UNL     1       9.440 -45.071  32.279  1.00  0.00     0.199 C 
ATOM      4  C   UNL     1       8.116 -44.536  31.676  1.00  0.00     0.180 C 
ATOM      5  O   UNL     1       9.551 -46.488  32.191  1.00  0.00    -0.328 OA
ATOM      6  C   UNL     1       6.906 -45.285  32.258  1.00  0.00     0.181 C 
ATOM      7  C   UNL     1       7.115 -46.801  32.167  1.00  0.00     0.214 C 
BRANCH   3   8
ATOM      8  C   UNL     1       9.738 -44.565  33.672  1.00  0.00     0.073 C 
ATOM      9  O   UNL     1      10.761 -44.980  34.276  1.00  0.00    -0.547 OA
ATOM     10  O   UNL     1       8.913 -43.635  34.294  1.00  0.00    -0.547 OA
ENDBRANCH   3   8
BRANCH   4  11
ATOM     11  O   UNL     1       8.135 -44.687  30.278  1.00  0.00    -0.387 OA
ATOM     12  H   UNL     1       7.791 -43.839  29.891  1.00  0.00     0.211 HD
ENDBRANCH   4  11
BRANCH   6  13
ATOM     13  O   UNL     1       5.730 -44.929  31.576  1.00  0.00    -0.387 OA
ATOM     14  H   UNL     1       5.988 -44.754  30.634  1.00  0.00     0.211 HD
ENDBRANCH   6  13
BRANCH   7  15
ATOM     15  O   UNL     1       7.082 -47.211  30.823  1.00  0.00    -0.384 OA
ATOM     16  H   UNL     1       7.278 -48.185  30.817  1.00  0.00     0.211 HD
ENDBRANCH   7  15
ENDBRANCH   1   2
BRANCH   1  17
ATOM     17  C   UNL     1       7.879 -47.759  35.216  1.00  0.00     0.172 A 
ATOM     18  C   UNL     1       7.907 -47.448  36.598  1.00  0.00     0.201 A 
ATOM     19  C   UNL     1       7.203 -48.898  34.781  1.00  0.00     0.098 A 
ATOM     20  C   UNL     1       7.316 -48.340  37.531  1.00  0.00     0.176 A 
ATOM     21  C   UNL     1       6.582 -49.757  35.683  1.00  0.00     0.146 A 
ATOM     22  C   UNL     1       6.635 -49.492  37.068  1.00  0.00     0.111 A 
ATOM     23  O   UNL     1       5.947 -50.829  35.220  1.00  0.00    -0.456 OA
ATOM     24  C   UNL     1       5.998 -50.412  37.930  1.00  0.00     0.197 A 
ATOM     25  C   UNL     1       5.325 -51.707  36.003  1.00  0.00     0.138 A 
ATOM     26  C   UNL     1       5.343 -51.522  37.394  1.00  0.00     0.100 A 
ATOM     27  O   UNL     1       6.004 -50.258  39.181  1.00  0.00    -0.289 OA
BRANCH  18  28
ATOM     28  O   UNL     1       8.483 -46.247  37.015  1.00  0.00    -0.502 OA
ATOM     29  H   UNL     1       8.344 -45.831  37.924  1.00  0.00     0.293 HD
ENDBRANCH  18  28
BRANCH  20  30
ATOM     30  O   UNL     1       7.403 -48.111  38.909  1.00  0.00    -0.504 OA
ATOM     31  H   UNL     1       7.980 -47.400  39.334  1.00  0.00     0.293 HD
ENDBRANCH  20  30
BRANCH  25  32
ATOM     32  C   UNL     1       4.644 -52.866  35.376  1.00  0.00     0.017 A 
ATOM     33  C   UNL     1       3.257 -52.812  35.143  1.00  0.00     0.012 A 
ATOM     34  C   UNL     1       5.345 -54.040  35.032  1.00  0.00     0.012 A 
ATOM     35  C   UNL     1       2.592 -53.896  34.562  1.00  0.00     0.001 A 
ATOM     36  C   UNL     1       4.673 -55.122  34.452  1.00  0.00     0.001 A 
ATOM     37  C   UNL     1       3.300 -55.048  34.215  1.00  0.00     0.000 A 
ENDBRANCH  25  32
ENDBRANCH   1  17
TORSDOF 9
ENDMDL
MODEL 9
REMARK VINA RESULT:    -7.713     12.859     15.659
REMARK INTER + INTRA:         -11.254
REMARK INTER:                 -10.375
REMARK INTRA:                  -0.879
REMARK UNBOUND:                -0.610
REMARK SMILES O=C([O-])[C@H]1O[C@@H](Oc2cc3oc(-c4ccccc4)cc(=O)c3c(O)c2O)[C@H](O)[C@H](O)[C@@H]1O
REMARK SMILES IDX 7 1 6 2 4 3 31 4 5 5 29 6 27 7 2 8 1 9 3 10 32 11 30 13
REMARK SMILES IDX 28 15 8 17 25 18 9 19 23 20 10 21 22 22 11 23 20 24 12 25
REMARK SMILES IDX 19 26 21 27 26 28 24 30 13 32 14 33 18 34 15 35 17 36 16 37
REMARK H PARENT 32 12 30 14 28 16 26 29 24 31
REMARK Flexibility Score: inf
ROOT
ATOM      1  O   UNL     1       6.649 -38.864  47.835  1.00  0.00    -0.458 OA
ENDROOT
BRANCH   1   2
ATOM      2  C   UNL     1       7.111 -38.049  48.919  1.00  0.00     0.339 C 
ATOM      3  C   UNL     1       6.759 -35.988  47.773  1.00  0.00     0.199 C 
ATOM      4  C   UNL     1       8.280 -35.733  47.621  1.00  0.00     0.180 C 
ATOM      5  O   UNL     1       6.446 -36.790  48.908  1.00  0.00    -0.328 OA
ATOM      6  C   UNL     1       9.066 -37.054  47.677  1.00  0.00     0.181 C 
ATOM      7  C   UNL     1       8.647 -37.879  48.899  1.00  0.00     0.214 C 
BRANCH   3   8
ATOM      8  C   UNL     1       6.085 -36.495  46.518  1.00  0.00     0.073 C 
ATOM      9  O   UNL     1       4.845 -36.713  46.526  1.00  0.00    -0.547 OA
ATOM     10  O   UNL     1       6.805 -36.710  45.349  1.00  0.00    -0.547 OA
ENDBRANCH   3   8
BRANCH   4  11
ATOM     11  O   UNL     1       8.724 -34.878  48.646  1.00  0.00    -0.387 OA
ATOM     12  H   UNL     1       8.567 -33.948  48.335  1.00  0.00     0.211 HD
ENDBRANCH   4  11
BRANCH   6  13
ATOM     13  O   UNL     1      10.448 -36.804  47.727  1.00  0.00    -0.387 OA
ATOM     14  H   UNL     1      10.628 -36.370  48.601  1.00  0.00     0.211 HD
ENDBRANCH   6  13
BRANCH   7  15
ATOM     15  O   UNL     1       9.076 -37.245  50.077  1.00  0.00    -0.384 OA
ATOM     16  H   UNL     1       8.877 -37.868  50.825  1.00  0.00     0.211 HD
ENDBRANCH   7  15
ENDBRANCH   1   2
BRANCH   1  17
ATOM     17  C   UNL     1       6.669 -40.267  47.741  1.00  0.00     0.172 A 
ATOM     18  C   UNL     1       5.622 -41.108  48.195  1.00  0.00     0.201 A 
ATOM     19  C   UNL     1       7.791 -40.832  47.136  1.00  0.00     0.098 A 
ATOM     20  C   UNL     1       5.762 -42.517  48.102  1.00  0.00     0.176 A 
ATOM     21  C   UNL     1       7.918 -42.212  46.998  1.00  0.00     0.146 A 
ATOM     22  C   UNL     1       6.909 -43.071  47.483  1.00  0.00     0.111 A 
ATOM     23  O   UNL     1       9.004 -42.703  46.410  1.00  0.00    -0.456 OA
ATOM     24  C   UNL     1       7.108 -44.460  47.326  1.00  0.00     0.197 A 
ATOM     25  C   UNL     1       9.216 -44.004  46.234  1.00  0.00     0.138 A 
ATOM     26  C   UNL     1       8.266 -44.926  46.701  1.00  0.00     0.100 A 
ATOM     27  O   UNL     1       6.263 -45.299  47.739  1.00  0.00    -0.289 OA
BRANCH  18  28
ATOM     28  O   UNL     1       4.453 -40.530  48.693  1.00  0.00    -0.502 OA
ATOM     29  H   UNL     1       3.598 -41.035  48.875  1.00  0.00     0.293 HD
ENDBRANCH  18  28
BRANCH  20  30
ATOM     30  O   UNL     1       4.788 -43.378  48.621  1.00  0.00    -0.504 OA
ATOM     31  H   UNL     1       4.310 -44.087  48.086  1.00  0.00     0.293 HD
ENDBRANCH  20  30
BRANCH  25  32
ATOM     32  C   UNL     1      10.464 -44.441  45.560  1.00  0.00     0.017 A 
ATOM     33  C   UNL     1      11.037 -45.681  45.897  1.00  0.00     0.012 A 
ATOM     34  C   UNL     1      11.114 -43.629  44.608  1.00  0.00     0.012 A 
ATOM     35  C   UNL     1      12.217 -46.109  45.282  1.00  0.00     0.001 A 
ATOM     36  C   UNL     1      12.296 -44.062  43.997  1.00  0.00     0.001 A 
ATOM     37  C   UNL     1      12.844 -45.302  44.331  1.00  0.00     0.000 A 
ENDBRANCH  25  32
ENDBRANCH   1  17
TORSDOF 9
ENDMDL
