MODEL 1
REMARK VINA RESULT:    -2.687      0.000      0.000
REMARK INTER + INTRA:          -2.687
REMARK INTER:                  -2.687
REMARK INTRA:                   0.000
REMARK UNBOUND:                 0.000
REMARK SMILES CC(=O)[O-]
REMARK SMILES IDX 1 1 2 2 3 3 4 4
REMARK H PARENT
REMARK Flexibility Score: inf
ROOT
ATOM      1  C   UNL     1      49.404 -12.144  17.465  1.00  0.00     0.063 C 
ATOM      2  C   UNL     1      48.992 -11.678  16.109  1.00  0.00     0.038 C 
ATOM      3  O   UNL     1      48.303 -10.632  15.982  1.00  0.00    -0.550 OA
ATOM      4  O   UNL     1      49.322 -12.427  14.986  1.00  0.00    -0.550 OA
ENDROOT
TORSDOF 0
ENDMDL
MODEL 2
REMARK VINA RESULT:    -2.625      1.384      2.224
REMARK INTER + INTRA:          -2.625
REMARK INTER:                  -2.625
REMARK INTRA:                   0.000
REMARK UNBOUND:                 0.000
REMARK SMILES CC(=O)[O-]
REMARK SMILES IDX 1 1 2 2 3 3 4 4
REMARK H PARENT
REMARK Flexibility Score: inf
ROOT
ATOM      1  C   UNL     1      49.397 -12.211  14.232  1.00  0.00     0.063 C 
ATOM      2  C   UNL     1      48.913 -11.673  15.537  1.00  0.00     0.038 C 
ATOM      3  O   UNL     1      49.410 -12.090  16.616  1.00  0.00    -0.550 OA
ATOM      4  O   UNL     1      47.875 -10.751  15.566  1.00  0.00    -0.550 OA
ENDROOT
TORSDOF 0
ENDMDL
MODEL 3
REMARK VINA RESULT:    -2.501      1.958      2.222
REMARK INTER + INTRA:          -2.501
REMARK INTER:                  -2.501
REMARK INTRA:                   0.000
REMARK UNBOUND:                 0.000
REMARK SMILES CC(=O)[O-]
REMARK SMILES IDX 1 1 2 2 3 3 4 4
REMARK H PARENT
REMARK Flexibility Score: inf
ROOT
ATOM      1  C   UNL     1      48.451 -11.372  15.863  1.00  0.00     0.063 C 
ATOM      2  C   UNL     1      49.540 -11.525  16.871  1.00  0.00     0.038 C 
ATOM      3  O   UNL     1      50.627 -10.907  16.726  1.00  0.00    -0.550 OA
ATOM      4  O   UNL     1      49.377 -12.392  17.943  1.00  0.00    -0.550 OA
ENDROOT
TORSDOF 0
ENDMDL
MODEL 4
REMARK VINA RESULT:    -2.451      1.701      2.609
REMARK INTER + INTRA:          -2.451
REMARK INTER:                  -2.451
REMARK INTRA:                   0.000
REMARK UNBOUND:                 0.000
REMARK SMILES CC(=O)[O-]
REMARK SMILES IDX 1 1 2 2 3 3 4 4
REMARK H PARENT
REMARK Flexibility Score: inf
ROOT
ATOM      1  C   UNL     1      47.875 -10.967  14.143  1.00  0.00     0.063 C 
ATOM      2  C   UNL     1      48.975 -11.707  14.827  1.00  0.00     0.038 C 
ATOM      3  O   UNL     1      49.763 -12.428  14.159  1.00  0.00    -0.550 OA
ATOM      4  O   UNL     1      49.101 -11.645  16.208  1.00  0.00    -0.550 OA
ENDROOT
TORSDOF 0
ENDMDL
MODEL 5
REMARK VINA RESULT:    -2.338     10.806     11.134
REMARK INTER + INTRA:          -2.338
REMARK INTER:                  -2.338
REMARK INTRA:                   0.000
REMARK UNBOUND:                 0.000
REMARK SMILES CC(=O)[O-]
REMARK SMILES IDX 1 1 2 2 3 3 4 4
REMARK H PARENT
REMARK Flexibility Score: inf
ROOT
ATOM      1  C   UNL     1      56.919  -3.585  13.699  1.00  0.00     0.063 C 
ATOM      2  C   UNL     1      55.477  -3.219  13.812  1.00  0.00     0.038 C 
ATOM      3  O   UNL     1      54.587  -4.072  13.558  1.00  0.00    -0.550 OA
ATOM      4  O   UNL     1      55.114  -1.920  14.143  1.00  0.00    -0.550 OA
ENDROOT
TORSDOF 0
ENDMDL
MODEL 6
REMARK VINA RESULT:    -2.312     11.239     11.456
REMARK INTER + INTRA:          -2.312
REMARK INTER:                  -2.312
REMARK INTRA:                   0.000
REMARK UNBOUND:                 0.000
REMARK SMILES CC(=O)[O-]
REMARK SMILES IDX 1 1 2 2 3 3 4 4
REMARK H PARENT
REMARK Flexibility Score: inf
ROOT
ATOM      1  C   UNL     1      56.370  -2.086  14.634  1.00  0.00     0.063 C 
ATOM      2  C   UNL     1      56.320  -3.385  13.902  1.00  0.00     0.038 C 
ATOM      3  O   UNL     1      57.353  -3.832  13.337  1.00  0.00    -0.550 OA
ATOM      4  O   UNL     1      55.122  -4.078  13.796  1.00  0.00    -0.550 OA
ENDROOT
TORSDOF 0
ENDMDL
MODEL 7
REMARK VINA RESULT:    -2.238     12.052     12.351
REMARK INTER + INTRA:          -2.238
REMARK INTER:                  -2.238
REMARK INTRA:                   0.000
REMARK UNBOUND:                 0.000
REMARK SMILES CC(=O)[O-]
REMARK SMILES IDX 1 1 2 2 3 3 4 4
REMARK H PARENT
REMARK Flexibility Score: inf
ROOT
ATOM      1  C   UNL     1      56.934  -3.629  13.692  1.00  0.00     0.063 C 
ATOM      2  C   UNL     1      56.736  -2.366  14.460  1.00  0.00     0.038 C 
ATOM      3  O   UNL     1      57.723  -1.637  14.744  1.00  0.00    -0.550 OA
ATOM      4  O   UNL     1      55.470  -2.018  14.912  1.00  0.00    -0.550 OA
ENDROOT
TORSDOF 0
ENDMDL
MODEL 8
REMARK VINA RESULT:    -2.215     12.876     13.162
REMARK INTER + INTRA:          -2.215
REMARK INTER:                  -2.215
REMARK INTRA:                   0.000
REMARK UNBOUND:                 0.000
REMARK SMILES CC(=O)[O-]
REMARK SMILES IDX 1 1 2 2 3 3 4 4
REMARK H PARENT
REMARK Flexibility Score: inf
ROOT
ATOM      1  C   UNL     1      57.276  -4.653   8.128  1.00  0.00     0.063 C 
ATOM      2  C   UNL     1      55.849  -4.371   7.797  1.00  0.00     0.038 C 
ATOM      3  O   UNL     1      55.479  -4.313   6.595  1.00  0.00    -0.550 OA
ATOM      4  O   UNL     1      54.937  -4.117   8.813  1.00  0.00    -0.550 OA
ENDROOT
TORSDOF 0
ENDMDL
MODEL 9
REMARK VINA RESULT:    -2.181     17.239     17.462
REMARK INTER + INTRA:          -2.181
REMARK INTER:                  -2.181
REMARK INTRA:                   0.000
REMARK UNBOUND:                 0.000
REMARK SMILES CC(=O)[O-]
REMARK SMILES IDX 1 1 2 2 3 3 4 4
REMARK H PARENT
REMARK Flexibility Score: inf
ROOT
ATOM      1  C   UNL     1      62.647  -4.604  20.436  1.00  0.00     0.063 C 
ATOM      2  C   UNL     1      63.587  -3.773  21.243  1.00  0.00     0.038 C 
ATOM      3  O   UNL     1      64.786  -3.642  20.879  1.00  0.00    -0.550 OA
ATOM      4  O   UNL     1      63.157  -3.186  22.425  1.00  0.00    -0.550 OA
ENDROOT
TORSDOF 0
ENDMDL
