MODEL 1
REMARK VINA RESULT:    -4.365      0.000      0.000
REMARK INTER + INTRA:          -6.809
REMARK INTER:                  -6.151
REMARK INTRA:                  -0.658
REMARK UNBOUND:                -0.658
REMARK SMILES CC(=O)OCC[C@@H](C)CCC=C(C)C
REMARK SMILES IDX 8 1 7 2 9 3 10 4 11 5 12 6 13 7 14 8 6 9 5 10 4 11 2 12 3 13
REMARK SMILES IDX 1 14
REMARK H PARENT
REMARK Flexibility Score: inf
ROOT
ATOM      1  C   UNL     1      -4.518  -3.907 -34.044  1.00  0.00     0.008 C 
ATOM      2  C   UNL     1      -3.618  -2.666 -33.960  1.00  0.00    -0.011 C 
ENDROOT
BRANCH   2   3
ATOM      3  C   UNL     1      -3.243  -2.402 -32.479  1.00  0.00     0.007 C 
BRANCH   3   4
ATOM      4  C   UNL     1      -4.109  -3.168 -31.465  1.00  0.00     0.027 C 
BRANCH   4   5
ATOM      5  C   UNL     1      -3.322  -3.582 -30.244  1.00  0.00    -0.028 C 
ATOM      6  C   UNL     1      -2.854  -4.829 -30.019  1.00  0.00    -0.080 C 
ATOM      7  C   UNL     1      -3.027  -5.945 -31.023  1.00  0.00     0.039 C 
ATOM      8  C   UNL     1      -2.118  -5.098 -28.732  1.00  0.00     0.039 C 
ENDBRANCH   4   5
ENDBRANCH   3   4
ENDBRANCH   2   3
BRANCH   2   9
ATOM      9  C   UNL     1      -2.363  -2.848 -34.864  1.00  0.00     0.045 C 
BRANCH   9  10
ATOM     10  C   UNL     1      -1.841  -1.510 -35.407  1.00  0.00     0.233 C 
BRANCH  10  11
ATOM     11  O   UNL     1      -0.420  -1.445 -35.294  1.00  0.00    -0.466 OA
BRANCH  11  12
ATOM     12  C   UNL     1       0.242  -0.709 -34.305  1.00  0.00     0.302 C 
ATOM     13  O   UNL     1      -0.269  -0.557 -33.162  1.00  0.00    -0.253 OA
ATOM     14  C   UNL     1       1.594  -0.150 -34.589  1.00  0.00     0.139 C 
ENDBRANCH  11  12
ENDBRANCH  10  11
ENDBRANCH   9  10
ENDBRANCH   2   9
TORSDOF 7
ENDMDL
MODEL 2
REMARK VINA RESULT:    -4.042      1.903      3.358
REMARK INTER + INTRA:          -6.355
REMARK INTER:                  -5.620
REMARK INTRA:                  -0.735
REMARK UNBOUND:                -0.658
REMARK SMILES CC(=O)OCC[C@@H](C)CCC=C(C)C
REMARK SMILES IDX 8 1 7 2 9 3 10 4 11 5 12 6 13 7 14 8 6 9 5 10 4 11 2 12 3 13
REMARK SMILES IDX 1 14
REMARK H PARENT
REMARK Flexibility Score: inf
ROOT
ATOM      1  C   UNL     1      -0.747  -2.177 -37.811  1.00  0.00     0.008 C 
ATOM      2  C   UNL     1      -1.716  -1.587 -36.777  1.00  0.00    -0.011 C 
ENDROOT
BRANCH   2   3
ATOM      3  C   UNL     1      -1.761  -2.509 -35.531  1.00  0.00     0.007 C 
BRANCH   3   4
ATOM      4  C   UNL     1      -2.455  -1.883 -34.310  1.00  0.00     0.027 C 
BRANCH   4   5
ATOM      5  C   UNL     1      -3.641  -2.697 -33.850  1.00  0.00    -0.028 C 
ATOM      6  C   UNL     1      -3.920  -2.987 -32.560  1.00  0.00    -0.080 C 
ATOM      7  C   UNL     1      -3.081  -2.461 -31.420  1.00  0.00     0.039 C 
ATOM      8  C   UNL     1      -5.121  -3.847 -32.262  1.00  0.00     0.039 C 
ENDBRANCH   4   5
ENDBRANCH   3   4
ENDBRANCH   2   3
BRANCH   2   9
ATOM      9  C   UNL     1      -1.302  -0.129 -36.419  1.00  0.00     0.045 C 
BRANCH   9  10
ATOM     10  C   UNL     1       0.130   0.193 -36.867  1.00  0.00     0.233 C 
BRANCH  10  11
ATOM     11  O   UNL     1       0.930   0.577 -35.749  1.00  0.00    -0.466 OA
BRANCH  11  12
ATOM     12  C   UNL     1       0.906  -0.091 -34.519  1.00  0.00     0.302 C 
ATOM     13  O   UNL     1       0.198   0.335 -33.566  1.00  0.00    -0.253 OA
ATOM     14  C   UNL     1       1.680  -1.353 -34.355  1.00  0.00     0.139 C 
ENDBRANCH  11  12
ENDBRANCH  10  11
ENDBRANCH   9  10
ENDBRANCH   2   9
TORSDOF 7
ENDMDL
MODEL 3
REMARK VINA RESULT:    -4.014      2.841      5.899
REMARK INTER + INTRA:          -6.315
REMARK INTER:                  -5.509
REMARK INTRA:                  -0.806
REMARK UNBOUND:                -0.658
REMARK SMILES CC(=O)OCC[C@@H](C)CCC=C(C)C
REMARK SMILES IDX 8 1 7 2 9 3 10 4 11 5 12 6 13 7 14 8 6 9 5 10 4 11 2 12 3 13
REMARK SMILES IDX 1 14
REMARK H PARENT
REMARK Flexibility Score: inf
ROOT
ATOM      1  C   UNL     1      -2.123   0.709 -37.399  1.00  0.00     0.008 C 
ATOM      2  C   UNL     1      -1.028  -0.310 -37.054  1.00  0.00    -0.011 C 
ENDROOT
BRANCH   2   3
ATOM      3  C   UNL     1      -0.552  -0.080 -35.597  1.00  0.00     0.007 C 
BRANCH   3   4
ATOM      4  C   UNL     1       0.957   0.178 -35.461  1.00  0.00     0.027 C 
BRANCH   4   5
ATOM      5  C   UNL     1       1.677  -0.982 -34.816  1.00  0.00    -0.028 C 
ATOM      6  C   UNL     1       2.243  -2.006 -35.493  1.00  0.00    -0.080 C 
ATOM      7  C   UNL     1       2.261  -2.058 -37.003  1.00  0.00     0.039 C 
ATOM      8  C   UNL     1       2.893  -3.114 -34.705  1.00  0.00     0.039 C 
ENDBRANCH   4   5
ENDBRANCH   3   4
ENDBRANCH   2   3
BRANCH   2   9
ATOM      9  C   UNL     1      -1.548  -1.759 -37.285  1.00  0.00     0.045 C 
BRANCH   9  10
ATOM     10  C   UNL     1      -1.326  -2.657 -36.060  1.00  0.00     0.233 C 
BRANCH  10  11
ATOM     11  O   UNL     1      -2.556  -3.247 -35.641  1.00  0.00    -0.466 OA
BRANCH  11  12
ATOM     12  C   UNL     1      -3.203  -2.915 -34.445  1.00  0.00     0.302 C 
ATOM     13  O   UNL     1      -2.964  -1.822 -33.863  1.00  0.00    -0.253 OA
ATOM     14  C   UNL     1      -4.229  -3.839 -33.886  1.00  0.00     0.139 C 
ENDBRANCH  11  12
ENDBRANCH  10  11
ENDBRANCH   9  10
ENDBRANCH   2   9
TORSDOF 7
ENDMDL
MODEL 4
REMARK VINA RESULT:    -3.924      2.589      4.348
REMARK INTER + INTRA:          -6.189
REMARK INTER:                  -5.479
REMARK INTRA:                  -0.710
REMARK UNBOUND:                -0.658
REMARK SMILES CC(=O)OCC[C@@H](C)CCC=C(C)C
REMARK SMILES IDX 8 1 7 2 9 3 10 4 11 5 12 6 13 7 14 8 6 9 5 10 4 11 2 12 3 13
REMARK SMILES IDX 1 14
REMARK H PARENT
REMARK Flexibility Score: inf
ROOT
ATOM      1  C   UNL     1      -2.154   0.794 -37.247  1.00  0.00     0.008 C 
ATOM      2  C   UNL     1      -0.999  -0.149 -36.881  1.00  0.00    -0.011 C 
ENDROOT
BRANCH   2   3
ATOM      3  C   UNL     1      -1.353  -1.592 -37.325  1.00  0.00     0.007 C 
BRANCH   3   4
ATOM      4  C   UNL     1      -1.387  -2.613 -36.176  1.00  0.00     0.027 C 
BRANCH   4   5
ATOM      5  C   UNL     1      -2.224  -2.134 -35.014  1.00  0.00    -0.028 C 
ATOM      6  C   UNL     1      -3.130  -2.892 -34.357  1.00  0.00    -0.080 C 
ATOM      7  C   UNL     1      -3.355  -4.347 -34.694  1.00  0.00     0.039 C 
ATOM      8  C   UNL     1      -3.920  -2.259 -33.240  1.00  0.00     0.039 C 
ENDBRANCH   4   5
ENDBRANCH   3   4
ENDBRANCH   2   3
BRANCH   2   9
ATOM      9  C   UNL     1       0.330   0.355 -37.515  1.00  0.00     0.045 C 
BRANCH   9  10
ATOM     10  C   UNL     1       1.538   0.111 -36.600  1.00  0.00     0.233 C 
BRANCH  10  11
ATOM     11  O   UNL     1       1.300   0.651 -35.301  1.00  0.00    -0.466 OA
BRANCH  11  12
ATOM     12  C   UNL     1       0.992  -0.134 -34.184  1.00  0.00     0.302 C 
ATOM     13  O   UNL     1       0.002   0.142 -33.452  1.00  0.00    -0.253 OA
ATOM     14  C   UNL     1       1.808  -1.346 -33.893  1.00  0.00     0.139 C 
ENDBRANCH  11  12
ENDBRANCH  10  11
ENDBRANCH   9  10
ENDBRANCH   2   9
TORSDOF 7
ENDMDL
MODEL 5
REMARK VINA RESULT:    -3.790      3.320      4.788
REMARK INTER + INTRA:          -5.999
REMARK INTER:                  -5.101
REMARK INTRA:                  -0.898
REMARK UNBOUND:                -0.658
REMARK SMILES CC(=O)OCC[C@@H](C)CCC=C(C)C
REMARK SMILES IDX 8 1 7 2 9 3 10 4 11 5 12 6 13 7 14 8 6 9 5 10 4 11 2 12 3 13
REMARK SMILES IDX 1 14
REMARK H PARENT
REMARK Flexibility Score: inf
ROOT
ATOM      1  C   UNL     1      -5.072  -4.547 -30.126  1.00  0.00     0.008 C 
ATOM      2  C   UNL     1      -3.801  -3.700 -29.970  1.00  0.00    -0.011 C 
ENDROOT
BRANCH   2   3
ATOM      3  C   UNL     1      -2.599  -4.629 -29.657  1.00  0.00     0.007 C 
BRANCH   3   4
ATOM      4  C   UNL     1      -2.986  -5.945 -28.962  1.00  0.00     0.027 C 
BRANCH   4   5
ATOM      5  C   UNL     1      -2.245  -6.140 -27.661  1.00  0.00    -0.028 C 
ATOM      6  C   UNL     1      -2.667  -5.684 -26.461  1.00  0.00    -0.080 C 
ATOM      7  C   UNL     1      -3.986  -4.968 -26.293  1.00  0.00     0.039 C 
ATOM      8  C   UNL     1      -1.795  -5.925 -25.255  1.00  0.00     0.039 C 
ENDBRANCH   4   5
ENDBRANCH   3   4
ENDBRANCH   2   3
BRANCH   2   9
ATOM      9  C   UNL     1      -3.566  -2.839 -31.246  1.00  0.00     0.045 C 
BRANCH   9  10
ATOM     10  C   UNL     1      -4.569  -3.169 -32.361  1.00  0.00     0.233 C 
BRANCH  10  11
ATOM     11  O   UNL     1      -3.886  -3.610 -33.534  1.00  0.00    -0.466 OA
BRANCH  11  12
ATOM     12  C   UNL     1      -3.983  -4.913 -34.037  1.00  0.00     0.302 C 
ATOM     13  O   UNL     1      -4.428  -5.126 -35.198  1.00  0.00    -0.253 OA
ATOM     14  C   UNL     1      -3.499  -6.055 -33.212  1.00  0.00     0.139 C 
ENDBRANCH  11  12
ENDBRANCH  10  11
ENDBRANCH   9  10
ENDBRANCH   2   9
TORSDOF 7
ENDMDL
MODEL 6
REMARK VINA RESULT:    -3.782      1.714      2.698
REMARK INTER + INTRA:          -5.988
REMARK INTER:                  -5.397
REMARK INTRA:                  -0.591
REMARK UNBOUND:                -0.658
REMARK SMILES CC(=O)OCC[C@@H](C)CCC=C(C)C
REMARK SMILES IDX 8 1 7 2 9 3 10 4 11 5 12 6 13 7 14 8 6 9 5 10 4 11 2 12 3 13
REMARK SMILES IDX 1 14
REMARK H PARENT
REMARK Flexibility Score: inf
ROOT
ATOM      1  C   UNL     1      -2.939  -2.404 -31.016  1.00  0.00     0.008 C 
ATOM      2  C   UNL     1      -3.737  -3.353 -31.922  1.00  0.00    -0.011 C 
ENDROOT
BRANCH   2   3
ATOM      3  C   UNL     1      -4.884  -4.000 -31.103  1.00  0.00     0.007 C 
BRANCH   3   4
ATOM      4  C   UNL     1      -4.487  -5.300 -30.385  1.00  0.00     0.027 C 
BRANCH   4   5
ATOM      5  C   UNL     1      -4.549  -5.161 -28.882  1.00  0.00    -0.028 C 
ATOM      6  C   UNL     1      -3.470  -5.080 -28.074  1.00  0.00    -0.080 C 
ATOM      7  C   UNL     1      -2.060  -5.062 -28.616  1.00  0.00     0.039 C 
ATOM      8  C   UNL     1      -3.693  -4.983 -26.586  1.00  0.00     0.039 C 
ENDBRANCH   4   5
ENDBRANCH   3   4
ENDBRANCH   2   3
BRANCH   2   9
ATOM      9  C   UNL     1      -4.262  -2.589 -33.173  1.00  0.00     0.045 C 
BRANCH   9  10
ATOM     10  C   UNL     1      -3.329  -2.747 -34.382  1.00  0.00     0.233 C 
BRANCH  10  11
ATOM     11  O   UNL     1      -2.364  -1.696 -34.410  1.00  0.00    -0.466 OA
BRANCH  11  12
ATOM     12  C   UNL     1      -1.589  -1.392 -35.535  1.00  0.00     0.302 C 
ATOM     13  O   UNL     1      -1.174  -0.218 -35.736  1.00  0.00    -0.253 OA
ATOM     14  C   UNL     1      -1.202  -2.481 -36.475  1.00  0.00     0.139 C 
ENDBRANCH  11  12
ENDBRANCH  10  11
ENDBRANCH   9  10
ENDBRANCH   2   9
TORSDOF 7
ENDMDL
MODEL 7
REMARK VINA RESULT:    -3.713      5.812      9.072
REMARK INTER + INTRA:          -5.891
REMARK INTER:                  -5.081
REMARK INTRA:                  -0.810
REMARK UNBOUND:                -0.658
REMARK SMILES CC(=O)OCC[C@@H](C)CCC=C(C)C
REMARK SMILES IDX 8 1 7 2 9 3 10 4 11 5 12 6 13 7 14 8 6 9 5 10 4 11 2 12 3 13
REMARK SMILES IDX 1 14
REMARK H PARENT
REMARK Flexibility Score: inf
ROOT
ATOM      1  C   UNL     1      -3.298  -5.723 -26.287  1.00  0.00     0.008 C 
ATOM      2  C   UNL     1      -4.142  -4.539 -25.794  1.00  0.00    -0.011 C 
ENDROOT
BRANCH   2   3
ATOM      3  C   UNL     1      -5.125  -4.107 -26.913  1.00  0.00     0.007 C 
BRANCH   3   4
ATOM      4  C   UNL     1      -5.009  -4.932 -28.205  1.00  0.00     0.027 C 
BRANCH   4   5
ATOM      5  C   UNL     1      -4.734  -4.065 -29.410  1.00  0.00    -0.028 C 
ATOM      6  C   UNL     1      -3.530  -3.944 -30.012  1.00  0.00    -0.080 C 
ATOM      7  C   UNL     1      -2.324  -4.733 -29.558  1.00  0.00     0.039 C 
ATOM      8  C   UNL     1      -3.405  -3.006 -31.185  1.00  0.00     0.039 C 
ENDBRANCH   4   5
ENDBRANCH   3   4
ENDBRANCH   2   3
BRANCH   2   9
ATOM      9  C   UNL     1      -4.877  -4.913 -24.473  1.00  0.00     0.045 C 
BRANCH   9  10
ATOM     10  C   UNL     1      -4.655  -3.868 -23.371  1.00  0.00     0.233 C 
BRANCH  10  11
ATOM     11  O   UNL     1      -3.277  -3.811 -23.004  1.00  0.00    -0.466 OA
BRANCH  11  12
ATOM     12  C   UNL     1      -2.581  -4.894 -22.455  1.00  0.00     0.302 C 
ATOM     13  O   UNL     1      -3.018  -5.494 -21.435  1.00  0.00    -0.253 OA
ATOM     14  C   UNL     1      -1.340  -5.381 -23.120  1.00  0.00     0.139 C 
ENDBRANCH  11  12
ENDBRANCH  10  11
ENDBRANCH   9  10
ENDBRANCH   2   9
TORSDOF 7
ENDMDL
MODEL 8
REMARK VINA RESULT:    -3.700      5.818      8.864
REMARK INTER + INTRA:          -5.873
REMARK INTER:                  -4.957
REMARK INTRA:                  -0.916
REMARK UNBOUND:                -0.658
REMARK SMILES CC(=O)OCC[C@@H](C)CCC=C(C)C
REMARK SMILES IDX 8 1 7 2 9 3 10 4 11 5 12 6 13 7 14 8 6 9 5 10 4 11 2 12 3 13
REMARK SMILES IDX 1 14
REMARK H PARENT
REMARK Flexibility Score: inf
ROOT
ATOM      1  C   UNL     1      -4.255  -4.575 -26.272  1.00  0.00     0.008 C 
ATOM      2  C   UNL     1      -3.621  -5.934 -26.600  1.00  0.00    -0.011 C 
ENDROOT
BRANCH   2   3
ATOM      3  C   UNL     1      -2.119  -5.735 -26.928  1.00  0.00     0.007 C 
BRANCH   3   4
ATOM      4  C   UNL     1      -1.856  -4.891 -28.186  1.00  0.00     0.027 C 
BRANCH   4   5
ATOM      5  C   UNL     1      -2.372  -5.562 -29.437  1.00  0.00    -0.028 C 
ATOM      6  C   UNL     1      -3.089  -4.942 -30.401  1.00  0.00    -0.080 C 
ATOM      7  C   UNL     1      -3.400  -3.464 -30.344  1.00  0.00     0.039 C 
ATOM      8  C   UNL     1      -3.568  -5.756 -31.574  1.00  0.00     0.039 C 
ENDBRANCH   4   5
ENDBRANCH   3   4
ENDBRANCH   2   3
BRANCH   2   9
ATOM      9  C   UNL     1      -3.843  -6.931 -25.424  1.00  0.00     0.045 C 
BRANCH   9  10
ATOM     10  C   UNL     1      -4.427  -6.243 -24.183  1.00  0.00     0.233 C 
BRANCH  10  11
ATOM     11  O   UNL     1      -3.449  -6.164 -23.147  1.00  0.00    -0.466 OA
BRANCH  11  12
ATOM     12  C   UNL     1      -2.553  -5.097 -23.013  1.00  0.00     0.302 C 
ATOM     13  O   UNL     1      -2.964  -3.938 -22.736  1.00  0.00    -0.253 OA
ATOM     14  C   UNL     1      -1.090  -5.349 -23.142  1.00  0.00     0.139 C 
ENDBRANCH  11  12
ENDBRANCH  10  11
ENDBRANCH   9  10
ENDBRANCH   2   9
TORSDOF 7
ENDMDL
MODEL 9
REMARK VINA RESULT:    -3.685      4.819      8.072
REMARK INTER + INTRA:          -5.851
REMARK INTER:                  -5.272
REMARK INTRA:                  -0.579
REMARK UNBOUND:                -0.658
REMARK SMILES CC(=O)OCC[C@@H](C)CCC=C(C)C
REMARK SMILES IDX 8 1 7 2 9 3 10 4 11 5 12 6 13 7 14 8 6 9 5 10 4 11 2 12 3 13
REMARK SMILES IDX 1 14
REMARK H PARENT
REMARK Flexibility Score: inf
ROOT
ATOM      1  C   UNL     1      -2.249  -6.363 -27.276  1.00  0.00     0.008 C 
ATOM      2  C   UNL     1      -2.931  -5.028 -27.607  1.00  0.00    -0.011 C 
ENDROOT
BRANCH   2   3
ATOM      3  C   UNL     1      -2.725  -4.704 -29.110  1.00  0.00     0.007 C 
BRANCH   3   4
ATOM      4  C   UNL     1      -4.006  -4.275 -29.843  1.00  0.00     0.027 C 
BRANCH   4   5
ATOM      5  C   UNL     1      -3.723  -3.295 -30.956  1.00  0.00    -0.028 C 
ATOM      6  C   UNL     1      -3.996  -3.515 -32.261  1.00  0.00    -0.080 C 
ATOM      7  C   UNL     1      -4.683  -4.774 -32.736  1.00  0.00     0.039 C 
ATOM      8  C   UNL     1      -3.618  -2.454 -33.262  1.00  0.00     0.039 C 
ENDBRANCH   4   5
ENDBRANCH   3   4
ENDBRANCH   2   3
BRANCH   2   9
ATOM      9  C   UNL     1      -4.437  -5.079 -27.215  1.00  0.00     0.045 C 
BRANCH   9  10
ATOM     10  C   UNL     1      -4.735  -4.262 -25.950  1.00  0.00     0.233 C 
BRANCH  10  11
ATOM     11  O   UNL     1      -4.447  -5.028 -24.780  1.00  0.00    -0.466 OA
BRANCH  11  12
ATOM     12  C   UNL     1      -3.557  -4.609 -23.785  1.00  0.00     0.302 C 
ATOM     13  O   UNL     1      -3.791  -3.575 -23.101  1.00  0.00    -0.253 OA
ATOM     14  C   UNL     1      -2.349  -5.429 -23.490  1.00  0.00     0.139 C 
ENDBRANCH  11  12
ENDBRANCH  10  11
ENDBRANCH   9  10
ENDBRANCH   2   9
TORSDOF 7
ENDMDL
