MODEL 1
REMARK VINA RESULT:    -4.979      0.000      0.000
REMARK INTER + INTRA:          -6.136
REMARK INTER:                  -5.997
REMARK INTRA:                  -0.138
REMARK UNBOUND:                -0.138
REMARK SMILES O=c1c(O)c(-c2ccc(O)c(O)c2)oc2cc(O)cc(O)c12
REMARK SMILES IDX 5 1 3 2 2 3 1 4 22 5 20 6 19 7 17 8 16 9 15 10 14 11 6 12
REMARK SMILES IDX 7 13 8 14 9 15 13 16 11 17 10 18 12 20 4 22 21 24 18 26
REMARK H PARENT 10 19 12 21 4 23 21 25 18 27
REMARK Flexibility Score: inf
ROOT
ATOM      1  C   UNL     1     -25.269  -5.667  19.374  1.00  0.00     0.180 A 
ATOM      2  C   UNL     1     -24.290  -6.206  20.232  1.00  0.00     0.208 A 
ATOM      3  C   UNL     1     -24.043  -7.588  20.194  1.00  0.00     0.238 A 
ATOM      4  O   UNL     1     -23.161  -8.080  20.951  1.00  0.00    -0.285 OA
ATOM      5  C   UNL     1     -24.786  -8.405  19.320  1.00  0.00     0.111 A 
ATOM      6  C   UNL     1     -24.601  -9.807  19.224  1.00  0.00     0.134 A 
ATOM      7  C   UNL     1     -25.388 -10.553  18.336  1.00  0.00     0.093 A 
ATOM      8  C   UNL     1     -26.354  -9.929  17.543  1.00  0.00     0.123 A 
ATOM      9  C   UNL     1     -26.541  -8.547  17.632  1.00  0.00     0.094 A 
ATOM     10  C   UNL     1     -25.766  -7.784  18.511  1.00  0.00     0.146 A 
ATOM     11  O   UNL     1     -25.961  -6.472  18.573  1.00  0.00    -0.452 OA
ENDROOT
BRANCH   1  12
ATOM     12  C   UNL     1     -25.574  -4.219  19.341  1.00  0.00     0.025 A 
ATOM     13  C   UNL     1     -26.828  -3.726  19.734  1.00  0.00     0.016 A 
ATOM     14  C   UNL     1     -27.085  -2.354  19.716  1.00  0.00     0.051 A 
ATOM     15  C   UNL     1     -26.094  -1.447  19.321  1.00  0.00     0.157 A 
ATOM     16  C   UNL     1     -24.572  -3.311  18.966  1.00  0.00     0.062 A 
ATOM     17  C   UNL     1     -24.820  -1.932  18.945  1.00  0.00     0.158 A 
BRANCH  15  18
ATOM     18  O   UNL     1     -26.417  -0.088  19.322  1.00  0.00    -0.504 OA
ATOM     19  H   UNL     1     -27.321   0.277  19.060  1.00  0.00     0.293 HD
ENDBRANCH  15  18
BRANCH  17  20
ATOM     20  O   UNL     1     -23.779  -1.089  18.549  1.00  0.00    -0.504 OA
ATOM     21  H   UNL     1     -23.809  -0.502  17.727  1.00  0.00     0.293 HD
ENDBRANCH  17  20
ENDBRANCH   1  12
BRANCH   2  22
ATOM     22  O   UNL     1     -23.602  -5.381  21.125  1.00  0.00    -0.502 OA
ATOM     23  H   UNL     1     -24.063  -4.914  21.897  1.00  0.00     0.293 HD
ENDBRANCH   2  22
BRANCH   6  24
ATOM     24  O   UNL     1     -23.644 -10.459  20.003  1.00  0.00    -0.507 OA
ATOM     25  H   UNL     1     -23.672 -11.461  20.152  1.00  0.00     0.293 HD
ENDBRANCH   6  24
BRANCH   8  26
ATOM     26  O   UNL     1     -27.123 -10.694  16.668  1.00  0.00    -0.508 OA
ATOM     27  H   UNL     1     -27.128 -11.706  16.712  1.00  0.00     0.293 HD
ENDBRANCH   8  26
TORSDOF 6
ENDMDL
MODEL 2
REMARK VINA RESULT:    -4.170      1.660      7.004
REMARK INTER + INTRA:          -5.162
REMARK INTER:                  -4.830
REMARK INTRA:                  -0.332
REMARK UNBOUND:                -0.138
REMARK SMILES O=c1c(O)c(-c2ccc(O)c(O)c2)oc2cc(O)cc(O)c12
REMARK SMILES IDX 5 1 3 2 2 3 1 4 22 5 20 6 19 7 17 8 16 9 15 10 14 11 6 12
REMARK SMILES IDX 7 13 8 14 9 15 13 16 11 17 10 18 12 20 4 22 21 24 18 26
REMARK H PARENT 10 19 12 21 4 23 21 25 18 27
REMARK Flexibility Score: inf
ROOT
ATOM      1  C   UNL     1     -25.679  -5.099  19.019  1.00  0.00     0.180 A 
ATOM      2  C   UNL     1     -26.367  -4.526  20.106  1.00  0.00     0.208 A 
ATOM      3  C   UNL     1     -26.502  -3.129  20.161  1.00  0.00     0.238 A 
ATOM      4  O   UNL     1     -27.125  -2.604  21.124  1.00  0.00    -0.285 OA
ATOM      5  C   UNL     1     -25.933  -2.333  19.146  1.00  0.00     0.111 A 
ATOM      6  C   UNL     1     -26.021  -0.919  19.130  1.00  0.00     0.134 A 
ATOM      7  C   UNL     1     -25.419  -0.198  18.089  1.00  0.00     0.093 A 
ATOM      8  C   UNL     1     -24.735  -0.858  17.066  1.00  0.00     0.123 A 
ATOM      9  C   UNL     1     -24.645  -2.253  17.077  1.00  0.00     0.094 A 
ATOM     10  C   UNL     1     -25.239  -2.992  18.105  1.00  0.00     0.146 A 
ATOM     11  O   UNL     1     -25.143  -4.316  18.088  1.00  0.00    -0.452 OA
ENDROOT
BRANCH   1  12
ATOM     12  C   UNL     1     -25.512  -6.564  18.880  1.00  0.00     0.025 A 
ATOM     13  C   UNL     1     -26.496  -7.359  18.270  1.00  0.00     0.016 A 
ATOM     14  C   UNL     1     -26.305  -8.734  18.128  1.00  0.00     0.051 A 
ATOM     15  C   UNL     1     -25.127  -9.342  18.579  1.00  0.00     0.157 A 
ATOM     16  C   UNL     1     -24.321  -7.167  19.312  1.00  0.00     0.062 A 
ATOM     17  C   UNL     1     -24.120  -8.547  19.175  1.00  0.00     0.158 A 
BRANCH  15  18
ATOM     18  O   UNL     1     -25.001 -10.722  18.411  1.00  0.00    -0.504 OA
ATOM     19  H   UNL     1     -24.274 -11.278  18.839  1.00  0.00     0.293 HD
ENDBRANCH  15  18
BRANCH  17  20
ATOM     20  O   UNL     1     -22.915  -9.080  19.639  1.00  0.00    -0.504 OA
ATOM     21  H   UNL     1     -22.840  -9.951  20.144  1.00  0.00     0.293 HD
ENDBRANCH  17  20
ENDBRANCH   1  12
BRANCH   2  22
ATOM     22  O   UNL     1     -26.878  -5.334  21.124  1.00  0.00    -0.502 OA
ATOM     23  H   UNL     1     -27.338  -4.950  21.942  1.00  0.00     0.293 HD
ENDBRANCH   2  22
BRANCH   6  24
ATOM     24  O   UNL     1     -26.698  -0.231  20.137  1.00  0.00    -0.507 OA
ATOM     25  H   UNL     1     -27.635  -0.491  20.423  1.00  0.00     0.293 HD
ENDBRANCH   6  24
BRANCH   8  26
ATOM     26  O   UNL     1     -24.146  -0.117  16.044  1.00  0.00    -0.508 OA
ATOM     27  H   UNL     1     -23.614   0.723  16.236  1.00  0.00     0.293 HD
ENDBRANCH   8  26
TORSDOF 6
ENDMDL
