MODEL 1
REMARK VINA RESULT:    -5.277      0.000      0.000
REMARK INTER + INTRA:         -15.907
REMARK INTER:                 -12.065
REMARK INTRA:                  -3.842
REMARK UNBOUND:                -3.842
REMARK SMILES CCCCCCCCCCCCCCCCCCCCCCCC(=O)[O-]
REMARK SMILES IDX 13 1 14 2 15 3 16 4 17 5 18 6 19 7 20 8 21 9 22 10 23 11
REMARK SMILES IDX 24 12 25 13 26 14 12 15 11 16 10 17 9 18 8 19 7 20 6 21 5 22
REMARK SMILES IDX 4 23 3 24 2 25 1 26
REMARK H PARENT
REMARK Flexibility Score: inf
ROOT
ATOM      1  C   UNL     1      -0.530  53.174  20.716  1.00  0.00     0.000 C 
ENDROOT
BRANCH   1   2
ATOM      2  C   UNL     1      -1.968  52.953  21.216  1.00  0.00     0.000 C 
BRANCH   2   3
ATOM      3  C   UNL     1      -2.572  51.582  20.852  1.00  0.00     0.000 C 
BRANCH   3   4
ATOM      4  C   UNL     1      -1.512  50.541  20.435  1.00  0.00     0.000 C 
BRANCH   4   5
ATOM      5  C   UNL     1      -1.419  50.390  18.904  1.00  0.00     0.000 C 
BRANCH   5   6
ATOM      6  C   UNL     1      -2.752  50.664  18.182  1.00  0.00     0.000 C 
BRANCH   6   7
ATOM      7  C   UNL     1      -2.677  51.905  17.272  1.00  0.00     0.000 C 
BRANCH   7   8
ATOM      8  C   UNL     1      -1.298  52.598  17.338  1.00  0.00     0.000 C 
BRANCH   8   9
ATOM      9  C   UNL     1      -1.378  54.120  17.560  1.00  0.00     0.000 C 
BRANCH   9  10
ATOM     10  C   UNL     1      -2.762  54.644  17.986  1.00  0.00     0.006 C 
BRANCH  10  11
ATOM     11  C   UNL     1      -2.725  55.965  18.773  1.00  0.00     0.053 C 
BRANCH  11  12
ATOM     12  C   UNL     1      -3.723  56.954  18.254  1.00  0.00     0.041 C 
ATOM     13  O   UNL     1      -4.844  57.076  18.814  1.00  0.00    -0.550 OA
ATOM     14  O   UNL     1      -3.398  57.768  17.175  1.00  0.00    -0.550 OA
ENDBRANCH  11  12
ENDBRANCH  10  11
ENDBRANCH   9  10
ENDBRANCH   8   9
ENDBRANCH   7   8
ENDBRANCH   6   7
ENDBRANCH   5   6
ENDBRANCH   4   5
ENDBRANCH   3   4
ENDBRANCH   2   3
ENDBRANCH   1   2
BRANCH   1  15
ATOM     15  C   UNL     1       0.004  54.592  20.990  1.00  0.00     0.000 C 
BRANCH  15  16
ATOM     16  C   UNL     1       1.498  54.739  20.661  1.00  0.00     0.000 C 
BRANCH  16  17
ATOM     17  C   UNL     1       2.038  53.549  19.851  1.00  0.00     0.000 C 
BRANCH  17  18
ATOM     18  C   UNL     1       3.574  53.527  19.779  1.00  0.00    -0.000 C 
BRANCH  18  19
ATOM     19  C   UNL     1       4.158  52.633  18.666  1.00  0.00    -0.000 C 
BRANCH  19  20
ATOM     20  C   UNL     1       4.581  53.408  17.400  1.00  0.00    -0.000 C 
BRANCH  20  21
ATOM     21  C   UNL     1       4.793  54.907  17.677  1.00  0.00    -0.000 C 
BRANCH  21  22
ATOM     22  C   UNL     1       4.278  55.807  16.537  1.00  0.00    -0.000 C 
BRANCH  22  23
ATOM     23  C   UNL     1       3.084  55.219  15.759  1.00  0.00    -0.000 C 
BRANCH  23  24
ATOM     24  C   UNL     1       1.748  55.183  16.526  1.00  0.00    -0.000 C 
BRANCH  24  25
ATOM     25  C   UNL     1       1.437  56.445  17.352  1.00  0.00    -0.003 C 
ATOM     26  C   UNL     1       0.244  57.232  16.814  1.00  0.00     0.004 C 
ENDBRANCH  24  25
ENDBRANCH  23  24
ENDBRANCH  22  23
ENDBRANCH  21  22
ENDBRANCH  20  21
ENDBRANCH  19  20
ENDBRANCH  18  19
ENDBRANCH  17  18
ENDBRANCH  16  17
ENDBRANCH  15  16
ENDBRANCH   1  15
TORSDOF 22
ENDMDL
MODEL 2
REMARK VINA RESULT:    -5.216      3.593      7.298
REMARK INTER + INTRA:         -15.766
REMARK INTER:                 -12.621
REMARK INTRA:                  -3.146
REMARK UNBOUND:                -3.842
REMARK SMILES CCCCCCCCCCCCCCCCCCCCCCCC(=O)[O-]
REMARK SMILES IDX 13 1 14 2 15 3 16 4 17 5 18 6 19 7 20 8 21 9 22 10 23 11
REMARK SMILES IDX 24 12 25 13 26 14 12 15 11 16 10 17 9 18 8 19 7 20 6 21 5 22
REMARK SMILES IDX 4 23 3 24 2 25 1 26
REMARK H PARENT
REMARK Flexibility Score: inf
ROOT
ATOM      1  C   UNL     1       1.874  54.858  20.945  1.00  0.00     0.000 C 
ENDROOT
BRANCH   1   2
ATOM      2  C   UNL     1       2.813  54.111  19.982  1.00  0.00     0.000 C 
BRANCH   2   3
ATOM      3  C   UNL     1       2.219  52.825  19.374  1.00  0.00     0.000 C 
BRANCH   3   4
ATOM      4  C   UNL     1       2.627  52.603  17.902  1.00  0.00     0.000 C 
BRANCH   4   5
ATOM      5  C   UNL     1       1.673  53.315  16.923  1.00  0.00     0.000 C 
BRANCH   5   6
ATOM      6  C   UNL     1       1.951  54.825  16.791  1.00  0.00     0.000 C 
BRANCH   6   7
ATOM      7  C   UNL     1       2.916  55.140  15.632  1.00  0.00     0.000 C 
BRANCH   7   8
ATOM      8  C   UNL     1       4.394  55.132  16.081  1.00  0.00     0.000 C 
BRANCH   8   9
ATOM      9  C   UNL     1       4.733  56.217  17.120  1.00  0.00     0.000 C 
BRANCH   9  10
ATOM     10  C   UNL     1       6.050  56.974  16.863  1.00  0.00     0.006 C 
BRANCH  10  11
ATOM     11  C   UNL     1       7.143  56.718  17.914  1.00  0.00     0.053 C 
BRANCH  11  12
ATOM     12  C   UNL     1       7.862  57.977  18.294  1.00  0.00     0.041 C 
ATOM     13  O   UNL     1       7.307  58.820  19.046  1.00  0.00    -0.550 OA
ATOM     14  O   UNL     1       9.160  58.198  17.848  1.00  0.00    -0.550 OA
ENDBRANCH  11  12
ENDBRANCH  10  11
ENDBRANCH   9  10
ENDBRANCH   8   9
ENDBRANCH   7   8
ENDBRANCH   6   7
ENDBRANCH   5   6
ENDBRANCH   4   5
ENDBRANCH   3   4
ENDBRANCH   2   3
ENDBRANCH   1   2
BRANCH   1  15
ATOM     15  C   UNL     1       0.400  54.847  20.498  1.00  0.00     0.000 C 
BRANCH  15  16
ATOM     16  C   UNL     1       0.030  56.068  19.641  1.00  0.00     0.000 C 
BRANCH  16  17
ATOM     17  C   UNL     1      -1.457  56.078  19.250  1.00  0.00     0.000 C 
BRANCH  17  18
ATOM     18  C   UNL     1      -1.709  55.478  17.857  1.00  0.00    -0.000 C 
BRANCH  18  19
ATOM     19  C   UNL     1      -2.511  54.161  17.853  1.00  0.00    -0.000 C 
BRANCH  19  20
ATOM     20  C   UNL     1      -1.664  52.915  17.517  1.00  0.00    -0.000 C 
BRANCH  20  21
ATOM     21  C   UNL     1      -2.494  51.620  17.547  1.00  0.00    -0.000 C 
BRANCH  21  22
ATOM     22  C   UNL     1      -2.564  50.983  18.950  1.00  0.00    -0.000 C 
BRANCH  22  23
ATOM     23  C   UNL     1      -1.437  51.429  19.902  1.00  0.00    -0.000 C 
BRANCH  23  24
ATOM     24  C   UNL     1      -1.880  51.770  21.338  1.00  0.00    -0.000 C 
BRANCH  24  25
ATOM     25  C   UNL     1      -2.266  53.244  21.566  1.00  0.00    -0.003 C 
ATOM     26  C   UNL     1      -3.754  53.510  21.353  1.00  0.00     0.004 C 
ENDBRANCH  24  25
ENDBRANCH  23  24
ENDBRANCH  22  23
ENDBRANCH  21  22
ENDBRANCH  20  21
ENDBRANCH  19  20
ENDBRANCH  18  19
ENDBRANCH  17  18
ENDBRANCH  16  17
ENDBRANCH  15  16
ENDBRANCH   1  15
TORSDOF 22
ENDMDL
MODEL 3
REMARK VINA RESULT:    -5.116      4.324      8.052
REMARK INTER + INTRA:         -15.538
REMARK INTER:                 -12.704
REMARK INTRA:                  -2.834
REMARK UNBOUND:                -3.842
REMARK SMILES CCCCCCCCCCCCCCCCCCCCCCCC(=O)[O-]
REMARK SMILES IDX 13 1 14 2 15 3 16 4 17 5 18 6 19 7 20 8 21 9 22 10 23 11
REMARK SMILES IDX 24 12 25 13 26 14 12 15 11 16 10 17 9 18 8 19 7 20 6 21 5 22
REMARK SMILES IDX 4 23 3 24 2 25 1 26
REMARK H PARENT
REMARK Flexibility Score: inf
ROOT
ATOM      1  C   UNL     1       2.264  55.616  20.096  1.00  0.00     0.000 C 
ENDROOT
BRANCH   1   2
ATOM      2  C   UNL     1       1.075  56.146  19.276  1.00  0.00     0.000 C 
BRANCH   2   3
ATOM      3  C   UNL     1       1.466  56.902  17.992  1.00  0.00     0.000 C 
BRANCH   3   4
ATOM      4  C   UNL     1       1.042  56.171  16.701  1.00  0.00     0.000 C 
BRANCH   4   5
ATOM      5  C   UNL     1       1.897  54.915  16.439  1.00  0.00     0.000 C 
BRANCH   5   6
ATOM      6  C   UNL     1       3.261  55.230  15.796  1.00  0.00     0.000 C 
BRANCH   6   7
ATOM      7  C   UNL     1       4.392  55.305  16.839  1.00  0.00     0.000 C 
BRANCH   7   8
ATOM      8  C   UNL     1       5.365  56.474  16.567  1.00  0.00     0.000 C 
BRANCH   8   9
ATOM      9  C   UNL     1       6.091  56.983  17.827  1.00  0.00     0.000 C 
BRANCH   9  10
ATOM     10  C   UNL     1       7.627  57.015  17.725  1.00  0.00     0.006 C 
BRANCH  10  11
ATOM     11  C   UNL     1       8.279  58.262  18.345  1.00  0.00     0.053 C 
BRANCH  11  12
ATOM     12  C   UNL     1       9.529  58.660  17.622  1.00  0.00     0.041 C 
ATOM     13  O   UNL     1       9.639  59.817  17.139  1.00  0.00    -0.550 OA
ATOM     14  O   UNL     1      10.586  57.763  17.517  1.00  0.00    -0.550 OA
ENDBRANCH  11  12
ENDBRANCH  10  11
ENDBRANCH   9  10
ENDBRANCH   8   9
ENDBRANCH   7   8
ENDBRANCH   6   7
ENDBRANCH   5   6
ENDBRANCH   4   5
ENDBRANCH   3   4
ENDBRANCH   2   3
ENDBRANCH   1   2
BRANCH   1  15
ATOM     15  C   UNL     1       2.369  54.079  20.103  1.00  0.00     0.000 C 
BRANCH  15  16
ATOM     16  C   UNL     1       1.005  53.390  19.933  1.00  0.00     0.000 C 
BRANCH  16  17
ATOM     17  C   UNL     1       1.011  52.355  18.797  1.00  0.00     0.000 C 
BRANCH  17  18
ATOM     18  C   UNL     1      -0.399  52.051  18.263  1.00  0.00    -0.000 C 
BRANCH  18  19
ATOM     19  C   UNL     1      -1.096  53.234  17.560  1.00  0.00    -0.000 C 
BRANCH  19  20
ATOM     20  C   UNL     1      -2.345  53.754  18.304  1.00  0.00    -0.000 C 
BRANCH  20  21
ATOM     21  C   UNL     1      -2.173  55.203  18.790  1.00  0.00    -0.000 C 
BRANCH  21  22
ATOM     22  C   UNL     1      -2.528  56.246  17.710  1.00  0.00    -0.000 C 
BRANCH  22  23
ATOM     23  C   UNL     1      -3.758  57.111  18.049  1.00  0.00    -0.000 C 
BRANCH  23  24
ATOM     24  C   UNL     1      -4.643  56.583  19.194  1.00  0.00    -0.000 C 
BRANCH  24  25
ATOM     25  C   UNL     1      -6.102  57.077  19.170  1.00  0.00    -0.003 C 
ATOM     26  C   UNL     1      -6.222  58.563  18.838  1.00  0.00     0.004 C 
ENDBRANCH  24  25
ENDBRANCH  23  24
ENDBRANCH  22  23
ENDBRANCH  21  22
ENDBRANCH  20  21
ENDBRANCH  19  20
ENDBRANCH  18  19
ENDBRANCH  17  18
ENDBRANCH  16  17
ENDBRANCH  15  16
ENDBRANCH   1  15
TORSDOF 22
ENDMDL
MODEL 4
REMARK VINA RESULT:    -5.059      2.313      4.536
REMARK INTER + INTRA:         -15.407
REMARK INTER:                 -11.729
REMARK INTRA:                  -3.677
REMARK UNBOUND:                -3.842
REMARK SMILES CCCCCCCCCCCCCCCCCCCCCCCC(=O)[O-]
REMARK SMILES IDX 13 1 14 2 15 3 16 4 17 5 18 6 19 7 20 8 21 9 22 10 23 11
REMARK SMILES IDX 24 12 25 13 26 14 12 15 11 16 10 17 9 18 8 19 7 20 6 21 5 22
REMARK SMILES IDX 4 23 3 24 2 25 1 26
REMARK H PARENT
REMARK Flexibility Score: inf
ROOT
ATOM      1  C   UNL     1      -1.196  57.026  16.939  1.00  0.00     0.000 C 
ENDROOT
BRANCH   1   2
ATOM      2  C   UNL     1      -2.551  56.581  17.516  1.00  0.00     0.000 C 
BRANCH   2   3
ATOM      3  C   UNL     1      -2.465  55.861  18.876  1.00  0.00     0.000 C 
BRANCH   3   4
ATOM      4  C   UNL     1      -2.903  54.383  18.812  1.00  0.00     0.000 C 
BRANCH   4   5
ATOM      5  C   UNL     1      -2.006  53.553  17.873  1.00  0.00     0.000 C 
BRANCH   5   6
ATOM      6  C   UNL     1      -2.419  52.071  17.788  1.00  0.00     0.000 C 
BRANCH   6   7
ATOM      7  C   UNL     1      -1.284  51.125  18.219  1.00  0.00     0.000 C 
BRANCH   7   8
ATOM      8  C   UNL     1      -1.306  50.834  19.736  1.00  0.00     0.000 C 
BRANCH   8   9
ATOM      9  C   UNL     1      -2.653  50.287  20.243  1.00  0.00     0.000 C 
BRANCH   9  10
ATOM     10  C   UNL     1      -3.328  51.133  21.339  1.00  0.00     0.006 C 
BRANCH  10  11
ATOM     11  C   UNL     1      -2.451  52.268  21.895  1.00  0.00     0.053 C 
BRANCH  11  12
ATOM     12  C   UNL     1      -2.743  52.547  23.337  1.00  0.00     0.041 C 
ATOM     13  O   UNL     1      -3.546  53.464  23.654  1.00  0.00    -0.550 OA
ATOM     14  O   UNL     1      -2.157  51.769  24.328  1.00  0.00    -0.550 OA
ENDBRANCH  11  12
ENDBRANCH  10  11
ENDBRANCH   9  10
ENDBRANCH   8   9
ENDBRANCH   7   8
ENDBRANCH   6   7
ENDBRANCH   5   6
ENDBRANCH   4   5
ENDBRANCH   3   4
ENDBRANCH   2   3
ENDBRANCH   1   2
BRANCH   1  15
ATOM     15  C   UNL     1       0.007  56.611  17.807  1.00  0.00     0.000 C 
BRANCH  15  16
ATOM     16  C   UNL     1       1.356  56.932  17.144  1.00  0.00     0.000 C 
BRANCH  16  17
ATOM     17  C   UNL     1       2.248  57.814  18.033  1.00  0.00     0.000 C 
BRANCH  17  18
ATOM     18  C   UNL     1       3.522  57.090  18.499  1.00  0.00    -0.000 C 
BRANCH  18  19
ATOM     19  C   UNL     1       4.545  56.792  17.383  1.00  0.00    -0.000 C 
BRANCH  19  20
ATOM     20  C   UNL     1       4.328  55.433  16.685  1.00  0.00    -0.000 C 
BRANCH  20  21
ATOM     21  C   UNL     1       4.146  54.283  17.691  1.00  0.00    -0.000 C 
BRANCH  21  22
ATOM     22  C   UNL     1       2.830  53.506  17.486  1.00  0.00    -0.000 C 
BRANCH  22  23
ATOM     23  C   UNL     1       2.020  53.285  18.778  1.00  0.00    -0.000 C 
BRANCH  23  24
ATOM     24  C   UNL     1       2.641  53.877  20.058  1.00  0.00    -0.000 C 
BRANCH  24  25
ATOM     25  C   UNL     1       1.769  54.922  20.781  1.00  0.00    -0.003 C 
ATOM     26  C   UNL     1       0.294  54.529  20.840  1.00  0.00     0.004 C 
ENDBRANCH  24  25
ENDBRANCH  23  24
ENDBRANCH  22  23
ENDBRANCH  21  22
ENDBRANCH  20  21
ENDBRANCH  19  20
ENDBRANCH  18  19
ENDBRANCH  17  18
ENDBRANCH  16  17
ENDBRANCH  15  16
ENDBRANCH   1  15
TORSDOF 22
ENDMDL
MODEL 5
REMARK VINA RESULT:    -5.056      4.340      7.801
REMARK INTER + INTRA:         -15.401
REMARK INTER:                 -11.642
REMARK INTRA:                  -3.760
REMARK UNBOUND:                -3.842
REMARK SMILES CCCCCCCCCCCCCCCCCCCCCCCC(=O)[O-]
REMARK SMILES IDX 13 1 14 2 15 3 16 4 17 5 18 6 19 7 20 8 21 9 22 10 23 11
REMARK SMILES IDX 24 12 25 13 26 14 12 15 11 16 10 17 9 18 8 19 7 20 6 21 5 22
REMARK SMILES IDX 4 23 3 24 2 25 1 26
REMARK H PARENT
REMARK Flexibility Score: inf
ROOT
ATOM      1  C   UNL     1       0.325  55.944  19.710  1.00  0.00     0.000 C 
ENDROOT
BRANCH   1   2
ATOM      2  C   UNL     1       1.278  56.393  18.589  1.00  0.00     0.000 C 
BRANCH   2   3
ATOM      3  C   UNL     1       0.698  56.273  17.166  1.00  0.00     0.000 C 
BRANCH   3   4
ATOM      4  C   UNL     1       1.573  55.423  16.221  1.00  0.00     0.000 C 
BRANCH   4   5
ATOM      5  C   UNL     1       3.028  55.928  16.167  1.00  0.00     0.000 C 
BRANCH   5   6
ATOM      6  C   UNL     1       4.069  54.810  16.363  1.00  0.00     0.000 C 
BRANCH   6   7
ATOM      7  C   UNL     1       4.868  54.981  17.668  1.00  0.00     0.000 C 
BRANCH   7   8
ATOM      8  C   UNL     1       5.263  56.452  17.926  1.00  0.00     0.000 C 
BRANCH   8   9
ATOM      9  C   UNL     1       6.488  56.917  17.116  1.00  0.00     0.000 C 
BRANCH   9  10
ATOM     10  C   UNL     1       7.789  57.058  17.928  1.00  0.00     0.006 C 
BRANCH  10  11
ATOM     11  C   UNL     1       8.402  58.468  17.904  1.00  0.00     0.053 C 
BRANCH  11  12
ATOM     12  C   UNL     1       9.696  58.505  17.151  1.00  0.00     0.041 C 
ATOM     13  O   UNL     1      10.746  58.048  17.674  1.00  0.00    -0.550 OA
ATOM     14  O   UNL     1       9.733  59.009  15.856  1.00  0.00    -0.550 OA
ENDBRANCH  11  12
ENDBRANCH  10  11
ENDBRANCH   9  10
ENDBRANCH   8   9
ENDBRANCH   7   8
ENDBRANCH   6   7
ENDBRANCH   5   6
ENDBRANCH   4   5
ENDBRANCH   3   4
ENDBRANCH   2   3
ENDBRANCH   1   2
BRANCH   1  15
ATOM     15  C   UNL     1       0.940  54.897  20.657  1.00  0.00     0.000 C 
BRANCH  15  16
ATOM     16  C   UNL     1       2.312  54.395  20.177  1.00  0.00     0.000 C 
BRANCH  16  17
ATOM     17  C   UNL     1       2.303  52.894  19.847  1.00  0.00     0.000 C 
BRANCH  17  18
ATOM     18  C   UNL     1       2.003  52.614  18.365  1.00  0.00    -0.000 C 
BRANCH  18  19
ATOM     19  C   UNL     1       0.511  52.400  18.034  1.00  0.00    -0.000 C 
BRANCH  19  20
ATOM     20  C   UNL     1      -0.155  51.277  18.857  1.00  0.00    -0.000 C 
BRANCH  20  21
ATOM     21  C   UNL     1      -1.121  51.828  19.921  1.00  0.00    -0.000 C 
BRANCH  21  22
ATOM     22  C   UNL     1      -2.460  52.308  19.327  1.00  0.00    -0.000 C 
BRANCH  22  23
ATOM     23  C   UNL     1      -2.605  53.841  19.253  1.00  0.00    -0.000 C 
BRANCH  23  24
ATOM     24  C   UNL     1      -2.531  54.445  17.838  1.00  0.00    -0.000 C 
BRANCH  24  25
ATOM     25  C   UNL     1      -3.014  55.904  17.727  1.00  0.00    -0.003 C 
ATOM     26  C   UNL     1      -3.675  56.412  19.007  1.00  0.00     0.004 C 
ENDBRANCH  24  25
ENDBRANCH  23  24
ENDBRANCH  22  23
ENDBRANCH  21  22
ENDBRANCH  20  21
ENDBRANCH  19  20
ENDBRANCH  18  19
ENDBRANCH  17  18
ENDBRANCH  16  17
ENDBRANCH  15  16
ENDBRANCH   1  15
TORSDOF 22
ENDMDL
MODEL 6
REMARK VINA RESULT:    -5.005      1.885      3.607
REMARK INTER + INTRA:         -15.285
REMARK INTER:                 -11.423
REMARK INTRA:                  -3.862
REMARK UNBOUND:                -3.842
REMARK SMILES CCCCCCCCCCCCCCCCCCCCCCCC(=O)[O-]
REMARK SMILES IDX 13 1 14 2 15 3 16 4 17 5 18 6 19 7 20 8 21 9 22 10 23 11
REMARK SMILES IDX 24 12 25 13 26 14 12 15 11 16 10 17 9 18 8 19 7 20 6 21 5 22
REMARK SMILES IDX 4 23 3 24 2 25 1 26
REMARK H PARENT
REMARK Flexibility Score: inf
ROOT
ATOM      1  C   UNL     1      -1.649  55.945  19.671  1.00  0.00     0.000 C 
ENDROOT
BRANCH   1   2
ATOM      2  C   UNL     1      -2.105  56.238  18.231  1.00  0.00     0.000 C 
BRANCH   2   3
ATOM      3  C   UNL     1      -2.718  55.031  17.493  1.00  0.00     0.000 C 
BRANCH   3   4
ATOM      4  C   UNL     1      -2.538  53.699  18.249  1.00  0.00     0.000 C 
BRANCH   4   5
ATOM      5  C   UNL     1      -2.083  52.559  17.316  1.00  0.00     0.000 C 
BRANCH   5   6
ATOM      6  C   UNL     1      -2.770  51.214  17.617  1.00  0.00     0.000 C 
BRANCH   6   7
ATOM      7  C   UNL     1      -2.081  50.452  18.764  1.00  0.00     0.000 C 
BRANCH   7   8
ATOM      8  C   UNL     1      -3.026  50.213  19.962  1.00  0.00     0.000 C 
BRANCH   8   9
ATOM      9  C   UNL     1      -2.416  50.604  21.321  1.00  0.00     0.000 C 
BRANCH   9  10
ATOM     10  C   UNL     1      -1.889  52.049  21.407  1.00  0.00     0.006 C 
BRANCH  10  11
ATOM     11  C   UNL     1      -2.294  52.797  22.688  1.00  0.00     0.053 C 
BRANCH  11  12
ATOM     12  C   UNL     1      -3.679  53.360  22.595  1.00  0.00     0.041 C 
ATOM     13  O   UNL     1      -4.136  53.737  21.484  1.00  0.00    -0.550 OA
ATOM     14  O   UNL     1      -4.478  53.431  23.731  1.00  0.00    -0.550 OA
ENDBRANCH  11  12
ENDBRANCH  10  11
ENDBRANCH   9  10
ENDBRANCH   8   9
ENDBRANCH   7   8
ENDBRANCH   6   7
ENDBRANCH   5   6
ENDBRANCH   4   5
ENDBRANCH   3   4
ENDBRANCH   2   3
ENDBRANCH   1   2
BRANCH   1  15
ATOM     15  C   UNL     1      -0.120  55.975  19.849  1.00  0.00     0.000 C 
BRANCH  15  16
ATOM     16  C   UNL     1       0.454  54.619  20.290  1.00  0.00     0.000 C 
BRANCH  16  17
ATOM     17  C   UNL     1       1.973  54.675  20.523  1.00  0.00     0.000 C 
BRANCH  17  18
ATOM     18  C   UNL     1       2.667  53.334  20.233  1.00  0.00    -0.000 C 
BRANCH  18  19
ATOM     19  C   UNL     1       3.917  53.431  19.334  1.00  0.00    -0.000 C 
BRANCH  19  20
ATOM     20  C   UNL     1       3.637  53.140  17.844  1.00  0.00    -0.000 C 
BRANCH  20  21
ATOM     21  C   UNL     1       2.170  52.747  17.592  1.00  0.00    -0.000 C 
BRANCH  21  22
ATOM     22  C   UNL     1       1.430  53.744  16.677  1.00  0.00    -0.000 C 
BRANCH  22  23
ATOM     23  C   UNL     1       2.224  55.029  16.371  1.00  0.00    -0.000 C 
BRANCH  23  24
ATOM     24  C   UNL     1       1.713  56.305  17.068  1.00  0.00    -0.000 C 
BRANCH  24  25
ATOM     25  C   UNL     1       2.759  57.042  17.925  1.00  0.00    -0.003 C 
ATOM     26  C   UNL     1       4.196  56.682  17.552  1.00  0.00     0.004 C 
ENDBRANCH  24  25
ENDBRANCH  23  24
ENDBRANCH  22  23
ENDBRANCH  21  22
ENDBRANCH  20  21
ENDBRANCH  19  20
ENDBRANCH  18  19
ENDBRANCH  17  18
ENDBRANCH  16  17
ENDBRANCH  15  16
ENDBRANCH   1  15
TORSDOF 22
ENDMDL
MODEL 7
REMARK VINA RESULT:    -4.989      4.758      8.550
REMARK INTER + INTRA:         -15.248
REMARK INTER:                 -12.272
REMARK INTRA:                  -2.976
REMARK UNBOUND:                -3.842
REMARK SMILES CCCCCCCCCCCCCCCCCCCCCCCC(=O)[O-]
REMARK SMILES IDX 13 1 14 2 15 3 16 4 17 5 18 6 19 7 20 8 21 9 22 10 23 11
REMARK SMILES IDX 24 12 25 13 26 14 12 15 11 16 10 17 9 18 8 19 7 20 6 21 5 22
REMARK SMILES IDX 4 23 3 24 2 25 1 26
REMARK H PARENT
REMARK Flexibility Score: inf
ROOT
ATOM      1  C   UNL     1       3.431  53.709  19.338  1.00  0.00     0.000 C 
ENDROOT
BRANCH   1   2
ATOM      2  C   UNL     1       3.426  52.941  18.005  1.00  0.00     0.000 C 
BRANCH   2   3
ATOM      3  C   UNL     1       2.238  53.265  17.079  1.00  0.00     0.000 C 
BRANCH   3   4
ATOM      4  C   UNL     1       2.401  54.601  16.324  1.00  0.00     0.000 C 
BRANCH   4   5
ATOM      5  C   UNL     1       3.873  54.890  15.969  1.00  0.00     0.000 C 
BRANCH   5   6
ATOM      6  C   UNL     1       4.376  56.241  16.511  1.00  0.00     0.000 C 
BRANCH   6   7
ATOM      7  C   UNL     1       5.617  56.082  17.409  1.00  0.00     0.000 C 
BRANCH   7   8
ATOM      8  C   UNL     1       6.693  57.152  17.118  1.00  0.00     0.000 C 
BRANCH   8   9
ATOM      9  C   UNL     1       7.598  57.466  18.325  1.00  0.00     0.000 C 
BRANCH   9  10
ATOM     10  C   UNL     1       8.496  58.707  18.159  1.00  0.00     0.006 C 
BRANCH  10  11
ATOM     11  C   UNL     1       9.326  58.720  16.865  1.00  0.00     0.053 C 
BRANCH  11  12
ATOM     12  C   UNL     1      10.392  59.773  16.893  1.00  0.00     0.041 C 
ATOM     13  O   UNL     1      11.198  59.832  17.857  1.00  0.00    -0.550 OA
ATOM     14  O   UNL     1      10.516  60.664  15.833  1.00  0.00    -0.550 OA
ENDBRANCH  11  12
ENDBRANCH  10  11
ENDBRANCH   9  10
ENDBRANCH   8   9
ENDBRANCH   7   8
ENDBRANCH   6   7
ENDBRANCH   5   6
ENDBRANCH   4   5
ENDBRANCH   3   4
ENDBRANCH   2   3
ENDBRANCH   1   2
BRANCH   1  15
ATOM     15  C   UNL     1       2.133  53.536  20.150  1.00  0.00     0.000 C 
BRANCH  15  16
ATOM     16  C   UNL     1       1.568  54.872  20.659  1.00  0.00     0.000 C 
BRANCH  16  17
ATOM     17  C   UNL     1       1.445  55.918  19.539  1.00  0.00     0.000 C 
BRANCH  17  18
ATOM     18  C   UNL     1      -0.011  56.338  19.276  1.00  0.00    -0.000 C 
BRANCH  18  19
ATOM     19  C   UNL     1      -0.516  56.065  17.844  1.00  0.00    -0.000 C 
BRANCH  19  20
ATOM     20  C   UNL     1      -2.055  56.067  17.715  1.00  0.00    -0.000 C 
BRANCH  20  21
ATOM     21  C   UNL     1      -2.687  54.769  18.246  1.00  0.00    -0.000 C 
BRANCH  21  22
ATOM     22  C   UNL     1      -2.067  53.501  17.626  1.00  0.00    -0.000 C 
BRANCH  22  23
ATOM     23  C   UNL     1      -1.134  52.725  18.577  1.00  0.00    -0.000 C 
BRANCH  23  24
ATOM     24  C   UNL     1      -1.806  52.148  19.838  1.00  0.00    -0.000 C 
BRANCH  24  25
ATOM     25  C   UNL     1      -1.540  52.935  21.135  1.00  0.00    -0.003 C 
ATOM     26  C   UNL     1      -2.821  53.419  21.812  1.00  0.00     0.004 C 
ENDBRANCH  24  25
ENDBRANCH  23  24
ENDBRANCH  22  23
ENDBRANCH  21  22
ENDBRANCH  20  21
ENDBRANCH  19  20
ENDBRANCH  18  19
ENDBRANCH  17  18
ENDBRANCH  16  17
ENDBRANCH  15  16
ENDBRANCH   1  15
TORSDOF 22
ENDMDL
MODEL 8
REMARK VINA RESULT:    -4.985      5.125      8.978
REMARK INTER + INTRA:         -15.238
REMARK INTER:                 -12.354
REMARK INTRA:                  -2.884
REMARK UNBOUND:                -3.842
REMARK SMILES CCCCCCCCCCCCCCCCCCCCCCCC(=O)[O-]
REMARK SMILES IDX 13 1 14 2 15 3 16 4 17 5 18 6 19 7 20 8 21 9 22 10 23 11
REMARK SMILES IDX 24 12 25 13 26 14 12 15 11 16 10 17 9 18 8 19 7 20 6 21 5 22
REMARK SMILES IDX 4 23 3 24 2 25 1 26
REMARK H PARENT
REMARK Flexibility Score: inf
ROOT
ATOM      1  C   UNL     1       0.133  56.418  18.433  1.00  0.00     0.000 C 
ENDROOT
BRANCH   1   2
ATOM      2  C   UNL     1       0.716  55.871  17.119  1.00  0.00     0.000 C 
BRANCH   2   3
ATOM      3  C   UNL     1       2.202  56.209  16.884  1.00  0.00     0.000 C 
BRANCH   3   4
ATOM      4  C   UNL     1       2.926  55.182  15.989  1.00  0.00     0.000 C 
BRANCH   4   5
ATOM      5  C   UNL     1       4.441  55.135  16.270  1.00  0.00     0.000 C 
BRANCH   5   6
ATOM      6  C   UNL     1       4.918  56.241  17.230  1.00  0.00     0.000 C 
BRANCH   6   7
ATOM      7  C   UNL     1       6.284  56.820  16.819  1.00  0.00     0.000 C 
BRANCH   7   8
ATOM      8  C   UNL     1       7.046  57.434  18.014  1.00  0.00     0.000 C 
BRANCH   8   9
ATOM      9  C   UNL     1       8.569  57.215  17.958  1.00  0.00     0.000 C 
BRANCH   9  10
ATOM     10  C   UNL     1       9.317  58.095  16.939  1.00  0.00     0.006 C 
BRANCH  10  11
ATOM     11  C   UNL     1       9.786  59.450  17.494  1.00  0.00     0.053 C 
BRANCH  11  12
ATOM     12  C   UNL     1      11.280  59.558  17.523  1.00  0.00     0.041 C 
ATOM     13  O   UNL     1      11.987  58.522  17.636  1.00  0.00    -0.550 OA
ATOM     14  O   UNL     1      11.890  60.799  17.385  1.00  0.00    -0.550 OA
ENDBRANCH  11  12
ENDBRANCH  10  11
ENDBRANCH   9  10
ENDBRANCH   8   9
ENDBRANCH   7   8
ENDBRANCH   6   7
ENDBRANCH   5   6
ENDBRANCH   4   5
ENDBRANCH   3   4
ENDBRANCH   2   3
ENDBRANCH   1   2
BRANCH   1  15
ATOM     15  C   UNL     1      -1.362  56.101  18.620  1.00  0.00     0.000 C 
BRANCH  15  16
ATOM     16  C   UNL     1      -1.621  55.112  19.768  1.00  0.00     0.000 C 
BRANCH  16  17
ATOM     17  C   UNL     1      -2.457  53.903  19.320  1.00  0.00     0.000 C 
BRANCH  17  18
ATOM     18  C   UNL     1      -2.557  53.784  17.790  1.00  0.00    -0.000 C 
BRANCH  18  19
ATOM     19  C   UNL     1      -2.055  52.446  17.209  1.00  0.00    -0.000 C 
BRANCH  19  20
ATOM     20  C   UNL     1      -2.410  51.218  18.074  1.00  0.00    -0.000 C 
BRANCH  20  21
ATOM     21  C   UNL     1      -1.191  50.316  18.335  1.00  0.00    -0.000 C 
BRANCH  21  22
ATOM     22  C   UNL     1      -0.321  50.807  19.510  1.00  0.00    -0.000 C 
BRANCH  22  23
ATOM     23  C   UNL     1       1.065  51.336  19.090  1.00  0.00    -0.000 C 
BRANCH  23  24
ATOM     24  C   UNL     1       1.190  52.869  19.003  1.00  0.00    -0.000 C 
BRANCH  24  25
ATOM     25  C   UNL     1       2.521  53.444  19.523  1.00  0.00    -0.003 C 
ATOM     26  C   UNL     1       2.331  54.483  20.627  1.00  0.00     0.004 C 
ENDBRANCH  24  25
ENDBRANCH  23  24
ENDBRANCH  22  23
ENDBRANCH  21  22
ENDBRANCH  20  21
ENDBRANCH  19  20
ENDBRANCH  18  19
ENDBRANCH  17  18
ENDBRANCH  16  17
ENDBRANCH  15  16
ENDBRANCH   1  15
TORSDOF 22
ENDMDL
MODEL 9
REMARK VINA RESULT:    -4.946      2.825      4.844
REMARK INTER + INTRA:         -15.149
REMARK INTER:                 -11.119
REMARK INTRA:                  -4.030
REMARK UNBOUND:                -3.842
REMARK SMILES CCCCCCCCCCCCCCCCCCCCCCCC(=O)[O-]
REMARK SMILES IDX 13 1 14 2 15 3 16 4 17 5 18 6 19 7 20 8 21 9 22 10 23 11
REMARK SMILES IDX 24 12 25 13 26 14 12 15 11 16 10 17 9 18 8 19 7 20 6 21 5 22
REMARK SMILES IDX 4 23 3 24 2 25 1 26
REMARK H PARENT
REMARK Flexibility Score: inf
ROOT
ATOM      1  C   UNL     1       2.715  53.682  20.053  1.00  0.00     0.000 C 
ENDROOT
BRANCH   1   2
ATOM      2  C   UNL     1       1.575  52.730  19.653  1.00  0.00     0.000 C 
BRANCH   2   3
ATOM      3  C   UNL     1       1.499  52.415  18.147  1.00  0.00     0.000 C 
BRANCH   3   4
ATOM      4  C   UNL     1       0.057  52.397  17.599  1.00  0.00     0.000 C 
BRANCH   4   5
ATOM      5  C   UNL     1      -0.990  52.308  18.727  1.00  0.00     0.000 C 
BRANCH   5   6
ATOM      6  C   UNL     1      -2.210  53.221  18.500  1.00  0.00     0.000 C 
BRANCH   6   7
ATOM      7  C   UNL     1      -2.843  53.686  19.825  1.00  0.00     0.000 C 
BRANCH   7   8
ATOM      8  C   UNL     1      -1.954  53.362  21.046  1.00  0.00     0.000 C 
BRANCH   8   9
ATOM      9  C   UNL     1      -2.657  52.504  22.115  1.00  0.00     0.000 C 
BRANCH   9  10
ATOM     10  C   UNL     1      -2.455  50.985  21.967  1.00  0.00     0.006 C 
BRANCH  10  11
ATOM     11  C   UNL     1      -3.669  50.237  21.391  1.00  0.00     0.053 C 
BRANCH  11  12
ATOM     12  C   UNL     1      -3.292  49.362  20.235  1.00  0.00     0.041 C 
ATOM     13  O   UNL     1      -3.457  49.766  19.054  1.00  0.00    -0.550 OA
ATOM     14  O   UNL     1      -2.722  48.115  20.464  1.00  0.00    -0.550 OA
ENDBRANCH  11  12
ENDBRANCH  10  11
ENDBRANCH   9  10
ENDBRANCH   8   9
ENDBRANCH   7   8
ENDBRANCH   6   7
ENDBRANCH   5   6
ENDBRANCH   4   5
ENDBRANCH   3   4
ENDBRANCH   2   3
ENDBRANCH   1   2
BRANCH   1  15
ATOM     15  C   UNL     1       2.249  55.128  20.302  1.00  0.00     0.000 C 
BRANCH  15  16
ATOM     16  C   UNL     1       0.723  55.286  20.201  1.00  0.00     0.000 C 
BRANCH  16  17
ATOM     17  C   UNL     1       0.315  56.427  19.254  1.00  0.00     0.000 C 
BRANCH  17  18
ATOM     18  C   UNL     1       0.237  55.979  17.785  1.00  0.00    -0.000 C 
BRANCH  18  19
ATOM     19  C   UNL     1       1.463  56.352  16.927  1.00  0.00    -0.000 C 
BRANCH  19  20
ATOM     20  C   UNL     1       1.952  55.212  16.009  1.00  0.00    -0.000 C 
BRANCH  20  21
ATOM     21  C   UNL     1       3.473  55.260  15.778  1.00  0.00    -0.000 C 
BRANCH  21  22
ATOM     22  C   UNL     1       4.266  54.468  16.837  1.00  0.00    -0.000 C 
BRANCH  22  23
ATOM     23  C   UNL     1       5.051  55.350  17.828  1.00  0.00    -0.000 C 
BRANCH  23  24
ATOM     24  C   UNL     1       5.382  56.771  17.331  1.00  0.00    -0.000 C 
BRANCH  24  25
ATOM     25  C   UNL     1       6.884  57.074  17.181  1.00  0.00    -0.003 C 
ATOM     26  C   UNL     1       7.509  57.637  18.456  1.00  0.00     0.004 C 
ENDBRANCH  24  25
ENDBRANCH  23  24
ENDBRANCH  22  23
ENDBRANCH  21  22
ENDBRANCH  20  21
ENDBRANCH  19  20
ENDBRANCH  18  19
ENDBRANCH  17  18
ENDBRANCH  16  17
ENDBRANCH  15  16
ENDBRANCH   1  15
TORSDOF 22
ENDMDL
