MODEL 1
REMARK VINA RESULT:    -4.999      0.000      0.000
REMARK INTER + INTRA:          -6.877
REMARK INTER:                  -6.168
REMARK INTRA:                  -0.710
REMARK UNBOUND:                -0.710
REMARK SMILES CC(C)=CCC[C@H](C)c1ccc(C)cc1
REMARK SMILES IDX 6 1 7 2 8 3 9 4 13 5 12 6 11 7 14 8 10 9 15 10 5 11 4 12
REMARK SMILES IDX 2 13 1 14 3 15
REMARK H PARENT
REMARK Flexibility Score: inf
ROOT
ATOM      1  C   UNL     1       4.243  -2.371  32.590  1.00  0.00     0.012 C 
ENDROOT
BRANCH   1   2
ATOM      2  C   UNL     1       4.887  -2.675  33.961  1.00  0.00     0.016 C 
ATOM      3  C   UNL     1       6.344  -3.145  33.831  1.00  0.00     0.013 C 
BRANCH   2   4
ATOM      4  C   UNL     1       4.066  -3.708  34.713  1.00  0.00    -0.045 A 
ATOM      5  C   UNL     1       1.763  -6.664  36.863  1.00  0.00     0.044 C 
ATOM      6  C   UNL     1       2.550  -5.615  36.133  1.00  0.00    -0.051 A 
ATOM      7  C   UNL     1       3.835  -5.264  36.571  1.00  0.00     0.004 A 
ATOM      8  C   UNL     1       2.035  -5.028  34.970  1.00  0.00     0.004 A 
ATOM      9  C   UNL     1       4.585  -4.314  35.871  1.00  0.00     0.004 A 
ATOM     10  C   UNL     1       2.783  -4.078  34.269  1.00  0.00     0.004 A 
ENDBRANCH   2   4
ENDBRANCH   1   2
BRANCH   1  11
ATOM     11  C   UNL     1       3.893  -0.885  32.415  1.00  0.00     0.028 C 
BRANCH  11  12
ATOM     12  C   UNL     1       5.065  -0.002  32.768  1.00  0.00    -0.028 C 
ATOM     13  C   UNL     1       5.869   0.561  31.841  1.00  0.00    -0.080 C 
ATOM     14  C   UNL     1       5.646   0.341  30.364  1.00  0.00     0.039 C 
ATOM     15  C   UNL     1       7.012   1.427  32.304  1.00  0.00     0.039 C 
ENDBRANCH  11  12
ENDBRANCH   1  11
TORSDOF 4
ENDMDL
MODEL 2
REMARK VINA RESULT:    -4.934     14.542     15.121
REMARK INTER + INTRA:          -6.798
REMARK INTER:                  -6.151
REMARK INTRA:                  -0.647
REMARK UNBOUND:                -0.710
REMARK SMILES CC(C)=CCC[C@H](C)c1ccc(C)cc1
REMARK SMILES IDX 6 1 7 2 8 3 9 4 13 5 12 6 11 7 14 8 10 9 15 10 5 11 4 12
REMARK SMILES IDX 2 13 1 14 3 15
REMARK H PARENT
REMARK Flexibility Score: inf
ROOT
ATOM      1  C   UNL     1       0.015   6.803  45.936  1.00  0.00     0.012 C 
ENDROOT
BRANCH   1   2
ATOM      2  C   UNL     1      -0.258   5.480  45.186  1.00  0.00     0.016 C 
ATOM      3  C   UNL     1      -1.557   5.529  44.368  1.00  0.00     0.013 C 
BRANCH   2   4
ATOM      4  C   UNL     1      -0.293   4.317  46.161  1.00  0.00    -0.045 A 
ATOM      5  C   UNL     1      -0.396   1.030  48.964  1.00  0.00     0.044 C 
ATOM      6  C   UNL     1      -0.384   2.159  47.975  1.00  0.00    -0.051 A 
ATOM      7  C   UNL     1      -1.104   3.334  48.236  1.00  0.00     0.004 A 
ATOM      8  C   UNL     1       0.401   2.076  46.818  1.00  0.00     0.004 A 
ATOM      9  C   UNL     1      -1.065   4.401  47.333  1.00  0.00     0.004 A 
ATOM     10  C   UNL     1       0.442   3.142  45.915  1.00  0.00     0.004 A 
ENDBRANCH   2   4
ENDBRANCH   1   2
BRANCH   1  11
ATOM     11  C   UNL     1       1.503   7.005  46.263  1.00  0.00     0.028 C 
BRANCH  11  12
ATOM     12  C   UNL     1       2.097   8.122  45.440  1.00  0.00    -0.028 C 
ATOM     13  C   UNL     1       3.283   8.018  44.803  1.00  0.00    -0.080 C 
ATOM     14  C   UNL     1       4.109   6.756  44.874  1.00  0.00     0.039 C 
ATOM     15  C   UNL     1       3.783   9.196  44.007  1.00  0.00     0.039 C 
ENDBRANCH  11  12
ENDBRANCH   1  11
TORSDOF 4
ENDMDL
MODEL 3
REMARK VINA RESULT:    -4.858     15.081     15.659
REMARK INTER + INTRA:          -6.703
REMARK INTER:                  -5.884
REMARK INTRA:                  -0.819
REMARK UNBOUND:                -0.710
REMARK SMILES CC(C)=CCC[C@H](C)c1ccc(C)cc1
REMARK SMILES IDX 6 1 7 2 8 3 9 4 13 5 12 6 11 7 14 8 10 9 15 10 5 11 4 12
REMARK SMILES IDX 2 13 1 14 3 15
REMARK H PARENT
REMARK Flexibility Score: inf
ROOT
ATOM      1  C   UNL     1       0.430   8.368  46.853  1.00  0.00     0.012 C 
ENDROOT
BRANCH   1   2
ATOM      2  C   UNL     1      -0.578   7.540  46.025  1.00  0.00     0.016 C 
ATOM      3  C   UNL     1      -2.036   7.882  46.368  1.00  0.00     0.013 C 
BRANCH   2   4
ATOM      4  C   UNL     1      -0.326   6.054  46.217  1.00  0.00    -0.045 A 
ATOM      5  C   UNL     1       0.395   1.835  46.800  1.00  0.00     0.044 C 
ATOM      6  C   UNL     1       0.116   3.294  46.586  1.00  0.00    -0.051 A 
ATOM      7  C   UNL     1      -0.453   4.062  47.611  1.00  0.00     0.004 A 
ATOM      8  C   UNL     1       0.486   3.914  45.385  1.00  0.00     0.004 A 
ATOM      9  C   UNL     1      -0.679   5.430  47.426  1.00  0.00     0.004 A 
ATOM     10  C   UNL     1       0.261   5.281  45.198  1.00  0.00     0.004 A 
ENDBRANCH   2   4
ENDBRANCH   1   2
BRANCH   1  11
ATOM     11  C   UNL     1       1.880   7.889  46.676  1.00  0.00     0.028 C 
BRANCH  11  12
ATOM     12  C   UNL     1       2.587   8.676  45.599  1.00  0.00    -0.028 C 
ATOM     13  C   UNL     1       3.537   8.145  44.801  1.00  0.00    -0.080 C 
ATOM     14  C   UNL     1       3.964   6.702  44.935  1.00  0.00     0.039 C 
ATOM     15  C   UNL     1       4.179   9.021  43.757  1.00  0.00     0.039 C 
ENDBRANCH  11  12
ENDBRANCH   1  11
TORSDOF 4
ENDMDL
MODEL 4
REMARK VINA RESULT:    -4.847     15.001     16.612
REMARK INTER + INTRA:          -6.690
REMARK INTER:                  -6.004
REMARK INTRA:                  -0.686
REMARK UNBOUND:                -0.710
REMARK SMILES CC(C)=CCC[C@H](C)c1ccc(C)cc1
REMARK SMILES IDX 6 1 7 2 8 3 9 4 13 5 12 6 11 7 14 8 10 9 15 10 5 11 4 12
REMARK SMILES IDX 2 13 1 14 3 15
REMARK H PARENT
REMARK Flexibility Score: inf
ROOT
ATOM      1  C   UNL     1      -1.477   5.075  46.934  1.00  0.00     0.012 C 
ENDROOT
BRANCH   1   2
ATOM      2  C   UNL     1      -1.396   6.123  45.802  1.00  0.00     0.016 C 
ATOM      3  C   UNL     1      -1.545   5.492  44.409  1.00  0.00     0.013 C 
BRANCH   2   4
ATOM      4  C   UNL     1      -0.093   6.899  45.891  1.00  0.00    -0.045 A 
ATOM      5  C   UNL     1       3.594   9.138  46.136  1.00  0.00     0.044 C 
ATOM      6  C   UNL     1       2.318   8.350  46.079  1.00  0.00    -0.051 A 
ATOM      7  C   UNL     1       1.103   8.944  46.452  1.00  0.00     0.004 A 
ATOM      8  C   UNL     1       2.320   7.037  45.589  1.00  0.00     0.004 A 
ATOM      9  C   UNL     1      -0.091   8.223  46.365  1.00  0.00     0.004 A 
ATOM     10  C   UNL     1       1.127   6.315  45.501  1.00  0.00     0.004 A 
ENDBRANCH   2   4
ENDBRANCH   1   2
BRANCH   1  11
ATOM     11  C   UNL     1      -1.246   3.641  46.434  1.00  0.00     0.028 C 
BRANCH  11  12
ATOM     12  C   UNL     1      -0.038   3.021  47.092  1.00  0.00    -0.028 C 
ATOM     13  C   UNL     1       0.063   1.700  47.354  1.00  0.00    -0.080 C 
ATOM     14  C   UNL     1      -1.047   0.738  46.999  1.00  0.00     0.039 C 
ATOM     15  C   UNL     1       1.315   1.186  48.015  1.00  0.00     0.039 C 
ENDBRANCH  11  12
ENDBRANCH   1  11
TORSDOF 4
ENDMDL
MODEL 5
REMARK VINA RESULT:    -4.846      1.171      1.669
REMARK INTER + INTRA:          -6.688
REMARK INTER:                  -6.169
REMARK INTRA:                  -0.520
REMARK UNBOUND:                -0.710
REMARK SMILES CC(C)=CCC[C@H](C)c1ccc(C)cc1
REMARK SMILES IDX 6 1 7 2 8 3 9 4 13 5 12 6 11 7 14 8 10 9 15 10 5 11 4 12
REMARK SMILES IDX 2 13 1 14 3 15
REMARK H PARENT
REMARK Flexibility Score: inf
ROOT
ATOM      1  C   UNL     1       4.407  -3.207  33.514  1.00  0.00     0.012 C 
ENDROOT
BRANCH   1   2
ATOM      2  C   UNL     1       3.873  -3.325  34.959  1.00  0.00     0.016 C 
ATOM      3  C   UNL     1       4.995  -3.576  35.979  1.00  0.00     0.013 C 
BRANCH   2   4
ATOM      4  C   UNL     1       2.826  -4.422  35.048  1.00  0.00    -0.045 A 
ATOM      5  C   UNL     1      -0.129  -7.561  35.324  1.00  0.00     0.044 C 
ATOM      6  C   UNL     1       0.876  -6.450  35.239  1.00  0.00    -0.051 A 
ATOM      7  C   UNL     1       1.732  -6.187  36.318  1.00  0.00     0.004 A 
ATOM      8  C   UNL     1       1.015  -5.713  34.055  1.00  0.00     0.004 A 
ATOM      9  C   UNL     1       2.694  -5.177  36.227  1.00  0.00     0.004 A 
ATOM     10  C   UNL     1       1.976  -4.703  33.962  1.00  0.00     0.004 A 
ENDBRANCH   2   4
ENDBRANCH   1   2
BRANCH   1  11
ATOM     11  C   UNL     1       3.974  -1.903  32.826  1.00  0.00     0.028 C 
BRANCH  11  12
ATOM     12  C   UNL     1       5.066  -0.863  32.890  1.00  0.00    -0.028 C 
ATOM     13  C   UNL     1       5.314   0.008  31.889  1.00  0.00    -0.080 C 
ATOM     14  C   UNL     1       4.503  -0.002  30.615  1.00  0.00     0.039 C 
ATOM     15  C   UNL     1       6.429   1.007  32.058  1.00  0.00     0.039 C 
ENDBRANCH  11  12
ENDBRANCH   1  11
TORSDOF 4
ENDMDL
MODEL 6
REMARK VINA RESULT:    -4.809     15.916     17.246
REMARK INTER + INTRA:          -6.644
REMARK INTER:                  -5.590
REMARK INTRA:                  -1.054
REMARK UNBOUND:                -0.710
REMARK SMILES CC(C)=CCC[C@H](C)c1ccc(C)cc1
REMARK SMILES IDX 6 1 7 2 8 3 9 4 13 5 12 6 11 7 14 8 10 9 15 10 5 11 4 12
REMARK SMILES IDX 2 13 1 14 3 15
REMARK H PARENT
REMARK Flexibility Score: inf
ROOT
ATOM      1  C   UNL     1      -1.043   8.866  46.427  1.00  0.00     0.012 C 
ENDROOT
BRANCH   1   2
ATOM      2  C   UNL     1       0.241   8.425  47.164  1.00  0.00     0.016 C 
ATOM      3  C   UNL     1       0.438   9.171  48.493  1.00  0.00     0.013 C 
BRANCH   2   4
ATOM      4  C   UNL     1       1.455   8.611  46.271  1.00  0.00    -0.045 A 
ATOM      5  C   UNL     1       4.923   9.107  43.742  1.00  0.00     0.044 C 
ATOM      6  C   UNL     1       3.700   8.938  44.596  1.00  0.00    -0.051 A 
ATOM      7  C   UNL     1       3.200   7.656  44.867  1.00  0.00     0.004 A 
ATOM      8  C   UNL     1       3.090  10.053  45.184  1.00  0.00     0.004 A 
ATOM      9  C   UNL     1       2.083   7.494  45.692  1.00  0.00     0.004 A 
ATOM     10  C   UNL     1       1.973   9.893  46.009  1.00  0.00     0.004 A 
ENDBRANCH   2   4
ENDBRANCH   1   2
BRANCH   1  11
ATOM     11  C   UNL     1      -2.038   7.713  46.225  1.00  0.00     0.028 C 
BRANCH  11  12
ATOM     12  C   UNL     1      -1.418   6.386  46.590  1.00  0.00    -0.028 C 
ATOM     13  C   UNL     1      -1.190   5.406  45.690  1.00  0.00    -0.080 C 
ATOM     14  C   UNL     1      -1.549   5.574  44.233  1.00  0.00     0.039 C 
ATOM     15  C   UNL     1      -0.565   4.119  46.164  1.00  0.00     0.039 C 
ENDBRANCH  11  12
ENDBRANCH   1  11
TORSDOF 4
ENDMDL
MODEL 7
REMARK VINA RESULT:    -4.729     13.713     15.002
REMARK INTER + INTRA:          -6.544
REMARK INTER:                  -5.805
REMARK INTRA:                  -0.739
REMARK UNBOUND:                -0.710
REMARK SMILES CC(C)=CCC[C@H](C)c1ccc(C)cc1
REMARK SMILES IDX 6 1 7 2 8 3 9 4 13 5 12 6 11 7 14 8 10 9 15 10 5 11 4 12
REMARK SMILES IDX 2 13 1 14 3 15
REMARK H PARENT
REMARK Flexibility Score: inf
ROOT
ATOM      1  C   UNL     1      -1.597   2.799  48.219  1.00  0.00     0.012 C 
ENDROOT
BRANCH   1   2
ATOM      2  C   UNL     1      -0.964   1.396  48.087  1.00  0.00     0.016 C 
ATOM      3  C   UNL     1       0.263   1.393  47.162  1.00  0.00     0.013 C 
BRANCH   2   4
ATOM      4  C   UNL     1      -1.994   0.394  47.599  1.00  0.00    -0.045 A 
ATOM      5  C   UNL     1      -4.915  -2.453  46.173  1.00  0.00     0.044 C 
ATOM      6  C   UNL     1      -3.889  -1.486  46.687  1.00  0.00    -0.051 A 
ATOM      7  C   UNL     1      -2.665  -1.334  46.020  1.00  0.00     0.004 A 
ATOM      8  C   UNL     1      -4.173  -0.678  47.796  1.00  0.00     0.004 A 
ATOM      9  C   UNL     1      -1.722  -0.407  46.476  1.00  0.00     0.004 A 
ATOM     10  C   UNL     1      -3.232   0.250  48.253  1.00  0.00     0.004 A 
ENDBRANCH   2   4
ENDBRANCH   1   2
BRANCH   1  11
ATOM     11  C   UNL     1      -0.765   3.893  47.531  1.00  0.00     0.028 C 
BRANCH  11  12
ATOM     12  C   UNL     1      -1.519   4.509  46.378  1.00  0.00    -0.028 C 
ATOM     13  C   UNL     1      -0.923   4.894  45.229  1.00  0.00    -0.080 C 
ATOM     14  C   UNL     1       0.563   4.731  45.018  1.00  0.00     0.039 C 
ATOM     15  C   UNL     1      -1.772   5.498  44.141  1.00  0.00     0.039 C 
ENDBRANCH  11  12
ENDBRANCH   1  11
TORSDOF 4
ENDMDL
MODEL 8
REMARK VINA RESULT:    -4.728     14.634     16.477
REMARK INTER + INTRA:          -6.543
REMARK INTER:                  -6.035
REMARK INTRA:                  -0.508
REMARK UNBOUND:                -0.710
REMARK SMILES CC(C)=CCC[C@H](C)c1ccc(C)cc1
REMARK SMILES IDX 6 1 7 2 8 3 9 4 13 5 12 6 11 7 14 8 10 9 15 10 5 11 4 12
REMARK SMILES IDX 2 13 1 14 3 15
REMARK H PARENT
REMARK Flexibility Score: inf
ROOT
ATOM      1  C   UNL     1       0.329   5.721  45.234  1.00  0.00     0.012 C 
ENDROOT
BRANCH   1   2
ATOM      2  C   UNL     1       0.799   6.859  46.167  1.00  0.00     0.016 C 
ATOM      3  C   UNL     1      -0.309   7.889  46.436  1.00  0.00     0.013 C 
BRANCH   2   4
ATOM      4  C   UNL     1       2.026   7.543  45.592  1.00  0.00    -0.045 A 
ATOM      5  C   UNL     1       5.497   9.518  43.942  1.00  0.00     0.044 C 
ATOM      6  C   UNL     1       4.304   8.832  44.543  1.00  0.00    -0.051 A 
ATOM      7  C   UNL     1       3.214   9.585  45.003  1.00  0.00     0.004 A 
ATOM      8  C   UNL     1       4.242   7.433  44.586  1.00  0.00     0.004 A 
ATOM      9  C   UNL     1       2.088   8.946  45.530  1.00  0.00     0.004 A 
ATOM     10  C   UNL     1       3.116   6.793  45.111  1.00  0.00     0.004 A 
ENDBRANCH   2   4
ENDBRANCH   1   2
BRANCH   1  11
ATOM     11  C   UNL     1      -0.531   4.674  45.960  1.00  0.00     0.028 C 
BRANCH  11  12
ATOM     12  C   UNL     1       0.228   3.385  46.156  1.00  0.00    -0.028 C 
ATOM     13  C   UNL     1      -0.184   2.407  46.992  1.00  0.00    -0.080 C 
ATOM     14  C   UNL     1      -1.452   2.542  47.800  1.00  0.00     0.039 C 
ATOM     15  C   UNL     1       0.651   1.159  47.112  1.00  0.00     0.039 C 
ENDBRANCH  11  12
ENDBRANCH   1  11
TORSDOF 4
ENDMDL
MODEL 9
REMARK VINA RESULT:    -4.548     15.359     16.610
REMARK INTER + INTRA:          -6.322
REMARK INTER:                  -4.939
REMARK INTRA:                  -1.383
REMARK UNBOUND:                -0.710
REMARK SMILES CC(C)=CCC[C@H](C)c1ccc(C)cc1
REMARK SMILES IDX 6 1 7 2 8 3 9 4 13 5 12 6 11 7 14 8 10 9 15 10 5 11 4 12
REMARK SMILES IDX 2 13 1 14 3 15
REMARK H PARENT
REMARK Flexibility Score: inf
ROOT
ATOM      1  C   UNL     1       1.526   5.571  48.646  1.00  0.00     0.012 C 
ENDROOT
BRANCH   1   2
ATOM      2  C   UNL     1       1.039   6.839  47.910  1.00  0.00     0.016 C 
ATOM      3  C   UNL     1       0.297   7.809  48.842  1.00  0.00     0.013 C 
BRANCH   2   4
ATOM      4  C   UNL     1       0.157   6.462  46.733  1.00  0.00    -0.045 A 
ATOM      5  C   UNL     1      -2.324   5.389  43.362  1.00  0.00     0.044 C 
ATOM      6  C   UNL     1      -1.472   5.736  44.548  1.00  0.00    -0.051 A 
ATOM      7  C   UNL     1      -0.139   5.305  44.611  1.00  0.00     0.004 A 
ATOM      8  C   UNL     1      -1.981   6.551  45.568  1.00  0.00     0.004 A 
ATOM      9  C   UNL     1       0.667   5.659  45.697  1.00  0.00     0.004 A 
ATOM     10  C   UNL     1      -1.177   6.906  46.655  1.00  0.00     0.004 A 
ENDBRANCH   2   4
ENDBRANCH   1   2
BRANCH   1  11
ATOM     11  C   UNL     1       0.385   4.588  48.953  1.00  0.00     0.028 C 
BRANCH  11  12
ATOM     12  C   UNL     1       0.707   3.203  48.446  1.00  0.00    -0.028 C 
ATOM     13  C   UNL     1      -0.125   2.498  47.650  1.00  0.00    -0.080 C 
ATOM     14  C   UNL     1      -1.457   3.058  47.207  1.00  0.00     0.039 C 
ATOM     15  C   UNL     1       0.295   1.123  47.200  1.00  0.00     0.039 C 
ENDBRANCH  11  12
ENDBRANCH   1  11
TORSDOF 4
ENDMDL
