MODEL 1
REMARK VINA RESULT:    -4.130      0.000      0.000
REMARK INTER + INTRA:          -4.251
REMARK INTER:                  -4.251
REMARK INTRA:                   0.000
REMARK UNBOUND:                 0.000
REMARK SMILES Nc1ncnc2nc[nH]c12
REMARK SMILES IDX 8 1 7 2 6 3 5 4 4 5 3 6 2 7 10 8 9 9 1 11
REMARK H PARENT 9 10 1 12 1 13
REMARK Flexibility Score: inf
ROOT
ATOM      1  C   UNL     1      44.259  25.253  25.872  1.00  0.00     0.199 A 
ATOM      2  N   UNL     1      43.045  24.927  26.396  1.00  0.00    -0.217 NA
ATOM      3  C   UNL     1      42.525  26.133  26.682  1.00  0.00     0.182 A 
ATOM      4  N   UNL     1      41.312  26.380  27.231  1.00  0.00    -0.215 NA
ATOM      5  C   UNL     1      40.955  27.682  27.449  1.00  0.00     0.226 A 
ATOM      6  N   UNL     1      41.809  28.703  27.116  1.00  0.00    -0.217 NA
ATOM      7  C   UNL     1      43.033  28.456  26.561  1.00  0.00     0.152 A 
ATOM      8  C   UNL     1      43.382  27.125  26.346  1.00  0.00     0.127 A 
ATOM      9  N   UNL     1      44.494  26.589  25.828  1.00  0.00    -0.340 N 
ATOM     10  H   UNL     1      45.347  27.073  25.471  1.00  0.00     0.168 HD
ENDROOT
BRANCH   7  11
ATOM     11  N   UNL     1      43.905  29.534  26.222  1.00  0.00    -0.382 N 
ATOM     12  H   UNL     1      43.710  30.511  26.535  1.00  0.00     0.158 HD
ATOM     13  H   UNL     1      44.760  29.355  25.650  1.00  0.00     0.158 HD
ENDBRANCH   7  11
TORSDOF 1
ENDMDL
MODEL 2
REMARK VINA RESULT:    -4.059      1.835      3.291
REMARK INTER + INTRA:          -4.177
REMARK INTER:                  -4.177
REMARK INTRA:                   0.000
REMARK UNBOUND:                 0.000
REMARK SMILES Nc1ncnc2nc[nH]c12
REMARK SMILES IDX 8 1 7 2 6 3 5 4 4 5 3 6 2 7 10 8 9 9 1 11
REMARK H PARENT 9 10 1 12 1 13
REMARK Flexibility Score: inf
ROOT
ATOM      1  C   UNL     1      42.386  28.082  23.484  1.00  0.00     0.199 A 
ATOM      2  N   UNL     1      43.475  27.272  23.370  1.00  0.00    -0.217 NA
ATOM      3  C   UNL     1      43.601  26.790  24.618  1.00  0.00     0.182 A 
ATOM      4  N   UNL     1      44.545  25.923  25.057  1.00  0.00    -0.215 NA
ATOM      5  C   UNL     1      44.513  25.543  26.370  1.00  0.00     0.226 A 
ATOM      6  N   UNL     1      43.546  26.033  27.212  1.00  0.00    -0.217 NA
ATOM      7  C   UNL     1      42.592  26.907  26.771  1.00  0.00     0.152 A 
ATOM      8  C   UNL     1      42.640  27.284  25.431  1.00  0.00     0.127 A 
ATOM      9  N   UNL     1      41.853  28.110  24.731  1.00  0.00    -0.340 N 
ATOM     10  H   UNL     1      41.023  28.652  25.056  1.00  0.00     0.168 HD
ENDROOT
BRANCH   7  11
ATOM     11  N   UNL     1      41.596  27.403  27.665  1.00  0.00    -0.382 N 
ATOM     12  H   UNL     1      41.744  28.280  28.213  1.00  0.00     0.158 HD
ATOM     13  H   UNL     1      40.697  26.886  27.784  1.00  0.00     0.158 HD
ENDBRANCH   7  11
TORSDOF 1
ENDMDL
MODEL 3
REMARK VINA RESULT:    -4.041      1.477      2.338
REMARK INTER + INTRA:          -4.159
REMARK INTER:                  -4.159
REMARK INTRA:                   0.000
REMARK UNBOUND:                 0.000
REMARK SMILES Nc1ncnc2nc[nH]c12
REMARK SMILES IDX 8 1 7 2 6 3 5 4 4 5 3 6 2 7 10 8 9 9 1 11
REMARK H PARENT 9 10 1 12 1 13
REMARK Flexibility Score: inf
ROOT
ATOM      1  C   UNL     1      44.623  25.532  26.598  1.00  0.00     0.199 A 
ATOM      2  N   UNL     1      44.591  26.003  25.321  1.00  0.00    -0.217 NA
ATOM      3  C   UNL     1      43.509  26.800  25.339  1.00  0.00     0.182 A 
ATOM      4  N   UNL     1      43.022  27.525  24.303  1.00  0.00    -0.215 NA
ATOM      5  C   UNL     1      41.903  28.281  24.514  1.00  0.00     0.226 A 
ATOM      6  N   UNL     1      41.298  28.300  25.745  1.00  0.00    -0.217 NA
ATOM      7  C   UNL     1      41.788  27.571  26.792  1.00  0.00     0.152 A 
ATOM      8  C   UNL     1      42.927  26.805  26.560  1.00  0.00     0.127 A 
ATOM      9  N   UNL     1      43.620  26.004  27.380  1.00  0.00    -0.340 N 
ATOM     10  H   UNL     1      43.440  25.786  28.385  1.00  0.00     0.168 HD
ENDROOT
BRANCH   7  11
ATOM     11  N   UNL     1      41.141  27.606  28.064  1.00  0.00    -0.382 N 
ATOM     12  H   UNL     1      40.444  26.880  28.340  1.00  0.00     0.158 HD
ATOM     13  H   UNL     1      41.361  28.369  28.741  1.00  0.00     0.158 HD
ENDBRANCH   7  11
TORSDOF 1
ENDMDL
MODEL 4
REMARK VINA RESULT:    -3.991      1.287      3.050
REMARK INTER + INTRA:          -4.108
REMARK INTER:                  -4.108
REMARK INTRA:                   0.000
REMARK UNBOUND:                 0.000
REMARK SMILES Nc1ncnc2nc[nH]c12
REMARK SMILES IDX 8 1 7 2 6 3 5 4 4 5 3 6 2 7 10 8 9 9 1 11
REMARK H PARENT 9 10 1 12 1 13
REMARK Flexibility Score: inf
ROOT
ATOM      1  C   UNL     1      42.900  30.190  25.973  1.00  0.00     0.199 A 
ATOM      2  N   UNL     1      41.775  29.424  26.035  1.00  0.00    -0.217 NA
ATOM      3  C   UNL     1      42.269  28.222  26.376  1.00  0.00     0.182 A 
ATOM      4  N   UNL     1      41.561  27.084  26.571  1.00  0.00    -0.215 NA
ATOM      5  C   UNL     1      42.244  25.950  26.915  1.00  0.00     0.226 A 
ATOM      6  N   UNL     1      43.608  25.976  27.057  1.00  0.00    -0.217 NA
ATOM      7  C   UNL     1      44.324  27.123  26.861  1.00  0.00     0.152 A 
ATOM      8  C   UNL     1      43.614  28.268  26.510  1.00  0.00     0.127 A 
ATOM      9  N   UNL     1      44.039  29.513  26.259  1.00  0.00    -0.340 N 
ATOM     10  H   UNL     1      45.014  29.885  26.276  1.00  0.00     0.168 HD
ENDROOT
BRANCH   7  11
ATOM     11  N   UNL     1      45.744  27.125  27.014  1.00  0.00    -0.382 N 
ATOM     12  H   UNL     1      46.344  27.818  26.515  1.00  0.00     0.158 HD
ATOM     13  H   UNL     1      46.203  26.423  27.635  1.00  0.00     0.158 HD
ENDBRANCH   7  11
TORSDOF 1
ENDMDL
MODEL 5
REMARK VINA RESULT:    -3.969      1.969      3.129
REMARK INTER + INTRA:          -4.085
REMARK INTER:                  -4.085
REMARK INTRA:                   0.000
REMARK UNBOUND:                 0.000
REMARK SMILES Nc1ncnc2nc[nH]c12
REMARK SMILES IDX 8 1 7 2 6 3 5 4 4 5 3 6 2 7 10 8 9 9 1 11
REMARK H PARENT 9 10 1 12 1 13
REMARK Flexibility Score: inf
ROOT
ATOM      1  C   UNL     1      43.485  28.064  23.050  1.00  0.00     0.199 A 
ATOM      2  N   UNL     1      42.604  28.690  23.878  1.00  0.00    -0.217 NA
ATOM      3  C   UNL     1      42.564  27.857  24.932  1.00  0.00     0.182 A 
ATOM      4  N   UNL     1      41.828  28.013  26.058  1.00  0.00    -0.215 NA
ATOM      5  C   UNL     1      41.918  27.053  27.027  1.00  0.00     0.226 A 
ATOM      6  N   UNL     1      42.737  25.966  26.855  1.00  0.00    -0.217 NA
ATOM      7  C   UNL     1      43.481  25.806  25.720  1.00  0.00     0.152 A 
ATOM      8  C   UNL     1      43.377  26.792  24.742  1.00  0.00     0.127 A 
ATOM      9  N   UNL     1      43.975  26.902  23.549  1.00  0.00    -0.340 N 
ATOM     10  H   UNL     1      44.658  26.254  23.100  1.00  0.00     0.168 HD
ENDROOT
BRANCH   7  11
ATOM     11  N   UNL     1      44.326  24.666  25.563  1.00  0.00    -0.382 N 
ATOM     12  H   UNL     1      45.045  24.418  26.278  1.00  0.00     0.158 HD
ATOM     13  H   UNL     1      44.233  24.059  24.718  1.00  0.00     0.158 HD
ENDBRANCH   7  11
TORSDOF 1
ENDMDL
MODEL 6
REMARK VINA RESULT:    -3.956      1.540      3.578
REMARK INTER + INTRA:          -4.072
REMARK INTER:                  -4.072
REMARK INTRA:                   0.000
REMARK UNBOUND:                 0.000
REMARK SMILES Nc1ncnc2nc[nH]c12
REMARK SMILES IDX 8 1 7 2 6 3 5 4 4 5 3 6 2 7 10 8 9 9 1 11
REMARK H PARENT 9 10 1 12 1 13
REMARK Flexibility Score: inf
ROOT
ATOM      1  C   UNL     1      41.160  27.771  27.403  1.00  0.00     0.199 A 
ATOM      2  N   UNL     1      41.185  28.392  26.191  1.00  0.00    -0.217 NA
ATOM      3  C   UNL     1      42.152  27.718  25.546  1.00  0.00     0.182 A 
ATOM      4  N   UNL     1      42.585  27.939  24.282  1.00  0.00    -0.215 NA
ATOM      5  C   UNL     1      43.587  27.146  23.794  1.00  0.00     0.226 A 
ATOM      6  N   UNL     1      44.131  26.156  24.573  1.00  0.00    -0.217 NA
ATOM      7  C   UNL     1      43.695  25.931  25.848  1.00  0.00     0.152 A 
ATOM      8  C   UNL     1      42.676  26.748  26.330  1.00  0.00     0.127 A 
ATOM      9  N   UNL     1      42.059  26.762  27.518  1.00  0.00    -0.340 N 
ATOM     10  H   UNL     1      42.222  26.146  28.345  1.00  0.00     0.168 HD
ENDROOT
BRANCH   7  11
ATOM     11  N   UNL     1      44.277  24.895  26.639  1.00  0.00    -0.382 N 
ATOM     12  H   UNL     1      44.934  24.197  26.225  1.00  0.00     0.158 HD
ATOM     13  H   UNL     1      44.048  24.822  27.655  1.00  0.00     0.158 HD
ENDBRANCH   7  11
TORSDOF 1
ENDMDL
MODEL 7
REMARK VINA RESULT:    -3.936      1.573      3.297
REMARK INTER + INTRA:          -4.051
REMARK INTER:                  -4.051
REMARK INTRA:                   0.000
REMARK UNBOUND:                 0.000
REMARK SMILES Nc1ncnc2nc[nH]c12
REMARK SMILES IDX 8 1 7 2 6 3 5 4 4 5 3 6 2 7 10 8 9 9 1 11
REMARK H PARENT 9 10 1 12 1 13
REMARK Flexibility Score: inf
ROOT
ATOM      1  C   UNL     1      40.893  27.964  26.366  1.00  0.00     0.199 A 
ATOM      2  N   UNL     1      41.573  27.349  27.373  1.00  0.00    -0.217 NA
ATOM      3  C   UNL     1      42.623  26.818  26.724  1.00  0.00     0.182 A 
ATOM      4  N   UNL     1      43.625  26.088  27.270  1.00  0.00    -0.215 NA
ATOM      5  C   UNL     1      44.613  25.629  26.444  1.00  0.00     0.226 A 
ATOM      6  N   UNL     1      44.581  25.905  25.101  1.00  0.00    -0.217 NA
ATOM      7  C   UNL     1      43.571  26.641  24.548  1.00  0.00     0.152 A 
ATOM      8  C   UNL     1      42.572  27.101  25.403  1.00  0.00     0.127 A 
ATOM      9  N   UNL     1      41.479  27.831  25.150  1.00  0.00    -0.340 N 
ATOM     10  H   UNL     1      41.146  28.214  24.238  1.00  0.00     0.168 HD
ENDROOT
BRANCH   7  11
ATOM     11  N   UNL     1      43.559  26.916  23.147  1.00  0.00    -0.382 N 
ATOM     12  H   UNL     1      43.733  27.878  22.780  1.00  0.00     0.158 HD
ATOM     13  H   UNL     1      43.374  26.147  22.465  1.00  0.00     0.158 HD
ENDBRANCH   7  11
TORSDOF 1
ENDMDL
MODEL 8
REMARK VINA RESULT:    -3.872     10.058     10.668
REMARK INTER + INTRA:          -3.985
REMARK INTER:                  -3.985
REMARK INTRA:                   0.000
REMARK UNBOUND:                 0.000
REMARK SMILES Nc1ncnc2nc[nH]c12
REMARK SMILES IDX 8 1 7 2 6 3 5 4 4 5 3 6 2 7 10 8 9 9 1 11
REMARK H PARENT 9 10 1 12 1 13
REMARK Flexibility Score: inf
ROOT
ATOM      1  C   UNL     1      43.759  27.877  35.951  1.00  0.00     0.199 A 
ATOM      2  N   UNL     1      42.556  28.514  35.923  1.00  0.00    -0.217 NA
ATOM      3  C   UNL     1      42.876  29.745  36.357  1.00  0.00     0.182 A 
ATOM      4  N   UNL     1      42.029  30.790  36.519  1.00  0.00    -0.215 NA
ATOM      5  C   UNL     1      42.543  31.973  36.975  1.00  0.00     0.226 A 
ATOM      6  N   UNL     1      43.881  32.087  37.256  1.00  0.00    -0.217 NA
ATOM      7  C   UNL     1      44.737  31.035  37.092  1.00  0.00     0.152 A 
ATOM      8  C   UNL     1      44.197  29.837  36.629  1.00  0.00     0.127 A 
ATOM      9  N   UNL     1      44.782  28.659  36.377  1.00  0.00    -0.340 N 
ATOM     10  H   UNL     1      45.786  28.393  36.481  1.00  0.00     0.168 HD
ENDROOT
BRANCH   7  11
ATOM     11  N   UNL     1      46.125  31.178  37.392  1.00  0.00    -0.382 N 
ATOM     12  H   UNL     1      46.850  30.614  36.896  1.00  0.00     0.158 HD
ATOM     13  H   UNL     1      46.435  31.858  38.121  1.00  0.00     0.158 HD
ENDBRANCH   7  11
TORSDOF 1
ENDMDL
MODEL 9
REMARK VINA RESULT:    -3.762      1.980      2.271
REMARK INTER + INTRA:          -3.872
REMARK INTER:                  -3.872
REMARK INTRA:                   0.000
REMARK UNBOUND:                 0.000
REMARK SMILES Nc1ncnc2nc[nH]c12
REMARK SMILES IDX 8 1 7 2 6 3 5 4 4 5 3 6 2 7 10 8 9 9 1 11
REMARK H PARENT 9 10 1 12 1 13
REMARK Flexibility Score: inf
ROOT
ATOM      1  C   UNL     1      44.635  25.694  26.189  1.00  0.00     0.199 A 
ATOM      2  N   UNL     1      43.768  26.328  27.026  1.00  0.00    -0.217 NA
ATOM      3  C   UNL     1      43.059  27.091  26.178  1.00  0.00     0.182 A 
ATOM      4  N   UNL     1      42.048  27.933  26.500  1.00  0.00    -0.215 NA
ATOM      5  C   UNL     1      41.442  28.631  25.492  1.00  0.00     0.226 A 
ATOM      6  N   UNL     1      41.854  28.474  24.193  1.00  0.00    -0.217 NA
ATOM      7  C   UNL     1      42.872  27.624  23.865  1.00  0.00     0.152 A 
ATOM      8  C   UNL     1      43.479  26.922  24.903  1.00  0.00     0.127 A 
ATOM      9  N   UNL     1      44.483  26.036  24.885  1.00  0.00    -0.340 N 
ATOM     10  H   UNL     1      45.028  25.684  24.067  1.00  0.00     0.168 HD
ENDROOT
BRANCH   7  11
ATOM     11  N   UNL     1      43.283  27.477  22.506  1.00  0.00    -0.382 N 
ATOM     12  H   UNL     1      43.192  26.566  22.005  1.00  0.00     0.158 HD
ATOM     13  H   UNL     1      43.685  28.291  21.990  1.00  0.00     0.158 HD
ENDBRANCH   7  11
TORSDOF 1
ENDMDL
