MODEL 1
REMARK VINA RESULT:     2.963      0.000      0.000
REMARK INTER + INTRA:           3.476
REMARK INTER:                   3.569
REMARK INTRA:                  -0.093
REMARK UNBOUND:                -0.093
REMARK SMILES Oc1cc(O)c2c(c1)O[C@H](c1ccc(O)c(O)c1)[C@H](O)C2
REMARK SMILES IDX 21 1 19 2 10 3 9 4 7 5 8 6 2 7 3 8 4 9 6 10 20 11 11 13
REMARK SMILES IDX 18 14 12 15 16 16 13 17 14 18 17 19 15 21 5 23 1 25
REMARK H PARENT 20 12 17 20 15 22 5 24 1 26
REMARK Flexibility Score: inf
ROOT
ATOM      1  C   UNL     1     161.580 145.459 169.927  1.00  0.00     0.079 C 
ATOM      2  C   UNL     1     162.063 145.789 171.349  1.00  0.00     0.164 C 
ATOM      3  C   UNL     1     161.414 144.809 172.349  1.00  0.00     0.232 C 
ATOM      4  O   UNL     1     159.990 144.871 172.245  1.00  0.00    -0.482 OA
ATOM      5  C   UNL     1     159.339 145.030 171.016  1.00  0.00     0.131 A 
ATOM      6  C   UNL     1     157.948 144.902 170.955  1.00  0.00     0.093 A 
ATOM      7  C   UNL     1     157.279 145.055 169.735  1.00  0.00     0.122 A 
ATOM      8  C   UNL     1     158.006 145.336 168.574  1.00  0.00     0.092 A 
ATOM      9  C   UNL     1     159.401 145.474 168.624  1.00  0.00     0.126 A 
ATOM     10  C   UNL     1     160.073 145.340 169.853  1.00  0.00     0.039 A 
ENDROOT
BRANCH   2  11
ATOM     11  O   UNL     1     161.714 147.115 171.656  1.00  0.00    -0.389 OA
ATOM     12  H   UNL     1     160.920 147.078 172.250  1.00  0.00     0.211 HD
ENDBRANCH   2  11
BRANCH   3  13
ATOM     13  C   UNL     1     161.857 145.084 173.768  1.00  0.00    -0.001 A 
ATOM     14  C   UNL     1     163.063 145.757 174.032  1.00  0.00     0.057 A 
ATOM     15  C   UNL     1     161.090 144.607 174.843  1.00  0.00     0.012 A 
ATOM     16  C   UNL     1     163.483 145.975 175.349  1.00  0.00     0.157 A 
ATOM     17  C   UNL     1     161.506 144.824 176.159  1.00  0.00     0.050 A 
ATOM     18  C   UNL     1     162.701 145.509 176.419  1.00  0.00     0.157 A 
BRANCH  16  19
ATOM     19  O   UNL     1     164.681 146.653 175.574  1.00  0.00    -0.504 OA
ATOM     20  H   UNL     1     165.263 146.463 176.381  1.00  0.00     0.293 HD
ENDBRANCH  16  19
BRANCH  18  21
ATOM     21  O   UNL     1     163.112 145.725 177.733  1.00  0.00    -0.504 OA
ATOM     22  H   UNL     1     163.339 146.653 178.073  1.00  0.00     0.293 HD
ENDBRANCH  18  21
ENDBRANCH   3  13
BRANCH   9  23
ATOM     23  O   UNL     1     160.118 145.741 167.458  1.00  0.00    -0.507 OA
ATOM     24  H   UNL     1     161.043 145.358 167.304  1.00  0.00     0.293 HD
ENDBRANCH   9  23
BRANCH   7  25
ATOM     25  O   UNL     1     155.894 144.927 169.664  1.00  0.00    -0.508 OA
ATOM     26  H   UNL     1     155.361 145.347 168.911  1.00  0.00     0.293 HD
ENDBRANCH   7  25
TORSDOF 6
ENDMDL
MODEL 2
REMARK VINA RESULT:     3.612      2.070      2.562
REMARK INTER + INTRA:           4.258
REMARK INTER:                   4.387
REMARK INTRA:                  -0.129
REMARK UNBOUND:                -0.093
REMARK SMILES Oc1cc(O)c2c(c1)O[C@H](c1ccc(O)c(O)c1)[C@H](O)C2
REMARK SMILES IDX 21 1 19 2 10 3 9 4 7 5 8 6 2 7 3 8 4 9 6 10 20 11 11 13
REMARK SMILES IDX 18 14 12 15 16 16 13 17 14 18 17 19 15 21 5 23 1 25
REMARK H PARENT 20 12 17 20 15 22 5 24 1 26
REMARK Flexibility Score: inf
ROOT
ATOM      1  C   UNL     1     160.022 145.000 170.477  1.00  0.00     0.079 C 
ATOM      2  C   UNL     1     160.770 144.659 171.776  1.00  0.00     0.164 C 
ATOM      3  C   UNL     1     160.159 145.462 172.944  1.00  0.00     0.232 C 
ATOM      4  O   UNL     1     160.204 146.861 172.657  1.00  0.00    -0.482 OA
ATOM      5  C   UNL     1     159.981 147.364 171.370  1.00  0.00     0.131 A 
ATOM      6  C   UNL     1     159.859 148.745 171.185  1.00  0.00     0.093 A 
ATOM      7  C   UNL     1     159.635 149.268 169.906  1.00  0.00     0.122 A 
ATOM      8  C   UNL     1     159.531 148.405 168.810  1.00  0.00     0.092 A 
ATOM      9  C   UNL     1     159.660 147.020 168.982  1.00  0.00     0.126 A 
ATOM     10  C   UNL     1     159.905 146.493 170.263  1.00  0.00     0.039 A 
ENDROOT
BRANCH   2  11
ATOM     11  O   UNL     1     162.131 144.973 171.617  1.00  0.00    -0.389 OA
ATOM     12  H   UNL     1     162.396 144.672 170.709  1.00  0.00     0.211 HD
ENDBRANCH   2  11
BRANCH   3  13
ATOM     13  C   UNL     1     160.855 145.163 174.252  1.00  0.00    -0.001 A 
ATOM     14  C   UNL     1     162.058 145.806 174.595  1.00  0.00     0.057 A 
ATOM     15  C   UNL     1     160.333 144.184 175.113  1.00  0.00     0.012 A 
ATOM     16  C   UNL     1     162.714 145.497 175.792  1.00  0.00     0.157 A 
ATOM     17  C   UNL     1     160.985 143.875 176.309  1.00  0.00     0.050 A 
ATOM     18  C   UNL     1     162.175 144.529 176.654  1.00  0.00     0.157 A 
BRANCH  16  19
ATOM     19  O   UNL     1     163.902 146.160 176.103  1.00  0.00    -0.504 OA
ATOM     20  H   UNL     1     164.090 147.103 175.785  1.00  0.00     0.293 HD
ENDBRANCH  16  19
BRANCH  18  21
ATOM     21  O   UNL     1     162.823 144.218 177.849  1.00  0.00    -0.504 OA
ATOM     22  H   UNL     1     163.449 144.875 178.301  1.00  0.00     0.293 HD
ENDBRANCH  18  21
ENDBRANCH   3  13
BRANCH   9  23
ATOM     23  O   UNL     1     159.542 146.167 167.884  1.00  0.00    -0.507 OA
ATOM     24  H   UNL     1     160.310 146.020 167.241  1.00  0.00     0.293 HD
ENDBRANCH   9  23
BRANCH   7  25
ATOM     25  O   UNL     1     159.509 150.642 169.713  1.00  0.00    -0.508 OA
ATOM     26  H   UNL     1     160.315 151.226 169.524  1.00  0.00     0.293 HD
ENDBRANCH   7  25
TORSDOF 6
ENDMDL
MODEL 3
REMARK VINA RESULT:     3.692      1.606      6.780
REMARK INTER + INTRA:           4.354
REMARK INTER:                   4.410
REMARK INTRA:                  -0.055
REMARK UNBOUND:                -0.093
REMARK SMILES Oc1cc(O)c2c(c1)O[C@H](c1ccc(O)c(O)c1)[C@H](O)C2
REMARK SMILES IDX 21 1 19 2 10 3 9 4 7 5 8 6 2 7 3 8 4 9 6 10 20 11 11 13
REMARK SMILES IDX 18 14 12 15 16 16 13 17 14 18 17 19 15 21 5 23 1 25
REMARK H PARENT 20 12 17 20 15 22 5 24 1 26
REMARK Flexibility Score: inf
ROOT
ATOM      1  C   UNL     1     162.592 146.562 172.416  1.00  0.00     0.079 C 
ATOM      2  C   UNL     1     162.048 146.123 171.047  1.00  0.00     0.164 C 
ATOM      3  C   UNL     1     160.506 146.187 171.066  1.00  0.00     0.232 C 
ATOM      4  O   UNL     1     159.992 145.378 172.125  1.00  0.00    -0.482 OA
ATOM      5  C   UNL     1     160.627 145.288 173.369  1.00  0.00     0.131 A 
ATOM      6  C   UNL     1     159.985 144.627 174.421  1.00  0.00     0.093 A 
ATOM      7  C   UNL     1     160.604 144.529 175.673  1.00  0.00     0.122 A 
ATOM      8  C   UNL     1     161.867 145.093 175.871  1.00  0.00     0.092 A 
ATOM      9  C   UNL     1     162.524 145.751 174.821  1.00  0.00     0.126 A 
ATOM     10  C   UNL     1     161.914 145.835 173.557  1.00  0.00     0.039 A 
ENDROOT
BRANCH   2  11
ATOM     11  O   UNL     1     162.487 144.815 170.777  1.00  0.00    -0.389 OA
ATOM     12  H   UNL     1     161.677 144.260 170.628  1.00  0.00     0.211 HD
ENDBRANCH   2  11
BRANCH   3  13
ATOM     13  C   UNL     1     159.913 145.769 169.740  1.00  0.00    -0.001 A 
ATOM     14  C   UNL     1     160.684 145.789 168.563  1.00  0.00     0.057 A 
ATOM     15  C   UNL     1     158.556 145.415 169.662  1.00  0.00     0.012 A 
ATOM     16  C   UNL     1     160.116 145.434 167.334  1.00  0.00     0.157 A 
ATOM     17  C   UNL     1     157.988 145.059 168.437  1.00  0.00     0.050 A 
ATOM     18  C   UNL     1     158.763 145.066 167.270  1.00  0.00     0.157 A 
BRANCH  16  19
ATOM     19  O   UNL     1     160.913 145.459 166.189  1.00  0.00    -0.504 OA
ATOM     20  H   UNL     1     161.043 144.640 165.607  1.00  0.00     0.293 HD
ENDBRANCH  16  19
BRANCH  18  21
ATOM     21  O   UNL     1     158.192 144.709 166.048  1.00  0.00    -0.504 OA
ATOM     22  H   UNL     1     157.195 144.785 165.886  1.00  0.00     0.293 HD
ENDBRANCH  18  21
ENDBRANCH   3  13
BRANCH   9  23
ATOM     23  O   UNL     1     163.779 146.323 175.033  1.00  0.00    -0.507 OA
ATOM     24  H   UNL     1     164.465 145.888 175.639  1.00  0.00     0.293 HD
ENDBRANCH   9  23
BRANCH   7  25
ATOM     25  O   UNL     1     159.970 143.875 176.728  1.00  0.00    -0.508 OA
ATOM     26  H   UNL     1     159.074 144.188 177.083  1.00  0.00     0.293 HD
ENDBRANCH   7  25
TORSDOF 6
ENDMDL
