MODEL 1
REMARK VINA RESULT:    -5.340      0.000      0.000
REMARK INTER + INTRA:          -7.462
REMARK INTER:                  -6.589
REMARK INTRA:                  -0.873
REMARK UNBOUND:                -0.873
REMARK SMILES C=C(CCC=C(C)C)[C@H]1CC=C(C)CC1
REMARK SMILES IDX 3 1 2 2 1 3 9 4 13 5 12 6 11 7 14 8 10 9 15 10 4 11 5 12
REMARK SMILES IDX 6 13 7 14 8 15
REMARK H PARENT
REMARK Flexibility Score: inf
ROOT
ATOM      1  C   UNL     1     142.364 137.533 133.007  1.00  0.00     0.035 C 
ENDROOT
BRANCH   1   2
ATOM      2  C   UNL     1     143.149 138.625 133.699  1.00  0.00    -0.074 C 
ATOM      3  C   UNL     1     143.208 138.641 135.043  1.00  0.00     0.008 C 
BRANCH   2   4
ATOM      4  C   UNL     1     143.867 139.684 132.875  1.00  0.00     0.018 C 
ATOM      5  C   UNL     1     144.954 143.610 131.434  1.00  0.00     0.039 C 
ATOM      6  C   UNL     1     144.248 142.438 132.055  1.00  0.00    -0.077 C 
ATOM      7  C   UNL     1     143.537 141.594 131.288  1.00  0.00    -0.027 C 
ATOM      8  C   UNL     1     144.353 142.151 133.535  1.00  0.00     0.031 C 
ATOM      9  C   UNL     1     142.879 140.398 131.920  1.00  0.00     0.035 C 
ATOM     10  C   UNL     1     144.687 140.667 133.775  1.00  0.00     0.013 C 
ENDBRANCH   2   4
ENDBRANCH   1   2
BRANCH   1  11
ATOM     11  C   UNL     1     141.075 137.223 133.774  1.00  0.00     0.032 C 
BRANCH  11  12
ATOM     12  C   UNL     1     139.922 138.029 133.231  1.00  0.00    -0.028 C 
ATOM     13  C   UNL     1     139.079 138.763 133.990  1.00  0.00    -0.080 C 
ATOM     14  C   UNL     1     137.993 139.550 133.303  1.00  0.00     0.039 C 
ATOM     15  C   UNL     1     139.185 138.801 135.497  1.00  0.00     0.039 C 
ENDBRANCH  11  12
ENDBRANCH   1  11
TORSDOF 4
ENDMDL
MODEL 2
REMARK VINA RESULT:    -5.330      2.777      4.584
REMARK INTER + INTRA:          -7.449
REMARK INTER:                  -6.534
REMARK INTRA:                  -0.915
REMARK UNBOUND:                -0.873
REMARK SMILES C=C(CCC=C(C)C)[C@H]1CC=C(C)CC1
REMARK SMILES IDX 3 1 2 2 1 3 9 4 13 5 12 6 11 7 14 8 10 9 15 10 4 11 5 12
REMARK SMILES IDX 6 13 7 14 8 15
REMARK H PARENT
REMARK Flexibility Score: inf
ROOT
ATOM      1  C   UNL     1     144.738 142.102 132.865  1.00  0.00     0.035 C 
ENDROOT
BRANCH   1   2
ATOM      2  C   UNL     1     143.675 142.917 133.568  1.00  0.00    -0.074 C 
ATOM      3  C   UNL     1     143.678 142.984 134.911  1.00  0.00     0.008 C 
BRANCH   2   4
ATOM      4  C   UNL     1     142.622 143.655 132.753  1.00  0.00     0.018 C 
ATOM      5  C   UNL     1     138.705 144.944 131.464  1.00  0.00     0.039 C 
ATOM      6  C   UNL     1     139.858 144.194 132.069  1.00  0.00    -0.077 C 
ATOM      7  C   UNL     1     140.595 143.364 131.312  1.00  0.00    -0.027 C 
ATOM      8  C   UNL     1     140.247 144.385 133.517  1.00  0.00     0.031 C 
ATOM      9  C   UNL     1     141.776 142.660 131.922  1.00  0.00     0.035 C 
ATOM     10  C   UNL     1     141.764 144.615 133.642  1.00  0.00     0.013 C 
ENDBRANCH   2   4
ENDBRANCH   1   2
BRANCH   1  11
ATOM     11  C   UNL     1     145.011 140.799 133.624  1.00  0.00     0.032 C 
BRANCH  11  12
ATOM     12  C   UNL     1     144.051 139.718 133.194  1.00  0.00    -0.028 C 
ATOM     13  C   UNL     1     143.318 138.966 134.044  1.00  0.00    -0.080 C 
ATOM     14  C   UNL     1     142.369 137.947 133.467  1.00  0.00     0.039 C 
ATOM     15  C   UNL     1     143.436 139.107 135.544  1.00  0.00     0.039 C 
ENDBRANCH  11  12
ENDBRANCH   1  11
TORSDOF 4
ENDMDL
MODEL 3
REMARK VINA RESULT:    -5.319      2.981      6.655
REMARK INTER + INTRA:          -7.435
REMARK INTER:                  -6.503
REMARK INTRA:                  -0.932
REMARK UNBOUND:                -0.873
REMARK SMILES C=C(CCC=C(C)C)[C@H]1CC=C(C)CC1
REMARK SMILES IDX 3 1 2 2 1 3 9 4 13 5 12 6 11 7 14 8 10 9 15 10 4 11 5 12
REMARK SMILES IDX 6 13 7 14 8 15
REMARK H PARENT
REMARK Flexibility Score: inf
ROOT
ATOM      1  C   UNL     1     140.052 144.747 132.909  1.00  0.00     0.035 C 
ENDROOT
BRANCH   1   2
ATOM      2  C   UNL     1     139.264 143.653 133.595  1.00  0.00    -0.074 C 
ATOM      3  C   UNL     1     139.207 143.627 134.939  1.00  0.00     0.008 C 
BRANCH   2   4
ATOM      4  C   UNL     1     138.540 142.604 132.764  1.00  0.00     0.018 C 
ATOM      5  C   UNL     1     137.283 138.691 131.429  1.00  0.00     0.039 C 
ATOM      6  C   UNL     1     138.021 139.843 132.051  1.00  0.00    -0.077 C 
ATOM      7  C   UNL     1     138.856 140.590 131.309  1.00  0.00    -0.027 C 
ATOM      8  C   UNL     1     137.813 140.219 133.500  1.00  0.00     0.031 C 
ATOM      9  C   UNL     1     139.548 141.769 131.937  1.00  0.00     0.035 C 
ATOM     10  C   UNL     1     137.574 141.735 133.635  1.00  0.00     0.013 C 
ENDBRANCH   2   4
ENDBRANCH   1   2
BRANCH   1  11
ATOM     11  C   UNL     1     141.368 145.011 133.649  1.00  0.00     0.032 C 
BRANCH  11  12
ATOM     12  C   UNL     1     142.469 144.129 133.114  1.00  0.00    -0.028 C 
ATOM     13  C   UNL     1     143.241 143.326 133.877  1.00  0.00    -0.080 C 
ATOM     14  C   UNL     1     144.280 142.470 133.198  1.00  0.00     0.039 C 
ATOM     15  C   UNL     1     143.106 143.277 135.382  1.00  0.00     0.039 C 
ENDBRANCH  11  12
ENDBRANCH   1  11
TORSDOF 4
ENDMDL
MODEL 4
REMARK VINA RESULT:    -5.314      2.868      4.763
REMARK INTER + INTRA:          -7.430
REMARK INTER:                  -6.561
REMARK INTRA:                  -0.868
REMARK UNBOUND:                -0.873
REMARK SMILES C=C(CCC=C(C)C)[C@H]1CC=C(C)CC1
REMARK SMILES IDX 3 1 2 2 1 3 9 4 13 5 12 6 11 7 14 8 10 9 15 10 4 11 5 12
REMARK SMILES IDX 6 13 7 14 8 15
REMARK H PARENT
REMARK Flexibility Score: inf
ROOT
ATOM      1  C   UNL     1     137.535 139.882 132.922  1.00  0.00     0.035 C 
ENDROOT
BRANCH   1   2
ATOM      2  C   UNL     1     138.617 139.106 133.639  1.00  0.00    -0.074 C 
ATOM      3  C   UNL     1     138.619 139.070 134.984  1.00  0.00     0.008 C 
BRANCH   2   4
ATOM      4  C   UNL     1     139.683 138.372 132.838  1.00  0.00     0.018 C 
ATOM      5  C   UNL     1     143.622 137.242 131.467  1.00  0.00     0.039 C 
ATOM      6  C   UNL     1     142.446 137.963 132.062  1.00  0.00    -0.077 C 
ATOM      7  C   UNL     1     141.617 138.670 131.275  1.00  0.00    -0.027 C 
ATOM      8  C   UNL     1     142.137 137.877 133.539  1.00  0.00     0.031 C 
ATOM      9  C   UNL     1     140.417 139.344 131.882  1.00  0.00     0.035 C 
ATOM     10  C   UNL     1     140.647 137.556 133.762  1.00  0.00     0.013 C 
ENDBRANCH   2   4
ENDBRANCH   1   2
BRANCH   1  11
ATOM     11  C   UNL     1     137.216 141.182 133.667  1.00  0.00     0.032 C 
BRANCH  11  12
ATOM     12  C   UNL     1     137.986 142.338 133.080  1.00  0.00    -0.028 C 
ATOM     13  C   UNL     1     138.742 143.195 133.800  1.00  0.00    -0.080 C 
ATOM     14  C   UNL     1     139.488 144.283 133.071  1.00  0.00     0.039 C 
ATOM     15  C   UNL     1     138.843 143.104 135.305  1.00  0.00     0.039 C 
ENDBRANCH  11  12
ENDBRANCH   1  11
TORSDOF 4
ENDMDL
MODEL 5
REMARK VINA RESULT:    -5.276      3.462      6.638
REMARK INTER + INTRA:          -7.382
REMARK INTER:                  -5.841
REMARK INTRA:                  -1.541
REMARK UNBOUND:                -0.873
REMARK SMILES C=C(CCC=C(C)C)[C@H]1CC=C(C)CC1
REMARK SMILES IDX 3 1 2 2 1 3 9 4 13 5 12 6 11 7 14 8 10 9 15 10 4 11 5 12
REMARK SMILES IDX 6 13 7 14 8 15
REMARK H PARENT
REMARK Flexibility Score: inf
ROOT
ATOM      1  C   UNL     1     141.402 145.008 133.383  1.00  0.00     0.035 C 
ENDROOT
BRANCH   1   2
ATOM      2  C   UNL     1     140.142 144.387 132.823  1.00  0.00    -0.074 C 
ATOM      3  C   UNL     1     139.997 144.282 131.489  1.00  0.00     0.008 C 
BRANCH   2   4
ATOM      4  C   UNL     1     139.059 143.884 133.766  1.00  0.00     0.018 C 
ATOM      5  C   UNL     1     137.122 141.357 136.688  1.00  0.00     0.039 C 
ATOM      6  C   UNL     1     138.018 141.909 135.615  1.00  0.00    -0.077 C 
ATOM      7  C   UNL     1     137.609 141.922 134.335  1.00  0.00    -0.027 C 
ATOM      8  C   UNL     1     139.368 142.502 135.946  1.00  0.00     0.031 C 
ATOM      9  C   UNL     1     138.498 142.524 133.281  1.00  0.00     0.035 C 
ATOM     10  C   UNL     1     139.543 143.866 135.254  1.00  0.00     0.013 C 
ENDBRANCH   2   4
ENDBRANCH   1   2
BRANCH   1  11
ATOM     11  C   UNL     1     142.626 144.153 133.039  1.00  0.00     0.032 C 
BRANCH  11  12
ATOM     12  C   UNL     1     143.171 143.477 134.272  1.00  0.00    -0.028 C 
ATOM     13  C   UNL     1     142.952 142.184 134.594  1.00  0.00    -0.080 C 
ATOM     14  C   UNL     1     143.594 141.634 135.842  1.00  0.00     0.039 C 
ATOM     15  C   UNL     1     142.073 141.287 133.753  1.00  0.00     0.039 C 
ENDBRANCH  11  12
ENDBRANCH   1  11
TORSDOF 4
ENDMDL
MODEL 6
REMARK VINA RESULT:    -5.271      1.821      3.068
REMARK INTER + INTRA:          -7.376
REMARK INTER:                  -5.833
REMARK INTRA:                  -1.543
REMARK UNBOUND:                -0.873
REMARK SMILES C=C(CCC=C(C)C)[C@H]1CC=C(C)CC1
REMARK SMILES IDX 3 1 2 2 1 3 9 4 13 5 12 6 11 7 14 8 10 9 15 10 4 11 5 12
REMARK SMILES IDX 6 13 7 14 8 15
REMARK H PARENT
REMARK Flexibility Score: inf
ROOT
ATOM      1  C   UNL     1     140.796 137.225 133.315  1.00  0.00     0.035 C 
ENDROOT
BRANCH   1   2
ATOM      2  C   UNL     1     142.055 137.864 132.773  1.00  0.00    -0.074 C 
ATOM      3  C   UNL     1     142.200 138.006 131.443  1.00  0.00     0.008 C 
BRANCH   2   4
ATOM      4  C   UNL     1     143.136 138.344 133.730  1.00  0.00     0.018 C 
ATOM      5  C   UNL     1     145.070 140.803 136.710  1.00  0.00     0.039 C 
ATOM      6  C   UNL     1     144.177 140.277 135.623  1.00  0.00    -0.077 C 
ATOM      7  C   UNL     1     144.590 140.288 134.344  1.00  0.00    -0.027 C 
ATOM      8  C   UNL     1     142.823 139.682 135.936  1.00  0.00     0.031 C 
ATOM      9  C   UNL     1     143.703 139.711 133.275  1.00  0.00     0.035 C 
ATOM     10  C   UNL     1     142.646 138.333 135.216  1.00  0.00     0.013 C 
ENDBRANCH   2   4
ENDBRANCH   1   2
BRANCH   1  11
ATOM     11  C   UNL     1     139.571 138.090 133.001  1.00  0.00     0.032 C 
BRANCH  11  12
ATOM     12  C   UNL     1     139.033 138.732 134.255  1.00  0.00    -0.028 C 
ATOM     13  C   UNL     1     139.248 140.018 134.606  1.00  0.00    -0.080 C 
ATOM     14  C   UNL     1     138.614 140.534 135.872  1.00  0.00     0.039 C 
ATOM     15  C   UNL     1     140.115 140.940 133.780  1.00  0.00     0.039 C 
ENDBRANCH  11  12
ENDBRANCH   1  11
TORSDOF 4
ENDMDL
MODEL 7
REMARK VINA RESULT:    -5.263      2.942      6.031
REMARK INTER + INTRA:          -7.367
REMARK INTER:                  -5.848
REMARK INTRA:                  -1.519
REMARK UNBOUND:                -0.873
REMARK SMILES C=C(CCC=C(C)C)[C@H]1CC=C(C)CC1
REMARK SMILES IDX 3 1 2 2 1 3 9 4 13 5 12 6 11 7 14 8 10 9 15 10 4 11 5 12
REMARK SMILES IDX 6 13 7 14 8 15
REMARK H PARENT
REMARK Flexibility Score: inf
ROOT
ATOM      1  C   UNL     1     137.224 141.450 133.294  1.00  0.00     0.035 C 
ENDROOT
BRANCH   1   2
ATOM      2  C   UNL     1     137.827 140.169 132.760  1.00  0.00    -0.074 C 
ATOM      3  C   UNL     1     137.928 139.994 131.430  1.00  0.00     0.008 C 
BRANCH   2   4
ATOM      4  C   UNL     1     138.318 139.100 133.726  1.00  0.00     0.018 C 
ATOM      5  C   UNL     1     140.825 137.193 136.683  1.00  0.00     0.039 C 
ATOM      6  C   UNL     1     140.283 138.072 135.592  1.00  0.00    -0.077 C 
ATOM      7  C   UNL     1     140.260 137.635 134.321  1.00  0.00    -0.027 C 
ATOM      8  C   UNL     1     139.711 139.438 135.894  1.00  0.00     0.031 C 
ATOM      9  C   UNL     1     139.668 138.509 133.250  1.00  0.00     0.035 C 
ATOM     10  C   UNL     1     138.347 139.618 135.202  1.00  0.00     0.013 C 
ENDBRANCH   2   4
ENDBRANCH   1   2
BRANCH   1  11
ATOM     11  C   UNL     1     138.087 142.656 132.908  1.00  0.00     0.032 C 
BRANCH  11  12
ATOM     12  C   UNL     1     138.764 143.240 134.122  1.00  0.00    -0.028 C 
ATOM     13  C   UNL     1     140.058 143.033 134.448  1.00  0.00    -0.080 C 
ATOM     14  C   UNL     1     140.609 143.715 135.674  1.00  0.00     0.039 C 
ATOM     15  C   UNL     1     140.955 142.130 133.633  1.00  0.00     0.039 C 
ENDBRANCH  11  12
ENDBRANCH   1  11
TORSDOF 4
ENDMDL
MODEL 8
REMARK VINA RESULT:    -5.258      3.134      6.928
REMARK INTER + INTRA:          -7.360
REMARK INTER:                  -6.270
REMARK INTRA:                  -1.090
REMARK UNBOUND:                -0.873
REMARK SMILES C=C(CCC=C(C)C)[C@H]1CC=C(C)CC1
REMARK SMILES IDX 3 1 2 2 1 3 9 4 13 5 12 6 11 7 14 8 10 9 15 10 4 11 5 12
REMARK SMILES IDX 6 13 7 14 8 15
REMARK H PARENT
REMARK Flexibility Score: inf
ROOT
ATOM      1  C   UNL     1     140.046 144.408 134.043  1.00  0.00     0.035 C 
ENDROOT
BRANCH   1   2
ATOM      2  C   UNL     1     139.379 143.784 132.837  1.00  0.00    -0.074 C 
ATOM      3  C   UNL     1     138.985 144.574 131.821  1.00  0.00     0.008 C 
BRANCH   2   4
ATOM      4  C   UNL     1     139.168 142.278 132.780  1.00  0.00     0.018 C 
ATOM      5  C   UNL     1     137.547 138.487 131.488  1.00  0.00     0.039 C 
ATOM      6  C   UNL     1     137.775 139.944 131.772  1.00  0.00    -0.077 C 
ATOM      7  C   UNL     1     137.461 140.456 132.974  1.00  0.00    -0.027 C 
ATOM      8  C   UNL     1     138.401 140.857 130.743  1.00  0.00     0.031 C 
ATOM      9  C   UNL     1     137.743 141.906 133.257  1.00  0.00     0.035 C 
ATOM     10  C   UNL     1     139.531 141.691 131.376  1.00  0.00     0.013 C 
ENDBRANCH   2   4
ENDBRANCH   1   2
BRANCH   1  11
ATOM     11  C   UNL     1     141.374 145.064 133.649  1.00  0.00     0.032 C 
BRANCH  11  12
ATOM     12  C   UNL     1     142.507 144.072 133.736  1.00  0.00    -0.028 C 
ATOM     13  C   UNL     1     143.169 143.574 132.670  1.00  0.00    -0.080 C 
ATOM     14  C   UNL     1     144.309 142.618 132.913  1.00  0.00     0.039 C 
ATOM     15  C   UNL     1     142.790 143.932 131.252  1.00  0.00     0.039 C 
ENDBRANCH  11  12
ENDBRANCH   1  11
TORSDOF 4
ENDMDL
MODEL 9
REMARK VINA RESULT:    -5.258      2.416      4.071
REMARK INTER + INTRA:          -7.360
REMARK INTER:                  -5.830
REMARK INTRA:                  -1.530
REMARK UNBOUND:                -0.873
REMARK SMILES C=C(CCC=C(C)C)[C@H]1CC=C(C)CC1
REMARK SMILES IDX 3 1 2 2 1 3 9 4 13 5 12 6 11 7 14 8 10 9 15 10 4 11 5 12
REMARK SMILES IDX 6 13 7 14 8 15
REMARK H PARENT
REMARK Flexibility Score: inf
ROOT
ATOM      1  C   UNL     1     144.941 140.668 133.468  1.00  0.00     0.035 C 
ENDROOT
BRANCH   1   2
ATOM      2  C   UNL     1     144.368 141.951 132.908  1.00  0.00    -0.074 C 
ATOM      3  C   UNL     1     144.281 142.106 131.575  1.00  0.00     0.008 C 
BRANCH   2   4
ATOM      4  C   UNL     1     143.890 143.045 133.853  1.00  0.00     0.018 C 
ATOM      5  C   UNL     1     141.402 145.043 136.766  1.00  0.00     0.039 C 
ATOM      6  C   UNL     1     141.934 144.136 135.693  1.00  0.00    -0.077 C 
ATOM      7  C   UNL     1     141.967 144.548 134.415  1.00  0.00    -0.027 C 
ATOM      8  C   UNL     1     142.486 142.768 136.023  1.00  0.00     0.031 C 
ATOM      9  C   UNL     1     142.549 143.646 133.362  1.00  0.00     0.035 C 
ATOM     10  C   UNL     1     143.849 142.556 135.338  1.00  0.00     0.013 C 
ENDBRANCH   2   4
ENDBRANCH   1   2
BRANCH   1  11
ATOM     11  C   UNL     1     144.047 139.475 133.114  1.00  0.00     0.032 C 
BRANCH  11  12
ATOM     12  C   UNL     1     143.357 138.940 134.343  1.00  0.00    -0.028 C 
ATOM     13  C   UNL     1     142.066 139.182 134.660  1.00  0.00    -0.080 C 
ATOM     14  C   UNL     1     141.500 138.548 135.904  1.00  0.00     0.039 C 
ATOM     15  C   UNL     1     141.189 140.079 133.817  1.00  0.00     0.039 C 
ENDBRANCH  11  12
ENDBRANCH   1  11
TORSDOF 4
ENDMDL
