MODEL 1
REMARK VINA RESULT:     9.422      0.000      0.000
REMARK INTER + INTRA:          16.482
REMARK INTER:                  17.134
REMARK INTRA:                  -0.652
REMARK UNBOUND:                -0.652
REMARK SMILES CCCCCCCCCCCCCC[C@H](C)C(=O)[O-]
REMARK SMILES IDX 9 1 10 2 11 3 12 4 13 5 14 6 15 7 16 8 17 9 18 10 19 11 8 12
REMARK SMILES IDX 7 13 6 14 5 15 4 16 3 17 2 18 1 19
REMARK H PARENT
REMARK Flexibility Score: inf
ROOT
ATOM      1  C   UNL     1      27.801  44.325   3.421  1.00  0.00     0.000 C 
ENDROOT
BRANCH   1   2
ATOM      2  C   UNL     1      29.191  44.937   3.167  1.00  0.00     0.000 C 
BRANCH   2   3
ATOM      3  C   UNL     1      29.570  44.976   1.677  1.00  0.00     0.000 C 
BRANCH   3   4
ATOM      4  C   UNL     1      29.501  43.594   1.006  1.00  0.00     0.000 C 
BRANCH   4   5
ATOM      5  C   UNL     1      30.526  43.405  -0.132  1.00  0.00     0.001 C 
BRANCH   5   6
ATOM      6  C   UNL     1      30.141  42.248  -1.072  1.00  0.00     0.009 C 
BRANCH   6   7
ATOM      7  C   UNL     1      29.860  42.720  -2.514  1.00  0.00     0.032 C 
ATOM      8  C   UNL     1      29.387  44.180  -2.568  1.00  0.00     0.014 C 
BRANCH   7   9
ATOM      9  C   UNL     1      28.831  41.828  -3.155  1.00  0.00     0.044 C 
ATOM     10  O   UNL     1      27.942  41.272  -2.457  1.00  0.00    -0.550 OA
ATOM     11  O   UNL     1      28.861  41.610  -4.528  1.00  0.00    -0.550 OA
ENDBRANCH   7   9
ENDBRANCH   6   7
ENDBRANCH   5   6
ENDBRANCH   4   5
ENDBRANCH   3   4
ENDBRANCH   2   3
ENDBRANCH   1   2
BRANCH   1  12
ATOM     12  C   UNL     1      27.261  44.479   4.856  1.00  0.00     0.000 C 
BRANCH  12  13
ATOM     13  C   UNL     1      25.979  43.669   5.106  1.00  0.00    -0.000 C 
BRANCH  13  14
ATOM     14  C   UNL     1      25.502  42.909   3.855  1.00  0.00    -0.000 C 
BRANCH  14  15
ATOM     15  C   UNL     1      24.420  41.848   4.150  1.00  0.00    -0.000 C 
BRANCH  15  16
ATOM     16  C   UNL     1      23.040  42.480   4.386  1.00  0.00    -0.000 C 
BRANCH  16  17
ATOM     17  C   UNL     1      22.384  42.883   3.061  1.00  0.00    -0.000 C 
BRANCH  17  18
ATOM     18  C   UNL     1      22.944  42.060   1.896  1.00  0.00    -0.003 C 
ATOM     19  C   UNL     1      21.977  40.954   1.486  1.00  0.00     0.004 C 
ENDBRANCH  17  18
ENDBRANCH  16  17
ENDBRANCH  15  16
ENDBRANCH  14  15
ENDBRANCH  13  14
ENDBRANCH  12  13
ENDBRANCH   1  12
TORSDOF 14
ENDMDL
MODEL 2
REMARK VINA RESULT:     9.597      3.359      7.210
REMARK INTER + INTRA:          16.799
REMARK INTER:                  17.141
REMARK INTRA:                  -0.343
REMARK UNBOUND:                -0.652
REMARK SMILES CCCCCCCCCCCCCC[C@H](C)C(=O)[O-]
REMARK SMILES IDX 9 1 10 2 11 3 12 4 13 5 14 6 15 7 16 8 17 9 18 10 19 11 8 12
REMARK SMILES IDX 7 13 6 14 5 15 4 16 3 17 2 18 1 19
REMARK H PARENT
REMARK Flexibility Score: inf
ROOT
ATOM      1  C   UNL     1      28.665  44.489   4.047  1.00  0.00     0.000 C 
ENDROOT
BRANCH   1   2
ATOM      2  C   UNL     1      27.368  45.142   4.558  1.00  0.00     0.000 C 
BRANCH   2   3
ATOM      3  C   UNL     1      26.493  44.184   5.383  1.00  0.00     0.000 C 
BRANCH   3   4
ATOM      4  C   UNL     1      25.834  43.090   4.526  1.00  0.00     0.000 C 
BRANCH   4   5
ATOM      5  C   UNL     1      25.884  43.376   3.010  1.00  0.00     0.001 C 
BRANCH   5   6
ATOM      6  C   UNL     1      24.495  43.260   2.354  1.00  0.00     0.009 C 
BRANCH   6   7
ATOM      7  C   UNL     1      23.654  42.105   2.938  1.00  0.00     0.032 C 
ATOM      8  C   UNL     1      22.796  41.411   1.871  1.00  0.00     0.014 C 
BRANCH   7   9
ATOM      9  C   UNL     1      22.773  42.619   4.044  1.00  0.00     0.044 C 
ATOM     10  O   UNL     1      22.538  41.909   5.058  1.00  0.00    -0.550 OA
ATOM     11  O   UNL     1      22.208  43.885   3.949  1.00  0.00    -0.550 OA
ENDBRANCH   7   9
ENDBRANCH   6   7
ENDBRANCH   5   6
ENDBRANCH   4   5
ENDBRANCH   3   4
ENDBRANCH   2   3
ENDBRANCH   1   2
BRANCH   1  12
ATOM     12  C   UNL     1      29.090  44.885   2.620  1.00  0.00     0.000 C 
BRANCH  12  13
ATOM     13  C   UNL     1      29.379  43.673   1.720  1.00  0.00    -0.000 C 
BRANCH  13  14
ATOM     14  C   UNL     1      30.096  44.060   0.414  1.00  0.00    -0.000 C 
BRANCH  14  15
ATOM     15  C   UNL     1      30.876  42.895  -0.233  1.00  0.00    -0.000 C 
BRANCH  15  16
ATOM     16  C   UNL     1      30.035  42.145  -1.277  1.00  0.00    -0.000 C 
BRANCH  16  17
ATOM     17  C   UNL     1      29.805  43.006  -2.523  1.00  0.00    -0.000 C 
BRANCH  17  18
ATOM     18  C   UNL     1      29.060  42.219  -3.607  1.00  0.00    -0.003 C 
ATOM     19  C   UNL     1      27.975  41.335  -3.000  1.00  0.00     0.004 C 
ENDBRANCH  17  18
ENDBRANCH  16  17
ENDBRANCH  15  16
ENDBRANCH  14  15
ENDBRANCH  13  14
ENDBRANCH  12  13
ENDBRANCH   1  12
TORSDOF 14
ENDMDL
MODEL 3
REMARK VINA RESULT:     9.828      5.192      8.194
REMARK INTER + INTRA:          17.219
REMARK INTER:                  18.123
REMARK INTRA:                  -0.904
REMARK UNBOUND:                -0.652
REMARK SMILES CCCCCCCCCCCCCC[C@H](C)C(=O)[O-]
REMARK SMILES IDX 9 1 10 2 11 3 12 4 13 5 14 6 15 7 16 8 17 9 18 10 19 11 8 12
REMARK SMILES IDX 7 13 6 14 5 15 4 16 3 17 2 18 1 19
REMARK H PARENT
REMARK Flexibility Score: inf
ROOT
ATOM      1  C   UNL     1      25.152  43.327   2.452  1.00  0.00     0.000 C 
ENDROOT
BRANCH   1   2
ATOM      2  C   UNL     1      24.121  42.196   2.625  1.00  0.00     0.000 C 
BRANCH   2   3
ATOM      3  C   UNL     1      23.055  42.509   3.688  1.00  0.00     0.000 C 
BRANCH   3   4
ATOM      4  C   UNL     1      23.318  41.797   5.025  1.00  0.00     0.000 C 
BRANCH   4   5
ATOM      5  C   UNL     1      24.409  40.708   4.943  1.00  0.00     0.001 C 
BRANCH   5   6
ATOM      6  C   UNL     1      24.429  39.813   6.196  1.00  0.00     0.009 C 
BRANCH   6   7
ATOM      7  C   UNL     1      25.665  38.890   6.250  1.00  0.00     0.032 C 
ATOM      8  C   UNL     1      25.352  37.466   5.769  1.00  0.00     0.014 C 
BRANCH   7   9
ATOM      9  C   UNL     1      26.212  38.845   7.651  1.00  0.00     0.044 C 
ATOM     10  O   UNL     1      25.625  39.451   8.587  1.00  0.00    -0.550 OA
ATOM     11  O   UNL     1      27.375  38.133   7.919  1.00  0.00    -0.550 OA
ENDBRANCH   7   9
ENDBRANCH   6   7
ENDBRANCH   5   6
ENDBRANCH   4   5
ENDBRANCH   3   4
ENDBRANCH   2   3
ENDBRANCH   1   2
BRANCH   1  12
ATOM     12  C   UNL     1      25.911  43.734   3.729  1.00  0.00     0.000 C 
BRANCH  12  13
ATOM     13  C   UNL     1      27.422  43.910   3.501  1.00  0.00    -0.000 C 
BRANCH  13  14
ATOM     14  C   UNL     1      27.989  45.152   4.213  1.00  0.00    -0.000 C 
BRANCH  14  15
ATOM     15  C   UNL     1      26.992  45.818   5.186  1.00  0.00    -0.000 C 
BRANCH  15  16
ATOM     16  C   UNL     1      27.548  47.119   5.782  1.00  0.00    -0.000 C 
BRANCH  16  17
ATOM     17  C   UNL     1      27.040  47.333   7.212  1.00  0.00    -0.000 C 
BRANCH  17  18
ATOM     18  C   UNL     1      25.982  46.287   7.582  1.00  0.00    -0.003 C 
ATOM     19  C   UNL     1      24.634  46.943   7.869  1.00  0.00     0.004 C 
ENDBRANCH  17  18
ENDBRANCH  16  17
ENDBRANCH  15  16
ENDBRANCH  14  15
ENDBRANCH  13  14
ENDBRANCH  12  13
ENDBRANCH   1  12
TORSDOF 14
ENDMDL
MODEL 4
REMARK VINA RESULT:    10.396     12.629     14.712
REMARK INTER + INTRA:          18.253
REMARK INTER:                  18.598
REMARK INTRA:                  -0.345
REMARK UNBOUND:                -0.652
REMARK SMILES CCCCCCCCCCCCCC[C@H](C)C(=O)[O-]
REMARK SMILES IDX 9 1 10 2 11 3 12 4 13 5 14 6 15 7 16 8 17 9 18 10 19 11 8 12
REMARK SMILES IDX 7 13 6 14 5 15 4 16 3 17 2 18 1 19
REMARK H PARENT
REMARK Flexibility Score: inf
ROOT
ATOM      1  C   UNL     1      26.458  31.734  -5.619  1.00  0.00     0.000 C 
ENDROOT
BRANCH   1   2
ATOM      2  C   UNL     1      26.722  30.908  -4.346  1.00  0.00     0.000 C 
BRANCH   2   3
ATOM      3  C   UNL     1      26.780  31.766  -3.071  1.00  0.00     0.000 C 
BRANCH   3   4
ATOM      4  C   UNL     1      26.246  31.030  -1.831  1.00  0.00     0.000 C 
BRANCH   4   5
ATOM      5  C   UNL     1      27.204  29.945  -1.294  1.00  0.00     0.001 C 
BRANCH   5   6
ATOM      6  C   UNL     1      27.619  30.211   0.165  1.00  0.00     0.009 C 
BRANCH   6   7
ATOM      7  C   UNL     1      27.019  29.186   1.152  1.00  0.00     0.032 C 
ATOM      8  C   UNL     1      26.276  29.860   2.313  1.00  0.00     0.014 C 
BRANCH   7   9
ATOM      9  C   UNL     1      28.105  28.295   1.691  1.00  0.00     0.044 C 
ATOM     10  O   UNL     1      28.087  27.918   2.893  1.00  0.00    -0.550 OA
ATOM     11  O   UNL     1      29.142  27.886   0.860  1.00  0.00    -0.550 OA
ENDBRANCH   7   9
ENDBRANCH   6   7
ENDBRANCH   5   6
ENDBRANCH   4   5
ENDBRANCH   3   4
ENDBRANCH   2   3
ENDBRANCH   1   2
BRANCH   1  12
ATOM     12  C   UNL     1      25.901  30.945  -6.819  1.00  0.00     0.000 C 
BRANCH  12  13
ATOM     13  C   UNL     1      24.437  30.514  -6.628  1.00  0.00    -0.000 C 
BRANCH  13  14
ATOM     14  C   UNL     1      23.437  31.544  -7.184  1.00  0.00    -0.000 C 
BRANCH  14  15
ATOM     15  C   UNL     1      24.082  32.592  -8.118  1.00  0.00    -0.000 C 
BRANCH  15  16
ATOM     16  C   UNL     1      24.550  33.838  -7.352  1.00  0.00    -0.000 C 
BRANCH  16  17
ATOM     17  C   UNL     1      25.858  34.385  -7.935  1.00  0.00    -0.000 C 
BRANCH  17  18
ATOM     18  C   UNL     1      25.827  35.915  -8.018  1.00  0.00    -0.003 C 
ATOM     19  C   UNL     1      24.395  36.435  -8.105  1.00  0.00     0.004 C 
ENDBRANCH  17  18
ENDBRANCH  16  17
ENDBRANCH  15  16
ENDBRANCH  14  15
ENDBRANCH  13  14
ENDBRANCH  12  13
ENDBRANCH   1  12
TORSDOF 14
ENDMDL
MODEL 5
REMARK VINA RESULT:    11.416     13.135     15.076
REMARK INTER + INTRA:          20.107
REMARK INTER:                  20.713
REMARK INTRA:                  -0.606
REMARK UNBOUND:                -0.652
REMARK SMILES CCCCCCCCCCCCCC[C@H](C)C(=O)[O-]
REMARK SMILES IDX 9 1 10 2 11 3 12 4 13 5 14 6 15 7 16 8 17 9 18 10 19 11 8 12
REMARK SMILES IDX 7 13 6 14 5 15 4 16 3 17 2 18 1 19
REMARK H PARENT
REMARK Flexibility Score: inf
ROOT
ATOM      1  C   UNL     1      26.439  31.562  -4.592  1.00  0.00     0.000 C 
ENDROOT
BRANCH   1   2
ATOM      2  C   UNL     1      27.228  30.484  -3.826  1.00  0.00     0.000 C 
BRANCH   2   3
ATOM      3  C   UNL     1      27.474  30.848  -2.353  1.00  0.00     0.000 C 
BRANCH   3   4
ATOM      4  C   UNL     1      26.179  30.901  -1.525  1.00  0.00     0.000 C 
BRANCH   4   5
ATOM      5  C   UNL     1      26.053  29.755  -0.498  1.00  0.00     0.001 C 
BRANCH   5   6
ATOM      6  C   UNL     1      26.941  29.987   0.739  1.00  0.00     0.009 C 
BRANCH   6   7
ATOM      7  C   UNL     1      27.554  28.680   1.286  1.00  0.00     0.032 C 
ATOM      8  C   UNL     1      27.161  28.419   2.747  1.00  0.00     0.014 C 
BRANCH   7   9
ATOM      9  C   UNL     1      29.053  28.724   1.163  1.00  0.00     0.044 C 
ATOM     10  O   UNL     1      29.783  28.173   2.028  1.00  0.00    -0.550 OA
ATOM     11  O   UNL     1      29.641  29.381   0.088  1.00  0.00    -0.550 OA
ENDBRANCH   7   9
ENDBRANCH   6   7
ENDBRANCH   5   6
ENDBRANCH   4   5
ENDBRANCH   3   4
ENDBRANCH   2   3
ENDBRANCH   1   2
BRANCH   1  12
ATOM     12  C   UNL     1      25.560  31.047  -5.747  1.00  0.00     0.000 C 
BRANCH  12  13
ATOM     13  C   UNL     1      26.078  31.469  -7.132  1.00  0.00    -0.000 C 
BRANCH  13  14
ATOM     14  C   UNL     1      25.593  32.869  -7.546  1.00  0.00    -0.000 C 
BRANCH  14  15
ATOM     15  C   UNL     1      24.160  32.883  -8.122  1.00  0.00    -0.000 C 
BRANCH  15  16
ATOM     16  C   UNL     1      23.109  32.515  -7.064  1.00  0.00    -0.000 C 
BRANCH  16  17
ATOM     17  C   UNL     1      22.168  31.420  -7.578  1.00  0.00    -0.000 C 
BRANCH  17  18
ATOM     18  C   UNL     1      22.959  30.215  -8.100  1.00  0.00    -0.003 C 
ATOM     19  C   UNL     1      22.216  28.909  -7.832  1.00  0.00     0.004 C 
ENDBRANCH  17  18
ENDBRANCH  16  17
ENDBRANCH  15  16
ENDBRANCH  14  15
ENDBRANCH  13  14
ENDBRANCH  12  13
ENDBRANCH   1  12
TORSDOF 14
ENDMDL
MODEL 6
REMARK VINA RESULT:    11.453      5.357      7.309
REMARK INTER + INTRA:          20.174
REMARK INTER:                  20.543
REMARK INTRA:                  -0.369
REMARK UNBOUND:                -0.652
REMARK SMILES CCCCCCCCCCCCCC[C@H](C)C(=O)[O-]
REMARK SMILES IDX 9 1 10 2 11 3 12 4 13 5 14 6 15 7 16 8 17 9 18 10 19 11 8 12
REMARK SMILES IDX 7 13 6 14 5 15 4 16 3 17 2 18 1 19
REMARK H PARENT
REMARK Flexibility Score: inf
ROOT
ATOM      1  C   UNL     1      24.538  42.458   2.161  1.00  0.00     0.000 C 
ENDROOT
BRANCH   1   2
ATOM      2  C   UNL     1      25.050  43.728   2.865  1.00  0.00     0.000 C 
BRANCH   2   3
ATOM      3  C   UNL     1      26.243  43.462   3.798  1.00  0.00     0.000 C 
BRANCH   3   4
ATOM      4  C   UNL     1      27.516  44.210   3.369  1.00  0.00     0.000 C 
BRANCH   4   5
ATOM      5  C   UNL     1      27.827  45.451   4.233  1.00  0.00     0.001 C 
BRANCH   5   6
ATOM      6  C   UNL     1      27.064  45.430   5.571  1.00  0.00     0.009 C 
BRANCH   6   7
ATOM      7  C   UNL     1      26.642  46.839   6.039  1.00  0.00     0.032 C 
ATOM      8  C   UNL     1      27.806  47.840   5.997  1.00  0.00     0.014 C 
BRANCH   7   9
ATOM      9  C   UNL     1      26.080  46.771   7.433  1.00  0.00     0.044 C 
ATOM     10  O   UNL     1      26.847  46.727   8.431  1.00  0.00    -0.550 OA
ATOM     11  O   UNL     1      24.703  46.751   7.625  1.00  0.00    -0.550 OA
ENDBRANCH   7   9
ENDBRANCH   6   7
ENDBRANCH   5   6
ENDBRANCH   4   5
ENDBRANCH   3   4
ENDBRANCH   2   3
ENDBRANCH   1   2
BRANCH   1  12
ATOM     12  C   UNL     1      23.052  42.124   2.393  1.00  0.00     0.000 C 
BRANCH  12  13
ATOM     13  C   UNL     1      22.500  42.713   3.701  1.00  0.00    -0.000 C 
BRANCH  13  14
ATOM     14  C   UNL     1      23.175  42.120   4.951  1.00  0.00    -0.000 C 
BRANCH  14  15
ATOM     15  C   UNL     1      23.981  40.834   4.669  1.00  0.00    -0.000 C 
BRANCH  15  16
ATOM     16  C   UNL     1      25.137  40.646   5.663  1.00  0.00    -0.000 C 
BRANCH  16  17
ATOM     17  C   UNL     1      24.772  39.623   6.745  1.00  0.00    -0.000 C 
BRANCH  17  18
ATOM     18  C   UNL     1      25.896  38.597   6.932  1.00  0.00    -0.003 C 
ATOM     19  C   UNL     1      25.894  37.564   5.809  1.00  0.00     0.004 C 
ENDBRANCH  17  18
ENDBRANCH  16  17
ENDBRANCH  15  16
ENDBRANCH  14  15
ENDBRANCH  13  14
ENDBRANCH  12  13
ENDBRANCH   1  12
TORSDOF 14
ENDMDL
MODEL 7
REMARK VINA RESULT:    12.018     12.795     14.267
REMARK INTER + INTRA:          21.202
REMARK INTER:                  22.192
REMARK INTRA:                  -0.989
REMARK UNBOUND:                -0.652
REMARK SMILES CCCCCCCCCCCCCC[C@H](C)C(=O)[O-]
REMARK SMILES IDX 9 1 10 2 11 3 12 4 13 5 14 6 15 7 16 8 17 9 18 10 19 11 8 12
REMARK SMILES IDX 7 13 6 14 5 15 4 16 3 17 2 18 1 19
REMARK H PARENT
REMARK Flexibility Score: inf
ROOT
ATOM      1  C   UNL     1      25.844  30.991  -1.900  1.00  0.00     0.000 C 
ENDROOT
BRANCH   1   2
ATOM      2  C   UNL     1      25.602  30.955  -3.420  1.00  0.00     0.000 C 
BRANCH   2   3
ATOM      3  C   UNL     1      26.766  30.326  -4.202  1.00  0.00     0.000 C 
BRANCH   3   4
ATOM      4  C   UNL     1      26.764  30.711  -5.691  1.00  0.00     0.000 C 
BRANCH   4   5
ATOM      5  C   UNL     1      25.553  31.575  -6.105  1.00  0.00     0.001 C 
BRANCH   5   6
ATOM      6  C   UNL     1      24.733  30.919  -7.232  1.00  0.00     0.009 C 
BRANCH   6   7
ATOM      7  C   UNL     1      24.010  31.953  -8.122  1.00  0.00     0.032 C 
ATOM      8  C   UNL     1      24.578  33.369  -7.950  1.00  0.00     0.014 C 
BRANCH   7   9
ATOM      9  C   UNL     1      22.537  31.954  -7.816  1.00  0.00     0.044 C 
ATOM     10  O   UNL     1      21.875  30.883  -7.851  1.00  0.00    -0.550 OA
ATOM     11  O   UNL     1      21.897  33.146  -7.495  1.00  0.00    -0.550 OA
ENDBRANCH   7   9
ENDBRANCH   6   7
ENDBRANCH   5   6
ENDBRANCH   4   5
ENDBRANCH   3   4
ENDBRANCH   2   3
ENDBRANCH   1   2
BRANCH   1  12
ATOM     12  C   UNL     1      27.304  31.222  -1.466  1.00  0.00     0.000 C 
BRANCH  12  13
ATOM     13  C   UNL     1      27.776  30.230  -0.389  1.00  0.00    -0.000 C 
BRANCH  13  14
ATOM     14  C   UNL     1      26.646  29.312   0.109  1.00  0.00    -0.000 C 
BRANCH  14  15
ATOM     15  C   UNL     1      27.146  27.962   0.667  1.00  0.00    -0.000 C 
BRANCH  15  16
ATOM     16  C   UNL     1      28.464  28.109   1.442  1.00  0.00    -0.000 C 
BRANCH  16  17
ATOM     17  C   UNL     1      28.245  27.907   2.945  1.00  0.00    -0.000 C 
BRANCH  17  18
ATOM     18  C   UNL     1      28.145  29.253   3.673  1.00  0.00    -0.003 C 
ATOM     19  C   UNL     1      27.423  29.106   5.009  1.00  0.00     0.004 C 
ENDBRANCH  17  18
ENDBRANCH  16  17
ENDBRANCH  15  16
ENDBRANCH  14  15
ENDBRANCH  13  14
ENDBRANCH  12  13
ENDBRANCH   1  12
TORSDOF 14
ENDMDL
