MODEL 1
REMARK VINA RESULT:    -4.149      0.000      0.000
REMARK INTER + INTRA:          -5.961
REMARK INTER:                  -6.331
REMARK INTRA:                   0.370
REMARK UNBOUND:                 0.370
REMARK SMILES CC1=CCC[C@@H](C)C(=O)C[C@H](C(C)C)C(=O)C1
REMARK SMILES IDX 8 1 9 2 6 3 7 4 5 5 4 6 3 7 2 8 1 9 10 11 11 12 15 13 16 14
REMARK SMILES IDX 17 15 12 17 13 18 14 19
REMARK H PARENT
REMARK Flexibility Score: 70.00
ROOT
ATOM      1  C   UNL     1     -13.143   7.097  25.964  1.00  0.00     0.136 C 
ATOM      2  O   UNL     1     -13.090   7.301  24.759  1.00  0.00    -0.299 OA
ENDROOT
BRANCH   1   3
ATOM      3  C   UNL     1     -12.295   6.004  26.591  1.00  0.00     0.053 C 
ATOM      4  C   UNL     1     -11.107   5.605  25.701  1.00  0.00     0.016 C 
BRANCH   3   5
ATOM      5  C   UNL     1     -13.149   4.781  26.983  1.00  0.00     0.015 C 
BRANCH   5   6
ATOM      6  C   UNL     1     -14.413   4.595  26.116  1.00  0.00     0.028 C 
BRANCH   6   7
ATOM      7  C   UNL     1     -15.571   4.096  26.940  1.00  0.00    -0.028 C 
ATOM      8  C   UNL     1     -16.269   4.847  27.826  1.00  0.00    -0.070 CG0
ATOM      9  C   UNL     1     -17.377   4.181  28.602  1.00  0.00     0.039 C 
ATOM     10  G   UNL     1     -15.992   6.325  28.064  1.00  0.00     0.000 G0
ENDBRANCH   6   7
ENDBRANCH   5   6
ENDBRANCH   3   5
ENDBRANCH   1   3
BRANCH   1  11
ATOM     11  C   UNL     1     -14.061   7.948  26.811  1.00  0.00     0.087 C 
BRANCH  11  12
ATOM     12  C   UNL     1     -15.471   8.089  26.179  1.00  0.00     0.066 C 
BRANCH  12  13
ATOM     13  C   UNL     1     -16.461   7.234  26.953  1.00  0.00     0.140 C 
ATOM     14  O   UNL     1     -17.634   7.207  26.605  1.00  0.00    -0.299 OA
BRANCH  13  15
ATOM     15  C   UNL     1     -15.994   6.342  28.075  1.00  0.00     0.106 CG0
ATOM     16  G   UNL     1     -16.282   4.871  27.811  1.00  0.00     0.000 G0
ENDBRANCH  13  15
ENDBRANCH  12  13
BRANCH  12  17
ATOM     17  C   UNL     1     -15.957   9.574  26.119  1.00  0.00    -0.006 C 
ATOM     18  C   UNL     1     -16.478  10.078  27.478  1.00  0.00     0.008 C 
ATOM     19  C   UNL     1     -14.827  10.510  25.646  1.00  0.00     0.008 C 
ENDBRANCH  12  17
ENDBRANCH  11  12
ENDBRANCH   1  11
TORSDOF 1
ENDMDL
MODEL 2
REMARK VINA RESULT:    -3.865      1.842      4.244
REMARK INTER + INTRA:          -5.528
REMARK INTER:                  -5.628
REMARK INTRA:                   0.100
REMARK UNBOUND:                 0.370
REMARK SMILES CC1=CCC[C@@H](C)C(=O)C[C@H](C(C)C)C(=O)C1
REMARK SMILES IDX 8 1 9 2 6 3 7 4 5 5 4 6 3 7 2 8 1 9 10 11 11 12 15 13 16 14
REMARK SMILES IDX 17 15 12 17 13 18 14 19
REMARK H PARENT
REMARK Flexibility Score: 70.00
ROOT
ATOM      1  C   UNL     1     -12.923   5.052  26.301  1.00  0.00     0.136 C 
ATOM      2  O   UNL     1     -11.949   4.405  26.661  1.00  0.00    -0.299 OA
ENDROOT
BRANCH   1   3
ATOM      3  C   UNL     1     -12.738   6.413  25.654  1.00  0.00     0.053 C 
ATOM      4  C   UNL     1     -11.268   6.702  25.313  1.00  0.00     0.016 C 
BRANCH   3   5
ATOM      5  C   UNL     1     -13.356   7.535  26.514  1.00  0.00     0.015 C 
BRANCH   5   6
ATOM      6  C   UNL     1     -14.741   8.011  26.024  1.00  0.00     0.028 C 
BRANCH   6   7
ATOM      7  C   UNL     1     -15.653   8.318  27.183  1.00  0.00    -0.028 C 
ATOM      8  C   UNL     1     -16.470   7.417  27.782  1.00  0.00    -0.070 CG0
ATOM      9  C   UNL     1     -17.352   7.899  28.906  1.00  0.00     0.039 C 
ATOM     10  G   UNL     1     -16.528   5.951  27.380  1.00  0.00     0.000 G0
ENDBRANCH   6   7
ENDBRANCH   5   6
ENDBRANCH   3   5
ENDBRANCH   1   3
BRANCH   1  11
ATOM     11  C   UNL     1     -14.303   4.472  26.509  1.00  0.00     0.087 C 
BRANCH  11  12
ATOM     12  C   UNL     1     -14.619   4.247  28.011  1.00  0.00     0.066 C 
BRANCH  12  13
ATOM     13  C   UNL     1     -15.868   5.028  28.388  1.00  0.00     0.140 C 
ATOM     14  O   UNL     1     -16.279   4.985  29.540  1.00  0.00    -0.299 OA
BRANCH  13  15
ATOM     15  C   UNL     1     -16.539   5.934  27.388  1.00  0.00     0.106 CG0
ATOM     16  G   UNL     1     -16.489   7.399  27.800  1.00  0.00     0.000 G0
ENDBRANCH  13  15
ENDBRANCH  12  13
BRANCH  12  17
ATOM     17  C   UNL     1     -14.788   2.734  28.370  1.00  0.00    -0.006 C 
ATOM     18  C   UNL     1     -15.599   1.966  27.310  1.00  0.00     0.008 C 
ATOM     19  C   UNL     1     -13.419   2.047  28.538  1.00  0.00     0.008 C 
ENDBRANCH  12  17
ENDBRANCH  11  12
ENDBRANCH   1  11
TORSDOF 1
ENDMDL
MODEL 3
REMARK VINA RESULT:    -3.405      5.407      7.322
REMARK INTER + INTRA:          -4.826
REMARK INTER:                  -4.542
REMARK INTRA:                  -0.284
REMARK UNBOUND:                 0.370
REMARK SMILES CC1=CCC[C@@H](C)C(=O)C[C@H](C(C)C)C(=O)C1
REMARK SMILES IDX 8 1 9 2 6 3 7 4 5 5 4 6 3 7 2 8 1 9 10 11 11 12 15 13 16 14
REMARK SMILES IDX 17 15 12 17 13 18 14 19
REMARK H PARENT
REMARK Flexibility Score: 70.00
ROOT
ATOM      1  C   UNL     1     -15.321  -0.329  29.785  1.00  0.00     0.136 C 
ATOM      2  O   UNL     1     -14.304  -0.791  30.283  1.00  0.00    -0.299 OA
ENDROOT
BRANCH   1   3
ATOM      3  C   UNL     1     -15.291   0.246  28.380  1.00  0.00     0.053 C 
ATOM      4  C   UNL     1     -14.849  -0.791  27.335  1.00  0.00     0.016 C 
BRANCH   3   5
ATOM      5  C   UNL     1     -14.431   1.525  28.313  1.00  0.00     0.015 C 
BRANCH   5   6
ATOM      6  C   UNL     1     -15.254   2.829  28.224  1.00  0.00     0.028 C 
BRANCH   6   7
ATOM      7  C   UNL     1     -16.589   2.587  27.568  1.00  0.00    -0.028 C 
ATOM      8  C   UNL     1     -17.780   2.599  28.214  1.00  0.00    -0.070 CG0
ATOM      9  C   UNL     1     -19.023   2.296  27.416  1.00  0.00     0.039 C 
ATOM     10  G   UNL     1     -17.918   2.913  29.697  1.00  0.00     0.000 G0
ENDBRANCH   6   7
ENDBRANCH   5   6
ENDBRANCH   3   5
ENDBRANCH   1   3
BRANCH   1  11
ATOM     11  C   UNL     1     -16.600  -0.344  30.590  1.00  0.00     0.087 C 
BRANCH  11  12
ATOM     12  C   UNL     1     -16.898   1.035  31.235  1.00  0.00     0.066 C 
BRANCH  12  13
ATOM     13  C   UNL     1     -18.100   1.666  30.551  1.00  0.00     0.140 C 
ATOM     14  O   UNL     1     -19.218   1.217  30.763  1.00  0.00    -0.299 OA
BRANCH  13  15
ATOM     15  C   UNL     1     -17.940   2.902  29.701  1.00  0.00     0.106 CG0
ATOM     16  G   UNL     1     -17.784   2.578  28.222  1.00  0.00     0.000 G0
ENDBRANCH  13  15
ENDBRANCH  12  13
BRANCH  12  17
ATOM     17  C   UNL     1     -17.133   0.939  32.778  1.00  0.00    -0.006 C 
ATOM     18  C   UNL     1     -16.082   0.059  33.479  1.00  0.00     0.008 C 
ATOM     19  C   UNL     1     -17.121   2.336  33.430  1.00  0.00     0.008 C 
ENDBRANCH  12  17
ENDBRANCH  11  12
ENDBRANCH   1  11
TORSDOF 1
ENDMDL
MODEL 4
REMARK VINA RESULT:    -3.394      3.543      6.220
REMARK INTER + INTRA:          -4.810
REMARK INTER:                  -4.744
REMARK INTRA:                  -0.066
REMARK UNBOUND:                 0.370
REMARK SMILES CC1=CCC[C@@H](C)C(=O)C[C@H](C(C)C)C(=O)C1
REMARK SMILES IDX 8 1 9 2 6 3 7 4 5 5 4 6 3 7 2 8 1 9 10 11 11 12 15 13 16 14
REMARK SMILES IDX 17 15 12 17 13 18 14 19
REMARK H PARENT
REMARK Flexibility Score: 70.00
ROOT
ATOM      1  C   UNL     1     -14.587   3.146  27.191  1.00  0.00     0.136 C 
ATOM      2  O   UNL     1     -13.404   3.152  27.502  1.00  0.00    -0.299 OA
ENDROOT
BRANCH   1   3
ATOM      3  C   UNL     1     -15.266   4.429  26.746  1.00  0.00     0.053 C 
ATOM      4  C   UNL     1     -14.325   5.642  26.818  1.00  0.00     0.016 C 
BRANCH   3   5
ATOM      5  C   UNL     1     -16.574   4.675  27.527  1.00  0.00     0.015 C 
BRANCH   5   6
ATOM      6  C   UNL     1     -16.382   4.787  29.054  1.00  0.00     0.028 C 
BRANCH   6   7
ATOM      7  C   UNL     1     -17.628   4.372  29.792  1.00  0.00    -0.028 C 
ATOM      8  C   UNL     1     -17.781   3.197  30.450  1.00  0.00    -0.070 CG0
ATOM      9  C   UNL     1     -19.111   2.919  31.104  1.00  0.00     0.039 C 
ATOM     10  G   UNL     1     -16.675   2.158  30.564  1.00  0.00     0.000 G0
ENDBRANCH   6   7
ENDBRANCH   5   6
ENDBRANCH   3   5
ENDBRANCH   1   3
BRANCH   1  11
ATOM     11  C   UNL     1     -15.353   1.845  27.256  1.00  0.00     0.087 C 
BRANCH  11  12
ATOM     12  C   UNL     1     -15.218   1.158  28.640  1.00  0.00     0.066 C 
BRANCH  12  13
ATOM     13  C   UNL     1     -16.538   1.258  29.387  1.00  0.00     0.140 C 
ATOM     14  O   UNL     1     -17.473   0.541  29.056  1.00  0.00    -0.299 OA
BRANCH  13  15
ATOM     15  C   UNL     1     -16.673   2.151  30.595  1.00  0.00     0.106 CG0
ATOM     16  G   UNL     1     -17.782   3.181  30.439  1.00  0.00     0.000 G0
ENDBRANCH  13  15
ENDBRANCH  12  13
BRANCH  12  17
ATOM     17  C   UNL     1     -14.762  -0.334  28.529  1.00  0.00    -0.006 C 
ATOM     18  C   UNL     1     -15.001  -0.918  27.124  1.00  0.00     0.008 C 
ATOM     19  C   UNL     1     -13.268  -0.486  28.879  1.00  0.00     0.008 C 
ENDBRANCH  12  17
ENDBRANCH  11  12
ENDBRANCH   1  11
TORSDOF 1
ENDMDL
MODEL 5
REMARK VINA RESULT:    -3.342      2.202      4.638
REMARK INTER + INTRA:          -4.730
REMARK INTER:                  -4.555
REMARK INTRA:                  -0.175
REMARK UNBOUND:                 0.370
REMARK SMILES CC1=CCC[C@@H](C)C(=O)C[C@H](C(C)C)C(=O)C1
REMARK SMILES IDX 8 1 9 2 6 3 7 4 5 5 4 6 3 7 2 8 1 9 10 11 11 12 15 13 16 14
REMARK SMILES IDX 17 15 12 17 13 18 14 19
REMARK H PARENT
REMARK Flexibility Score: 70.00
ROOT
ATOM      1  C   UNL     1     -15.716   9.307  26.993  1.00  0.00     0.136 C 
ATOM      2  O   UNL     1     -14.598   9.721  26.717  1.00  0.00    -0.299 OA
ENDROOT
BRANCH   1   3
ATOM      3  C   UNL     1     -16.655  10.150  27.838  1.00  0.00     0.053 C 
ATOM      4  C   UNL     1     -16.757  11.597  27.330  1.00  0.00     0.016 C 
BRANCH   3   5
ATOM      5  C   UNL     1     -16.273  10.095  29.332  1.00  0.00     0.015 C 
BRANCH   5   6
ATOM      6  C   UNL     1     -17.252   9.274  30.199  1.00  0.00     0.028 C 
BRANCH   6   7
ATOM      7  C   UNL     1     -18.497   8.920  29.428  1.00  0.00    -0.028 C 
ATOM      8  C   UNL     1     -18.769   7.693  28.921  1.00  0.00    -0.070 CG0
ATOM      9  C   UNL     1     -20.045   7.517  28.137  1.00  0.00     0.039 C 
ATOM     10  G   UNL     1     -17.854   6.492  29.114  1.00  0.00     0.000 G0
ENDBRANCH   6   7
ENDBRANCH   5   6
ENDBRANCH   3   5
ENDBRANCH   1   3
BRANCH   1  11
ATOM     11  C   UNL     1     -16.141   7.952  26.478  1.00  0.00     0.087 C 
BRANCH  11  12
ATOM     12  C   UNL     1     -15.815   6.818  27.485  1.00  0.00     0.066 C 
BRANCH  12  13
ATOM     13  C   UNL     1     -17.098   6.102  27.875  1.00  0.00     0.140 C 
ATOM     14  O   UNL     1     -17.477   5.144  27.216  1.00  0.00    -0.299 OA
BRANCH  13  15
ATOM     15  C   UNL     1     -17.846   6.492  29.125  1.00  0.00     0.106 CG0
ATOM     16  G   UNL     1     -18.765   7.686  28.908  1.00  0.00     0.000 G0
ENDBRANCH  13  15
ENDBRANCH  12  13
BRANCH  12  17
ATOM     17  C   UNL     1     -14.767   5.800  26.926  1.00  0.00    -0.006 C 
ATOM     18  C   UNL     1     -13.803   6.446  25.913  1.00  0.00     0.008 C 
ATOM     19  C   UNL     1     -13.938   5.174  28.065  1.00  0.00     0.008 C 
ENDBRANCH  12  17
ENDBRANCH  11  12
ENDBRANCH   1  11
TORSDOF 1
ENDMDL
MODEL 6
REMARK VINA RESULT:    -3.329      6.847      8.654
REMARK INTER + INTRA:          -4.709
REMARK INTER:                  -4.484
REMARK INTRA:                  -0.226
REMARK UNBOUND:                 0.370
REMARK SMILES CC1=CCC[C@@H](C)C(=O)C[C@H](C(C)C)C(=O)C1
REMARK SMILES IDX 8 1 9 2 6 3 7 4 5 5 4 6 3 7 2 8 1 9 10 11 11 12 15 13 16 14
REMARK SMILES IDX 17 15 12 17 13 18 14 19
REMARK H PARENT
REMARK Flexibility Score: 70.00
ROOT
ATOM      1  C   UNL     1     -16.689  -0.246  31.301  1.00  0.00     0.136 C 
ATOM      2  O   UNL     1     -15.957  -0.922  32.011  1.00  0.00    -0.299 OA
ENDROOT
BRANCH   1   3
ATOM      3  C   UNL     1     -18.190  -0.252  31.528  1.00  0.00     0.053 C 
ATOM      4  C   UNL     1     -18.571   0.258  32.927  1.00  0.00     0.016 C 
BRANCH   3   5
ATOM      5  C   UNL     1     -18.798  -1.641  31.242  1.00  0.00     0.015 C 
BRANCH   5   6
ATOM      6  C   UNL     1     -19.452  -1.765  29.849  1.00  0.00     0.028 C 
BRANCH   6   7
ATOM      7  C   UNL     1     -20.231  -0.523  29.501  1.00  0.00    -0.028 C 
ATOM      8  C   UNL     1     -19.897   0.349  28.519  1.00  0.00    -0.070 CG0
ATOM      9  C   UNL     1     -20.765   1.567  28.328  1.00  0.00     0.039 C 
ATOM     10  G   UNL     1     -18.700   0.148  27.601  1.00  0.00     0.000 G0
ENDBRANCH   6   7
ENDBRANCH   5   6
ENDBRANCH   3   5
ENDBRANCH   1   3
BRANCH   1  11
ATOM     11  C   UNL     1     -16.074   0.590  30.204  1.00  0.00     0.087 C 
BRANCH  11  12
ATOM     12  C   UNL     1     -16.355   0.002  28.796  1.00  0.00     0.066 C 
BRANCH  12  13
ATOM     13  C   UNL     1     -17.443   0.815  28.114  1.00  0.00     0.140 C 
ATOM     14  O   UNL     1     -17.265   2.008  27.910  1.00  0.00    -0.299 OA
BRANCH  13  15
ATOM     15  C   UNL     1     -18.690   0.146  27.594  1.00  0.00     0.106 CG0
ATOM     16  G   UNL     1     -19.890   0.351  28.508  1.00  0.00     0.000 G0
ENDBRANCH  13  15
ENDBRANCH  12  13
BRANCH  12  17
ATOM     17  C   UNL     1     -15.073  -0.057  27.902  1.00  0.00    -0.006 C 
ATOM     18  C   UNL     1     -13.801  -0.360  28.716  1.00  0.00     0.008 C 
ATOM     19  C   UNL     1     -15.215  -1.122  26.796  1.00  0.00     0.008 C 
ENDBRANCH  12  17
ENDBRANCH  11  12
ENDBRANCH   1  11
TORSDOF 1
ENDMDL
MODEL 7
REMARK VINA RESULT:    -3.293      6.383      8.606
REMARK INTER + INTRA:          -4.655
REMARK INTER:                  -4.402
REMARK INTRA:                  -0.253
REMARK UNBOUND:                 0.370
REMARK SMILES CC1=CCC[C@@H](C)C(=O)C[C@H](C(C)C)C(=O)C1
REMARK SMILES IDX 8 1 9 2 6 3 7 4 5 5 4 6 3 7 2 8 1 9 10 11 11 12 15 13 16 14
REMARK SMILES IDX 17 15 12 17 13 18 14 19
REMARK H PARENT
REMARK Flexibility Score: 70.00
ROOT
ATOM      1  C   UNL     1     -17.470   2.317  30.768  1.00  0.00     0.136 C 
ATOM      2  O   UNL     1     -16.598   3.152  30.570  1.00  0.00    -0.299 OA
ENDROOT
BRANCH   1   3
ATOM      3  C   UNL     1     -17.750   1.826  32.177  1.00  0.00     0.053 C 
ATOM      4  C   UNL     1     -17.893   2.982  33.180  1.00  0.00     0.016 C 
BRANCH   3   5
ATOM      5  C   UNL     1     -16.696   0.798  32.638  1.00  0.00     0.015 C 
BRANCH   5   6
ATOM      6  C   UNL     1     -17.233  -0.644  32.749  1.00  0.00     0.028 C 
BRANCH   6   7
ATOM      7  C   UNL     1     -18.740  -0.667  32.733  1.00  0.00    -0.028 C 
ATOM      8  C   UNL     1     -19.495  -1.077  31.684  1.00  0.00    -0.070 CG0
ATOM      9  C   UNL     1     -20.994  -0.997  31.816  1.00  0.00     0.039 C 
ATOM     10  G   UNL     1     -18.899  -1.618  30.392  1.00  0.00     0.000 G0
ENDBRANCH   6   7
ENDBRANCH   5   6
ENDBRANCH   3   5
ENDBRANCH   1   3
BRANCH   1  11
ATOM     11  C   UNL     1     -18.256   1.788  29.591  1.00  0.00     0.087 C 
BRANCH  11  12
ATOM     12  C   UNL     1     -17.754   0.392  29.135  1.00  0.00     0.066 C 
BRANCH  12  13
ATOM     13  C   UNL     1     -18.881  -0.619  29.264  1.00  0.00     0.140 C 
ATOM     14  O   UNL     1     -19.745  -0.670  28.399  1.00  0.00    -0.299 OA
BRANCH  13  15
ATOM     15  C   UNL     1     -18.885  -1.627  30.385  1.00  0.00     0.106 CG0
ATOM     16  G   UNL     1     -19.502  -1.077  31.664  1.00  0.00     0.000 G0
ENDBRANCH  13  15
ENDBRANCH  12  13
BRANCH  12  17
ATOM     17  C   UNL     1     -17.190   0.403  27.676  1.00  0.00    -0.006 C 
ATOM     18  C   UNL     1     -16.874   1.826  27.179  1.00  0.00     0.008 C 
ATOM     19  C   UNL     1     -15.912  -0.452  27.568  1.00  0.00     0.008 C 
ENDBRANCH  12  17
ENDBRANCH  11  12
ENDBRANCH   1  11
TORSDOF 1
ENDMDL
MODEL 8
REMARK VINA RESULT:    -3.292      6.559      8.986
REMARK INTER + INTRA:          -4.653
REMARK INTER:                  -4.389
REMARK INTRA:                  -0.264
REMARK UNBOUND:                 0.370
REMARK SMILES CC1=CCC[C@@H](C)C(=O)C[C@H](C(C)C)C(=O)C1
REMARK SMILES IDX 8 1 9 2 6 3 7 4 5 5 4 6 3 7 2 8 1 9 10 11 11 12 15 13 16 14
REMARK SMILES IDX 17 15 12 17 13 18 14 19
REMARK H PARENT
REMARK Flexibility Score: 70.00
ROOT
ATOM      1  C   UNL     1     -18.374  -0.727  31.702  1.00  0.00     0.136 C 
ATOM      2  O   UNL     1     -19.284  -0.593  32.509  1.00  0.00    -0.299 OA
ENDROOT
BRANCH   1   3
ATOM      3  C   UNL     1     -17.027  -0.073  31.957  1.00  0.00     0.053 C 
ATOM      4  C   UNL     1     -16.321  -0.653  33.193  1.00  0.00     0.016 C 
BRANCH   3   5
ATOM      5  C   UNL     1     -17.152   1.463  32.039  1.00  0.00     0.015 C 
BRANCH   5   6
ATOM      6  C   UNL     1     -17.261   2.158  30.665  1.00  0.00     0.028 C 
BRANCH   6   7
ATOM      7  C   UNL     1     -16.088   1.810  29.785  1.00  0.00    -0.028 C 
ATOM      8  C   UNL     1     -16.183   1.225  28.566  1.00  0.00    -0.070 CG0
ATOM      9  C   UNL     1     -14.906   0.906  27.831  1.00  0.00     0.039 C 
ATOM     10  G   UNL     1     -17.514   0.886  27.909  1.00  0.00     0.000 G0
ENDBRANCH   6   7
ENDBRANCH   5   6
ENDBRANCH   3   5
ENDBRANCH   1   3
BRANCH   1  11
ATOM     11  C   UNL     1     -18.613  -1.550  30.459  1.00  0.00     0.087 C 
BRANCH  11  12
ATOM     12  C   UNL     1     -19.122  -0.684  29.276  1.00  0.00     0.066 C 
BRANCH  12  13
ATOM     13  C   UNL     1     -18.004  -0.504  28.262  1.00  0.00     0.140 C 
ATOM     14  O   UNL     1     -17.562  -1.481  27.674  1.00  0.00    -0.299 OA
BRANCH  13  15
ATOM     15  C   UNL     1     -17.512   0.874  27.898  1.00  0.00     0.106 CG0
ATOM     16  G   UNL     1     -16.186   1.216  28.563  1.00  0.00     0.000 G0
ENDBRANCH  13  15
ENDBRANCH  12  13
BRANCH  12  17
ATOM     17  C   UNL     1     -20.392  -1.288  28.591  1.00  0.00    -0.006 C 
ATOM     18  C   UNL     1     -21.551  -1.497  29.583  1.00  0.00     0.008 C 
ATOM     19  C   UNL     1     -20.883  -0.389  27.440  1.00  0.00     0.008 C 
ENDBRANCH  12  17
ENDBRANCH  11  12
ENDBRANCH   1  11
TORSDOF 1
ENDMDL
MODEL 9
REMARK VINA RESULT:    -3.230      6.818      8.603
REMARK INTER + INTRA:          -4.559
REMARK INTER:                  -4.554
REMARK INTRA:                  -0.005
REMARK UNBOUND:                 0.370
REMARK SMILES CC1=CCC[C@@H](C)C(=O)C[C@H](C(C)C)C(=O)C1
REMARK SMILES IDX 8 1 9 2 6 3 7 4 5 5 4 6 3 7 2 8 1 9 10 11 11 12 15 13 16 14
REMARK SMILES IDX 17 15 12 17 13 18 14 19
REMARK H PARENT
REMARK Flexibility Score: 70.00
ROOT
ATOM      1  C   UNL     1     -16.049   0.612  29.652  1.00  0.00     0.136 C 
ATOM      2  O   UNL     1     -16.369   1.790  29.731  1.00  0.00    -0.299 OA
ENDROOT
BRANCH   1   3
ATOM      3  C   UNL     1     -15.303   0.103  28.432  1.00  0.00     0.053 C 
ATOM      4  C   UNL     1     -13.994   0.869  28.186  1.00  0.00     0.016 C 
BRANCH   3   5
ATOM      5  C   UNL     1     -16.205   0.100  27.180  1.00  0.00     0.015 C 
BRANCH   5   6
ATOM      6  C   UNL     1     -17.137  -1.127  27.082  1.00  0.00     0.028 C 
BRANCH   6   7
ATOM      7  C   UNL     1     -18.573  -0.742  27.334  1.00  0.00    -0.028 C 
ATOM      8  C   UNL     1     -19.262  -1.028  28.465  1.00  0.00    -0.070 CG0
ATOM      9  C   UNL     1     -20.708  -0.606  28.539  1.00  0.00     0.039 C 
ATOM     10  G   UNL     1     -18.643  -1.743  29.658  1.00  0.00     0.000 G0
ENDBRANCH   6   7
ENDBRANCH   5   6
ENDBRANCH   3   5
ENDBRANCH   1   3
BRANCH   1  11
ATOM     11  C   UNL     1     -16.407  -0.319  30.787  1.00  0.00     0.087 C 
BRANCH  11  12
ATOM     12  C   UNL     1     -17.783   0.029  31.414  1.00  0.00     0.066 C 
BRANCH  12  13
ATOM     13  C   UNL     1     -18.819  -0.987  30.961  1.00  0.00     0.140 C 
ATOM     14  O   UNL     1     -19.849  -1.126  31.607  1.00  0.00    -0.299 OA
BRANCH  13  15
ATOM     15  C   UNL     1     -18.639  -1.744  29.669  1.00  0.00     0.106 CG0
ATOM     16  G   UNL     1     -19.247  -1.018  28.477  1.00  0.00     0.000 G0
ENDBRANCH  13  15
ENDBRANCH  12  13
BRANCH  12  17
ATOM     17  C   UNL     1     -17.731   0.100  32.976  1.00  0.00    -0.006 C 
ATOM     18  C   UNL     1     -16.459  -0.548  33.552  1.00  0.00     0.008 C 
ATOM     19  C   UNL     1     -17.808   1.559  33.468  1.00  0.00     0.008 C 
ENDBRANCH  12  17
ENDBRANCH  11  12
ENDBRANCH   1  11
TORSDOF 1
ENDMDL
