MODEL 1
REMARK VINA RESULT:    -4.225      0.000      0.000
REMARK INTER + INTRA:          -5.544
REMARK INTER:                  -5.089
REMARK INTRA:                  -0.455
REMARK UNBOUND:                -0.455
REMARK SMILES NC(=O)C[C@H]([NH3+])C(=O)[O-]
REMARK SMILES IDX 4 1 5 2 6 3 7 7 8 8 9 9 2 10 3 11 1 12
REMARK H PARENT 6 4 6 5 6 6 1 13 1 14
REMARK Flexibility Score: inf
ROOT
ATOM      1  C   UNL     1     -28.312 -25.719 101.967  1.00  0.00     0.171 C 
ENDROOT
BRANCH   1   2
ATOM      2  C   UNL     1     -29.605 -25.026 102.444  1.00  0.00     0.237 C 
BRANCH   2   3
ATOM      3  N   UNL     1     -30.784 -25.796 102.027  1.00  0.00    -0.350 N 
ATOM      4  H   UNL     1     -31.134 -26.370 102.829  1.00  0.00     0.345 HD
ATOM      5  H   UNL     1     -31.547 -25.158 101.701  1.00  0.00     0.345 HD
ATOM      6  H   UNL     1     -30.526 -26.445 101.249  1.00  0.00     0.345 HD
ENDBRANCH   2   3
BRANCH   2   7
ATOM      7  C   UNL     1     -29.690 -23.616 101.916  1.00  0.00     0.100 C 
ATOM      8  O   UNL     1     -29.102 -23.296 100.849  1.00  0.00    -0.544 OA
ATOM      9  O   UNL     1     -30.407 -22.655 102.617  1.00  0.00    -0.544 OA
ENDBRANCH   2   7
ENDBRANCH   1   2
BRANCH   1  10
ATOM     10  C   UNL     1     -28.545 -26.529 100.724  1.00  0.00     0.223 C 
ATOM     11  O   UNL     1     -28.954 -27.717 100.819  1.00  0.00    -0.275 OA
ATOM     12  N   UNL     1     -28.269 -25.977  99.437  1.00  0.00    -0.369 N 
ATOM     13  H   UNL     1     -28.417 -26.548  98.576  1.00  0.00     0.159 HD
ATOM     14  H   UNL     1     -27.910 -25.001  99.340  1.00  0.00     0.159 HD
ENDBRANCH   1  10
TORSDOF 4
ENDMDL
MODEL 2
REMARK VINA RESULT:    -4.121      2.120      2.543
REMARK INTER + INTRA:          -5.420
REMARK INTER:                  -5.083
REMARK INTRA:                  -0.337
REMARK UNBOUND:                -0.455
REMARK SMILES NC(=O)C[C@H]([NH3+])C(=O)[O-]
REMARK SMILES IDX 4 1 5 2 6 3 7 7 8 8 9 9 2 10 3 11 1 12
REMARK H PARENT 6 4 6 5 6 6 1 13 1 14
REMARK Flexibility Score: inf
ROOT
ATOM      1  C   UNL     1     -28.841 -26.765 101.810  1.00  0.00     0.171 C 
ENDROOT
BRANCH   1   2
ATOM      2  C   UNL     1     -29.939 -26.019 102.596  1.00  0.00     0.237 C 
BRANCH   2   3
ATOM      3  N   UNL     1     -30.340 -24.798 101.885  1.00  0.00    -0.350 N 
ATOM      4  H   UNL     1     -30.952 -25.045 101.073  1.00  0.00     0.345 HD
ATOM      5  H   UNL     1     -30.858 -24.151 102.523  1.00  0.00     0.345 HD
ATOM      6  H   UNL     1     -29.492 -24.309 101.518  1.00  0.00     0.345 HD
ENDBRANCH   2   3
BRANCH   2   7
ATOM      7  C   UNL     1     -29.473 -25.681 103.989  1.00  0.00     0.100 C 
ATOM      8  O   UNL     1     -28.908 -24.580 104.226  1.00  0.00    -0.544 OA
ATOM      9  O   UNL     1     -29.651 -26.596 105.020  1.00  0.00    -0.544 OA
ENDBRANCH   2   7
ENDBRANCH   1   2
BRANCH   1  10
ATOM     10  C   UNL     1     -28.167 -25.867 100.813  1.00  0.00     0.223 C 
ATOM     11  O   UNL     1     -27.461 -24.904 101.216  1.00  0.00    -0.275 OA
ATOM     12  N   UNL     1     -28.352 -26.072  99.413  1.00  0.00    -0.369 N 
ATOM     13  H   UNL     1     -27.894 -25.437  98.722  1.00  0.00     0.159 HD
ATOM     14  H   UNL     1     -28.949 -26.853  99.061  1.00  0.00     0.159 HD
ENDBRANCH   1  10
TORSDOF 4
ENDMDL
MODEL 3
REMARK VINA RESULT:    -4.044      2.165      3.092
REMARK INTER + INTRA:          -5.327
REMARK INTER:                  -5.212
REMARK INTRA:                  -0.114
REMARK UNBOUND:                -0.455
REMARK SMILES NC(=O)C[C@H]([NH3+])C(=O)[O-]
REMARK SMILES IDX 4 1 5 2 6 3 7 7 8 8 9 9 2 10 3 11 1 12
REMARK H PARENT 6 4 6 5 6 6 1 13 1 14
REMARK Flexibility Score: inf
ROOT
ATOM      1  C   UNL     1     -28.838 -26.583 101.850  1.00  0.00     0.171 C 
ENDROOT
BRANCH   1   2
ATOM      2  C   UNL     1     -28.574 -25.459 100.827  1.00  0.00     0.237 C 
BRANCH   2   3
ATOM      3  N   UNL     1     -28.290 -26.026  99.503  1.00  0.00    -0.350 N 
ATOM      4  H   UNL     1     -27.887 -26.986  99.607  1.00  0.00     0.345 HD
ATOM      5  H   UNL     1     -29.162 -26.078  98.927  1.00  0.00     0.345 HD
ATOM      6  H   UNL     1     -27.589 -25.430  99.006  1.00  0.00     0.345 HD
ENDBRANCH   2   3
BRANCH   2   7
ATOM      7  C   UNL     1     -27.434 -24.578 101.273  1.00  0.00     0.100 C 
ATOM      8  O   UNL     1     -26.741 -24.888 102.278  1.00  0.00    -0.544 OA
ATOM      9  O   UNL     1     -27.153 -23.406 100.582  1.00  0.00    -0.544 OA
ENDBRANCH   2   7
ENDBRANCH   1   2
BRANCH   1  10
ATOM     10  C   UNL     1     -29.910 -26.198 102.829  1.00  0.00     0.223 C 
ATOM     11  O   UNL     1     -29.693 -26.304 104.066  1.00  0.00    -0.275 OA
ATOM     12  N   UNL     1     -31.185 -25.751 102.369  1.00  0.00    -0.369 N 
ATOM     13  H   UNL     1     -31.932 -25.498 103.053  1.00  0.00     0.159 HD
ATOM     14  H   UNL     1     -31.388 -25.676 101.348  1.00  0.00     0.159 HD
ENDBRANCH   1  10
TORSDOF 4
ENDMDL
MODEL 4
REMARK VINA RESULT:    -4.039      1.850      2.081
REMARK INTER + INTRA:          -5.320
REMARK INTER:                  -5.179
REMARK INTRA:                  -0.141
REMARK UNBOUND:                -0.455
REMARK SMILES NC(=O)C[C@H]([NH3+])C(=O)[O-]
REMARK SMILES IDX 4 1 5 2 6 3 7 7 8 8 9 9 2 10 3 11 1 12
REMARK H PARENT 6 4 6 5 6 6 1 13 1 14
REMARK Flexibility Score: inf
ROOT
ATOM      1  C   UNL     1     -28.953 -26.654 101.774  1.00  0.00     0.171 C 
ENDROOT
BRANCH   1   2
ATOM      2  C   UNL     1     -29.344 -25.813 103.007  1.00  0.00     0.237 C 
BRANCH   2   3
ATOM      3  N   UNL     1     -29.523 -26.675 104.182  1.00  0.00    -0.350 N 
ATOM      4  H   UNL     1     -30.318 -27.334 104.020  1.00  0.00     0.345 HD
ATOM      5  H   UNL     1     -28.653 -27.224 104.374  1.00  0.00     0.345 HD
ATOM      6  H   UNL     1     -29.749 -26.089 105.018  1.00  0.00     0.345 HD
ENDBRANCH   2   3
BRANCH   2   7
ATOM      7  C   UNL     1     -30.600 -25.021 102.744  1.00  0.00     0.100 C 
ATOM      8  O   UNL     1     -31.660 -25.602 102.387  1.00  0.00    -0.544 OA
ATOM      9  O   UNL     1     -30.590 -23.639 102.880  1.00  0.00    -0.544 OA
ENDBRANCH   2   7
ENDBRANCH   1   2
BRANCH   1  10
ATOM     10  C   UNL     1     -28.151 -25.852 100.789  1.00  0.00     0.223 C 
ATOM     11  O   UNL     1     -27.343 -24.979 101.204  1.00  0.00    -0.275 OA
ATOM     12  N   UNL     1     -28.326 -26.045  99.386  1.00  0.00    -0.369 N 
ATOM     13  H   UNL     1     -27.778 -25.475  98.703  1.00  0.00     0.159 HD
ATOM     14  H   UNL     1     -29.005 -26.750  99.024  1.00  0.00     0.159 HD
ENDBRANCH   1  10
TORSDOF 4
ENDMDL
MODEL 5
REMARK VINA RESULT:    -3.923      1.661      1.880
REMARK INTER + INTRA:          -5.181
REMARK INTER:                  -5.090
REMARK INTRA:                  -0.091
REMARK UNBOUND:                -0.455
REMARK SMILES NC(=O)C[C@H]([NH3+])C(=O)[O-]
REMARK SMILES IDX 4 1 5 2 6 3 7 7 8 8 9 9 2 10 3 11 1 12
REMARK H PARENT 6 4 6 5 6 6 1 13 1 14
REMARK Flexibility Score: inf
ROOT
ATOM      1  C   UNL     1     -27.956 -24.984 101.506  1.00  0.00     0.171 C 
ENDROOT
BRANCH   1   2
ATOM      2  C   UNL     1     -28.861 -23.810 101.078  1.00  0.00     0.237 C 
BRANCH   2   3
ATOM      3  N   UNL     1     -28.117 -22.871 100.230  1.00  0.00    -0.350 N 
ATOM      4  H   UNL     1     -28.581 -22.793  99.296  1.00  0.00     0.345 HD
ATOM      5  H   UNL     1     -28.074 -21.924 100.674  1.00  0.00     0.345 HD
ATOM      6  H   UNL     1     -27.143 -23.223 100.083  1.00  0.00     0.345 HD
ENDBRANCH   2   3
BRANCH   2   7
ATOM      7  C   UNL     1     -29.423 -23.094 102.280  1.00  0.00     0.100 C 
ATOM      8  O   UNL     1     -28.854 -22.067 102.738  1.00  0.00    -0.544 OA
ATOM      9  O   UNL     1     -30.567 -23.577 102.902  1.00  0.00    -0.544 OA
ENDBRANCH   2   7
ENDBRANCH   1   2
BRANCH   1  10
ATOM     10  C   UNL     1     -28.445 -26.290 100.949  1.00  0.00     0.223 C 
ATOM     11  O   UNL     1     -28.831 -27.199 101.733  1.00  0.00    -0.275 OA
ATOM     12  N   UNL     1     -28.440 -26.525  99.542  1.00  0.00    -0.369 N 
ATOM     13  H   UNL     1     -28.767 -27.440  99.159  1.00  0.00     0.159 HD
ATOM     14  H   UNL     1     -28.105 -25.791  98.879  1.00  0.00     0.159 HD
ENDBRANCH   1  10
TORSDOF 4
ENDMDL
MODEL 6
REMARK VINA RESULT:    -3.646      7.492      8.973
REMARK INTER + INTRA:          -4.848
REMARK INTER:                  -4.392
REMARK INTRA:                  -0.456
REMARK UNBOUND:                -0.455
REMARK SMILES NC(=O)C[C@H]([NH3+])C(=O)[O-]
REMARK SMILES IDX 4 1 5 2 6 3 7 7 8 8 9 9 2 10 3 11 1 12
REMARK H PARENT 6 4 6 5 6 6 1 13 1 14
REMARK Flexibility Score: inf
ROOT
ATOM      1  C   UNL     1     -30.629 -17.390 105.909  1.00  0.00     0.171 C 
ENDROOT
BRANCH   1   2
ATOM      2  C   UNL     1     -30.022 -17.252 104.498  1.00  0.00     0.237 C 
BRANCH   2   3
ATOM      3  N   UNL     1     -30.930 -16.505 103.618  1.00  0.00    -0.350 N 
ATOM      4  H   UNL     1     -31.592 -15.935 104.194  1.00  0.00     0.345 HD
ATOM      5  H   UNL     1     -30.392 -15.872 102.983  1.00  0.00     0.345 HD
ATOM      6  H   UNL     1     -31.490 -17.172 103.041  1.00  0.00     0.345 HD
ENDBRANCH   2   3
BRANCH   2   7
ATOM      7  C   UNL     1     -29.717 -18.604 103.905  1.00  0.00     0.100 C 
ATOM      8  O   UNL     1     -28.670 -18.785 103.228  1.00  0.00    -0.544 OA
ATOM      9  O   UNL     1     -30.602 -19.658 104.091  1.00  0.00    -0.544 OA
ENDBRANCH   2   7
ENDBRANCH   1   2
BRANCH   1  10
ATOM     10  C   UNL     1     -32.129 -17.336 105.873  1.00  0.00     0.223 C 
ATOM     11  O   UNL     1     -32.714 -16.221 105.839  1.00  0.00    -0.275 OA
ATOM     12  N   UNL     1     -32.899 -18.537 105.916  1.00  0.00    -0.369 N 
ATOM     13  H   UNL     1     -33.942 -18.496 105.906  1.00  0.00     0.159 HD
ATOM     14  H   UNL     1     -32.432 -19.470 105.965  1.00  0.00     0.159 HD
ENDBRANCH   1  10
TORSDOF 4
ENDMDL
MODEL 7
REMARK VINA RESULT:    -3.622      8.468      9.181
REMARK INTER + INTRA:          -4.819
REMARK INTER:                  -4.352
REMARK INTRA:                  -0.466
REMARK UNBOUND:                -0.455
REMARK SMILES NC(=O)C[C@H]([NH3+])C(=O)[O-]
REMARK SMILES IDX 4 1 5 2 6 3 7 7 8 8 9 9 2 10 3 11 1 12
REMARK H PARENT 6 4 6 5 6 6 1 13 1 14
REMARK Flexibility Score: inf
ROOT
ATOM      1  C   UNL     1     -25.736 -28.083 109.444  1.00  0.00     0.171 C 
ENDROOT
BRANCH   1   2
ATOM      2  C   UNL     1     -26.931 -28.494 108.558  1.00  0.00     0.237 C 
BRANCH   2   3
ATOM      3  N   UNL     1     -27.473 -29.787 108.995  1.00  0.00    -0.350 N 
ATOM      4  H   UNL     1     -28.147 -29.642 109.781  1.00  0.00     0.345 HD
ATOM      5  H   UNL     1     -27.962 -30.269 108.205  1.00  0.00     0.345 HD
ATOM      6  H   UNL     1     -26.697 -30.398 109.338  1.00  0.00     0.345 HD
ENDBRANCH   2   3
BRANCH   2   7
ATOM      7  C   UNL     1     -26.531 -28.560 107.106  1.00  0.00     0.100 C 
ATOM      8  O   UNL     1     -25.403 -29.012 106.773  1.00  0.00    -0.544 OA
ATOM      9  O   UNL     1     -27.403 -28.104 106.126  1.00  0.00    -0.544 OA
ENDBRANCH   2   7
ENDBRANCH   1   2
BRANCH   1  10
ATOM     10  C   UNL     1     -25.081 -29.277 110.077  1.00  0.00     0.223 C 
ATOM     11  O   UNL     1     -25.398 -29.617 111.248  1.00  0.00    -0.275 OA
ATOM     12  N   UNL     1     -24.073 -30.006 109.377  1.00  0.00    -0.369 N 
ATOM     13  H   UNL     1     -23.608 -30.827 109.826  1.00  0.00     0.159 HD
ATOM     14  H   UNL     1     -23.783 -29.727 108.413  1.00  0.00     0.159 HD
ENDBRANCH   1  10
TORSDOF 4
ENDMDL
MODEL 8
REMARK VINA RESULT:    -3.589      1.778      2.087
REMARK INTER + INTRA:          -4.779
REMARK INTER:                  -4.298
REMARK INTRA:                  -0.481
REMARK UNBOUND:                -0.455
REMARK SMILES NC(=O)C[C@H]([NH3+])C(=O)[O-]
REMARK SMILES IDX 4 1 5 2 6 3 7 7 8 8 9 9 2 10 3 11 1 12
REMARK H PARENT 6 4 6 5 6 6 1 13 1 14
REMARK Flexibility Score: inf
ROOT
ATOM      1  C   UNL     1     -27.764 -24.778 102.097  1.00  0.00     0.171 C 
ENDROOT
BRANCH   1   2
ATOM      2  C   UNL     1     -29.125 -25.199 102.690  1.00  0.00     0.237 C 
BRANCH   2   3
ATOM      3  N   UNL     1     -29.936 -25.887 101.678  1.00  0.00    -0.350 N 
ATOM      4  H   UNL     1     -30.448 -25.185 101.096  1.00  0.00     0.345 HD
ATOM      5  H   UNL     1     -29.333 -26.476 101.058  1.00  0.00     0.345 HD
ATOM      6  H   UNL     1     -30.642 -26.499 102.148  1.00  0.00     0.345 HD
ENDBRANCH   2   3
BRANCH   2   7
ATOM      7  C   UNL     1     -29.870 -24.006 103.233  1.00  0.00     0.100 C 
ATOM      8  O   UNL     1     -30.209 -23.960 104.445  1.00  0.00    -0.544 OA
ATOM      9  O   UNL     1     -30.203 -22.954 102.389  1.00  0.00    -0.544 OA
ENDBRANCH   2   7
ENDBRANCH   1   2
BRANCH   1  10
ATOM     10  C   UNL     1     -27.859 -24.528 100.619  1.00  0.00     0.223 C 
ATOM     11  O   UNL     1     -27.749 -25.491  99.814  1.00  0.00    -0.275 OA
ATOM     12  N   UNL     1     -28.034 -23.203 100.118  1.00  0.00    -0.369 N 
ATOM     13  H   UNL     1     -28.084 -23.031  99.090  1.00  0.00     0.159 HD
ATOM     14  H   UNL     1     -28.107 -22.391 100.770  1.00  0.00     0.159 HD
ENDBRANCH   1  10
TORSDOF 4
ENDMDL
MODEL 9
REMARK VINA RESULT:    -3.573      1.878      3.936
REMARK INTER + INTRA:          -4.759
REMARK INTER:                  -4.474
REMARK INTRA:                  -0.285
REMARK UNBOUND:                -0.455
REMARK SMILES NC(=O)C[C@H]([NH3+])C(=O)[O-]
REMARK SMILES IDX 4 1 5 2 6 3 7 7 8 8 9 9 2 10 3 11 1 12
REMARK H PARENT 6 4 6 5 6 6 1 13 1 14
REMARK Flexibility Score: inf
ROOT
ATOM      1  C   UNL     1     -29.919 -23.734 101.815  1.00  0.00     0.171 C 
ENDROOT
BRANCH   1   2
ATOM      2  C   UNL     1     -28.475 -24.013 101.348  1.00  0.00     0.237 C 
BRANCH   2   3
ATOM      3  N   UNL     1     -28.090 -23.077 100.284  1.00  0.00    -0.350 N 
ATOM      4  H   UNL     1     -28.318 -22.098 100.573  1.00  0.00     0.345 HD
ATOM      5  H   UNL     1     -27.066 -23.147 100.082  1.00  0.00     0.345 HD
ATOM      6  H   UNL     1     -28.625 -23.293  99.412  1.00  0.00     0.345 HD
ENDBRANCH   2   3
BRANCH   2   7
ATOM      7  C   UNL     1     -28.326 -25.435 100.871  1.00  0.00     0.100 C 
ATOM      8  O   UNL     1     -27.827 -25.682  99.741  1.00  0.00    -0.544 OA
ATOM      9  O   UNL     1     -28.756 -26.484 101.673  1.00  0.00    -0.544 OA
ENDBRANCH   2   7
ENDBRANCH   1   2
BRANCH   1  10
ATOM     10  C   UNL     1     -30.027 -23.748 103.313  1.00  0.00     0.223 C 
ATOM     11  O   UNL     1     -29.894 -22.674 103.959  1.00  0.00    -0.275 OA
ATOM     12  N   UNL     1     -30.241 -24.973 104.013  1.00  0.00    -0.369 N 
ATOM     13  H   UNL     1     -30.301 -24.981 105.055  1.00  0.00     0.159 HD
ATOM     14  H   UNL     1     -30.334 -25.875 103.495  1.00  0.00     0.159 HD
ENDBRANCH   1  10
TORSDOF 4
ENDMDL
