MODEL 1
REMARK VINA RESULT:    -4.320      0.000      0.000
REMARK INTER + INTRA:          -6.338
REMARK INTER:                  -5.835
REMARK INTRA:                  -0.503
REMARK UNBOUND:                -0.503
REMARK SMILES [NH3+]CCCC[C@@H]([NH3+])C(=O)[O-]
REMARK SMILES IDX 4 1 3 2 2 3 1 4 5 8 6 9 7 10 8 14 9 15 10 16
REMARK H PARENT 1 5 1 6 1 7 7 11 7 12 7 13
REMARK Flexibility Score: inf
ROOT
ATOM      1  C   UNL     1      38.814  -8.944   4.928  1.00  0.00     0.012 C 
ENDROOT
BRANCH   1   2
ATOM      2  C   UNL     1      38.449  -7.865   3.899  1.00  0.00     0.061 C 
BRANCH   2   3
ATOM      3  C   UNL     1      37.023  -7.323   4.090  1.00  0.00     0.258 C 
BRANCH   3   4
ATOM      4  N   UNL     1      36.011  -8.372   3.958  1.00  0.00    -0.358 N 
ATOM      5  H   UNL     1      35.075  -8.018   4.264  1.00  0.00     0.344 HD
ATOM      6  H   UNL     1      35.948  -8.659   2.954  1.00  0.00     0.344 HD
ATOM      7  H   UNL     1      36.279  -9.211   4.522  1.00  0.00     0.344 HD
ENDBRANCH   3   4
ENDBRANCH   2   3
ENDBRANCH   1   2
BRANCH   1   8
ATOM      8  C   UNL     1      38.917  -8.343   6.339  1.00  0.00     0.072 C 
BRANCH   8   9
ATOM      9  C   UNL     1      38.153  -9.172   7.396  1.00  0.00     0.227 C 
BRANCH   9  10
ATOM     10  N   UNL     1      38.835  -9.156   8.698  1.00  0.00    -0.350 N 
ATOM     11  H   UNL     1      38.344  -9.788   9.370  1.00  0.00     0.345 HD
ATOM     12  H   UNL     1      38.811  -8.190   9.101  1.00  0.00     0.345 HD
ATOM     13  H   UNL     1      39.832  -9.459   8.601  1.00  0.00     0.345 HD
ENDBRANCH   9  10
BRANCH   9  14
ATOM     14  C   UNL     1      36.751  -8.640   7.539  1.00  0.00     0.099 C 
ATOM     15  O   UNL     1      35.795  -9.188   6.928  1.00  0.00    -0.544 OA
ATOM     16  O   UNL     1      36.503  -7.551   8.364  1.00  0.00    -0.544 OA
ENDBRANCH   9  14
ENDBRANCH   8   9
ENDBRANCH   1   8
TORSDOF 7
ENDMDL
MODEL 2
REMARK VINA RESULT:    -4.275      1.682      3.362
REMARK INTER + INTRA:          -6.277
REMARK INTER:                  -5.732
REMARK INTRA:                  -0.544
REMARK UNBOUND:                -0.503
REMARK SMILES [NH3+]CCCC[C@@H]([NH3+])C(=O)[O-]
REMARK SMILES IDX 4 1 3 2 2 3 1 4 5 8 6 9 7 10 8 14 9 15 10 16
REMARK H PARENT 1 5 1 6 1 7 7 11 7 12 7 13
REMARK Flexibility Score: inf
ROOT
ATOM      1  C   UNL     1      38.315  -7.500   4.018  1.00  0.00     0.012 C 
ENDROOT
BRANCH   1   2
ATOM      2  C   UNL     1      39.089  -7.846   5.298  1.00  0.00     0.061 C 
BRANCH   2   3
ATOM      3  C   UNL     1      39.056  -9.348   5.621  1.00  0.00     0.258 C 
BRANCH   3   4
ATOM      4  N   UNL     1      38.226  -9.643   6.791  1.00  0.00    -0.358 N 
ATOM      5  H   UNL     1      38.436 -10.601   7.156  1.00  0.00     0.344 HD
ATOM      6  H   UNL     1      38.438  -8.946   7.542  1.00  0.00     0.344 HD
ATOM      7  H   UNL     1      37.213  -9.566   6.548  1.00  0.00     0.344 HD
ENDBRANCH   3   4
ENDBRANCH   2   3
ENDBRANCH   1   2
BRANCH   1   8
ATOM      8  C   UNL     1      37.189  -6.496   4.313  1.00  0.00     0.072 C 
BRANCH   8   9
ATOM      9  C   UNL     1      35.799  -7.166   4.394  1.00  0.00     0.227 C 
BRANCH   9  10
ATOM     10  N   UNL     1      35.849  -8.576   3.980  1.00  0.00    -0.350 N 
ATOM     11  H   UNL     1      35.734  -8.651   2.944  1.00  0.00     0.345 HD
ATOM     12  H   UNL     1      35.061  -9.104   4.422  1.00  0.00     0.345 HD
ATOM     13  H   UNL     1      36.756  -9.016   4.262  1.00  0.00     0.345 HD
ENDBRANCH   9  10
BRANCH   9  14
ATOM     14  C   UNL     1      35.267  -7.057   5.798  1.00  0.00     0.099 C 
ATOM     15  O   UNL     1      34.261  -6.340   6.046  1.00  0.00    -0.544 OA
ATOM     16  O   UNL     1      35.875  -7.763   6.828  1.00  0.00    -0.544 OA
ENDBRANCH   9  14
ENDBRANCH   8   9
ENDBRANCH   1   8
TORSDOF 7
ENDMDL
MODEL 3
REMARK VINA RESULT:    -4.220      2.699      3.687
REMARK INTER + INTRA:          -6.202
REMARK INTER:                  -5.680
REMARK INTRA:                  -0.522
REMARK UNBOUND:                -0.503
REMARK SMILES [NH3+]CCCC[C@@H]([NH3+])C(=O)[O-]
REMARK SMILES IDX 4 1 3 2 2 3 1 4 5 8 6 9 7 10 8 14 9 15 10 16
REMARK H PARENT 1 5 1 6 1 7 7 11 7 12 7 13
REMARK Flexibility Score: inf
ROOT
ATOM      1  C   UNL     1      35.996  -5.964   3.997  1.00  0.00     0.012 C 
ENDROOT
BRANCH   1   2
ATOM      2  C   UNL     1      34.759  -6.085   4.899  1.00  0.00     0.061 C 
BRANCH   2   3
ATOM      3  C   UNL     1      35.119  -6.141   6.393  1.00  0.00     0.258 C 
BRANCH   3   4
ATOM      4  N   UNL     1      34.491  -7.277   7.069  1.00  0.00    -0.358 N 
ATOM      5  H   UNL     1      34.668  -7.233   8.100  1.00  0.00     0.344 HD
ATOM      6  H   UNL     1      33.458  -7.242   6.906  1.00  0.00     0.344 HD
ATOM      7  H   UNL     1      34.853  -8.178   6.682  1.00  0.00     0.344 HD
ENDBRANCH   3   4
ENDBRANCH   2   3
ENDBRANCH   1   2
BRANCH   1   8
ATOM      8  C   UNL     1      37.209  -6.659   4.635  1.00  0.00     0.072 C 
BRANCH   8   9
ATOM      9  C   UNL     1      37.501  -8.042   4.010  1.00  0.00     0.227 C 
BRANCH   9  10
ATOM     10  N   UNL     1      38.895  -8.152   3.558  1.00  0.00    -0.350 N 
ATOM     11  H   UNL     1      38.983  -7.810   2.574  1.00  0.00     0.345 HD
ATOM     12  H   UNL     1      39.194  -9.156   3.569  1.00  0.00     0.345 HD
ATOM     13  H   UNL     1      39.533  -7.600   4.177  1.00  0.00     0.345 HD
ENDBRANCH   9  10
BRANCH   9  14
ATOM     14  C   UNL     1      37.191  -9.124   5.010  1.00  0.00     0.099 C 
ATOM     15  O   UNL     1      38.123  -9.734   5.599  1.00  0.00    -0.544 OA
ATOM     16  O   UNL     1      35.871  -9.443   5.301  1.00  0.00    -0.544 OA
ENDBRANCH   9  14
ENDBRANCH   8   9
ENDBRANCH   1   8
TORSDOF 7
ENDMDL
MODEL 4
REMARK VINA RESULT:    -4.188      3.151      4.436
REMARK INTER + INTRA:          -6.160
REMARK INTER:                  -5.997
REMARK INTRA:                  -0.163
REMARK UNBOUND:                -0.503
REMARK SMILES [NH3+]CCCC[C@@H]([NH3+])C(=O)[O-]
REMARK SMILES IDX 4 1 3 2 2 3 1 4 5 8 6 9 7 10 8 14 9 15 10 16
REMARK H PARENT 1 5 1 6 1 7 7 11 7 12 7 13
REMARK Flexibility Score: inf
ROOT
ATOM      1  C   UNL     1      35.684  -5.704   3.911  1.00  0.00     0.012 C 
ENDROOT
BRANCH   1   2
ATOM      2  C   UNL     1      35.003  -4.762   4.915  1.00  0.00     0.061 C 
BRANCH   2   3
ATOM      3  C   UNL     1      33.891  -5.458   5.718  1.00  0.00     0.258 C 
BRANCH   3   4
ATOM      4  N   UNL     1      32.973  -4.499   6.335  1.00  0.00    -0.358 N 
ATOM      5  H   UNL     1      33.043  -3.569   5.860  1.00  0.00     0.344 HD
ATOM      6  H   UNL     1      31.994  -4.852   6.235  1.00  0.00     0.344 HD
ATOM      7  H   UNL     1      33.183  -4.397   7.354  1.00  0.00     0.344 HD
ENDBRANCH   3   4
ENDBRANCH   2   3
ENDBRANCH   1   2
BRANCH   1   8
ATOM      8  C   UNL     1      36.987  -6.275   4.493  1.00  0.00     0.072 C 
BRANCH   8   9
ATOM      9  C   UNL     1      36.909  -7.797   4.748  1.00  0.00     0.227 C 
BRANCH   9  10
ATOM     10  N   UNL     1      35.817  -8.422   3.988  1.00  0.00    -0.350 N 
ATOM     11  H   UNL     1      35.349  -9.155   4.567  1.00  0.00     0.345 HD
ATOM     12  H   UNL     1      36.202  -8.894   3.136  1.00  0.00     0.345 HD
ATOM     13  H   UNL     1      35.111  -7.708   3.693  1.00  0.00     0.345 HD
ENDBRANCH   9  10
BRANCH   9  14
ATOM     14  C   UNL     1      38.224  -8.438   4.391  1.00  0.00     0.099 C 
ATOM     15  O   UNL     1      38.790  -8.168   3.298  1.00  0.00    -0.544 OA
ATOM     16  O   UNL     1      38.831  -9.318   5.278  1.00  0.00    -0.544 OA
ENDBRANCH   9  14
ENDBRANCH   8   9
ENDBRANCH   1   8
TORSDOF 7
ENDMDL
MODEL 5
REMARK VINA RESULT:    -4.152      1.709      2.061
REMARK INTER + INTRA:          -6.111
REMARK INTER:                  -5.847
REMARK INTRA:                  -0.264
REMARK UNBOUND:                -0.503
REMARK SMILES [NH3+]CCCC[C@@H]([NH3+])C(=O)[O-]
REMARK SMILES IDX 4 1 3 2 2 3 1 4 5 8 6 9 7 10 8 14 9 15 10 16
REMARK H PARENT 1 5 1 6 1 7 7 11 7 12 7 13
REMARK Flexibility Score: inf
ROOT
ATOM      1  C   UNL     1      37.883  -8.186   3.989  1.00  0.00     0.012 C 
ENDROOT
BRANCH   1   2
ATOM      2  C   UNL     1      37.298  -6.768   4.066  1.00  0.00     0.061 C 
BRANCH   2   3
ATOM      3  C   UNL     1      35.789  -6.767   4.360  1.00  0.00     0.258 C 
BRANCH   3   4
ATOM      4  N   UNL     1      35.089  -5.697   3.647  1.00  0.00    -0.358 N 
ATOM      5  H   UNL     1      34.514  -6.092   2.867  1.00  0.00     0.344 HD
ATOM      6  H   UNL     1      34.452  -5.204   4.315  1.00  0.00     0.344 HD
ATOM      7  H   UNL     1      35.772  -5.000   3.272  1.00  0.00     0.344 HD
ENDBRANCH   3   4
ENDBRANCH   2   3
ENDBRANCH   1   2
BRANCH   1   8
ATOM      8  C   UNL     1      36.981  -9.191   4.721  1.00  0.00     0.072 C 
BRANCH   8   9
ATOM      9  C   UNL     1      37.646  -9.775   5.989  1.00  0.00     0.227 C 
BRANCH   9  10
ATOM     10  N   UNL     1      39.113  -9.709   5.914  1.00  0.00    -0.350 N 
ATOM     11  H   UNL     1      39.406  -9.031   5.175  1.00  0.00     0.345 HD
ATOM     12  H   UNL     1      39.498 -10.646   5.650  1.00  0.00     0.345 HD
ATOM     13  H   UNL     1      39.520  -9.419   6.834  1.00  0.00     0.345 HD
ENDBRANCH   9  10
BRANCH   9  14
ATOM     14  C   UNL     1      37.154  -9.033   7.204  1.00  0.00     0.099 C 
ATOM     15  O   UNL     1      37.966  -8.638   8.083  1.00  0.00    -0.544 OA
ATOM     16  O   UNL     1      35.800  -8.764   7.351  1.00  0.00    -0.544 OA
ENDBRANCH   9  14
ENDBRANCH   8   9
ENDBRANCH   1   8
TORSDOF 7
ENDMDL
MODEL 6
REMARK VINA RESULT:    -4.142      2.530      3.415
REMARK INTER + INTRA:          -6.098
REMARK INTER:                  -5.927
REMARK INTRA:                  -0.171
REMARK UNBOUND:                -0.503
REMARK SMILES [NH3+]CCCC[C@@H]([NH3+])C(=O)[O-]
REMARK SMILES IDX 4 1 3 2 2 3 1 4 5 8 6 9 7 10 8 14 9 15 10 16
REMARK H PARENT 1 5 1 6 1 7 7 11 7 12 7 13
REMARK Flexibility Score: inf
ROOT
ATOM      1  C   UNL     1      36.412  -6.665   4.321  1.00  0.00     0.012 C 
ENDROOT
BRANCH   1   2
ATOM      2  C   UNL     1      35.007  -6.050   4.414  1.00  0.00     0.061 C 
BRANCH   2   3
ATOM      3  C   UNL     1      34.630  -5.652   5.850  1.00  0.00     0.258 C 
BRANCH   3   4
ATOM      4  N   UNL     1      33.539  -6.472   6.381  1.00  0.00    -0.358 N 
ATOM      5  H   UNL     1      32.639  -6.237   5.902  1.00  0.00     0.344 HD
ATOM      6  H   UNL     1      33.757  -7.480   6.209  1.00  0.00     0.344 HD
ATOM      7  H   UNL     1      33.444  -6.328   7.412  1.00  0.00     0.344 HD
ENDBRANCH   3   4
ENDBRANCH   2   3
ENDBRANCH   1   2
BRANCH   1   8
ATOM      8  C   UNL     1      36.343  -8.199   4.375  1.00  0.00     0.072 C 
BRANCH   8   9
ATOM      9  C   UNL     1      36.380  -8.746   5.820  1.00  0.00     0.227 C 
BRANCH   9  10
ATOM     10  N   UNL     1      35.453  -9.873   5.999  1.00  0.00    -0.350 N 
ATOM     11  H   UNL     1      35.508 -10.518   5.179  1.00  0.00     0.345 HD
ATOM     12  H   UNL     1      34.469  -9.519   6.055  1.00  0.00     0.345 HD
ATOM     13  H   UNL     1      35.675 -10.403   6.874  1.00  0.00     0.345 HD
ENDBRANCH   9  10
BRANCH   9  14
ATOM     14  C   UNL     1      37.784  -9.169   6.165  1.00  0.00     0.099 C 
ATOM     15  O   UNL     1      38.100  -9.422   7.358  1.00  0.00    -0.544 OA
ATOM     16  O   UNL     1      38.735  -9.300   5.161  1.00  0.00    -0.544 OA
ENDBRANCH   9  14
ENDBRANCH   8   9
ENDBRANCH   1   8
TORSDOF 7
ENDMDL
MODEL 7
REMARK VINA RESULT:    -4.107      2.048      3.642
REMARK INTER + INTRA:          -6.050
REMARK INTER:                  -5.656
REMARK INTRA:                  -0.395
REMARK UNBOUND:                -0.503
REMARK SMILES [NH3+]CCCC[C@@H]([NH3+])C(=O)[O-]
REMARK SMILES IDX 4 1 3 2 2 3 1 4 5 8 6 9 7 10 8 14 9 15 10 16
REMARK H PARENT 1 5 1 6 1 7 7 11 7 12 7 13
REMARK Flexibility Score: inf
ROOT
ATOM      1  C   UNL     1      38.057  -7.506   4.021  1.00  0.00     0.012 C 
ENDROOT
BRANCH   1   2
ATOM      2  C   UNL     1      38.703  -8.679   4.773  1.00  0.00     0.061 C 
BRANCH   2   3
ATOM      3  C   UNL     1      37.676  -9.729   5.225  1.00  0.00     0.258 C 
BRANCH   3   4
ATOM      4  N   UNL     1      37.788 -10.033   6.652  1.00  0.00    -0.358 N 
ATOM      5  H   UNL     1      38.759  -9.839   6.992  1.00  0.00     0.344 HD
ATOM      6  H   UNL     1      37.121  -9.427   7.183  1.00  0.00     0.344 HD
ATOM      7  H   UNL     1      37.539 -11.032   6.833  1.00  0.00     0.344 HD
ENDBRANCH   3   4
ENDBRANCH   2   3
ENDBRANCH   1   2
BRANCH   1   8
ATOM      8  C   UNL     1      36.524  -7.604   4.065  1.00  0.00     0.072 C 
BRANCH   8   9
ATOM      9  C   UNL     1      35.865  -6.358   4.697  1.00  0.00     0.227 C 
BRANCH   9  10
ATOM     10  N   UNL     1      34.969  -5.677   3.752  1.00  0.00    -0.350 N 
ATOM     11  H   UNL     1      34.009  -5.599   4.158  1.00  0.00     0.345 HD
ATOM     12  H   UNL     1      34.891  -6.236   2.870  1.00  0.00     0.345 HD
ATOM     13  H   UNL     1      35.327  -4.721   3.520  1.00  0.00     0.345 HD
ENDBRANCH   9  10
BRANCH   9  14
ATOM     14  C   UNL     1      35.107  -6.760   5.934  1.00  0.00     0.099 C 
ATOM     15  O   UNL     1      33.909  -6.401   6.094  1.00  0.00    -0.544 OA
ATOM     16  O   UNL     1      35.721  -7.547   6.899  1.00  0.00    -0.544 OA
ENDBRANCH   9  14
ENDBRANCH   8   9
ENDBRANCH   1   8
TORSDOF 7
ENDMDL
MODEL 8
REMARK VINA RESULT:    -4.082      1.893      3.232
REMARK INTER + INTRA:          -6.016
REMARK INTER:                  -5.489
REMARK INTRA:                  -0.527
REMARK UNBOUND:                -0.503
REMARK SMILES [NH3+]CCCC[C@@H]([NH3+])C(=O)[O-]
REMARK SMILES IDX 4 1 3 2 2 3 1 4 5 8 6 9 7 10 8 14 9 15 10 16
REMARK H PARENT 1 5 1 6 1 7 7 11 7 12 7 13
REMARK Flexibility Score: inf
ROOT
ATOM      1  C   UNL     1      37.144  -7.253   4.516  1.00  0.00     0.012 C 
ENDROOT
BRANCH   1   2
ATOM      2  C   UNL     1      37.792  -8.626   4.286  1.00  0.00     0.061 C 
BRANCH   2   3
ATOM      3  C   UNL     1      38.690  -9.060   5.456  1.00  0.00     0.258 C 
BRANCH   3   4
ATOM      4  N   UNL     1      38.080 -10.125   6.254  1.00  0.00    -0.358 N 
ATOM      5  H   UNL     1      37.053  -9.956   6.365  1.00  0.00     0.344 HD
ATOM      6  H   UNL     1      38.218 -11.039   5.765  1.00  0.00     0.344 HD
ATOM      7  H   UNL     1      38.536 -10.183   7.193  1.00  0.00     0.344 HD
ENDBRANCH   3   4
ENDBRANCH   2   3
ENDBRANCH   1   2
BRANCH   1   8
ATOM      8  C   UNL     1      35.658  -7.402   4.876  1.00  0.00     0.072 C 
BRANCH   8   9
ATOM      9  C   UNL     1      35.304  -6.746   6.230  1.00  0.00     0.227 C 
BRANCH   9  10
ATOM     10  N   UNL     1      33.853  -6.736   6.468  1.00  0.00    -0.350 N 
ATOM     11  H   UNL     1      33.401  -7.536   5.971  1.00  0.00     0.345 HD
ATOM     12  H   UNL     1      33.437  -5.854   6.086  1.00  0.00     0.345 HD
ATOM     13  H   UNL     1      33.643  -6.797   7.491  1.00  0.00     0.345 HD
ENDBRANCH   9  10
BRANCH   9  14
ATOM     14  C   UNL     1      36.007  -7.475   7.344  1.00  0.00     0.099 C 
ATOM     15  O   UNL     1      36.831  -6.872   8.082  1.00  0.00    -0.544 OA
ATOM     16  O   UNL     1      35.734  -8.817   7.575  1.00  0.00    -0.544 OA
ENDBRANCH   9  14
ENDBRANCH   8   9
ENDBRANCH   1   8
TORSDOF 7
ENDMDL
MODEL 9
REMARK VINA RESULT:    -4.043     20.785     21.760
REMARK INTER + INTRA:          -5.964
REMARK INTER:                  -5.399
REMARK INTRA:                  -0.565
REMARK UNBOUND:                -0.503
REMARK SMILES [NH3+]CCCC[C@@H]([NH3+])C(=O)[O-]
REMARK SMILES IDX 4 1 3 2 2 3 1 4 5 8 6 9 7 10 8 14 9 15 10 16
REMARK H PARENT 1 5 1 6 1 7 7 11 7 12 7 13
REMARK Flexibility Score: inf
ROOT
ATOM      1  C   UNL     1      33.896   9.664  17.991  1.00  0.00     0.012 C 
ENDROOT
BRANCH   1   2
ATOM      2  C   UNL     1      35.314   9.660  17.404  1.00  0.00     0.061 C 
BRANCH   2   3
ATOM      3  C   UNL     1      36.056   8.337  17.657  1.00  0.00     0.258 C 
BRANCH   3   4
ATOM      4  N   UNL     1      35.198   7.172  17.433  1.00  0.00    -0.358 N 
ATOM      5  H   UNL     1      35.246   6.870  16.432  1.00  0.00     0.344 HD
ATOM      6  H   UNL     1      35.530   6.385  18.036  1.00  0.00     0.344 HD
ATOM      7  H   UNL     1      34.210   7.391  17.694  1.00  0.00     0.344 HD
ENDBRANCH   3   4
ENDBRANCH   2   3
ENDBRANCH   1   2
BRANCH   1   8
ATOM      8  C   UNL     1      33.929   9.934  19.504  1.00  0.00     0.072 C 
BRANCH   8   9
ATOM      9  C   UNL     1      33.258   8.810  20.325  1.00  0.00     0.227 C 
BRANCH   9  10
ATOM     10  N   UNL     1      32.333   8.014  19.505  1.00  0.00    -0.350 N 
ATOM     11  H   UNL     1      31.976   8.586  18.707  1.00  0.00     0.345 HD
ATOM     12  H   UNL     1      31.507   7.725  20.079  1.00  0.00     0.345 HD
ATOM     13  H   UNL     1      32.807   7.157  19.134  1.00  0.00     0.345 HD
ENDBRANCH   9  10
BRANCH   9  14
ATOM     14  C   UNL     1      34.316   7.922  20.925  1.00  0.00     0.099 C 
ATOM     15  O   UNL     1      34.478   6.746  20.502  1.00  0.00    -0.544 OA
ATOM     16  O   UNL     1      35.134   8.405  21.937  1.00  0.00    -0.544 OA
ENDBRANCH   9  14
ENDBRANCH   8   9
ENDBRANCH   1   8
TORSDOF 7
ENDMDL
