MODEL 1
REMARK VINA RESULT:     4.829      0.000      0.000
REMARK INTER + INTRA:           6.489
REMARK INTER:                   5.959
REMARK INTRA:                   0.530
REMARK UNBOUND:                 0.530
REMARK SMILES CC(C)=CCC[C@@H](C)c1ccc(C)cc1
REMARK SMILES IDX 6 1 7 2 8 3 9 4 13 5 12 6 11 7 14 8 10 9 15 10 5 11 4 12
REMARK SMILES IDX 2 13 1 14 3 15
REMARK H PARENT
REMARK Flexibility Score: inf
ROOT
ATOM      1  C   UNL     1     -33.892 -10.212   4.870  1.00  0.00     0.012 C 
ENDROOT
BRANCH   1   2
ATOM      2  C   UNL     1     -34.631  -9.993   3.531  1.00  0.00     0.016 C 
ATOM      3  C   UNL     1     -35.817 -10.955   3.400  1.00  0.00     0.013 C 
BRANCH   2   4
ATOM      4  C   UNL     1     -35.091  -8.554   3.368  1.00  0.00    -0.045 A 
ATOM      5  C   UNL     1     -36.506  -4.498   2.920  1.00  0.00     0.044 C 
ATOM      6  C   UNL     1     -35.985  -5.895   3.083  1.00  0.00    -0.051 A 
ATOM      7  C   UNL     1     -35.458  -6.585   1.982  1.00  0.00     0.004 A 
ATOM      8  C   UNL     1     -36.084  -6.546   4.320  1.00  0.00     0.004 A 
ATOM      9  C   UNL     1     -35.009  -7.901   2.124  1.00  0.00     0.004 A 
ATOM     10  C   UNL     1     -35.636  -7.862   4.463  1.00  0.00     0.004 A 
ENDBRANCH   2   4
ENDBRANCH   1   2
BRANCH   1  11
ATOM     11  C   UNL     1     -33.225  -8.925   5.380  1.00  0.00     0.028 C 
BRANCH  11  12
ATOM     12  C   UNL     1     -31.737  -8.966   5.145  1.00  0.00    -0.028 C 
ATOM     13  C   UNL     1     -31.144  -8.648   3.971  1.00  0.00    -0.080 C 
ATOM     14  C   UNL     1     -31.941  -8.283   2.743  1.00  0.00     0.039 C 
ATOM     15  C   UNL     1     -29.643  -8.701   3.851  1.00  0.00     0.039 C 
ENDBRANCH  11  12
ENDBRANCH   1  11
TORSDOF 4
ENDMDL
MODEL 2
REMARK VINA RESULT:     5.439      1.102      5.028
REMARK INTER + INTRA:           7.241
REMARK INTER:                   7.480
REMARK INTRA:                  -0.239
REMARK UNBOUND:                 0.530
REMARK SMILES CC(C)=CCC[C@@H](C)c1ccc(C)cc1
REMARK SMILES IDX 6 1 7 2 8 3 9 4 13 5 12 6 11 7 14 8 10 9 15 10 5 11 4 12
REMARK SMILES IDX 2 13 1 14 3 15
REMARK H PARENT
REMARK Flexibility Score: inf
ROOT
ATOM      1  C   UNL     1     -35.331  -9.327   3.519  1.00  0.00     0.012 C 
ENDROOT
BRANCH   1   2
ATOM      2  C   UNL     1     -34.533  -8.514   4.562  1.00  0.00     0.016 C 
ATOM      3  C   UNL     1     -34.898  -8.950   5.987  1.00  0.00     0.013 C 
BRANCH   2   4
ATOM      4  C   UNL     1     -33.035  -8.624   4.339  1.00  0.00    -0.045 A 
ATOM      5  C   UNL     1     -28.756  -8.905   3.813  1.00  0.00     0.044 C 
ATOM      6  C   UNL     1     -30.246  -8.827   3.970  1.00  0.00    -0.051 A 
ATOM      7  C   UNL     1     -30.972  -7.814   3.329  1.00  0.00     0.004 A 
ATOM      8  C   UNL     1     -30.915  -9.724   4.814  1.00  0.00     0.004 A 
ATOM      9  C   UNL     1     -32.354  -7.716   3.505  1.00  0.00     0.004 A 
ATOM     10  C   UNL     1     -32.298  -9.627   4.993  1.00  0.00     0.004 A 
ENDBRANCH   2   4
ENDBRANCH   1   2
BRANCH   1  11
ATOM     11  C   UNL     1     -35.869  -8.442   2.384  1.00  0.00     0.028 C 
BRANCH  11  12
ATOM     12  C   UNL     1     -35.273  -7.059   2.458  1.00  0.00    -0.028 C 
ATOM     13  C   UNL     1     -35.812  -6.036   3.161  1.00  0.00    -0.080 C 
ATOM     14  C   UNL     1     -37.125  -6.171   3.893  1.00  0.00     0.039 C 
ATOM     15  C   UNL     1     -35.121  -4.698   3.185  1.00  0.00     0.039 C 
ENDBRANCH  11  12
ENDBRANCH   1  11
TORSDOF 4
ENDMDL
MODEL 3
REMARK VINA RESULT:     5.514      0.993      5.045
REMARK INTER + INTRA:           7.333
REMARK INTER:                   7.793
REMARK INTRA:                  -0.459
REMARK UNBOUND:                 0.530
REMARK SMILES CC(C)=CCC[C@@H](C)c1ccc(C)cc1
REMARK SMILES IDX 6 1 7 2 8 3 9 4 13 5 12 6 11 7 14 8 10 9 15 10 5 11 4 12
REMARK SMILES IDX 2 13 1 14 3 15
REMARK H PARENT
REMARK Flexibility Score: inf
ROOT
ATOM      1  C   UNL     1     -35.861  -8.546   4.821  1.00  0.00     0.012 C 
ENDROOT
BRANCH   1   2
ATOM      2  C   UNL     1     -35.106  -9.283   3.694  1.00  0.00     0.016 C 
ATOM      3  C   UNL     1     -35.617  -8.842   2.316  1.00  0.00     0.013 C 
BRANCH   2   4
ATOM      4  C   UNL     1     -33.604  -9.084   3.794  1.00  0.00    -0.045 A 
ATOM      5  C   UNL     1     -29.317  -8.588   3.994  1.00  0.00     0.044 C 
ATOM      6  C   UNL     1     -30.810  -8.731   3.940  1.00  0.00    -0.051 A 
ATOM      7  C   UNL     1     -31.496  -9.376   4.978  1.00  0.00     0.004 A 
ATOM      8  C   UNL     1     -31.522  -8.284   2.818  1.00  0.00     0.004 A 
ATOM      9  C   UNL     1     -32.881  -9.546   4.910  1.00  0.00     0.004 A 
ATOM     10  C   UNL     1     -32.907  -8.453   2.749  1.00  0.00     0.004 A 
ENDBRANCH   2   4
ENDBRANCH   1   2
BRANCH   1  11
ATOM     11  C   UNL     1     -35.606  -7.031   4.793  1.00  0.00     0.028 C 
BRANCH  11  12
ATOM     12  C   UNL     1     -36.491  -6.359   3.774  1.00  0.00    -0.028 C 
ATOM     13  C   UNL     1     -36.152  -5.240   3.094  1.00  0.00    -0.080 C 
ATOM     14  C   UNL     1     -34.858  -4.507   3.350  1.00  0.00     0.039 C 
ATOM     15  C   UNL     1     -37.105  -4.662   2.079  1.00  0.00     0.039 C 
ENDBRANCH  11  12
ENDBRANCH   1  11
TORSDOF 4
ENDMDL
MODEL 4
REMARK VINA RESULT:     7.333      1.248      4.465
REMARK INTER + INTRA:           9.578
REMARK INTER:                   9.844
REMARK INTRA:                  -0.266
REMARK UNBOUND:                 0.530
REMARK SMILES CC(C)=CCC[C@@H](C)c1ccc(C)cc1
REMARK SMILES IDX 6 1 7 2 8 3 9 4 13 5 12 6 11 7 14 8 10 9 15 10 5 11 4 12
REMARK SMILES IDX 2 13 1 14 3 15
REMARK H PARENT
REMARK Flexibility Score: inf
ROOT
ATOM      1  C   UNL     1     -35.720  -8.659   3.037  1.00  0.00     0.012 C 
ENDROOT
BRANCH   1   2
ATOM      2  C   UNL     1     -34.785  -7.521   2.574  1.00  0.00     0.016 C 
ATOM      3  C   UNL     1     -35.227  -6.177   3.167  1.00  0.00     0.013 C 
BRANCH   2   4
ATOM      4  C   UNL     1     -33.334  -7.804   2.920  1.00  0.00    -0.045 A 
ATOM      5  C   UNL     1     -29.238  -8.705   3.959  1.00  0.00     0.044 C 
ATOM      6  C   UNL     1     -30.650  -8.374   3.573  1.00  0.00    -0.051 A 
ATOM      7  C   UNL     1     -31.298  -7.271   4.147  1.00  0.00     0.004 A 
ATOM      8  C   UNL     1     -31.354  -9.203   2.690  1.00  0.00     0.004 A 
ATOM      9  C   UNL     1     -32.626  -6.984   3.819  1.00  0.00     0.004 A 
ATOM     10  C   UNL     1     -32.683  -8.918   2.362  1.00  0.00     0.004 A 
ENDBRANCH   2   4
ENDBRANCH   1   2
BRANCH   1  11
ATOM     11  C   UNL     1     -35.005  -9.653   3.965  1.00  0.00     0.028 C 
BRANCH  11  12
ATOM     12  C   UNL     1     -34.877  -9.087   5.357  1.00  0.00    -0.028 C 
ATOM     13  C   UNL     1     -33.798  -9.266   6.153  1.00  0.00    -0.080 C 
ATOM     14  C   UNL     1     -32.629 -10.126   5.738  1.00  0.00     0.039 C 
ATOM     15  C   UNL     1     -33.763  -8.636   7.521  1.00  0.00     0.039 C 
ENDBRANCH  11  12
ENDBRANCH   1  11
TORSDOF 4
ENDMDL
MODEL 5
REMARK VINA RESULT:     7.535      1.123      1.620
REMARK INTER + INTRA:           9.827
REMARK INTER:                   9.369
REMARK INTRA:                   0.458
REMARK UNBOUND:                 0.530
REMARK SMILES CC(C)=CCC[C@@H](C)c1ccc(C)cc1
REMARK SMILES IDX 6 1 7 2 8 3 9 4 13 5 12 6 11 7 14 8 10 9 15 10 5 11 4 12
REMARK SMILES IDX 2 13 1 14 3 15
REMARK H PARENT
REMARK Flexibility Score: inf
ROOT
ATOM      1  C   UNL     1     -33.905 -10.040   4.338  1.00  0.00     0.012 C 
ENDROOT
BRANCH   1   2
ATOM      2  C   UNL     1     -34.710  -9.097   5.259  1.00  0.00     0.016 C 
ATOM      3  C   UNL     1     -33.868  -8.668   6.468  1.00  0.00     0.013 C 
BRANCH   2   4
ATOM      4  C   UNL     1     -35.228  -7.881   4.512  1.00  0.00    -0.045 A 
ATOM      5  C   UNL     1     -36.798  -4.477   2.364  1.00  0.00     0.044 C 
ATOM      6  C   UNL     1     -36.231  -5.639   3.126  1.00  0.00    -0.051 A 
ATOM      7  C   UNL     1     -35.163  -6.376   2.598  1.00  0.00     0.004 A 
ATOM      8  C   UNL     1     -36.812  -6.040   4.337  1.00  0.00     0.004 A 
ATOM      9  C   UNL     1     -34.660  -7.483   3.286  1.00  0.00     0.004 A 
ATOM     10  C   UNL     1     -36.311  -7.147   5.027  1.00  0.00     0.004 A 
ENDBRANCH   2   4
ENDBRANCH   1   2
BRANCH   1  11
ATOM     11  C   UNL     1     -33.004  -9.265   3.364  1.00  0.00     0.028 C 
BRANCH  11  12
ATOM     12  C   UNL     1     -31.550  -9.458   3.714  1.00  0.00    -0.028 C 
ATOM     13  C   UNL     1     -30.659  -8.448   3.843  1.00  0.00    -0.080 C 
ATOM     14  C   UNL     1     -31.032  -7.011   3.574  1.00  0.00     0.039 C 
ATOM     15  C   UNL     1     -29.232  -8.752   4.219  1.00  0.00     0.039 C 
ENDBRANCH  11  12
ENDBRANCH   1  11
TORSDOF 4
ENDMDL
MODEL 6
REMARK VINA RESULT:     7.591      1.429      5.258
REMARK INTER + INTRA:           9.896
REMARK INTER:                   9.978
REMARK INTRA:                  -0.082
REMARK UNBOUND:                 0.530
REMARK SMILES CC(C)=CCC[C@@H](C)c1ccc(C)cc1
REMARK SMILES IDX 6 1 7 2 8 3 9 4 13 5 12 6 11 7 14 8 10 9 15 10 5 11 4 12
REMARK SMILES IDX 2 13 1 14 3 15
REMARK H PARENT
REMARK Flexibility Score: inf
ROOT
ATOM      1  C   UNL     1     -33.384  -7.552   2.568  1.00  0.00     0.012 C 
ENDROOT
BRANCH   1   2
ATOM      2  C   UNL     1     -32.655  -8.801   3.111  1.00  0.00     0.016 C 
ATOM      3  C   UNL     1     -31.139  -8.674   2.913  1.00  0.00     0.013 C 
BRANCH   2   4
ATOM      4  C   UNL     1     -32.982  -9.057   4.572  1.00  0.00    -0.045 A 
ATOM      5  C   UNL     1     -33.897  -9.675   8.748  1.00  0.00     0.044 C 
ATOM      6  C   UNL     1     -33.595  -9.488   7.290  1.00  0.00    -0.051 A 
ATOM      7  C   UNL     1     -32.422 -10.019   6.738  1.00  0.00     0.004 A 
ATOM      8  C   UNL     1     -34.449  -8.722   6.485  1.00  0.00     0.004 A 
ATOM      9  C   UNL     1     -32.120  -9.812   5.389  1.00  0.00     0.004 A 
ATOM     10  C   UNL     1     -34.149  -8.513   5.136  1.00  0.00     0.004 A 
ENDBRANCH   2   4
ENDBRANCH   1   2
BRANCH   1  11
ATOM     11  C   UNL     1     -34.871  -7.826   2.292  1.00  0.00     0.028 C 
BRANCH  11  12
ATOM     12  C   UNL     1     -35.615  -6.537   2.052  1.00  0.00    -0.028 C 
ATOM     13  C   UNL     1     -36.282  -5.856   3.012  1.00  0.00    -0.080 C 
ATOM     14  C   UNL     1     -36.403  -6.372   4.425  1.00  0.00     0.039 C 
ATOM     15  C   UNL     1     -36.976  -4.563   2.669  1.00  0.00     0.039 C 
ENDBRANCH  11  12
ENDBRANCH   1  11
TORSDOF 4
ENDMDL
