MODEL 1
REMARK VINA RESULT:    -1.823      0.000      0.000
REMARK INTER + INTRA:          -2.202
REMARK INTER:                  -1.983
REMARK INTRA:                  -0.219
REMARK UNBOUND:                -0.219
REMARK SMILES O=C([O-])c1ccccc1O
REMARK SMILES IDX 4 1 9 2 5 3 8 4 6 5 7 6 2 7 1 8 3 9 10 10
REMARK H PARENT 10 11
REMARK Flexibility Score: inf
ROOT
ATOM      1  C   UNL     1      22.921 -10.843 -17.958  1.00  0.00     0.039 A 
ATOM      2  C   UNL     1      22.641 -11.998 -17.183  1.00  0.00     0.124 A 
ATOM      3  C   UNL     1      22.668 -10.873 -19.342  1.00  0.00     0.014 A 
ATOM      4  C   UNL     1      22.063 -13.118 -17.795  1.00  0.00     0.047 A 
ATOM      5  C   UNL     1      22.110 -12.006 -19.939  1.00  0.00     0.001 A 
ATOM      6  C   UNL     1      21.799 -13.124 -19.165  1.00  0.00     0.004 A 
ENDROOT
BRANCH   1   7
ATOM      7  C   UNL     1      23.435  -9.591 -17.359  1.00  0.00     0.075 C 
ATOM      8  O   UNL     1      24.560  -9.578 -16.791  1.00  0.00    -0.545 OA
ATOM      9  O   UNL     1      22.723  -8.404 -17.472  1.00  0.00    -0.545 OA
ENDBRANCH   1   7
BRANCH   2  10
ATOM     10  O   UNL     1      22.952 -12.086 -15.825  1.00  0.00    -0.507 OA
ATOM     11  H   UNL     1      22.399 -12.608 -15.160  1.00  0.00     0.293 HD
ENDBRANCH   2  10
TORSDOF 2
ENDMDL
MODEL 2
REMARK VINA RESULT:    -1.569      2.249      3.984
REMARK INTER + INTRA:          -1.926
REMARK INTER:                  -1.715
REMARK INTRA:                  -0.211
REMARK UNBOUND:                -0.219
REMARK SMILES O=C([O-])c1ccccc1O
REMARK SMILES IDX 4 1 9 2 5 3 8 4 6 5 7 6 2 7 1 8 3 9 10 10
REMARK H PARENT 10 11
REMARK Flexibility Score: inf
ROOT
ATOM      1  C   UNL     1      22.201 -11.946 -17.821  1.00  0.00     0.039 A 
ATOM      2  C   UNL     1      22.752 -10.977 -18.699  1.00  0.00     0.124 A 
ATOM      3  C   UNL     1      22.811 -12.155 -16.570  1.00  0.00     0.014 A 
ATOM      4  C   UNL     1      23.846 -10.208 -18.282  1.00  0.00     0.047 A 
ATOM      5  C   UNL     1      23.914 -11.392 -16.178  1.00  0.00     0.001 A 
ATOM      6  C   UNL     1      24.425 -10.413 -17.030  1.00  0.00     0.004 A 
ENDROOT
BRANCH   1   7
ATOM      7  C   UNL     1      20.986 -12.720 -18.156  1.00  0.00     0.075 C 
ATOM      8  O   UNL     1      20.998 -13.529 -19.121  1.00  0.00    -0.545 OA
ATOM      9  O   UNL     1      19.841 -12.620 -17.375  1.00  0.00    -0.545 OA
ENDBRANCH   1   7
BRANCH   2  10
ATOM     10  O   UNL     1      22.270 -10.776 -19.993  1.00  0.00    -0.507 OA
ATOM     11  H   UNL     1      22.846 -10.451 -20.757  1.00  0.00     0.293 HD
ENDBRANCH   2  10
TORSDOF 2
ENDMDL
MODEL 3
REMARK VINA RESULT:    -1.414      2.235      3.430
REMARK INTER + INTRA:          -1.757
REMARK INTER:                  -1.505
REMARK INTRA:                  -0.252
REMARK UNBOUND:                -0.219
REMARK SMILES O=C([O-])c1ccccc1O
REMARK SMILES IDX 4 1 9 2 5 3 8 4 6 5 7 6 2 7 1 8 3 9 10 10
REMARK H PARENT 10 11
REMARK Flexibility Score: inf
ROOT
ATOM      1  C   UNL     1      22.281 -11.995 -17.927  1.00  0.00     0.039 A 
ATOM      2  C   UNL     1      22.545 -11.883 -16.537  1.00  0.00     0.124 A 
ATOM      3  C   UNL     1      23.171 -11.397 -18.838  1.00  0.00     0.014 A 
ATOM      4  C   UNL     1      23.711 -11.238 -16.104  1.00  0.00     0.047 A 
ATOM      5  C   UNL     1      24.319 -10.740 -18.388  1.00  0.00     0.001 A 
ATOM      6  C   UNL     1      24.593 -10.669 -17.022  1.00  0.00     0.004 A 
ENDROOT
BRANCH   1   7
ATOM      7  C   UNL     1      21.125 -12.750 -18.456  1.00  0.00     0.075 C 
ATOM      8  O   UNL     1      21.266 -13.504 -19.456  1.00  0.00    -0.545 OA
ATOM      9  O   UNL     1      19.889 -12.695 -17.824  1.00  0.00    -0.545 OA
ENDBRANCH   1   7
BRANCH   2  10
ATOM     10  O   UNL     1      21.665 -12.361 -15.564  1.00  0.00    -0.507 OA
ATOM     11  H   UNL     1      21.966 -12.863 -14.741  1.00  0.00     0.293 HD
ENDBRANCH   2  10
TORSDOF 2
ENDMDL
MODEL 4
REMARK VINA RESULT:    -1.248      0.985      2.150
REMARK INTER + INTRA:          -1.576
REMARK INTER:                  -1.323
REMARK INTRA:                  -0.253
REMARK UNBOUND:                -0.219
REMARK SMILES O=C([O-])c1ccccc1O
REMARK SMILES IDX 4 1 9 2 5 3 8 4 6 5 7 6 2 7 1 8 3 9 10 10
REMARK H PARENT 10 11
REMARK Flexibility Score: inf
ROOT
ATOM      1  C   UNL     1      23.014 -11.011 -17.898  1.00  0.00     0.039 A 
ATOM      2  C   UNL     1      22.415 -10.834 -19.172  1.00  0.00     0.124 A 
ATOM      3  C   UNL     1      23.016 -12.294 -17.320  1.00  0.00     0.014 A 
ATOM      4  C   UNL     1      21.897 -11.943 -19.854  1.00  0.00     0.047 A 
ATOM      5  C   UNL     1      22.476 -13.385 -18.005  1.00  0.00     0.001 A 
ATOM      6  C   UNL     1      21.926 -13.212 -19.274  1.00  0.00     0.004 A 
ENDROOT
BRANCH   1   7
ATOM      7  C   UNL     1      23.671  -9.903 -17.170  1.00  0.00     0.075 C 
ATOM      8  O   UNL     1      24.801 -10.078 -16.640  1.00  0.00    -0.545 OA
ATOM      9  O   UNL     1      23.090  -8.643 -17.117  1.00  0.00    -0.545 OA
ENDBRANCH   1   7
BRANCH   2  10
ATOM     10  O   UNL     1      22.284  -9.581 -19.774  1.00  0.00    -0.507 OA
ATOM     11  H   UNL     1      23.071  -9.021 -20.071  1.00  0.00     0.293 HD
ENDBRANCH   2  10
TORSDOF 2
ENDMDL
MODEL 5
REMARK VINA RESULT:    -0.998      0.937      1.019
REMARK INTER + INTRA:          -1.304
REMARK INTER:                  -1.096
REMARK INTRA:                  -0.208
REMARK UNBOUND:                -0.219
REMARK SMILES O=C([O-])c1ccccc1O
REMARK SMILES IDX 4 1 9 2 5 3 8 4 6 5 7 6 2 7 1 8 3 9 10 10
REMARK H PARENT 10 11
REMARK Flexibility Score: inf
ROOT
ATOM      1  C   UNL     1      22.694 -10.423 -18.194  1.00  0.00     0.039 A 
ATOM      2  C   UNL     1      23.048 -11.371 -17.200  1.00  0.00     0.124 A 
ATOM      3  C   UNL     1      22.257 -10.884 -19.450  1.00  0.00     0.014 A 
ATOM      4  C   UNL     1      22.896 -12.739 -17.464  1.00  0.00     0.047 A 
ATOM      5  C   UNL     1      22.132 -12.252 -19.702  1.00  0.00     0.001 A 
ATOM      6  C   UNL     1      22.442 -13.178 -18.707  1.00  0.00     0.004 A 
ENDROOT
BRANCH   1   7
ATOM      7  C   UNL     1      22.731  -8.965 -17.948  1.00  0.00     0.075 C 
ATOM      8  O   UNL     1      23.395  -8.503 -16.981  1.00  0.00    -0.545 OA
ATOM      9  O   UNL     1      22.097  -8.081 -18.811  1.00  0.00    -0.545 OA
ENDBRANCH   1   7
BRANCH   2  10
ATOM     10  O   UNL     1      23.581 -11.001 -15.964  1.00  0.00    -0.507 OA
ATOM     11  H   UNL     1      23.393 -11.500 -15.106  1.00  0.00     0.293 HD
ENDBRANCH   2  10
TORSDOF 2
ENDMDL
MODEL 6
REMARK VINA RESULT:     0.168      1.662      3.029
REMARK INTER + INTRA:          -0.036
REMARK INTER:                   0.181
REMARK INTRA:                  -0.217
REMARK UNBOUND:                -0.219
REMARK SMILES O=C([O-])c1ccccc1O
REMARK SMILES IDX 4 1 9 2 5 3 8 4 6 5 7 6 2 7 1 8 3 9 10 10
REMARK H PARENT 10 11
REMARK Flexibility Score: inf
ROOT
ATOM      1  C   UNL     1      21.721 -12.073 -17.109  1.00  0.00     0.039 A 
ATOM      2  C   UNL     1      22.996 -11.478 -16.925  1.00  0.00     0.124 A 
ATOM      3  C   UNL     1      21.297 -12.383 -18.414  1.00  0.00     0.014 A 
ATOM      4  C   UNL     1      23.829 -11.269 -18.032  1.00  0.00     0.047 A 
ATOM      5  C   UNL     1      22.133 -12.149 -19.509  1.00  0.00     0.001 A 
ATOM      6  C   UNL     1      23.401 -11.602 -19.317  1.00  0.00     0.004 A 
ENDROOT
BRANCH   1   7
ATOM      7  C   UNL     1      20.835 -12.415 -15.975  1.00  0.00     0.075 C 
ATOM      8  O   UNL     1      21.300 -12.478 -14.806  1.00  0.00    -0.545 OA
ATOM      9  O   UNL     1      19.473 -12.605 -16.169  1.00  0.00    -0.545 OA
ENDBRANCH   1   7
BRANCH   2  10
ATOM     10  O   UNL     1      23.453 -11.051 -15.677  1.00  0.00    -0.507 OA
ATOM     11  H   UNL     1      24.122 -11.567 -15.123  1.00  0.00     0.293 HD
ENDBRANCH   2  10
TORSDOF 2
ENDMDL
MODEL 7
REMARK VINA RESULT:     0.601      2.025      2.822
REMARK INTER + INTRA:           0.435
REMARK INTER:                   0.610
REMARK INTRA:                  -0.175
REMARK UNBOUND:                -0.219
REMARK SMILES O=C([O-])c1ccccc1O
REMARK SMILES IDX 4 1 9 2 5 3 8 4 6 5 7 6 2 7 1 8 3 9 10 10
REMARK H PARENT 10 11
REMARK Flexibility Score: inf
ROOT
ATOM      1  C   UNL     1      22.697 -11.686 -17.554  1.00  0.00     0.039 A 
ATOM      2  C   UNL     1      21.881 -12.040 -18.659  1.00  0.00     0.124 A 
ATOM      3  C   UNL     1      22.189 -11.855 -16.252  1.00  0.00     0.014 A 
ATOM      4  C   UNL     1      20.619 -12.605 -18.435  1.00  0.00     0.047 A 
ATOM      5  C   UNL     1      20.920 -12.402 -16.047  1.00  0.00     0.001 A 
ATOM      6  C   UNL     1      20.139 -12.785 -17.137  1.00  0.00     0.004 A 
ENDROOT
BRANCH   1   7
ATOM      7  C   UNL     1      24.078 -11.182 -17.716  1.00  0.00     0.075 C 
ATOM      8  O   UNL     1      24.519 -10.907 -18.864  1.00  0.00    -0.545 OA
ATOM      9  O   UNL     1      24.881 -10.938 -16.610  1.00  0.00    -0.545 OA
ENDBRANCH   1   7
BRANCH   2  10
ATOM     10  O   UNL     1      22.268 -11.815 -19.981  1.00  0.00    -0.507 OA
ATOM     11  H   UNL     1      23.035 -12.299 -20.427  1.00  0.00     0.293 HD
ENDBRANCH   2  10
TORSDOF 2
ENDMDL
MODEL 8
REMARK VINA RESULT:     0.953      2.044      2.855
REMARK INTER + INTRA:           0.817
REMARK INTER:                   1.038
REMARK INTRA:                  -0.220
REMARK UNBOUND:                -0.219
REMARK SMILES O=C([O-])c1ccccc1O
REMARK SMILES IDX 4 1 9 2 5 3 8 4 6 5 7 6 2 7 1 8 3 9 10 10
REMARK H PARENT 10 11
REMARK Flexibility Score: inf
ROOT
ATOM      1  C   UNL     1      22.670  -9.977 -18.326  1.00  0.00     0.039 A 
ATOM      2  C   UNL     1      22.366 -11.242 -18.891  1.00  0.00     0.124 A 
ATOM      3  C   UNL     1      23.436  -9.924 -17.147  1.00  0.00     0.014 A 
ATOM      4  C   UNL     1      22.884 -12.404 -18.304  1.00  0.00     0.047 A 
ATOM      5  C   UNL     1      23.927 -11.095 -16.564  1.00  0.00     0.001 A 
ATOM      6  C   UNL     1      23.659 -12.333 -17.147  1.00  0.00     0.004 A 
ENDROOT
BRANCH   1   7
ATOM      7  C   UNL     1      22.243  -8.706 -18.952  1.00  0.00     0.075 C 
ATOM      8  O   UNL     1      21.894  -8.683 -20.163  1.00  0.00    -0.545 OA
ATOM      9  O   UNL     1      22.153  -7.540 -18.203  1.00  0.00    -0.545 OA
ENDBRANCH   1   7
BRANCH   2  10
ATOM     10  O   UNL     1      21.533 -11.389 -20.001  1.00  0.00    -0.507 OA
ATOM     11  H   UNL     1      20.687 -10.853 -20.137  1.00  0.00     0.293 HD
ENDBRANCH   2  10
TORSDOF 2
ENDMDL
MODEL 9
REMARK VINA RESULT:     0.993      1.962      2.710
REMARK INTER + INTRA:           0.862
REMARK INTER:                   1.079
REMARK INTRA:                  -0.217
REMARK UNBOUND:                -0.219
REMARK SMILES O=C([O-])c1ccccc1O
REMARK SMILES IDX 4 1 9 2 5 3 8 4 6 5 7 6 2 7 1 8 3 9 10 10
REMARK H PARENT 10 11
REMARK Flexibility Score: inf
ROOT
ATOM      1  C   UNL     1      22.197 -11.775 -17.670  1.00  0.00     0.039 A 
ATOM      2  C   UNL     1      22.564 -11.883 -16.304  1.00  0.00     0.124 A 
ATOM      3  C   UNL     1      20.902 -12.166 -18.058  1.00  0.00     0.014 A 
ATOM      4  C   UNL     1      21.619 -12.313 -15.364  1.00  0.00     0.047 A 
ATOM      5  C   UNL     1      19.977 -12.613 -17.111  1.00  0.00     0.001 A 
ATOM      6  C   UNL     1      20.333 -12.677 -15.764  1.00  0.00     0.004 A 
ENDROOT
BRANCH   1   7
ATOM      7  C   UNL     1      23.111 -11.230 -18.697  1.00  0.00     0.075 C 
ATOM      8  O   UNL     1      22.651 -10.798 -19.788  1.00  0.00    -0.545 OA
ATOM      9  O   UNL     1      24.474 -11.123 -18.451  1.00  0.00    -0.545 OA
ENDBRANCH   1   7
BRANCH   2  10
ATOM     10  O   UNL     1      23.856 -11.609 -15.849  1.00  0.00    -0.507 OA
ATOM     11  H   UNL     1      24.333 -12.172 -15.159  1.00  0.00     0.293 HD
ENDBRANCH   2  10
TORSDOF 2
ENDMDL
