MODEL 1
REMARK VINA RESULT:    -2.956      0.000      0.000
REMARK INTER + INTRA:          -7.611
REMARK INTER:                  -6.757
REMARK INTRA:                  -0.854
REMARK UNBOUND:                -0.854
REMARK SMILES CCCCCCCCCCCCCCCCCCCCCCCC(=O)[O-]
REMARK SMILES IDX 13 1 14 2 15 3 16 4 17 5 18 6 19 7 20 8 21 9 22 10 23 11
REMARK SMILES IDX 24 12 25 13 26 14 12 15 11 16 10 17 9 18 8 19 7 20 6 21 5 22
REMARK SMILES IDX 4 23 3 24 2 25 1 26
REMARK H PARENT
REMARK Flexibility Score: inf
ROOT
ATOM      1  C   UNL     1      22.454  65.273  16.016  1.00  0.00     0.000 C 
ENDROOT
BRANCH   1   2
ATOM      2  C   UNL     1      21.137  66.073  16.112  1.00  0.00     0.000 C 
BRANCH   2   3
ATOM      3  C   UNL     1      19.857  65.251  15.880  1.00  0.00     0.000 C 
BRANCH   3   4
ATOM      4  C   UNL     1      18.794  66.017  15.074  1.00  0.00     0.000 C 
BRANCH   4   5
ATOM      5  C   UNL     1      17.440  66.102  15.801  1.00  0.00     0.000 C 
BRANCH   5   6
ATOM      6  C   UNL     1      17.320  65.222  17.063  1.00  0.00     0.000 C 
BRANCH   6   7
ATOM      7  C   UNL     1      15.941  64.572  17.280  1.00  0.00     0.000 C 
BRANCH   7   8
ATOM      8  C   UNL     1      14.822  65.598  17.501  1.00  0.00     0.000 C 
BRANCH   8   9
ATOM      9  C   UNL     1      13.465  65.027  17.064  1.00  0.00     0.000 C 
BRANCH   9  10
ATOM     10  C   UNL     1      13.238  65.124  15.546  1.00  0.00     0.006 C 
BRANCH  10  11
ATOM     11  C   UNL     1      13.608  63.831  14.805  1.00  0.00     0.053 C 
BRANCH  11  12
ATOM     12  C   UNL     1      13.701  64.067  13.329  1.00  0.00     0.041 C 
ATOM     13  O   UNL     1      14.411  65.008  12.878  1.00  0.00    -0.550 OA
ATOM     14  O   UNL     1      13.009  63.245  12.448  1.00  0.00    -0.550 OA
ENDBRANCH  11  12
ENDBRANCH  10  11
ENDBRANCH   9  10
ENDBRANCH   8   9
ENDBRANCH   7   8
ENDBRANCH   6   7
ENDBRANCH   5   6
ENDBRANCH   4   5
ENDBRANCH   3   4
ENDBRANCH   2   3
ENDBRANCH   1   2
BRANCH   1  15
ATOM     15  C   UNL     1      23.739  66.122  16.036  1.00  0.00     0.000 C 
BRANCH  15  16
ATOM     16  C   UNL     1      25.051  65.318  16.090  1.00  0.00     0.000 C 
BRANCH  16  17
ATOM     17  C   UNL     1      26.165  65.997  16.917  1.00  0.00     0.000 C 
BRANCH  17  18
ATOM     18  C   UNL     1      27.536  65.320  16.732  1.00  0.00    -0.000 C 
BRANCH  18  19
ATOM     19  C   UNL     1      28.639  65.996  17.574  1.00  0.00    -0.000 C 
BRANCH  19  20
ATOM     20  C   UNL     1      30.053  65.454  17.286  1.00  0.00    -0.000 C 
BRANCH  20  21
ATOM     21  C   UNL     1      31.143  65.953  18.251  1.00  0.00    -0.000 C 
BRANCH  21  22
ATOM     22  C   UNL     1      32.383  65.043  18.351  1.00  0.00    -0.000 C 
BRANCH  22  23
ATOM     23  C   UNL     1      32.078  63.555  18.075  1.00  0.00    -0.000 C 
BRANCH  23  24
ATOM     24  C   UNL     1      33.117  62.620  18.719  1.00  0.00    -0.000 C 
BRANCH  24  25
ATOM     25  C   UNL     1      32.869  62.412  20.221  1.00  0.00    -0.003 C 
ATOM     26  C   UNL     1      32.735  60.936  20.592  1.00  0.00     0.004 C 
ENDBRANCH  24  25
ENDBRANCH  23  24
ENDBRANCH  22  23
ENDBRANCH  21  22
ENDBRANCH  20  21
ENDBRANCH  19  20
ENDBRANCH  18  19
ENDBRANCH  17  18
ENDBRANCH  16  17
ENDBRANCH  15  16
ENDBRANCH   1  15
TORSDOF 22
ENDMDL
MODEL 2
REMARK VINA RESULT:    -2.616      1.448      1.747
REMARK INTER + INTRA:          -6.836
REMARK INTER:                  -5.845
REMARK INTRA:                  -0.991
REMARK UNBOUND:                -0.854
REMARK SMILES CCCCCCCCCCCCCCCCCCCCCCCC(=O)[O-]
REMARK SMILES IDX 13 1 14 2 15 3 16 4 17 5 18 6 19 7 20 8 21 9 22 10 23 11
REMARK SMILES IDX 24 12 25 13 26 14 12 15 11 16 10 17 9 18 8 19 7 20 6 21 5 22
REMARK SMILES IDX 4 23 3 24 2 25 1 26
REMARK H PARENT
REMARK Flexibility Score: inf
ROOT
ATOM      1  C   UNL     1      23.414  65.043  16.051  1.00  0.00     0.000 C 
ENDROOT
BRANCH   1   2
ATOM      2  C   UNL     1      22.146  65.819  15.636  1.00  0.00     0.000 C 
BRANCH   2   3
ATOM      3  C   UNL     1      20.816  65.151  16.025  1.00  0.00     0.000 C 
BRANCH   3   4
ATOM      4  C   UNL     1      19.596  65.827  15.377  1.00  0.00     0.000 C 
BRANCH   4   5
ATOM      5  C   UNL     1      18.473  66.125  16.386  1.00  0.00     0.000 C 
BRANCH   5   6
ATOM      6  C   UNL     1      17.355  65.064  16.450  1.00  0.00     0.000 C 
BRANCH   6   7
ATOM      7  C   UNL     1      15.954  65.607  16.786  1.00  0.00     0.000 C 
BRANCH   7   8
ATOM      8  C   UNL     1      15.100  64.615  17.586  1.00  0.00     0.000 C 
BRANCH   8   9
ATOM      9  C   UNL     1      13.609  64.972  17.484  1.00  0.00     0.000 C 
BRANCH   9  10
ATOM     10  C   UNL     1      13.166  65.273  16.043  1.00  0.00     0.006 C 
BRANCH  10  11
ATOM     11  C   UNL     1      13.236  64.041  15.129  1.00  0.00     0.053 C 
BRANCH  11  12
ATOM     12  C   UNL     1      13.702  64.417  13.756  1.00  0.00     0.041 C 
ATOM     13  O   UNL     1      12.945  64.254  12.760  1.00  0.00    -0.550 OA
ATOM     14  O   UNL     1      14.971  64.954  13.575  1.00  0.00    -0.550 OA
ENDBRANCH  11  12
ENDBRANCH  10  11
ENDBRANCH   9  10
ENDBRANCH   8   9
ENDBRANCH   7   8
ENDBRANCH   6   7
ENDBRANCH   5   6
ENDBRANCH   4   5
ENDBRANCH   3   4
ENDBRANCH   2   3
ENDBRANCH   1   2
BRANCH   1  15
ATOM     15  C   UNL     1      24.660  65.912  16.305  1.00  0.00     0.000 C 
BRANCH  15  16
ATOM     16  C   UNL     1      26.006  65.174  16.180  1.00  0.00     0.000 C 
BRANCH  16  17
ATOM     17  C   UNL     1      27.177  65.888  16.890  1.00  0.00     0.000 C 
BRANCH  17  18
ATOM     18  C   UNL     1      27.368  65.413  18.342  1.00  0.00    -0.000 C 
BRANCH  18  19
ATOM     19  C   UNL     1      28.854  65.183  18.692  1.00  0.00    -0.000 C 
BRANCH  19  20
ATOM     20  C   UNL     1      29.820  65.552  17.549  1.00  0.00    -0.000 C 
BRANCH  20  21
ATOM     21  C   UNL     1      31.308  65.311  17.860  1.00  0.00    -0.000 C 
BRANCH  21  22
ATOM     22  C   UNL     1      31.584  64.153  18.839  1.00  0.00    -0.000 C 
BRANCH  22  23
ATOM     23  C   UNL     1      32.821  64.385  19.733  1.00  0.00    -0.000 C 
BRANCH  23  24
ATOM     24  C   UNL     1      32.547  64.038  21.206  1.00  0.00    -0.000 C 
BRANCH  24  25
ATOM     25  C   UNL     1      31.915  65.206  21.978  1.00  0.00    -0.003 C 
ATOM     26  C   UNL     1      31.812  64.930  23.477  1.00  0.00     0.004 C 
ENDBRANCH  24  25
ENDBRANCH  23  24
ENDBRANCH  22  23
ENDBRANCH  21  22
ENDBRANCH  20  21
ENDBRANCH  19  20
ENDBRANCH  18  19
ENDBRANCH  17  18
ENDBRANCH  16  17
ENDBRANCH  15  16
ENDBRANCH   1  15
TORSDOF 22
ENDMDL
MODEL 3
REMARK VINA RESULT:    -2.454      5.690     15.128
REMARK INTER + INTRA:          -6.466
REMARK INTER:                  -5.495
REMARK INTRA:                  -0.971
REMARK UNBOUND:                -0.854
REMARK SMILES CCCCCCCCCCCCCCCCCCCCCCCC(=O)[O-]
REMARK SMILES IDX 13 1 14 2 15 3 16 4 17 5 18 6 19 7 20 8 21 9 22 10 23 11
REMARK SMILES IDX 24 12 25 13 26 14 12 15 11 16 10 17 9 18 8 19 7 20 6 21 5 22
REMARK SMILES IDX 4 23 3 24 2 25 1 26
REMARK H PARENT
REMARK Flexibility Score: inf
ROOT
ATOM      1  C   UNL     1      21.117  65.392  15.428  1.00  0.00     0.000 C 
ENDROOT
BRANCH   1   2
ATOM      2  C   UNL     1      22.372  66.088  15.997  1.00  0.00     0.000 C 
BRANCH   2   3
ATOM      3  C   UNL     1      23.645  65.225  16.012  1.00  0.00     0.000 C 
BRANCH   3   4
ATOM      4  C   UNL     1      24.899  66.019  16.418  1.00  0.00     0.000 C 
BRANCH   4   5
ATOM      5  C   UNL     1      26.106  65.113  16.723  1.00  0.00     0.000 C 
BRANCH   5   6
ATOM      6  C   UNL     1      27.408  65.858  17.081  1.00  0.00     0.000 C 
BRANCH   6   7
ATOM      7  C   UNL     1      28.554  64.967  17.593  1.00  0.00     0.000 C 
BRANCH   7   8
ATOM      8  C   UNL     1      29.481  65.688  18.581  1.00  0.00     0.000 C 
BRANCH   8   9
ATOM      9  C   UNL     1      30.788  66.109  17.893  1.00  0.00     0.000 C 
BRANCH   9  10
ATOM     10  C   UNL     1      31.986  65.235  18.301  1.00  0.00     0.006 C 
BRANCH  10  11
ATOM     11  C   UNL     1      31.698  64.372  19.538  1.00  0.00     0.053 C 
BRANCH  11  12
ATOM     12  C   UNL     1      32.378  63.041  19.433  1.00  0.00     0.041 C 
ATOM     13  O   UNL     1      32.977  62.715  18.371  1.00  0.00    -0.550 OA
ATOM     14  O   UNL     1      32.356  62.162  20.508  1.00  0.00    -0.550 OA
ENDBRANCH  11  12
ENDBRANCH  10  11
ENDBRANCH   9  10
ENDBRANCH   8   9
ENDBRANCH   7   8
ENDBRANCH   6   7
ENDBRANCH   5   6
ENDBRANCH   4   5
ENDBRANCH   3   4
ENDBRANCH   2   3
ENDBRANCH   1   2
BRANCH   1  15
ATOM     15  C   UNL     1      19.777  66.068  15.778  1.00  0.00     0.000 C 
BRANCH  15  16
ATOM     16  C   UNL     1      18.770  65.171  16.522  1.00  0.00     0.000 C 
BRANCH  16  17
ATOM     17  C   UNL     1      17.505  65.917  17.000  1.00  0.00     0.000 C 
BRANCH  17  18
ATOM     18  C   UNL     1      16.219  65.386  16.339  1.00  0.00    -0.000 C 
BRANCH  18  19
ATOM     19  C   UNL     1      15.379  64.523  17.305  1.00  0.00    -0.000 C 
BRANCH  19  20
ATOM     20  C   UNL     1      13.870  64.828  17.249  1.00  0.00    -0.000 C 
BRANCH  20  21
ATOM     21  C   UNL     1      13.462  65.868  16.190  1.00  0.00    -0.000 C 
BRANCH  21  22
ATOM     22  C   UNL     1      12.888  65.275  14.889  1.00  0.00    -0.000 C 
BRANCH  22  23
ATOM     23  C   UNL     1      13.734  65.598  13.639  1.00  0.00    -0.000 C 
BRANCH  23  24
ATOM     24  C   UNL     1      14.214  64.328  12.917  1.00  0.00    -0.000 C 
BRANCH  24  25
ATOM     25  C   UNL     1      13.087  63.632  12.140  1.00  0.00    -0.003 C 
ATOM     26  C   UNL     1      12.952  64.154  10.711  1.00  0.00     0.004 C 
ENDBRANCH  24  25
ENDBRANCH  23  24
ENDBRANCH  22  23
ENDBRANCH  21  22
ENDBRANCH  20  21
ENDBRANCH  19  20
ENDBRANCH  18  19
ENDBRANCH  17  18
ENDBRANCH  16  17
ENDBRANCH  15  16
ENDBRANCH   1  15
TORSDOF 22
ENDMDL
MODEL 4
REMARK VINA RESULT:    -2.414      1.520      2.674
REMARK INTER + INTRA:          -6.372
REMARK INTER:                  -5.517
REMARK INTRA:                  -0.856
REMARK UNBOUND:                -0.854
REMARK SMILES CCCCCCCCCCCCCCCCCCCCCCCC(=O)[O-]
REMARK SMILES IDX 13 1 14 2 15 3 16 4 17 5 18 6 19 7 20 8 21 9 22 10 23 11
REMARK SMILES IDX 24 12 25 13 26 14 12 15 11 16 10 17 9 18 8 19 7 20 6 21 5 22
REMARK SMILES IDX 4 23 3 24 2 25 1 26
REMARK H PARENT
REMARK Flexibility Score: inf
ROOT
ATOM      1  C   UNL     1      25.579  65.353  16.400  1.00  0.00     0.000 C 
ENDROOT
BRANCH   1   2
ATOM      2  C   UNL     1      24.282  66.116  16.058  1.00  0.00     0.000 C 
BRANCH   2   3
ATOM      3  C   UNL     1      22.979  65.356  16.363  1.00  0.00     0.000 C 
BRANCH   3   4
ATOM      4  C   UNL     1      21.735  66.045  15.775  1.00  0.00     0.000 C 
BRANCH   4   5
ATOM      5  C   UNL     1      20.420  65.376  16.215  1.00  0.00     0.000 C 
BRANCH   5   6
ATOM      6  C   UNL     1      19.137  66.043  15.677  1.00  0.00     0.000 C 
BRANCH   6   7
ATOM      7  C   UNL     1      18.948  65.964  14.150  1.00  0.00     0.000 C 
BRANCH   7   8
ATOM      8  C   UNL     1      17.474  65.898  13.730  1.00  0.00     0.000 C 
BRANCH   8   9
ATOM      9  C   UNL     1      16.553  66.121  14.939  1.00  0.00     0.000 C 
BRANCH   9  10
ATOM     10  C   UNL     1      15.070  65.876  14.612  1.00  0.00     0.006 C 
BRANCH  10  11
ATOM     11  C   UNL     1      14.845  65.444  13.156  1.00  0.00     0.053 C 
BRANCH  11  12
ATOM     12  C   UNL     1      13.803  64.371  13.070  1.00  0.00     0.041 C 
ATOM     13  O   UNL     1      12.921  64.268  13.966  1.00  0.00    -0.550 OA
ATOM     14  O   UNL     1      13.801  63.488  11.997  1.00  0.00    -0.550 OA
ENDBRANCH  11  12
ENDBRANCH  10  11
ENDBRANCH   9  10
ENDBRANCH   8   9
ENDBRANCH   7   8
ENDBRANCH   6   7
ENDBRANCH   5   6
ENDBRANCH   4   5
ENDBRANCH   3   4
ENDBRANCH   2   3
ENDBRANCH   1   2
BRANCH   1  15
ATOM     15  C   UNL     1      26.232  65.739  17.741  1.00  0.00     0.000 C 
BRANCH  15  16
ATOM     16  C   UNL     1      27.729  66.090  17.660  1.00  0.00     0.000 C 
BRANCH  16  17
ATOM     17  C   UNL     1      28.336  65.913  16.251  1.00  0.00     0.000 C 
BRANCH  17  18
ATOM     18  C   UNL     1      29.403  64.803  16.201  1.00  0.00    -0.000 C 
BRANCH  18  19
ATOM     19  C   UNL     1      30.769  65.281  16.740  1.00  0.00    -0.000 C 
BRANCH  19  20
ATOM     20  C   UNL     1      31.742  64.129  17.057  1.00  0.00    -0.000 C 
BRANCH  20  21
ATOM     21  C   UNL     1      33.017  64.552  17.810  1.00  0.00    -0.000 C 
BRANCH  21  22
ATOM     22  C   UNL     1      32.771  65.402  19.072  1.00  0.00    -0.000 C 
BRANCH  22  23
ATOM     23  C   UNL     1      32.845  64.591  20.383  1.00  0.00    -0.000 C 
BRANCH  23  24
ATOM     24  C   UNL     1      31.964  63.331  20.339  1.00  0.00    -0.000 C 
BRANCH  24  25
ATOM     25  C   UNL     1      32.772  62.059  20.045  1.00  0.00    -0.003 C 
ATOM     26  C   UNL     1      32.280  60.855  20.848  1.00  0.00     0.004 C 
ENDBRANCH  24  25
ENDBRANCH  23  24
ENDBRANCH  22  23
ENDBRANCH  21  22
ENDBRANCH  20  21
ENDBRANCH  19  20
ENDBRANCH  18  19
ENDBRANCH  17  18
ENDBRANCH  16  17
ENDBRANCH  15  16
ENDBRANCH   1  15
TORSDOF 22
ENDMDL
MODEL 5
REMARK VINA RESULT:    -2.225      5.919     14.966
REMARK INTER + INTRA:          -5.941
REMARK INTER:                  -4.999
REMARK INTRA:                  -0.942
REMARK UNBOUND:                -0.854
REMARK SMILES CCCCCCCCCCCCCCCCCCCCCCCC(=O)[O-]
REMARK SMILES IDX 13 1 14 2 15 3 16 4 17 5 18 6 19 7 20 8 21 9 22 10 23 11
REMARK SMILES IDX 24 12 25 13 26 14 12 15 11 16 10 17 9 18 8 19 7 20 6 21 5 22
REMARK SMILES IDX 4 23 3 24 2 25 1 26
REMARK H PARENT
REMARK Flexibility Score: inf
ROOT
ATOM      1  C   UNL     1      25.209  64.544  15.105  1.00  0.00     0.000 C 
ENDROOT
BRANCH   1   2
ATOM      2  C   UNL     1      26.497  64.596  15.956  1.00  0.00     0.000 C 
BRANCH   2   3
ATOM      3  C   UNL     1      26.524  65.698  17.030  1.00  0.00     0.000 C 
BRANCH   3   4
ATOM      4  C   UNL     1      27.952  66.125  17.410  1.00  0.00     0.000 C 
BRANCH   4   5
ATOM      5  C   UNL     1      28.556  65.255  18.528  1.00  0.00     0.000 C 
BRANCH   5   6
ATOM      6  C   UNL     1      30.033  65.552  18.859  1.00  0.00     0.000 C 
BRANCH   6   7
ATOM      7  C   UNL     1      31.027  65.293  17.713  1.00  0.00     0.000 C 
BRANCH   7   8
ATOM      8  C   UNL     1      32.454  65.016  18.205  1.00  0.00     0.000 C 
BRANCH   8   9
ATOM      9  C   UNL     1      32.517  65.051  19.740  1.00  0.00     0.000 C 
BRANCH   9  10
ATOM     10  C   UNL     1      33.028  63.735  20.347  1.00  0.00     0.006 C 
BRANCH  10  11
ATOM     11  C   UNL     1      32.331  62.499  19.760  1.00  0.00     0.053 C 
BRANCH  11  12
ATOM     12  C   UNL     1      32.629  61.277  20.575  1.00  0.00     0.041 C 
ATOM     13  O   UNL     1      33.109  60.248  20.025  1.00  0.00    -0.550 OA
ATOM     14  O   UNL     1      32.384  61.276  21.942  1.00  0.00    -0.550 OA
ENDBRANCH  11  12
ENDBRANCH  10  11
ENDBRANCH   9  10
ENDBRANCH   8   9
ENDBRANCH   7   8
ENDBRANCH   6   7
ENDBRANCH   5   6
ENDBRANCH   4   5
ENDBRANCH   3   4
ENDBRANCH   2   3
ENDBRANCH   1   2
BRANCH   1  15
ATOM     15  C   UNL     1      23.894  64.630  15.902  1.00  0.00     0.000 C 
BRANCH  15  16
ATOM     16  C   UNL     1      23.259  66.032  15.962  1.00  0.00     0.000 C 
BRANCH  16  17
ATOM     17  C   UNL     1      21.886  66.125  15.261  1.00  0.00     0.000 C 
BRANCH  17  18
ATOM     18  C   UNL     1      20.785  65.352  16.010  1.00  0.00    -0.000 C 
BRANCH  18  19
ATOM     19  C   UNL     1      19.389  65.983  15.810  1.00  0.00    -0.000 C 
BRANCH  19  20
ATOM     20  C   UNL     1      18.341  65.491  16.827  1.00  0.00    -0.000 C 
BRANCH  20  21
ATOM     21  C   UNL     1      16.914  65.356  16.265  1.00  0.00    -0.000 C 
BRANCH  21  22
ATOM     22  C   UNL     1      15.818  65.148  17.329  1.00  0.00    -0.000 C 
BRANCH  22  23
ATOM     23  C   UNL     1      14.572  64.410  16.793  1.00  0.00    -0.000 C 
BRANCH  23  24
ATOM     24  C   UNL     1      13.684  65.320  15.928  1.00  0.00    -0.000 C 
BRANCH  24  25
ATOM     25  C   UNL     1      13.205  64.624  14.644  1.00  0.00    -0.003 C 
ATOM     26  C   UNL     1      12.915  63.139  14.857  1.00  0.00     0.004 C 
ENDBRANCH  24  25
ENDBRANCH  23  24
ENDBRANCH  22  23
ENDBRANCH  21  22
ENDBRANCH  20  21
ENDBRANCH  19  20
ENDBRANCH  18  19
ENDBRANCH  17  18
ENDBRANCH  16  17
ENDBRANCH  15  16
ENDBRANCH   1  15
TORSDOF 22
ENDMDL
MODEL 6
REMARK VINA RESULT:    -2.037      5.807     14.930
REMARK INTER + INTRA:          -5.512
REMARK INTER:                  -4.465
REMARK INTRA:                  -1.047
REMARK UNBOUND:                -0.854
REMARK SMILES CCCCCCCCCCCCCCCCCCCCCCCC(=O)[O-]
REMARK SMILES IDX 13 1 14 2 15 3 16 4 17 5 18 6 19 7 20 8 21 9 22 10 23 11
REMARK SMILES IDX 24 12 25 13 26 14 12 15 11 16 10 17 9 18 8 19 7 20 6 21 5 22
REMARK SMILES IDX 4 23 3 24 2 25 1 26
REMARK H PARENT
REMARK Flexibility Score: inf
ROOT
ATOM      1  C   UNL     1      25.587  64.648  15.527  1.00  0.00     0.000 C 
ENDROOT
BRANCH   1   2
ATOM      2  C   UNL     1      26.887  64.694  16.358  1.00  0.00     0.000 C 
BRANCH   2   3
ATOM      3  C   UNL     1      27.471  66.101  16.577  1.00  0.00     0.000 C 
BRANCH   3   4
ATOM      4  C   UNL     1      28.889  66.071  17.172  1.00  0.00     0.000 C 
BRANCH   4   5
ATOM      5  C   UNL     1      28.895  65.793  18.687  1.00  0.00     0.000 C 
BRANCH   5   6
ATOM      6  C   UNL     1      30.280  65.478  19.288  1.00  0.00     0.000 C 
BRANCH   6   7
ATOM      7  C   UNL     1      30.989  64.247  18.693  1.00  0.00     0.000 C 
BRANCH   7   8
ATOM      8  C   UNL     1      31.864  63.506  19.712  1.00  0.00     0.000 C 
BRANCH   8   9
ATOM      9  C   UNL     1      32.954  64.434  20.270  1.00  0.00     0.000 C 
BRANCH   9  10
ATOM     10  C   UNL     1      32.912  64.550  21.803  1.00  0.00     0.006 C 
BRANCH  10  11
ATOM     11  C   UNL     1      32.276  65.864  22.282  1.00  0.00     0.053 C 
BRANCH  11  12
ATOM     12  C   UNL     1      31.403  65.632  23.477  1.00  0.00     0.041 C 
ATOM     13  O   UNL     1      30.197  65.289  23.327  1.00  0.00    -0.550 OA
ATOM     14  O   UNL     1      31.919  65.788  24.758  1.00  0.00    -0.550 OA
ENDBRANCH  11  12
ENDBRANCH  10  11
ENDBRANCH   9  10
ENDBRANCH   8   9
ENDBRANCH   7   8
ENDBRANCH   6   7
ENDBRANCH   5   6
ENDBRANCH   4   5
ENDBRANCH   3   4
ENDBRANCH   2   3
ENDBRANCH   1   2
BRANCH   1  15
ATOM     15  C   UNL     1      24.285  64.783  16.340  1.00  0.00     0.000 C 
BRANCH  15  16
ATOM     16  C   UNL     1      23.549  66.125  16.174  1.00  0.00     0.000 C 
BRANCH  16  17
ATOM     17  C   UNL     1      22.230  66.019  15.377  1.00  0.00     0.000 C 
BRANCH  17  18
ATOM     18  C   UNL     1      21.107  65.334  16.178  1.00  0.00    -0.000 C 
BRANCH  18  19
ATOM     19  C   UNL     1      19.709  65.635  15.597  1.00  0.00    -0.000 C 
BRANCH  19  20
ATOM     20  C   UNL     1      18.643  65.917  16.674  1.00  0.00    -0.000 C 
BRANCH  20  21
ATOM     21  C   UNL     1      17.234  65.397  16.337  1.00  0.00    -0.000 C 
BRANCH  21  22
ATOM     22  C   UNL     1      16.276  65.299  17.541  1.00  0.00    -0.000 C 
BRANCH  22  23
ATOM     23  C   UNL     1      15.143  64.269  17.344  1.00  0.00    -0.000 C 
BRANCH  23  24
ATOM     24  C   UNL     1      13.773  64.942  17.158  1.00  0.00    -0.000 C 
BRANCH  24  25
ATOM     25  C   UNL     1      13.147  64.631  15.790  1.00  0.00    -0.003 C 
ATOM     26  C   UNL     1      13.982  65.170  14.629  1.00  0.00     0.004 C 
ENDBRANCH  24  25
ENDBRANCH  23  24
ENDBRANCH  22  23
ENDBRANCH  21  22
ENDBRANCH  20  21
ENDBRANCH  19  20
ENDBRANCH  18  19
ENDBRANCH  17  18
ENDBRANCH  16  17
ENDBRANCH  15  16
ENDBRANCH   1  15
TORSDOF 22
ENDMDL
