MODEL 1
REMARK VINA RESULT:    -4.976      0.000      0.000
REMARK INTER + INTRA:          -4.976
REMARK INTER:                  -4.976
REMARK INTRA:                   0.000
REMARK UNBOUND:                 0.000
REMARK SMILES CC1=CC[C@@]2(C)CCCC(C)(C)[C@]23C[C@H]13
REMARK SMILES IDX 1 1 2 2 3 3 4 4 5 5 7 6 8 7 9 8 10 9 13 10 15 11 14 12 11 13
REMARK SMILES IDX 12 14 6 15
REMARK H PARENT
REMARK Flexibility Score: inf
ROOT
ATOM      1  C   UNL     1     138.433 140.127 135.445  1.00  0.00     0.039 C 
ATOM      2  C   UNL     1     138.371 138.669 135.796  1.00  0.00    -0.074 C 
ATOM      3  C   UNL     1     137.425 138.222 136.639  1.00  0.00    -0.027 C 
ATOM      4  C   UNL     1     137.402 136.784 137.086  1.00  0.00     0.034 C 
ATOM      5  C   UNL     1     138.842 136.254 137.319  1.00  0.00    -0.022 C 
ATOM      6  C   UNL     1     138.776 134.777 137.817  1.00  0.00     0.008 C 
ATOM      7  C   UNL     1     138.622 133.745 136.716  1.00  0.00     0.001 C 
ATOM      8  C   UNL     1     139.809 133.838 135.768  1.00  0.00     0.007 C 
ATOM      9  C   UNL     1     139.817 135.163 134.968  1.00  0.00    -0.029 C 
ATOM     10  C   UNL     1     139.674 136.410 135.958  1.00  0.00    -0.012 C 
ATOM     11  C   UNL     1     139.361 137.713 135.171  1.00  0.00     0.022 C 
ATOM     12  C   UNL     1     140.691 137.585 135.883  1.00  0.00     0.017 C 
ATOM     13  C   UNL     1     141.144 135.182 134.170  1.00  0.00     0.012 C 
ATOM     14  C   UNL     1     138.657 135.116 133.930  1.00  0.00     0.012 C 
ATOM     15  C   UNL     1     139.467 137.043 138.509  1.00  0.00     0.012 C 
ENDROOT
TORSDOF 0
ENDMDL
MODEL 2
REMARK VINA RESULT:    -4.960      3.138      4.870
REMARK INTER + INTRA:          -4.960
REMARK INTER:                  -4.960
REMARK INTRA:                   0.000
REMARK UNBOUND:                 0.000
REMARK SMILES CC1=CC[C@@]2(C)CCCC(C)(C)[C@]23C[C@H]13
REMARK SMILES IDX 1 1 2 2 3 3 4 4 5 5 7 6 8 7 9 8 10 9 13 10 15 11 14 12 11 13
REMARK SMILES IDX 12 14 6 15
REMARK H PARENT
REMARK Flexibility Score: inf
ROOT
ATOM      1  C   UNL     1     140.115 134.267 135.477  1.00  0.00     0.039 C 
ATOM      2  C   UNL     1     138.656 134.302 135.830  1.00  0.00    -0.074 C 
ATOM      3  C   UNL     1     138.196 135.223 136.694  1.00  0.00    -0.027 C 
ATOM      4  C   UNL     1     136.759 135.216 137.141  1.00  0.00     0.034 C 
ATOM      5  C   UNL     1     136.248 133.764 137.343  1.00  0.00    -0.022 C 
ATOM      6  C   UNL     1     134.771 133.799 137.843  1.00  0.00     0.008 C 
ATOM      7  C   UNL     1     133.736 133.963 136.746  1.00  0.00     0.001 C 
ATOM      8  C   UNL     1     133.845 132.798 135.772  1.00  0.00     0.007 C 
ATOM      9  C   UNL     1     135.170 132.826 134.972  1.00  0.00    -0.029 C 
ATOM     10  C   UNL     1     136.415 132.964 135.965  1.00  0.00    -0.012 C 
ATOM     11  C   UNL     1     137.713 133.312 135.184  1.00  0.00     0.022 C 
ATOM     12  C   UNL     1     137.604 131.966 135.866  1.00  0.00     0.017 C 
ATOM     13  C   UNL     1     135.206 131.517 134.145  1.00  0.00     0.012 C 
ATOM     14  C   UNL     1     135.106 134.008 133.960  1.00  0.00     0.012 C 
ATOM     15  C   UNL     1     137.047 133.124 138.519  1.00  0.00     0.012 C 
ENDROOT
TORSDOF 0
ENDMDL
MODEL 3
REMARK VINA RESULT:    -4.918      3.118      4.840
REMARK INTER + INTRA:          -4.918
REMARK INTER:                  -4.918
REMARK INTRA:                   0.000
REMARK UNBOUND:                 0.000
REMARK SMILES CC1=CC[C@@]2(C)CCCC(C)(C)[C@]23C[C@H]13
REMARK SMILES IDX 1 1 2 2 3 3 4 4 5 5 7 6 8 7 9 8 10 9 13 10 15 11 14 12 11 13
REMARK SMILES IDX 12 14 6 15
REMARK H PARENT
REMARK Flexibility Score: inf
ROOT
ATOM      1  C   UNL     1     132.579 138.271 135.451  1.00  0.00     0.039 C 
ATOM      2  C   UNL     1     134.034 138.249 135.819  1.00  0.00    -0.074 C 
ATOM      3  C   UNL     1     134.496 137.323 136.676  1.00  0.00    -0.027 C 
ATOM      4  C   UNL     1     135.929 137.342 137.138  1.00  0.00     0.034 C 
ATOM      5  C   UNL     1     136.421 138.797 137.361  1.00  0.00    -0.022 C 
ATOM      6  C   UNL     1     137.893 138.773 137.876  1.00  0.00     0.008 C 
ATOM      7  C   UNL     1     138.941 138.633 136.788  1.00  0.00     0.001 C 
ATOM      8  C   UNL     1     138.828 139.808 135.825  1.00  0.00     0.007 C 
ATOM      9  C   UNL     1     137.512 139.774 135.012  1.00  0.00    -0.029 C 
ATOM     10  C   UNL     1     136.259 139.610 135.990  1.00  0.00    -0.012 C 
ATOM     11  C   UNL     1     134.972 139.256 135.193  1.00  0.00     0.022 C 
ATOM     12  C   UNL     1     135.059 140.596 135.891  1.00  0.00     0.017 C 
ATOM     13  C   UNL     1     137.468 141.091 134.199  1.00  0.00     0.012 C 
ATOM     14  C   UNL     1     137.599 138.604 133.987  1.00  0.00     0.012 C 
ATOM     15  C   UNL     1     135.603 139.414 138.536  1.00  0.00     0.012 C 
ENDROOT
TORSDOF 0
ENDMDL
MODEL 4
REMARK VINA RESULT:    -4.917      4.525      6.881
REMARK INTER + INTRA:          -4.917
REMARK INTER:                  -4.917
REMARK INTRA:                   0.000
REMARK UNBOUND:                 0.000
REMARK SMILES CC1=CC[C@@]2(C)CCCC(C)(C)[C@]23C[C@H]13
REMARK SMILES IDX 1 1 2 2 3 3 4 4 5 5 7 6 8 7 9 8 10 9 13 10 15 11 14 12 11 13
REMARK SMILES IDX 12 14 6 15
REMARK H PARENT
REMARK Flexibility Score: inf
ROOT
ATOM      1  C   UNL     1     134.334 132.605 135.482  1.00  0.00     0.039 C 
ATOM      2  C   UNL     1     134.349 134.057 135.861  1.00  0.00    -0.074 C 
ATOM      3  C   UNL     1     135.253 134.510 136.747  1.00  0.00    -0.027 C 
ATOM      4  C   UNL     1     135.225 135.939 137.219  1.00  0.00     0.034 C 
ATOM      5  C   UNL     1     133.765 136.431 137.409  1.00  0.00    -0.022 C 
ATOM      6  C   UNL     1     133.778 137.899 137.937  1.00  0.00     0.008 C 
ATOM      7  C   UNL     1     133.948 138.956 136.861  1.00  0.00     0.001 C 
ATOM      8  C   UNL     1     132.797 138.853 135.868  1.00  0.00     0.007 C 
ATOM      9  C   UNL     1     132.850 137.544 135.045  1.00  0.00    -0.029 C 
ATOM     10  C   UNL     1     132.987 136.282 136.017  1.00  0.00    -0.012 C 
ATOM     11  C   UNL     1     133.359 135.001 135.218  1.00  0.00     0.022 C 
ATOM     12  C   UNL     1     132.002 135.085 135.882  1.00  0.00     0.017 C 
ATOM     13  C   UNL     1     131.554 137.509 134.198  1.00  0.00     0.012 C 
ATOM     14  C   UNL     1     134.046 137.637 134.051  1.00  0.00     0.012 C 
ATOM     15  C   UNL     1     133.117 135.605 138.562  1.00  0.00     0.012 C 
ENDROOT
TORSDOF 0
ENDMDL
MODEL 5
REMARK VINA RESULT:    -4.893      1.436      3.718
REMARK INTER + INTRA:          -4.893
REMARK INTER:                  -4.893
REMARK INTRA:                   0.000
REMARK UNBOUND:                 0.000
REMARK SMILES CC1=CC[C@@]2(C)CCCC(C)(C)[C@]23C[C@H]13
REMARK SMILES IDX 1 1 2 2 3 3 4 4 5 5 7 6 8 7 9 8 10 9 13 10 15 11 14 12 11 13
REMARK SMILES IDX 12 14 6 15
REMARK H PARENT
REMARK Flexibility Score: inf
ROOT
ATOM      1  C   UNL     1     140.463 138.219 135.880  1.00  0.00     0.039 C 
ATOM      2  C   UNL     1     140.064 136.775 135.787  1.00  0.00    -0.074 C 
ATOM      3  C   UNL     1     140.716 135.951 134.950  1.00  0.00    -0.027 C 
ATOM      4  C   UNL     1     140.272 134.524 134.764  1.00  0.00     0.034 C 
ATOM      5  C   UNL     1     138.723 134.422 134.767  1.00  0.00    -0.022 C 
ATOM      6  C   UNL     1     138.302 132.938 134.533  1.00  0.00     0.008 C 
ATOM      7  C   UNL     1     138.317 132.073 135.779  1.00  0.00     0.001 C 
ATOM      8  C   UNL     1     137.351 132.650 136.805  1.00  0.00     0.007 C 
ATOM      9  C   UNL     1     137.829 134.015 137.355  1.00  0.00    -0.029 C 
ATOM     10  C   UNL     1     138.171 135.009 136.152  1.00  0.00    -0.012 C 
ATOM     11  C   UNL     1     138.946 136.257 136.663  1.00  0.00     0.022 C 
ATOM     12  C   UNL     1     137.546 136.434 136.116  1.00  0.00     0.017 C 
ATOM     13  C   UNL     1     136.689 134.543 138.261  1.00  0.00     0.012 C 
ATOM     14  C   UNL     1     139.066 133.770 138.270  1.00  0.00     0.012 C 
ATOM     15  C   UNL     1     138.180 135.186 133.521  1.00  0.00     0.012 C 
ENDROOT
TORSDOF 0
ENDMDL
MODEL 6
REMARK VINA RESULT:    -4.860      4.063      6.491
REMARK INTER + INTRA:          -4.860
REMARK INTER:                  -4.860
REMARK INTRA:                   0.000
REMARK UNBOUND:                 0.000
REMARK SMILES CC1=CC[C@@]2(C)CCCC(C)(C)[C@]23C[C@H]13
REMARK SMILES IDX 1 1 2 2 3 3 4 4 5 5 7 6 8 7 9 8 10 9 13 10 15 11 14 12 11 13
REMARK SMILES IDX 12 14 6 15
REMARK H PARENT
REMARK Flexibility Score: inf
ROOT
ATOM      1  C   UNL     1     138.213 132.251 135.844  1.00  0.00     0.039 C 
ATOM      2  C   UNL     1     136.763 132.622 135.737  1.00  0.00    -0.074 C 
ATOM      3  C   UNL     1     135.947 131.916 134.936  1.00  0.00    -0.027 C 
ATOM      4  C   UNL     1     134.513 132.328 134.734  1.00  0.00     0.034 C 
ATOM      5  C   UNL     1     134.386 133.873 134.660  1.00  0.00    -0.022 C 
ATOM      6  C   UNL     1     132.896 134.259 134.411  1.00  0.00     0.008 C 
ATOM      7  C   UNL     1     132.034 134.293 135.659  1.00  0.00     0.001 C 
ATOM      8  C   UNL     1     132.599 135.317 136.634  1.00  0.00     0.007 C 
ATOM      9  C   UNL     1     133.973 134.889 137.202  1.00  0.00    -0.029 C 
ATOM     10  C   UNL     1     134.969 134.503 136.014  1.00  0.00    -0.012 C 
ATOM     11  C   UNL     1     136.230 133.774 136.558  1.00  0.00     0.022 C 
ATOM     12  C   UNL     1     136.383 135.147 135.941  1.00  0.00     0.017 C 
ATOM     13  C   UNL     1     134.485 136.081 138.048  1.00  0.00     0.012 C 
ATOM     14  C   UNL     1     133.750 133.696 138.178  1.00  0.00     0.012 C 
ATOM     15  C   UNL     1     135.138 134.365 133.386  1.00  0.00     0.012 C 
ENDROOT
TORSDOF 0
ENDMDL
MODEL 7
REMARK VINA RESULT:    -4.860      2.147      4.234
REMARK INTER + INTRA:          -4.860
REMARK INTER:                  -4.860
REMARK INTRA:                   0.000
REMARK UNBOUND:                 0.000
REMARK SMILES CC1=CC[C@@]2(C)CCCC(C)(C)[C@]23C[C@H]13
REMARK SMILES IDX 1 1 2 2 3 3 4 4 5 5 7 6 8 7 9 8 10 9 13 10 15 11 14 12 11 13
REMARK SMILES IDX 12 14 6 15
REMARK H PARENT
REMARK Flexibility Score: inf
ROOT
ATOM      1  C   UNL     1     134.561 140.503 135.878  1.00  0.00     0.039 C 
ATOM      2  C   UNL     1     135.996 140.069 135.798  1.00  0.00    -0.074 C 
ATOM      3  C   UNL     1     136.836 140.682 134.947  1.00  0.00    -0.027 C 
ATOM      4  C   UNL     1     138.252 140.200 134.775  1.00  0.00     0.034 C 
ATOM      5  C   UNL     1     138.318 138.650 134.814  1.00  0.00    -0.022 C 
ATOM      6  C   UNL     1     139.792 138.189 134.593  1.00  0.00     0.008 C 
ATOM      7  C   UNL     1     140.656 138.213 135.840  1.00  0.00     0.001 C 
ATOM      8  C   UNL     1     140.054 137.285 136.888  1.00  0.00     0.007 C 
ATOM      9  C   UNL     1     138.700 137.807 137.423  1.00  0.00    -0.029 C 
ATOM     10  C   UNL     1     137.716 138.144 136.210  1.00  0.00    -0.012 C 
ATOM     11  C   UNL     1     136.486 138.960 136.700  1.00  0.00     0.022 C 
ATOM     12  C   UNL     1     136.277 137.552 136.186  1.00  0.00     0.017 C 
ATOM     13  C   UNL     1     138.144 136.701 138.354  1.00  0.00     0.012 C 
ATOM     14  C   UNL     1     138.972 139.059 138.309  1.00  0.00     0.012 C 
ATOM     15  C   UNL     1     137.543 138.096 133.580  1.00  0.00     0.012 C 
ENDROOT
TORSDOF 0
ENDMDL
MODEL 8
REMARK VINA RESULT:    -4.814      1.212      4.507
REMARK INTER + INTRA:          -4.814
REMARK INTER:                  -4.814
REMARK INTRA:                   0.000
REMARK UNBOUND:                 0.000
REMARK SMILES CC1=CC[C@@]2(C)CCCC(C)(C)[C@]23C[C@H]13
REMARK SMILES IDX 1 1 2 2 3 3 4 4 5 5 7 6 8 7 9 8 10 9 13 10 15 11 14 12 11 13
REMARK SMILES IDX 12 14 6 15
REMARK H PARENT
REMARK Flexibility Score: inf
ROOT
ATOM      1  C   UNL     1     139.781 133.766 135.256  1.00  0.00     0.039 C 
ATOM      2  C   UNL     1     139.494 135.231 135.092  1.00  0.00    -0.074 C 
ATOM      3  C   UNL     1     140.280 135.985 134.305  1.00  0.00    -0.027 C 
ATOM      4  C   UNL     1     140.075 137.472 134.203  1.00  0.00     0.034 C 
ATOM      5  C   UNL     1     139.696 138.075 135.583  1.00  0.00    -0.022 C 
ATOM      6  C   UNL     1     139.531 139.620 135.445  1.00  0.00     0.008 C 
ATOM      7  C   UNL     1     138.177 140.068 134.927  1.00  0.00     0.001 C 
ATOM      8  C   UNL     1     137.090 139.590 135.882  1.00  0.00     0.007 C 
ATOM      9  C   UNL     1     136.944 138.050 135.878  1.00  0.00    -0.029 C 
ATOM     10  C   UNL     1     138.365 137.357 136.110  1.00  0.00    -0.012 C 
ATOM     11  C   UNL     1     138.301 135.836 135.796  1.00  0.00     0.022 C 
ATOM     12  C   UNL     1     138.535 136.283 137.223  1.00  0.00     0.017 C 
ATOM     13  C   UNL     1     135.922 137.707 136.990  1.00  0.00     0.012 C 
ATOM     14  C   UNL     1     136.308 137.621 134.523  1.00  0.00     0.012 C 
ATOM     15  C   UNL     1     140.909 137.894 136.545  1.00  0.00     0.012 C 
ENDROOT
TORSDOF 0
ENDMDL
MODEL 9
REMARK VINA RESULT:    -4.813      4.199      6.810
REMARK INTER + INTRA:          -4.813
REMARK INTER:                  -4.813
REMARK INTRA:                   0.000
REMARK UNBOUND:                 0.000
REMARK SMILES CC1=CC[C@@]2(C)CCCC(C)(C)[C@]23C[C@H]13
REMARK SMILES IDX 1 1 2 2 3 3 4 4 5 5 7 6 8 7 9 8 10 9 13 10 15 11 14 12 11 13
REMARK SMILES IDX 12 14 6 15
REMARK H PARENT
REMARK Flexibility Score: inf
ROOT
ATOM      1  C   UNL     1     132.254 134.434 135.506  1.00  0.00     0.039 C 
ATOM      2  C   UNL     1     132.618 135.890 135.519  1.00  0.00    -0.074 C 
ATOM      3  C   UNL     1     131.909 136.766 134.787  1.00  0.00    -0.027 C 
ATOM      4  C   UNL     1     132.314 138.213 134.704  1.00  0.00     0.034 C 
ATOM      5  C   UNL     1     133.859 138.353 134.645  1.00  0.00    -0.022 C 
ATOM      6  C   UNL     1     134.238 139.861 134.519  1.00  0.00     0.008 C 
ATOM      7  C   UNL     1     134.265 140.617 135.835  1.00  0.00     0.001 C 
ATOM      8  C   UNL     1     135.290 139.979 136.762  1.00  0.00     0.007 C 
ATOM      9  C   UNL     1     134.868 138.561 137.214  1.00  0.00    -0.029 C 
ATOM     10  C   UNL     1     134.489 137.664 135.947  1.00  0.00    -0.012 C 
ATOM     11  C   UNL     1     133.766 136.359 136.384  1.00  0.00     0.022 C 
ATOM     12  C   UNL     1     135.141 136.264 135.760  1.00  0.00     0.017 C 
ATOM     13  C   UNL     1     136.061 137.987 138.017  1.00  0.00     0.012 C 
ATOM     14  C   UNL     1     133.672 138.697 138.202  1.00  0.00     0.012 C 
ATOM     15  C   UNL     1     134.357 137.711 133.314  1.00  0.00     0.012 C 
ENDROOT
TORSDOF 0
ENDMDL
