MODEL 1
REMARK VINA RESULT:    -3.092      0.000      0.000
REMARK INTER + INTRA:          -3.492
REMARK INTER:                  -3.453
REMARK INTRA:                  -0.039
REMARK UNBOUND:                -0.039
REMARK SMILES CCCC(=O)[O-]
REMARK SMILES IDX 3 1 4 2 5 3 6 4 2 5 1 6
REMARK H PARENT
REMARK Flexibility Score: inf
ROOT
ATOM      1  C   UNL     1       4.751 -35.136  20.488  1.00  0.00     0.052 C 
ENDROOT
BRANCH   1   2
ATOM      2  C   UNL     1       4.815 -36.424  19.731  1.00  0.00     0.041 C 
ATOM      3  O   UNL     1       5.570 -37.353  20.122  1.00  0.00    -0.550 OA
ATOM      4  O   UNL     1       4.002 -36.618  18.621  1.00  0.00    -0.550 OA
ENDBRANCH   1   2
BRANCH   1   5
ATOM      5  C   UNL     1       6.026 -34.936  21.311  1.00  0.00     0.003 C 
ATOM      6  C   UNL     1       5.726 -34.969  22.807  1.00  0.00     0.004 C 
ENDBRANCH   1   5
TORSDOF 2
ENDMDL
MODEL 2
REMARK VINA RESULT:    -2.980      1.383      1.793
REMARK INTER + INTRA:          -3.367
REMARK INTER:                  -3.351
REMARK INTRA:                  -0.017
REMARK UNBOUND:                -0.039
REMARK SMILES CCCC(=O)[O-]
REMARK SMILES IDX 3 1 4 2 5 3 6 4 2 5 1 6
REMARK H PARENT
REMARK Flexibility Score: inf
ROOT
ATOM      1  C   UNL     1       5.160 -36.555  19.769  1.00  0.00     0.052 C 
ENDROOT
BRANCH   1   2
ATOM      2  C   UNL     1       3.849 -36.660  19.057  1.00  0.00     0.041 C 
ATOM      3  O   UNL     1       3.800 -36.569  17.802  1.00  0.00    -0.550 OA
ATOM      4  O   UNL     1       2.686 -36.909  19.775  1.00  0.00    -0.550 OA
ENDBRANCH   1   2
BRANCH   1   5
ATOM      5  C   UNL     1       5.415 -35.112  20.211  1.00  0.00     0.003 C 
ATOM      6  C   UNL     1       5.798 -35.048  21.687  1.00  0.00     0.004 C 
ENDBRANCH   1   5
TORSDOF 2
ENDMDL
MODEL 3
REMARK VINA RESULT:    -2.910      2.076      3.251
REMARK INTER + INTRA:          -3.289
REMARK INTER:                  -3.250
REMARK INTRA:                  -0.039
REMARK UNBOUND:                -0.039
REMARK SMILES CCCC(=O)[O-]
REMARK SMILES IDX 3 1 4 2 5 3 6 4 2 5 1 6
REMARK H PARENT
REMARK Flexibility Score: inf
ROOT
ATOM      1  C   UNL     1       5.257 -36.657  19.913  1.00  0.00     0.052 C 
ENDROOT
BRANCH   1   2
ATOM      2  C   UNL     1       5.727 -35.298  20.323  1.00  0.00     0.041 C 
ATOM      3  O   UNL     1       5.963 -35.047  21.534  1.00  0.00    -0.550 OA
ATOM      4  O   UNL     1       5.952 -34.321  19.361  1.00  0.00    -0.550 OA
ENDBRANCH   1   2
BRANCH   1   5
ATOM      5  C   UNL     1       3.760 -36.633  19.595  1.00  0.00     0.003 C 
ATOM      6  C   UNL     1       3.517 -36.658  18.089  1.00  0.00     0.004 C 
ENDBRANCH   1   5
TORSDOF 2
ENDMDL
MODEL 4
REMARK VINA RESULT:    -2.851      4.284      5.552
REMARK INTER + INTRA:          -3.223
REMARK INTER:                  -3.165
REMARK INTRA:                  -0.057
REMARK UNBOUND:                -0.039
REMARK SMILES CCCC(=O)[O-]
REMARK SMILES IDX 3 1 4 2 5 3 6 4 2 5 1 6
REMARK H PARENT
REMARK Flexibility Score: inf
ROOT
ATOM      1  C   UNL     1       3.475 -35.368  15.974  1.00  0.00     0.052 C 
ENDROOT
BRANCH   1   2
ATOM      2  C   UNL     1       2.934 -36.293  17.017  1.00  0.00     0.041 C 
ATOM      3  O   UNL     1       3.706 -36.816  17.863  1.00  0.00    -0.550 OA
ATOM      4  O   UNL     1       1.567 -36.538  17.087  1.00  0.00    -0.550 OA
ENDBRANCH   1   2
BRANCH   1   5
ATOM      5  C   UNL     1       3.203 -35.923  14.573  1.00  0.00     0.003 C 
ATOM      6  C   UNL     1       4.222 -36.996  14.199  1.00  0.00     0.004 C 
ENDBRANCH   1   5
TORSDOF 2
ENDMDL
MODEL 5
REMARK VINA RESULT:    -2.834      3.426      4.909
REMARK INTER + INTRA:          -3.204
REMARK INTER:                  -3.195
REMARK INTRA:                  -0.008
REMARK UNBOUND:                -0.039
REMARK SMILES CCCC(=O)[O-]
REMARK SMILES IDX 3 1 4 2 5 3 6 4 2 5 1 6
REMARK H PARENT
REMARK Flexibility Score: inf
ROOT
ATOM      1  C   UNL     1       3.463 -36.538  17.074  1.00  0.00     0.052 C 
ENDROOT
BRANCH   1   2
ATOM      2  C   UNL     1       3.019 -36.858  18.466  1.00  0.00     0.041 C 
ATOM      3  O   UNL     1       3.800 -36.679  19.437  1.00  0.00    -0.550 OA
ATOM      4  O   UNL     1       1.724 -37.308  18.696  1.00  0.00    -0.550 OA
ENDBRANCH   1   2
BRANCH   1   5
ATOM      5  C   UNL     1       2.283 -36.034  16.238  1.00  0.00     0.003 C 
ATOM      6  C   UNL     1       2.717 -35.718  14.809  1.00  0.00     0.004 C 
ENDBRANCH   1   5
TORSDOF 2
ENDMDL
MODEL 6
REMARK VINA RESULT:    -2.759      2.206      3.432
REMARK INTER + INTRA:          -3.120
REMARK INTER:                  -3.082
REMARK INTRA:                  -0.038
REMARK UNBOUND:                -0.039
REMARK SMILES CCCC(=O)[O-]
REMARK SMILES IDX 3 1 4 2 5 3 6 4 2 5 1 6
REMARK H PARENT
REMARK Flexibility Score: inf
ROOT
ATOM      1  C   UNL     1       5.720 -35.404  20.104  1.00  0.00     0.052 C 
ENDROOT
BRANCH   1   2
ATOM      2  C   UNL     1       5.267 -34.907  21.440  1.00  0.00     0.041 C 
ATOM      3  O   UNL     1       4.105 -34.445  21.585  1.00  0.00    -0.550 OA
ATOM      4  O   UNL     1       6.113 -34.999  22.539  1.00  0.00    -0.550 OA
ENDBRANCH   1   2
BRANCH   1   5
ATOM      5  C   UNL     1       5.072 -36.754  19.788  1.00  0.00     0.003 C 
ATOM      6  C   UNL     1       3.988 -36.609  18.723  1.00  0.00     0.004 C 
ENDBRANCH   1   5
TORSDOF 2
ENDMDL
MODEL 7
REMARK VINA RESULT:    -2.731      1.218      2.285
REMARK INTER + INTRA:          -3.089
REMARK INTER:                  -3.038
REMARK INTRA:                  -0.050
REMARK UNBOUND:                -0.039
REMARK SMILES CCCC(=O)[O-]
REMARK SMILES IDX 3 1 4 2 5 3 6 4 2 5 1 6
REMARK H PARENT
REMARK Flexibility Score: inf
ROOT
ATOM      1  C   UNL     1       4.921 -35.312  20.429  1.00  0.00     0.052 C 
ENDROOT
BRANCH   1   2
ATOM      2  C   UNL     1       4.804 -36.610  19.697  1.00  0.00     0.041 C 
ATOM      3  O   UNL     1       3.882 -36.784  18.857  1.00  0.00    -0.550 OA
ATOM      4  O   UNL     1       5.744 -37.613  19.905  1.00  0.00    -0.550 OA
ENDBRANCH   1   2
BRANCH   1   5
ATOM      5  C   UNL     1       6.125 -34.515  19.917  1.00  0.00     0.003 C 
ATOM      6  C   UNL     1       5.761 -33.704  18.677  1.00  0.00     0.004 C 
ENDBRANCH   1   5
TORSDOF 2
ENDMDL
MODEL 8
REMARK VINA RESULT:    -2.692      2.686      3.456
REMARK INTER + INTRA:          -3.045
REMARK INTER:                  -3.003
REMARK INTRA:                  -0.042
REMARK UNBOUND:                -0.039
REMARK SMILES CCCC(=O)[O-]
REMARK SMILES IDX 3 1 4 2 5 3 6 4 2 5 1 6
REMARK H PARENT
REMARK Flexibility Score: inf
ROOT
ATOM      1  C   UNL     1       6.120 -34.851  21.323  1.00  0.00     0.052 C 
ENDROOT
BRANCH   1   2
ATOM      2  C   UNL     1       5.711 -34.929  22.759  1.00  0.00     0.041 C 
ATOM      3  O   UNL     1       6.125 -35.871  23.486  1.00  0.00    -0.550 OA
ATOM      4  O   UNL     1       4.911 -33.935  23.309  1.00  0.00    -0.550 OA
ENDBRANCH   1   2
BRANCH   1   5
ATOM      5  C   UNL     1       5.013 -35.399  20.420  1.00  0.00     0.003 C 
ATOM      6  C   UNL     1       5.196 -36.893  20.169  1.00  0.00     0.004 C 
ENDBRANCH   1   5
TORSDOF 2
ENDMDL
MODEL 9
REMARK VINA RESULT:    -2.631      3.227      4.155
REMARK INTER + INTRA:          -2.977
REMARK INTER:                  -2.972
REMARK INTRA:                  -0.005
REMARK UNBOUND:                -0.039
REMARK SMILES CCCC(=O)[O-]
REMARK SMILES IDX 3 1 4 2 5 3 6 4 2 5 1 6
REMARK H PARENT
REMARK Flexibility Score: inf
ROOT
ATOM      1  C   UNL     1       2.777 -36.750  17.696  1.00  0.00     0.052 C 
ENDROOT
BRANCH   1   2
ATOM      2  C   UNL     1       2.823 -36.352  16.255  1.00  0.00     0.041 C 
ATOM      3  O   UNL     1       2.101 -35.410  15.834  1.00  0.00    -0.550 OA
ATOM      4  O   UNL     1       3.701 -36.989  15.386  1.00  0.00    -0.550 OA
ENDBRANCH   1   2
BRANCH   1   5
ATOM      5  C   UNL     1       4.120 -36.464  18.373  1.00  0.00     0.003 C 
ATOM      6  C   UNL     1       3.980 -36.464  19.893  1.00  0.00     0.004 C 
ENDBRANCH   1   5
TORSDOF 2
ENDMDL
