MODEL 1
REMARK VINA RESULT:    -3.519      0.000      0.000
REMARK INTER + INTRA:          -4.871
REMARK INTER:                  -4.548
REMARK INTRA:                  -0.323
REMARK UNBOUND:                -0.323
REMARK SMILES CCCCCCC(=O)[O-]
REMARK SMILES IDX 5 1 6 2 7 3 8 4 9 5 4 6 3 7 2 8 1 9
REMARK H PARENT
REMARK Flexibility Score: inf
ROOT
ATOM      1  C   UNL     1     -25.089 -14.587   0.101  1.00  0.00     0.006 C 
ENDROOT
BRANCH   1   2
ATOM      2  C   UNL     1     -26.025 -15.764   0.391  1.00  0.00     0.053 C 
BRANCH   2   3
ATOM      3  C   UNL     1     -25.893 -16.199   1.816  1.00  0.00     0.041 C 
ATOM      4  O   UNL     1     -26.537 -17.197   2.236  1.00  0.00    -0.550 OA
ATOM      5  O   UNL     1     -25.098 -15.473   2.694  1.00  0.00    -0.550 OA
ENDBRANCH   2   3
ENDBRANCH   1   2
BRANCH   1   6
ATOM      6  C   UNL     1     -24.216 -14.868  -1.129  1.00  0.00     0.000 C 
BRANCH   6   7
ATOM      7  C   UNL     1     -22.723 -14.796  -0.771  1.00  0.00    -0.000 C 
BRANCH   7   8
ATOM      8  C   UNL     1     -22.329 -15.807   0.317  1.00  0.00    -0.003 C 
ATOM      9  C   UNL     1     -21.778 -15.138   1.575  1.00  0.00     0.004 C 
ENDBRANCH   7   8
ENDBRANCH   6   7
ENDBRANCH   1   6
TORSDOF 5
ENDMDL
MODEL 2
REMARK VINA RESULT:    -3.499      2.043      3.509
REMARK INTER + INTRA:          -4.845
REMARK INTER:                  -4.476
REMARK INTRA:                  -0.368
REMARK UNBOUND:                -0.323
REMARK SMILES CCCCCCC(=O)[O-]
REMARK SMILES IDX 5 1 6 2 7 3 8 4 9 5 4 6 3 7 2 8 1 9
REMARK H PARENT
REMARK Flexibility Score: inf
ROOT
ATOM      1  C   UNL     1     -22.762 -14.734  -0.726  1.00  0.00     0.006 C 
ENDROOT
BRANCH   1   2
ATOM      2  C   UNL     1     -22.254 -15.790   0.260  1.00  0.00     0.053 C 
BRANCH   2   3
ATOM      3  C   UNL     1     -21.946 -15.166   1.584  1.00  0.00     0.041 C 
ATOM      4  O   UNL     1     -21.685 -15.891   2.581  1.00  0.00    -0.550 OA
ATOM      5  O   UNL     1     -21.996 -13.786   1.731  1.00  0.00    -0.550 OA
ENDBRANCH   2   3
ENDBRANCH   1   2
BRANCH   1   6
ATOM      6  C   UNL     1     -24.219 -15.006  -1.121  1.00  0.00     0.000 C 
BRANCH   6   7
ATOM      7  C   UNL     1     -25.181 -14.574  -0.003  1.00  0.00    -0.000 C 
BRANCH   7   8
ATOM      8  C   UNL     1     -25.929 -15.762   0.621  1.00  0.00    -0.003 C 
ATOM      9  C   UNL     1     -25.554 -15.996   2.083  1.00  0.00     0.004 C 
ENDBRANCH   7   8
ENDBRANCH   6   7
ENDBRANCH   1   6
TORSDOF 5
ENDMDL
MODEL 3
REMARK VINA RESULT:    -3.383      1.642      2.649
REMARK INTER + INTRA:          -4.695
REMARK INTER:                  -4.448
REMARK INTRA:                  -0.247
REMARK UNBOUND:                -0.323
REMARK SMILES CCCCCCC(=O)[O-]
REMARK SMILES IDX 5 1 6 2 7 3 8 4 9 5 4 6 3 7 2 8 1 9
REMARK H PARENT
REMARK Flexibility Score: inf
ROOT
ATOM      1  C   UNL     1     -22.764 -14.590  -0.487  1.00  0.00     0.006 C 
ENDROOT
BRANCH   1   2
ATOM      2  C   UNL     1     -24.160 -14.852  -1.059  1.00  0.00     0.053 C 
BRANCH   2   3
ATOM      3  C   UNL     1     -25.192 -14.772   0.021  1.00  0.00     0.041 C 
ATOM      4  O   UNL     1     -26.252 -15.448  -0.065  1.00  0.00    -0.550 OA
ATOM      5  O   UNL     1     -25.008 -13.913   1.097  1.00  0.00    -0.550 OA
ENDBRANCH   2   3
ENDBRANCH   1   2
BRANCH   1   6
ATOM      6  C   UNL     1     -22.119 -15.889   0.010  1.00  0.00     0.000 C 
BRANCH   6   7
ATOM      7  C   UNL     1     -22.432 -16.125   1.496  1.00  0.00    -0.000 C 
BRANCH   7   8
ATOM      8  C   UNL     1     -23.174 -17.449   1.739  1.00  0.00    -0.003 C 
ATOM      9  C   UNL     1     -24.469 -17.265   2.529  1.00  0.00     0.004 C 
ENDBRANCH   7   8
ENDBRANCH   6   7
ENDBRANCH   1   6
TORSDOF 5
ENDMDL
MODEL 4
REMARK VINA RESULT:    -3.359      0.993      1.682
REMARK INTER + INTRA:          -4.664
REMARK INTER:                  -4.396
REMARK INTRA:                  -0.268
REMARK UNBOUND:                -0.323
REMARK SMILES CCCCCCC(=O)[O-]
REMARK SMILES IDX 5 1 6 2 7 3 8 4 9 5 4 6 3 7 2 8 1 9
REMARK H PARENT
REMARK Flexibility Score: inf
ROOT
ATOM      1  C   UNL     1     -25.913 -15.812   0.763  1.00  0.00     0.006 C 
ENDROOT
BRANCH   1   2
ATOM      2  C   UNL     1     -25.240 -16.518   1.943  1.00  0.00     0.053 C 
BRANCH   2   3
ATOM      3  C   UNL     1     -25.699 -15.929   3.239  1.00  0.00     0.041 C 
ATOM      4  O   UNL     1     -26.811 -16.263   3.729  1.00  0.00    -0.550 OA
ATOM      5  O   UNL     1     -24.923 -14.973   3.881  1.00  0.00    -0.550 OA
ENDBRANCH   2   3
ENDBRANCH   1   2
BRANCH   1   6
ATOM      6  C   UNL     1     -25.083 -14.611   0.294  1.00  0.00     0.000 C 
BRANCH   6   7
ATOM      7  C   UNL     1     -24.438 -14.889  -1.073  1.00  0.00    -0.000 C 
BRANCH   7   8
ATOM      8  C   UNL     1     -22.913 -14.701  -1.054  1.00  0.00    -0.003 C 
ATOM      9  C   UNL     1     -22.221 -15.581  -0.016  1.00  0.00     0.004 C 
ENDBRANCH   7   8
ENDBRANCH   6   7
ENDBRANCH   1   6
TORSDOF 5
ENDMDL
MODEL 5
REMARK VINA RESULT:    -3.340      2.586      3.707
REMARK INTER + INTRA:          -4.639
REMARK INTER:                  -4.279
REMARK INTRA:                  -0.360
REMARK UNBOUND:                -0.323
REMARK SMILES CCCCCCC(=O)[O-]
REMARK SMILES IDX 5 1 6 2 7 3 8 4 9 5 4 6 3 7 2 8 1 9
REMARK H PARENT
REMARK Flexibility Score: inf
ROOT
ATOM      1  C   UNL     1     -25.443 -15.129   0.221  1.00  0.00     0.006 C 
ENDROOT
BRANCH   1   2
ATOM      2  C   UNL     1     -24.105 -14.420   0.446  1.00  0.00     0.053 C 
BRANCH   2   3
ATOM      3  C   UNL     1     -23.118 -14.817  -0.605  1.00  0.00     0.041 C 
ATOM      4  O   UNL     1     -23.276 -14.442  -1.798  1.00  0.00    -0.550 OA
ATOM      5  O   UNL     1     -22.049 -15.642  -0.279  1.00  0.00    -0.550 OA
ENDBRANCH   2   3
ENDBRANCH   1   2
BRANCH   1   6
ATOM      6  C   UNL     1     -25.702 -16.176   1.311  1.00  0.00     0.000 C 
BRANCH   6   7
ATOM      7  C   UNL     1     -24.876 -15.872   2.571  1.00  0.00    -0.000 C 
BRANCH   7   8
ATOM      8  C   UNL     1     -24.137 -17.110   3.103  1.00  0.00    -0.003 C 
ATOM      9  C   UNL     1     -23.365 -17.853   2.013  1.00  0.00     0.004 C 
ENDBRANCH   7   8
ENDBRANCH   6   7
ENDBRANCH   1   6
TORSDOF 5
ENDMDL
MODEL 6
REMARK VINA RESULT:    -3.321      2.431      4.099
REMARK INTER + INTRA:          -4.615
REMARK INTER:                  -4.308
REMARK INTRA:                  -0.307
REMARK UNBOUND:                -0.323
REMARK SMILES CCCCCCC(=O)[O-]
REMARK SMILES IDX 5 1 6 2 7 3 8 4 9 5 4 6 3 7 2 8 1 9
REMARK H PARENT
REMARK Flexibility Score: inf
ROOT
ATOM      1  C   UNL     1     -22.335 -14.942   1.145  1.00  0.00     0.006 C 
ENDROOT
BRANCH   1   2
ATOM      2  C   UNL     1     -22.308 -15.481  -0.287  1.00  0.00     0.053 C 
BRANCH   2   3
ATOM      3  C   UNL     1     -23.403 -14.866  -1.100  1.00  0.00     0.041 C 
ATOM      4  O   UNL     1     -23.125 -14.091  -2.054  1.00  0.00    -0.550 OA
ATOM      5  O   UNL     1     -24.731 -15.107  -0.774  1.00  0.00    -0.550 OA
ENDBRANCH   2   3
ENDBRANCH   1   2
BRANCH   1   6
ATOM      6  C   UNL     1     -22.329 -16.087   2.165  1.00  0.00     0.000 C 
BRANCH   6   7
ATOM      7  C   UNL     1     -23.255 -17.228   1.716  1.00  0.00    -0.000 C 
BRANCH   7   8
ATOM      8  C   UNL     1     -24.472 -17.397   2.640  1.00  0.00    -0.003 C 
ATOM      9  C   UNL     1     -25.752 -16.810   2.046  1.00  0.00     0.004 C 
ENDBRANCH   7   8
ENDBRANCH   6   7
ENDBRANCH   1   6
TORSDOF 5
ENDMDL
MODEL 7
REMARK VINA RESULT:    -3.313      1.376      2.738
REMARK INTER + INTRA:          -4.604
REMARK INTER:                  -4.255
REMARK INTRA:                  -0.349
REMARK UNBOUND:                -0.323
REMARK SMILES CCCCCCC(=O)[O-]
REMARK SMILES IDX 5 1 6 2 7 3 8 4 9 5 4 6 3 7 2 8 1 9
REMARK H PARENT
REMARK Flexibility Score: inf
ROOT
ATOM      1  C   UNL     1     -22.569 -16.311   2.610  1.00  0.00     0.006 C 
ENDROOT
BRANCH   1   2
ATOM      2  C   UNL     1     -23.444 -17.371   1.935  1.00  0.00     0.053 C 
BRANCH   2   3
ATOM      3  C   UNL     1     -24.871 -17.220   2.359  1.00  0.00     0.041 C 
ATOM      4  O   UNL     1     -25.675 -16.555   1.653  1.00  0.00    -0.550 OA
ATOM      5  O   UNL     1     -25.301 -17.772   3.558  1.00  0.00    -0.550 OA
ENDBRANCH   2   3
ENDBRANCH   1   2
BRANCH   1   6
ATOM      6  C   UNL     1     -22.121 -15.244   1.605  1.00  0.00     0.000 C 
BRANCH   6   7
ATOM      7  C   UNL     1     -22.250 -15.759   0.163  1.00  0.00    -0.000 C 
BRANCH   7   8
ATOM      8  C   UNL     1     -22.787 -14.689  -0.800  1.00  0.00    -0.003 C 
ATOM      9  C   UNL     1     -24.271 -14.868  -1.115  1.00  0.00     0.004 C 
ENDBRANCH   7   8
ENDBRANCH   6   7
ENDBRANCH   1   6
TORSDOF 5
ENDMDL
MODEL 8
REMARK VINA RESULT:    -3.300     16.306     17.392
REMARK INTER + INTRA:          -4.588
REMARK INTER:                  -4.224
REMARK INTRA:                  -0.364
REMARK UNBOUND:                -0.323
REMARK SMILES CCCCCCC(=O)[O-]
REMARK SMILES IDX 5 1 6 2 7 3 8 4 9 5 4 6 3 7 2 8 1 9
REMARK H PARENT
REMARK Flexibility Score: inf
ROOT
ATOM      1  C   UNL     1     -29.518  -5.864 -13.967  1.00  0.00     0.006 C 
ENDROOT
BRANCH   1   2
ATOM      2  C   UNL     1     -30.884  -6.503 -13.701  1.00  0.00     0.053 C 
BRANCH   2   3
ATOM      3  C   UNL     1     -30.992  -7.820 -14.402  1.00  0.00     0.041 C 
ATOM      4  O   UNL     1     -31.992  -8.071 -15.127  1.00  0.00    -0.550 OA
ATOM      5  O   UNL     1     -30.015  -8.789 -14.217  1.00  0.00    -0.550 OA
ENDBRANCH   2   3
ENDBRANCH   1   2
BRANCH   1   6
ATOM      6  C   UNL     1     -28.881  -5.363 -12.665  1.00  0.00     0.000 C 
BRANCH   6   7
ATOM      7  C   UNL     1     -29.746  -5.737 -11.451  1.00  0.00    -0.000 C 
BRANCH   7   8
ATOM      8  C   UNL     1     -29.007  -6.651 -10.461  1.00  0.00    -0.003 C 
ATOM      9  C   UNL     1     -29.103  -8.129 -10.836  1.00  0.00     0.004 C 
ENDBRANCH   7   8
ENDBRANCH   6   7
ENDBRANCH   1   6
TORSDOF 5
ENDMDL
MODEL 9
REMARK VINA RESULT:    -3.215      1.316      2.858
REMARK INTER + INTRA:          -4.477
REMARK INTER:                  -4.095
REMARK INTRA:                  -0.382
REMARK UNBOUND:                -0.323
REMARK SMILES CCCCCCC(=O)[O-]
REMARK SMILES IDX 5 1 6 2 7 3 8 4 9 5 4 6 3 7 2 8 1 9
REMARK H PARENT
REMARK Flexibility Score: inf
ROOT
ATOM      1  C   UNL     1     -21.909 -15.391   1.505  1.00  0.00     0.006 C 
ENDROOT
BRANCH   1   2
ATOM      2  C   UNL     1     -22.803 -16.247   2.406  1.00  0.00     0.053 C 
BRANCH   2   3
ATOM      3  C   UNL     1     -23.848 -15.402   3.063  1.00  0.00     0.041 C 
ATOM      4  O   UNL     1     -24.849 -15.940   3.607  1.00  0.00    -0.550 OA
ATOM      5  O   UNL     1     -23.743 -14.017   3.032  1.00  0.00    -0.550 OA
ENDBRANCH   2   3
ENDBRANCH   1   2
BRANCH   1   6
ATOM      6  C   UNL     1     -22.181 -15.680   0.024  1.00  0.00     0.000 C 
BRANCH   6   7
ATOM      7  C   UNL     1     -22.935 -14.515  -0.635  1.00  0.00    -0.000 C 
BRANCH   7   8
ATOM      8  C   UNL     1     -24.324 -14.926  -1.148  1.00  0.00    -0.003 C 
ATOM      9  C   UNL     1     -25.420 -14.749  -0.098  1.00  0.00     0.004 C 
ENDBRANCH   7   8
ENDBRANCH   6   7
ENDBRANCH   1   6
TORSDOF 5
ENDMDL
