MODEL 1
REMARK VINA RESULT:    -8.023      0.000      0.000
REMARK INTER + INTRA:         -13.293
REMARK INTER:                 -11.774
REMARK INTRA:                  -1.519
REMARK UNBOUND:                -1.519
REMARK SMILES O=c1c(O[C@H]2O[C@H](CO)[C@@H](O)[C@@H](O)[C@H]2O)c(-c2ccc(O)c(O)c2)oc2cc(O)cc(O)c12
REMARK SMILES IDX 4 1 3 2 16 3 25 4 2 5 26 6 1 7 33 8 27 9 31 10 28 11 30 12
REMARK SMILES IDX 17 13 18 14 19 15 20 16 24 17 22 18 21 19 23 21 32 23 29 25
REMARK SMILES IDX 5 27 14 28 6 29 12 30 7 31 10 32 15 33 13 35 8 37 9 38 11 40
REMARK H PARENT 21 20 23 22 32 24 29 26 15 34 13 36 9 39 11 41
REMARK Flexibility Score: inf
ROOT
ATOM      1  O   UNL     1      35.185  47.516 160.240  1.00  0.00    -0.454 OA
ENDROOT
BRANCH   1   2
ATOM      2  C   UNL     1      35.697  47.040 161.459  1.00  0.00     0.214 A 
ATOM      3  C   UNL     1      35.360  45.711 161.863  1.00  0.00     0.180 A 
ATOM      4  O   UNL     1      36.260  45.118 162.663  1.00  0.00    -0.452 OA
ATOM      5  C   UNL     1      36.739  47.751 162.130  1.00  0.00     0.239 A 
ATOM      6  C   UNL     1      37.345  45.730 163.239  1.00  0.00     0.146 A 
ATOM      7  O   UNL     1      36.818  48.993 162.054  1.00  0.00    -0.285 OA
ATOM      8  C   UNL     1      37.741  47.064 162.930  1.00  0.00     0.111 A 
ATOM      9  C   UNL     1      37.728  45.160 164.497  1.00  0.00     0.094 A 
ATOM     10  C   UNL     1      38.735  47.622 163.819  1.00  0.00     0.134 A 
ATOM     11  C   UNL     1      38.051  46.070 165.529  1.00  0.00     0.123 A 
ATOM     12  C   UNL     1      38.546  47.323 165.191  1.00  0.00     0.093 A 
BRANCH   3  13
ATOM     13  C   UNL     1      34.101  44.877 161.527  1.00  0.00     0.025 A 
ATOM     14  C   UNL     1      32.834  45.461 161.695  1.00  0.00     0.016 A 
ATOM     15  C   UNL     1      31.785  45.081 160.854  1.00  0.00     0.051 A 
ATOM     16  C   UNL     1      32.020  44.073 159.844  1.00  0.00     0.157 A 
ATOM     17  C   UNL     1      34.255  43.715 160.729  1.00  0.00     0.062 A 
ATOM     18  C   UNL     1      33.175  43.261 159.909  1.00  0.00     0.158 A 
BRANCH  16  19
ATOM     19  O   UNL     1      31.046  43.860 158.866  1.00  0.00    -0.504 OA
ATOM     20  H   UNL     1      31.164  44.259 157.935  1.00  0.00     0.293 HD
ENDBRANCH  16  19
BRANCH  18  21
ATOM     21  O   UNL     1      33.345  42.107 159.074  1.00  0.00    -0.504 OA
ATOM     22  H   UNL     1      32.666  41.367 158.999  1.00  0.00     0.293 HD
ENDBRANCH  18  21
ENDBRANCH   3  13
BRANCH  10  23
ATOM     23  O   UNL     1      40.085  47.855 163.582  1.00  0.00    -0.507 OA
ATOM     24  H   UNL     1      41.089  48.051 163.410  1.00  0.00     0.293 HD
ENDBRANCH  10  23
BRANCH  11  25
ATOM     25  O   UNL     1      37.773  45.701 166.857  1.00  0.00    -0.508 OA
ATOM     26  H   UNL     1      38.380  45.198 167.459  1.00  0.00     0.293 HD
ENDBRANCH  11  25
ENDBRANCH   1   2
BRANCH   1  27
ATOM     27  C   UNL     1      35.978  47.310 159.033  1.00  0.00     0.339 C 
ATOM     28  C   UNL     1      36.018  48.505 158.016  1.00  0.00     0.214 C 
ATOM     29  O   UNL     1      35.587  46.104 158.401  1.00  0.00    -0.332 OA
ATOM     30  C   UNL     1      37.168  48.192 157.020  1.00  0.00     0.180 C 
ATOM     31  C   UNL     1      36.283  45.775 157.204  1.00  0.00     0.179 C 
ATOM     32  C   UNL     1      37.570  46.666 156.983  1.00  0.00     0.177 C 
BRANCH  28  33
ATOM     33  O   UNL     1      34.765  48.617 157.349  1.00  0.00    -0.384 OA
ATOM     34  H   UNL     1      34.283  47.770 157.534  1.00  0.00     0.211 HD
ENDBRANCH  28  33
BRANCH  30  35
ATOM     35  O   UNL     1      36.805  48.599 155.708  1.00  0.00    -0.387 OA
ATOM     36  H   UNL     1      36.548  49.571 155.755  1.00  0.00     0.211 HD
ENDBRANCH  30  35
BRANCH  31  37
ATOM     37  C   UNL     1      36.513  44.278 157.282  1.00  0.00     0.191 C 
BRANCH  37  38
ATOM     38  O   UNL     1      36.797  43.744 156.045  1.00  0.00    -0.394 OA
ATOM     39  H   UNL     1      37.762  43.531 155.983  1.00  0.00     0.210 HD
ENDBRANCH  37  38
ENDBRANCH  31  37
BRANCH  32  40
ATOM     40  O   UNL     1      38.127  46.368 155.670  1.00  0.00    -0.387 OA
ATOM     41  H   UNL     1      37.294  45.947 155.311  1.00  0.00     0.211 HD
ENDBRANCH  32  40
ENDBRANCH   1  27
TORSDOF 12
ENDMDL
MODEL 2
REMARK VINA RESULT:    -8.001      2.304      7.239
REMARK INTER + INTRA:         -13.261
REMARK INTER:                 -11.697
REMARK INTRA:                  -1.565
REMARK UNBOUND:                -1.519
REMARK SMILES O=c1c(O[C@H]2O[C@H](CO)[C@@H](O)[C@@H](O)[C@H]2O)c(-c2ccc(O)c(O)c2)oc2cc(O)cc(O)c12
REMARK SMILES IDX 4 1 3 2 16 3 25 4 2 5 26 6 1 7 33 8 27 9 31 10 28 11 30 12
REMARK SMILES IDX 17 13 18 14 19 15 20 16 24 17 22 18 21 19 23 21 32 23 29 25
REMARK SMILES IDX 5 27 14 28 6 29 12 30 7 31 10 32 15 33 13 35 8 37 9 38 11 40
REMARK H PARENT 21 20 23 22 32 24 29 26 15 34 13 36 9 39 11 41
REMARK Flexibility Score: inf
ROOT
ATOM      1  O   UNL     1      35.032  45.446 159.869  1.00  0.00    -0.454 OA
ENDROOT
BRANCH   1   2
ATOM      2  C   UNL     1      35.518  45.785 158.595  1.00  0.00     0.214 A 
ATOM      3  C   UNL     1      35.558  47.166 158.229  1.00  0.00     0.180 A 
ATOM      4  O   UNL     1      36.495  47.484 157.324  1.00  0.00    -0.452 OA
ATOM      5  C   UNL     1      36.210  44.813 157.806  1.00  0.00     0.239 A 
ATOM      6  C   UNL     1      37.268  46.591 156.623  1.00  0.00     0.146 A 
ATOM      7  O   UNL     1      35.915  43.604 157.878  1.00  0.00    -0.285 OA
ATOM      8  C   UNL     1      37.273  45.191 156.888  1.00  0.00     0.111 A 
ATOM      9  C   UNL     1      37.657  47.059 155.325  1.00  0.00     0.094 A 
ATOM     10  C   UNL     1      37.938  44.388 155.887  1.00  0.00     0.134 A 
ATOM     11  C   UNL     1      37.565  46.129 154.265  1.00  0.00     0.123 A 
ATOM     12  C   UNL     1      37.691  44.775 154.547  1.00  0.00     0.093 A 
BRANCH   3  13
ATOM     13  C   UNL     1      34.660  48.329 158.711  1.00  0.00     0.025 A 
ATOM     14  C   UNL     1      33.276  48.117 158.832  1.00  0.00     0.016 A 
ATOM     15  C   UNL     1      32.558  48.806 159.812  1.00  0.00     0.051 A 
ATOM     16  C   UNL     1      33.252  49.747 160.664  1.00  0.00     0.157 A 
ATOM     17  C   UNL     1      35.276  49.432 159.356  1.00  0.00     0.062 A 
ATOM     18  C   UNL     1      34.543  50.202 160.315  1.00  0.00     0.158 A 
BRANCH  16  19
ATOM     19  O   UNL     1      32.587  50.261 161.780  1.00  0.00    -0.504 OA
ATOM     20  H   UNL     1      32.813  51.196 162.120  1.00  0.00     0.293 HD
ENDBRANCH  16  19
BRANCH  18  21
ATOM     21  O   UNL     1      35.179  51.293 160.994  1.00  0.00    -0.504 OA
ATOM     22  H   UNL     1      34.690  52.117 161.304  1.00  0.00     0.293 HD
ENDBRANCH  18  21
ENDBRANCH   3  13
BRANCH  10  23
ATOM     23  O   UNL     1      39.172  43.749 155.960  1.00  0.00    -0.507 OA
ATOM     24  H   UNL     1      40.086  43.261 155.996  1.00  0.00     0.293 HD
ENDBRANCH  10  23
BRANCH  11  25
ATOM     25  O   UNL     1      37.259  46.607 152.980  1.00  0.00    -0.508 OA
ATOM     26  H   UNL     1      36.352  46.657 152.579  1.00  0.00     0.293 HD
ENDBRANCH  11  25
ENDBRANCH   1   2
BRANCH   1  27
ATOM     27  C   UNL     1      35.949  45.527 161.001  1.00  0.00     0.339 C 
ATOM     28  C   UNL     1      35.836  44.383 162.069  1.00  0.00     0.214 C 
ATOM     29  O   UNL     1      35.862  46.807 161.599  1.00  0.00    -0.332 OA
ATOM     30  C   UNL     1      37.105  44.488 162.958  1.00  0.00     0.180 C 
ATOM     31  C   UNL     1      36.709  47.028 162.722  1.00  0.00     0.179 C 
ATOM     32  C   UNL     1      37.805  45.901 162.888  1.00  0.00     0.177 C 
BRANCH  28  33
ATOM     33  O   UNL     1      34.646  44.550 162.835  1.00  0.00    -0.384 OA
ATOM     34  H   UNL     1      34.862  44.217 163.744  1.00  0.00     0.211 HD
ENDBRANCH  28  33
BRANCH  30  35
ATOM     35  O   UNL     1      36.780  44.207 164.312  1.00  0.00    -0.387 OA
ATOM     36  H   UNL     1      36.262  43.345 164.325  1.00  0.00     0.211 HD
ENDBRANCH  30  35
BRANCH  31  37
ATOM     37  C   UNL     1      37.226  48.443 162.552  1.00  0.00     0.191 C 
BRANCH  37  38
ATOM     38  O   UNL     1      37.775  48.925 163.720  1.00  0.00    -0.394 OA
ATOM     39  H   UNL     1      38.124  48.174 164.263  1.00  0.00     0.210 HD
ENDBRANCH  37  38
ENDBRANCH  31  37
BRANCH  32  40
ATOM     40  O   UNL     1      38.520  46.123 164.138  1.00  0.00    -0.387 OA
ATOM     41  H   UNL     1      38.700  45.155 164.313  1.00  0.00     0.211 HD
ENDBRANCH  32  40
ENDBRANCH   1  27
TORSDOF 12
ENDMDL
MODEL 3
REMARK VINA RESULT:    -7.810      2.575      7.698
REMARK INTER + INTRA:         -12.982
REMARK INTER:                 -11.720
REMARK INTRA:                  -1.262
REMARK UNBOUND:                -1.519
REMARK SMILES O=c1c(O[C@H]2O[C@H](CO)[C@@H](O)[C@@H](O)[C@H]2O)c(-c2ccc(O)c(O)c2)oc2cc(O)cc(O)c12
REMARK SMILES IDX 4 1 3 2 16 3 25 4 2 5 26 6 1 7 33 8 27 9 31 10 28 11 30 12
REMARK SMILES IDX 17 13 18 14 19 15 20 16 24 17 22 18 21 19 23 21 32 23 29 25
REMARK SMILES IDX 5 27 14 28 6 29 12 30 7 31 10 32 15 33 13 35 8 37 9 38 11 40
REMARK H PARENT 21 20 23 22 32 24 29 26 15 34 13 36 9 39 11 41
REMARK Flexibility Score: inf
ROOT
ATOM      1  O   UNL     1      37.197  46.286 158.546  1.00  0.00    -0.454 OA
ENDROOT
BRANCH   1   2
ATOM      2  C   UNL     1      36.953  46.557 157.189  1.00  0.00     0.214 A 
ATOM      3  C   UNL     1      36.567  47.883 156.820  1.00  0.00     0.180 A 
ATOM      4  O   UNL     1      36.891  48.239 155.567  1.00  0.00    -0.452 OA
ATOM      5  C   UNL     1      37.348  45.620 156.184  1.00  0.00     0.239 A 
ATOM      6  C   UNL     1      37.384  47.400 154.599  1.00  0.00     0.146 A 
ATOM      7  O   UNL     1      37.343  44.395 156.415  1.00  0.00    -0.285 OA
ATOM      8  C   UNL     1      37.763  46.050 154.858  1.00  0.00     0.111 A 
ATOM      9  C   UNL     1      37.022  47.781 153.266  1.00  0.00     0.094 A 
ATOM     10  C   UNL     1      38.007  45.253 153.677  1.00  0.00     0.134 A 
ATOM     11  C   UNL     1      36.606  46.742 152.403  1.00  0.00     0.123 A 
ATOM     12  C   UNL     1      37.089  45.458 152.617  1.00  0.00     0.093 A 
BRANCH   3  13
ATOM     13  C   UNL     1      35.814  48.947 157.652  1.00  0.00     0.025 A 
ATOM     14  C   UNL     1      34.415  49.027 157.548  1.00  0.00     0.016 A 
ATOM     15  C   UNL     1      33.666  49.435 158.655  1.00  0.00     0.051 A 
ATOM     16  C   UNL     1      34.351  49.795 159.877  1.00  0.00     0.157 A 
ATOM     17  C   UNL     1      36.488  49.549 158.746  1.00  0.00     0.062 A 
ATOM     18  C   UNL     1      35.743  50.040 159.864  1.00  0.00     0.158 A 
BRANCH  16  19
ATOM     19  O   UNL     1      33.600  49.983 161.039  1.00  0.00    -0.504 OA
ATOM     20  H   UNL     1      33.026  50.820 161.144  1.00  0.00     0.293 HD
ENDBRANCH  16  19
BRANCH  18  21
ATOM     21  O   UNL     1      36.428  50.614 160.985  1.00  0.00    -0.504 OA
ATOM     22  H   UNL     1      37.152  50.139 161.499  1.00  0.00     0.293 HD
ENDBRANCH  18  21
ENDBRANCH   3  13
BRANCH  10  23
ATOM     23  O   UNL     1      39.219  44.812 153.157  1.00  0.00    -0.507 OA
ATOM     24  H   UNL     1      40.122  44.501 152.754  1.00  0.00     0.293 HD
ENDBRANCH  10  23
BRANCH  11  25
ATOM     25  O   UNL     1      35.648  47.034 151.417  1.00  0.00    -0.508 OA
ATOM     26  H   UNL     1      35.836  47.408 150.517  1.00  0.00     0.293 HD
ENDBRANCH  11  25
ENDBRANCH   1   2
BRANCH   1  27
ATOM     27  C   UNL     1      36.108  45.733 159.344  1.00  0.00     0.339 C 
ATOM     28  C   UNL     1      36.073  46.152 160.855  1.00  0.00     0.214 C 
ATOM     29  O   UNL     1      36.070  44.325 159.195  1.00  0.00    -0.332 OA
ATOM     30  C   UNL     1      34.676  45.738 161.392  1.00  0.00     0.180 C 
ATOM     31  C   UNL     1      35.049  43.650 159.922  1.00  0.00     0.179 C 
ATOM     32  C   UNL     1      33.965  44.639 160.510  1.00  0.00     0.177 C 
BRANCH  28  33
ATOM     33  O   UNL     1      37.120  45.498 161.566  1.00  0.00    -0.384 OA
ATOM     34  H   UNL     1      37.825  46.183 161.698  1.00  0.00     0.211 HD
ENDBRANCH  28  33
BRANCH  30  35
ATOM     35  O   UNL     1      34.784  45.254 162.722  1.00  0.00    -0.387 OA
ATOM     36  H   UNL     1      35.165  44.324 162.675  1.00  0.00     0.211 HD
ENDBRANCH  30  35
BRANCH  31  37
ATOM     37  C   UNL     1      34.535  42.581 158.977  1.00  0.00     0.191 C 
BRANCH  37  38
ATOM     38  O   UNL     1      33.220  42.265 159.238  1.00  0.00    -0.394 OA
ATOM     39  H   UNL     1      33.130  41.940 160.170  1.00  0.00     0.210 HD
ENDBRANCH  37  38
ENDBRANCH  31  37
BRANCH  32  40
ATOM     40  O   UNL     1      33.054  43.884 161.360  1.00  0.00    -0.387 OA
ATOM     41  H   UNL     1      33.040  44.558 162.099  1.00  0.00     0.211 HD
ENDBRANCH  32  40
ENDBRANCH   1  27
TORSDOF 12
ENDMDL
MODEL 4
REMARK VINA RESULT:    -7.582      2.112      6.280
REMARK INTER + INTRA:         -12.646
REMARK INTER:                 -11.245
REMARK INTRA:                  -1.401
REMARK UNBOUND:                -1.519
REMARK SMILES O=c1c(O[C@H]2O[C@H](CO)[C@@H](O)[C@@H](O)[C@H]2O)c(-c2ccc(O)c(O)c2)oc2cc(O)cc(O)c12
REMARK SMILES IDX 4 1 3 2 16 3 25 4 2 5 26 6 1 7 33 8 27 9 31 10 28 11 30 12
REMARK SMILES IDX 17 13 18 14 19 15 20 16 24 17 22 18 21 19 23 21 32 23 29 25
REMARK SMILES IDX 5 27 14 28 6 29 12 30 7 31 10 32 15 33 13 35 8 37 9 38 11 40
REMARK H PARENT 21 20 23 22 32 24 29 26 15 34 13 36 9 39 11 41
REMARK Flexibility Score: inf
ROOT
ATOM      1  O   UNL     1      37.123  44.547 158.000  1.00  0.00    -0.454 OA
ENDROOT
BRANCH   1   2
ATOM      2  C   UNL     1      35.920  44.711 158.707  1.00  0.00     0.214 A 
ATOM      3  C   UNL     1      35.774  45.862 159.542  1.00  0.00     0.180 A 
ATOM      4  O   UNL     1      34.509  46.272 159.724  1.00  0.00    -0.452 OA
ATOM      5  C   UNL     1      34.781  43.909 158.385  1.00  0.00     0.239 A 
ATOM      6  C   UNL     1      33.383  45.593 159.330  1.00  0.00     0.146 A 
ATOM      7  O   UNL     1      34.917  42.740 157.976  1.00  0.00    -0.285 OA
ATOM      8  C   UNL     1      33.424  44.416 158.527  1.00  0.00     0.111 A 
ATOM      9  C   UNL     1      32.244  45.828 160.168  1.00  0.00     0.094 A 
ATOM     10  C   UNL     1      32.172  43.701 158.436  1.00  0.00     0.134 A 
ATOM     11  C   UNL     1      31.471  44.697 160.514  1.00  0.00     0.123 A 
ATOM     12  C   UNL     1      31.444  43.612 159.648  1.00  0.00     0.093 A 
BRANCH   3  13
ATOM     13  C   UNL     1      36.862  46.678 160.277  1.00  0.00     0.025 A 
ATOM     14  C   UNL     1      36.657  48.053 160.486  1.00  0.00     0.016 A 
ATOM     15  C   UNL     1      37.194  48.664 161.621  1.00  0.00     0.051 A 
ATOM     16  C   UNL     1      37.976  47.872 162.546  1.00  0.00     0.157 A 
ATOM     17  C   UNL     1      37.837  45.976 161.031  1.00  0.00     0.062 A 
ATOM     18  C   UNL     1      38.457  46.601 162.159  1.00  0.00     0.158 A 
BRANCH  16  19
ATOM     19  O   UNL     1      38.317  48.424 163.783  1.00  0.00    -0.504 OA
ATOM     20  H   UNL     1      37.671  49.058 164.252  1.00  0.00     0.293 HD
ENDBRANCH  16  19
BRANCH  18  21
ATOM     21  O   UNL     1      39.415  45.876 162.942  1.00  0.00    -0.504 OA
ATOM     22  H   UNL     1      39.167  45.277 163.713  1.00  0.00     0.293 HD
ENDBRANCH  18  21
ENDBRANCH   3  13
BRANCH  10  23
ATOM     23  O   UNL     1      31.289  43.619 157.364  1.00  0.00    -0.507 OA
ATOM     24  H   UNL     1      30.614  43.560 156.580  1.00  0.00     0.293 HD
ENDBRANCH  10  23
BRANCH  11  25
ATOM     25  O   UNL     1      30.832  44.681 161.766  1.00  0.00    -0.508 OA
ATOM     26  H   UNL     1      31.246  44.409 162.626  1.00  0.00     0.293 HD
ENDBRANCH  11  25
ENDBRANCH   1   2
BRANCH   1  27
ATOM     27  C   UNL     1      37.218  45.118 156.661  1.00  0.00     0.339 C 
ATOM     28  C   UNL     1      37.918  44.227 155.575  1.00  0.00     0.214 C 
ATOM     29  O   UNL     1      37.800  46.407 156.728  1.00  0.00    -0.332 OA
ATOM     30  C   UNL     1      37.594  44.876 154.202  1.00  0.00     0.180 C 
ATOM     31  C   UNL     1      37.953  47.086 155.486  1.00  0.00     0.179 C 
ATOM     32  C   UNL     1      37.159  46.390 154.310  1.00  0.00     0.177 C 
BRANCH  28  33
ATOM     33  O   UNL     1      39.322  44.183 155.814  1.00  0.00    -0.384 OA
ATOM     34  H   UNL     1      39.561  45.073 156.182  1.00  0.00     0.211 HD
ENDBRANCH  28  33
BRANCH  30  35
ATOM     35  O   UNL     1      38.718  44.786 153.339  1.00  0.00    -0.387 OA
ATOM     36  H   UNL     1      38.951  43.811 153.249  1.00  0.00     0.211 HD
ENDBRANCH  30  35
BRANCH  31  37
ATOM     37  C   UNL     1      37.585  48.528 155.778  1.00  0.00     0.191 C 
BRANCH  37  38
ATOM     38  O   UNL     1      37.970  49.365 154.755  1.00  0.00    -0.394 OA
ATOM     39  H   UNL     1      38.243  50.243 155.122  1.00  0.00     0.210 HD
ENDBRANCH  37  38
ENDBRANCH  31  37
BRANCH  32  40
ATOM     40  O   UNL     1      37.495  47.056 153.059  1.00  0.00    -0.387 OA
ATOM     41  H   UNL     1      38.253  46.444 152.831  1.00  0.00     0.211 HD
ENDBRANCH  32  40
ENDBRANCH   1  27
TORSDOF 12
ENDMDL
MODEL 5
REMARK VINA RESULT:    -7.580      2.079      3.307
REMARK INTER + INTRA:         -12.644
REMARK INTER:                 -11.407
REMARK INTRA:                  -1.237
REMARK UNBOUND:                -1.519
REMARK SMILES O=c1c(O[C@H]2O[C@H](CO)[C@@H](O)[C@@H](O)[C@H]2O)c(-c2ccc(O)c(O)c2)oc2cc(O)cc(O)c12
REMARK SMILES IDX 4 1 3 2 16 3 25 4 2 5 26 6 1 7 33 8 27 9 31 10 28 11 30 12
REMARK SMILES IDX 17 13 18 14 19 15 20 16 24 17 22 18 21 19 23 21 32 23 29 25
REMARK SMILES IDX 5 27 14 28 6 29 12 30 7 31 10 32 15 33 13 35 8 37 9 38 11 40
REMARK H PARENT 21 20 23 22 32 24 29 26 15 34 13 36 9 39 11 41
REMARK Flexibility Score: inf
ROOT
ATOM      1  O   UNL     1      35.758  47.074 158.289  1.00  0.00    -0.454 OA
ENDROOT
BRANCH   1   2
ATOM      2  C   UNL     1      35.558  46.383 159.496  1.00  0.00     0.214 A 
ATOM      3  C   UNL     1      34.609  45.314 159.517  1.00  0.00     0.180 A 
ATOM      4  O   UNL     1      34.846  44.365 160.437  1.00  0.00    -0.452 OA
ATOM      5  C   UNL     1      36.469  46.555 160.584  1.00  0.00     0.239 A 
ATOM      6  C   UNL     1      35.790  44.433 161.431  1.00  0.00     0.146 A 
ATOM      7  O   UNL     1      37.045  47.644 160.769  1.00  0.00    -0.285 OA
ATOM      8  C   UNL     1      36.756  45.477 161.519  1.00  0.00     0.111 A 
ATOM      9  C   UNL     1      35.430  43.712 162.617  1.00  0.00     0.094 A 
ATOM     10  C   UNL     1      37.486  45.525 162.765  1.00  0.00     0.134 A 
ATOM     11  C   UNL     1      35.678  44.360 163.849  1.00  0.00     0.123 A 
ATOM     12  C   UNL     1      36.706  45.290 163.924  1.00  0.00     0.093 A 
BRANCH   3  13
ATOM     13  C   UNL     1      33.345  45.113 158.650  1.00  0.00     0.025 A 
ATOM     14  C   UNL     1      33.085  43.842 158.109  1.00  0.00     0.016 A 
ATOM     15  C   UNL     1      31.763  43.433 157.919  1.00  0.00     0.051 A 
ATOM     16  C   UNL     1      30.688  44.340 158.258  1.00  0.00     0.157 A 
ATOM     17  C   UNL     1      32.314  46.085 158.726  1.00  0.00     0.062 A 
ATOM     18  C   UNL     1      30.957  45.711 158.469  1.00  0.00     0.158 A 
BRANCH  16  19
ATOM     19  O   UNL     1      29.379  43.853 158.281  1.00  0.00    -0.504 OA
ATOM     20  H   UNL     1      29.133  43.030 157.731  1.00  0.00     0.293 HD
ENDBRANCH  16  19
BRANCH  18  21
ATOM     21  O   UNL     1      29.912  46.686 158.583  1.00  0.00    -0.504 OA
ATOM     22  H   UNL     1      29.525  46.989 159.462  1.00  0.00     0.293 HD
ENDBRANCH  18  21
ENDBRANCH   3  13
BRANCH  10  23
ATOM     23  O   UNL     1      38.805  45.164 163.018  1.00  0.00    -0.507 OA
ATOM     24  H   UNL     1      39.785  44.875 163.195  1.00  0.00     0.293 HD
ENDBRANCH  10  23
BRANCH  11  25
ATOM     25  O   UNL     1      34.812  44.102 164.926  1.00  0.00    -0.508 OA
ATOM     26  H   UNL     1      34.084  43.427 164.937  1.00  0.00     0.293 HD
ENDBRANCH  11  25
ENDBRANCH   1   2
BRANCH   1  27
ATOM     27  C   UNL     1      36.336  46.344 157.165  1.00  0.00     0.339 C 
ATOM     28  C   UNL     1      37.407  45.254 157.524  1.00  0.00     0.214 C 
ATOM     29  O   UNL     1      36.827  47.256 156.201  1.00  0.00    -0.332 OA
ATOM     30  C   UNL     1      37.608  44.401 156.242  1.00  0.00     0.180 C 
ATOM     31  C   UNL     1      37.421  46.678 155.043  1.00  0.00     0.179 C 
ATOM     32  C   UNL     1      37.137  45.128 154.923  1.00  0.00     0.177 C 
BRANCH  28  33
ATOM     33  O   UNL     1      38.620  45.880 157.930  1.00  0.00    -0.384 OA
ATOM     34  H   UNL     1      38.351  46.646 158.501  1.00  0.00     0.211 HD
ENDBRANCH  28  33
BRANCH  30  35
ATOM     35  O   UNL     1      38.974  44.041 156.101  1.00  0.00    -0.387 OA
ATOM     36  H   UNL     1      39.019  43.036 156.064  1.00  0.00     0.211 HD
ENDBRANCH  30  35
BRANCH  31  37
ATOM     37  C   UNL     1      36.945  47.536 153.887  1.00  0.00     0.191 C 
BRANCH  37  38
ATOM     38  O   UNL     1      37.214  46.943 152.673  1.00  0.00    -0.394 OA
ATOM     39  H   UNL     1      36.367  46.752 152.197  1.00  0.00     0.210 HD
ENDBRANCH  37  38
ENDBRANCH  31  37
BRANCH  32  40
ATOM     40  O   UNL     1      37.904  44.596 153.805  1.00  0.00    -0.387 OA
ATOM     41  H   UNL     1      38.477  45.408 153.692  1.00  0.00     0.211 HD
ENDBRANCH  32  40
ENDBRANCH   1  27
TORSDOF 12
ENDMDL
MODEL 6
REMARK VINA RESULT:    -7.543      2.650      7.289
REMARK INTER + INTRA:         -12.589
REMARK INTER:                 -11.071
REMARK INTRA:                  -1.519
REMARK UNBOUND:                -1.519
REMARK SMILES O=c1c(O[C@H]2O[C@H](CO)[C@@H](O)[C@@H](O)[C@H]2O)c(-c2ccc(O)c(O)c2)oc2cc(O)cc(O)c12
REMARK SMILES IDX 4 1 3 2 16 3 25 4 2 5 26 6 1 7 33 8 27 9 31 10 28 11 30 12
REMARK SMILES IDX 17 13 18 14 19 15 20 16 24 17 22 18 21 19 23 21 32 23 29 25
REMARK SMILES IDX 5 27 14 28 6 29 12 30 7 31 10 32 15 33 13 35 8 37 9 38 11 40
REMARK H PARENT 21 20 23 22 32 24 29 26 15 34 13 36 9 39 11 41
REMARK Flexibility Score: inf
ROOT
ATOM      1  O   UNL     1      35.429  45.333 159.751  1.00  0.00    -0.454 OA
ENDROOT
BRANCH   1   2
ATOM      2  C   UNL     1      35.873  45.781 158.495  1.00  0.00     0.214 A 
ATOM      3  C   UNL     1      36.402  47.105 158.394  1.00  0.00     0.180 A 
ATOM      4  O   UNL     1      37.289  47.286 157.404  1.00  0.00    -0.452 OA
ATOM      5  C   UNL     1      36.050  44.854 157.421  1.00  0.00     0.239 A 
ATOM      6  C   UNL     1      37.581  46.379 156.415  1.00  0.00     0.146 A 
ATOM      7  O   UNL     1      35.322  43.847 157.319  1.00  0.00    -0.285 OA
ATOM      8  C   UNL     1      37.074  45.047 156.406  1.00  0.00     0.111 A 
ATOM      9  C   UNL     1      37.982  46.983 155.179  1.00  0.00     0.094 A 
ATOM     10  C   UNL     1      37.271  44.332 155.165  1.00  0.00     0.134 A 
ATOM     11  C   UNL     1      37.429  46.434 154.000  1.00  0.00     0.123 A 
ATOM     12  C   UNL     1      37.052  45.097 153.993  1.00  0.00     0.093 A 
BRANCH   3  13
ATOM     13  C   UNL     1      36.077  48.354 159.246  1.00  0.00     0.025 A 
ATOM     14  C   UNL     1      34.926  49.103 158.946  1.00  0.00     0.016 A 
ATOM     15  C   UNL     1      34.247  49.761 159.974  1.00  0.00     0.051 A 
ATOM     16  C   UNL     1      34.759  49.680 161.324  1.00  0.00     0.157 A 
ATOM     17  C   UNL     1      36.717  48.497 160.504  1.00  0.00     0.062 A 
ATOM     18  C   UNL     1      36.077  49.225 161.556  1.00  0.00     0.158 A 
BRANCH  16  19
ATOM     19  O   UNL     1      33.964  50.143 162.375  1.00  0.00    -0.504 OA
ATOM     20  H   UNL     1      34.280  50.929 162.943  1.00  0.00     0.293 HD
ENDBRANCH  16  19
BRANCH  18  21
ATOM     21  O   UNL     1      36.709  49.336 162.838  1.00  0.00    -0.504 OA
ATOM     22  H   UNL     1      36.688  50.172 163.400  1.00  0.00     0.293 HD
ENDBRANCH  18  21
ENDBRANCH   3  13
BRANCH  10  23
ATOM     23  O   UNL     1      38.164  43.304 154.882  1.00  0.00    -0.507 OA
ATOM     24  H   UNL     1      38.817  42.532 154.654  1.00  0.00     0.293 HD
ENDBRANCH  10  23
BRANCH  11  25
ATOM     25  O   UNL     1      37.197  47.289 152.908  1.00  0.00    -0.508 OA
ATOM     26  H   UNL     1      37.880  47.849 152.454  1.00  0.00     0.293 HD
ENDBRANCH  11  25
ENDBRANCH   1   2
BRANCH   1  27
ATOM     27  C   UNL     1      34.004  45.425 160.051  1.00  0.00     0.339 C 
ATOM     28  C   UNL     1      33.628  45.990 161.466  1.00  0.00     0.214 C 
ATOM     29  O   UNL     1      33.381  44.177 159.808  1.00  0.00    -0.332 OA
ATOM     30  C   UNL     1      32.110  46.312 161.418  1.00  0.00     0.180 C 
ATOM     31  C   UNL     1      31.981  44.121 160.060  1.00  0.00     0.179 C 
ATOM     32  C   UNL     1      31.342  45.553 160.266  1.00  0.00     0.177 C 
BRANCH  28  33
ATOM     33  O   UNL     1      33.926  45.025 162.470  1.00  0.00    -0.384 OA
ATOM     34  H   UNL     1      34.702  45.387 162.971  1.00  0.00     0.211 HD
ENDBRANCH  28  33
BRANCH  30  35
ATOM     35  O   UNL     1      31.500  45.991 162.659  1.00  0.00    -0.387 OA
ATOM     36  H   UNL     1      31.469  44.988 162.729  1.00  0.00     0.211 HD
ENDBRANCH  30  35
BRANCH  31  37
ATOM     37  C   UNL     1      31.410  43.293 158.924  1.00  0.00     0.191 C 
BRANCH  37  38
ATOM     38  O   UNL     1      32.227  43.324 157.816  1.00  0.00    -0.394 OA
ATOM     39  H   UNL     1      33.127  43.653 158.069  1.00  0.00     0.210 HD
ENDBRANCH  37  38
ENDBRANCH  31  37
BRANCH  32  40
ATOM     40  O   UNL     1      29.951  45.392 160.667  1.00  0.00    -0.387 OA
ATOM     41  H   UNL     1      29.660  46.294 160.350  1.00  0.00     0.211 HD
ENDBRANCH  32  40
ENDBRANCH   1  27
TORSDOF 12
ENDMDL
MODEL 7
REMARK VINA RESULT:    -7.526      2.092      3.326
REMARK INTER + INTRA:         -12.564
REMARK INTER:                 -11.096
REMARK INTRA:                  -1.468
REMARK UNBOUND:                -1.519
REMARK SMILES O=c1c(O[C@H]2O[C@H](CO)[C@@H](O)[C@@H](O)[C@H]2O)c(-c2ccc(O)c(O)c2)oc2cc(O)cc(O)c12
REMARK SMILES IDX 4 1 3 2 16 3 25 4 2 5 26 6 1 7 33 8 27 9 31 10 28 11 30 12
REMARK SMILES IDX 17 13 18 14 19 15 20 16 24 17 22 18 21 19 23 21 32 23 29 25
REMARK SMILES IDX 5 27 14 28 6 29 12 30 7 31 10 32 15 33 13 35 8 37 9 38 11 40
REMARK H PARENT 21 20 23 22 32 24 29 26 15 34 13 36 9 39 11 41
REMARK Flexibility Score: inf
ROOT
ATOM      1  O   UNL     1      36.787  46.262 161.293  1.00  0.00    -0.454 OA
ENDROOT
BRANCH   1   2
ATOM      2  C   UNL     1      36.699  45.984 162.668  1.00  0.00     0.214 A 
ATOM      3  C   UNL     1      36.032  44.788 163.077  1.00  0.00     0.180 A 
ATOM      4  O   UNL     1      36.442  44.286 164.252  1.00  0.00    -0.452 OA
ATOM      5  C   UNL     1      37.489  46.721 163.603  1.00  0.00     0.239 A 
ATOM      6  C   UNL     1      37.293  44.904 165.133  1.00  0.00     0.146 A 
ATOM      7  O   UNL     1      37.780  47.915 163.394  1.00  0.00    -0.285 OA
ATOM      8  C   UNL     1      37.978  46.118 164.833  1.00  0.00     0.111 A 
ATOM      9  C   UNL     1      37.059  44.554 166.504  1.00  0.00     0.094 A 
ATOM     10  C   UNL     1      38.614  46.750 165.967  1.00  0.00     0.134 A 
ATOM     11  C   UNL     1      37.085  45.613 167.439  1.00  0.00     0.123 A 
ATOM     12  C   UNL     1      37.858  46.734 167.164  1.00  0.00     0.093 A 
BRANCH   3  13
ATOM     13  C   UNL     1      34.895  44.014 162.371  1.00  0.00     0.025 A 
ATOM     14  C   UNL     1      33.563  44.405 162.594  1.00  0.00     0.016 A 
ATOM     15  C   UNL     1      32.619  44.240 161.578  1.00  0.00     0.051 A 
ATOM     16  C   UNL     1      33.027  43.644 160.325  1.00  0.00     0.157 A 
ATOM     17  C   UNL     1      35.225  43.196 161.260  1.00  0.00     0.062 A 
ATOM     18  C   UNL     1      34.256  42.952 160.236  1.00  0.00     0.158 A 
BRANCH  16  19
ATOM     19  O   UNL     1      32.147  43.687 159.241  1.00  0.00    -0.504 OA
ATOM     20  H   UNL     1      32.319  44.335 158.472  1.00  0.00     0.293 HD
ENDBRANCH  16  19
BRANCH  18  21
ATOM     21  O   UNL     1      34.604  42.156 159.096  1.00  0.00    -0.504 OA
ATOM     22  H   UNL     1      34.849  41.180 159.150  1.00  0.00     0.293 HD
ENDBRANCH  18  21
ENDBRANCH   3  13
BRANCH  10  23
ATOM     23  O   UNL     1      39.968  46.822 166.280  1.00  0.00    -0.507 OA
ATOM     24  H   UNL     1      40.972  46.864 166.532  1.00  0.00     0.293 HD
ENDBRANCH  10  23
BRANCH  11  25
ATOM     25  O   UNL     1      36.254  45.527 168.570  1.00  0.00    -0.508 OA
ATOM     26  H   UNL     1      35.406  45.016 168.629  1.00  0.00     0.293 HD
ENDBRANCH  11  25
ENDBRANCH   1   2
BRANCH   1  27
ATOM     27  C   UNL     1      35.789  47.148 160.704  1.00  0.00     0.339 C 
ATOM     28  C   UNL     1      34.786  46.489 159.693  1.00  0.00     0.214 C 
ATOM     29  O   UNL     1      36.425  48.280 160.141  1.00  0.00    -0.332 OA
ATOM     30  C   UNL     1      33.641  47.517 159.480  1.00  0.00     0.180 C 
ATOM     31  C   UNL     1      35.565  49.236 159.528  1.00  0.00     0.179 C 
ATOM     32  C   UNL     1      34.042  48.993 159.872  1.00  0.00     0.177 C 
BRANCH  28  33
ATOM     33  O   UNL     1      35.454  46.191 158.470  1.00  0.00    -0.384 OA
ATOM     34  H   UNL     1      36.416  46.114 158.701  1.00  0.00     0.211 HD
ENDBRANCH  28  33
BRANCH  30  35
ATOM     35  O   UNL     1      33.216  47.505 158.125  1.00  0.00    -0.387 OA
ATOM     36  H   UNL     1      34.001  47.783 157.561  1.00  0.00     0.211 HD
ENDBRANCH  30  35
BRANCH  31  37
ATOM     37  C   UNL     1      36.132  50.586 159.926  1.00  0.00     0.191 C 
BRANCH  37  38
ATOM     38  O   UNL     1      35.299  51.245 160.802  1.00  0.00    -0.394 OA
ATOM     39  H   UNL     1      34.691  50.599 161.241  1.00  0.00     0.210 HD
ENDBRANCH  37  38
ENDBRANCH  31  37
BRANCH  32  40
ATOM     40  O   UNL     1      33.231  49.914 159.086  1.00  0.00    -0.387 OA
ATOM     41  H   UNL     1      33.044  50.540 159.843  1.00  0.00     0.211 HD
ENDBRANCH  32  40
ENDBRANCH   1  27
TORSDOF 12
ENDMDL
MODEL 8
REMARK VINA RESULT:    -7.513      2.881      7.604
REMARK INTER + INTRA:         -12.546
REMARK INTER:                 -10.729
REMARK INTRA:                  -1.818
REMARK UNBOUND:                -1.519
REMARK SMILES O=c1c(O[C@H]2O[C@H](CO)[C@@H](O)[C@@H](O)[C@H]2O)c(-c2ccc(O)c(O)c2)oc2cc(O)cc(O)c12
REMARK SMILES IDX 4 1 3 2 16 3 25 4 2 5 26 6 1 7 33 8 27 9 31 10 28 11 30 12
REMARK SMILES IDX 17 13 18 14 19 15 20 16 24 17 22 18 21 19 23 21 32 23 29 25
REMARK SMILES IDX 5 27 14 28 6 29 12 30 7 31 10 32 15 33 13 35 8 37 9 38 11 40
REMARK H PARENT 21 20 23 22 32 24 29 26 15 34 13 36 9 39 11 41
REMARK Flexibility Score: inf
ROOT
ATOM      1  O   UNL     1      36.620  45.779 158.785  1.00  0.00    -0.454 OA
ENDROOT
BRANCH   1   2
ATOM      2  C   UNL     1      36.592  46.436 157.543  1.00  0.00     0.214 A 
ATOM      3  C   UNL     1      36.580  47.865 157.532  1.00  0.00     0.180 A 
ATOM      4  O   UNL     1      37.109  48.426 156.434  1.00  0.00    -0.452 OA
ATOM      5  C   UNL     1      36.852  45.711 156.339  1.00  0.00     0.239 A 
ATOM      6  C   UNL     1      37.484  47.758 155.294  1.00  0.00     0.146 A 
ATOM      7  O   UNL     1      36.526  44.513 156.231  1.00  0.00    -0.285 OA
ATOM      8  C   UNL     1      37.495  46.336 155.194  1.00  0.00     0.111 A 
ATOM      9  C   UNL     1      37.366  48.543 154.100  1.00  0.00     0.094 A 
ATOM     10  C   UNL     1      37.660  45.825 153.852  1.00  0.00     0.134 A 
ATOM     11  C   UNL     1      36.804  47.898 152.975  1.00  0.00     0.123 A 
ATOM     12  C   UNL     1      36.936  46.521 152.853  1.00  0.00     0.093 A 
BRANCH   3  13
ATOM     13  C   UNL     1      36.024  48.845 158.590  1.00  0.00     0.025 A 
ATOM     14  C   UNL     1      34.715  49.334 158.445  1.00  0.00     0.016 A 
ATOM     15  C   UNL     1      33.963  49.635 159.583  1.00  0.00     0.051 A 
ATOM     16  C   UNL     1      34.561  49.464 160.890  1.00  0.00     0.157 A 
ATOM     17  C   UNL     1      36.688  48.935 159.841  1.00  0.00     0.062 A 
ATOM     18  C   UNL     1      35.960  49.309 161.014  1.00  0.00     0.158 A 
BRANCH  16  19
ATOM     19  O   UNL     1      33.744  49.548 162.020  1.00  0.00    -0.504 OA
ATOM     20  H   UNL     1      32.886  48.997 162.068  1.00  0.00     0.293 HD
ENDBRANCH  16  19
BRANCH  18  21
ATOM     21  O   UNL     1      36.624  49.361 162.284  1.00  0.00    -0.504 OA
ATOM     22  H   UNL     1      37.260  50.096 162.550  1.00  0.00     0.293 HD
ENDBRANCH  18  21
ENDBRANCH   3  13
BRANCH  10  23
ATOM     23  O   UNL     1      38.777  45.228 153.277  1.00  0.00    -0.507 OA
ATOM     24  H   UNL     1      39.618  44.804 152.844  1.00  0.00     0.293 HD
ENDBRANCH  10  23
BRANCH  11  25
ATOM     25  O   UNL     1      36.054  48.668 152.069  1.00  0.00    -0.508 OA
ATOM     26  H   UNL     1      35.986  49.658 152.066  1.00  0.00     0.293 HD
ENDBRANCH  11  25
ENDBRANCH   1   2
BRANCH   1  27
ATOM     27  C   UNL     1      35.369  45.234 159.304  1.00  0.00     0.339 C 
ATOM     28  C   UNL     1      35.280  43.670 159.397  1.00  0.00     0.214 C 
ATOM     29  O   UNL     1      34.276  45.774 158.585  1.00  0.00    -0.332 OA
ATOM     30  C   UNL     1      34.039  43.355 160.275  1.00  0.00     0.180 C 
ATOM     31  C   UNL     1      32.985  45.327 158.988  1.00  0.00     0.179 C 
ATOM     32  C   UNL     1      33.012  44.551 160.364  1.00  0.00     0.177 C 
BRANCH  28  33
ATOM     33  O   UNL     1      35.152  43.112 158.092  1.00  0.00    -0.384 OA
ATOM     34  H   UNL     1      36.044  43.210 157.669  1.00  0.00     0.211 HD
ENDBRANCH  28  33
BRANCH  30  35
ATOM     35  O   UNL     1      33.363  42.210 159.777  1.00  0.00    -0.387 OA
ATOM     36  H   UNL     1      32.502  42.525 159.363  1.00  0.00     0.211 HD
ENDBRANCH  30  35
BRANCH  31  37
ATOM     37  C   UNL     1      32.107  46.563 158.936  1.00  0.00     0.191 C 
BRANCH  37  38
ATOM     38  O   UNL     1      31.736  46.973 160.197  1.00  0.00    -0.394 OA
ATOM     39  H   UNL     1      30.918  47.528 160.144  1.00  0.00     0.210 HD
ENDBRANCH  37  38
ENDBRANCH  31  37
BRANCH  32  40
ATOM     40  O   UNL     1      31.687  44.001 160.618  1.00  0.00    -0.387 OA
ATOM     41  H   UNL     1      31.539  44.508 161.467  1.00  0.00     0.211 HD
ENDBRANCH  32  40
ENDBRANCH   1  27
TORSDOF 12
ENDMDL
MODEL 9
REMARK VINA RESULT:    -7.451      2.281      6.616
REMARK INTER + INTRA:         -12.455
REMARK INTER:                 -11.037
REMARK INTRA:                  -1.418
REMARK UNBOUND:                -1.519
REMARK SMILES O=c1c(O[C@H]2O[C@H](CO)[C@@H](O)[C@@H](O)[C@H]2O)c(-c2ccc(O)c(O)c2)oc2cc(O)cc(O)c12
REMARK SMILES IDX 4 1 3 2 16 3 25 4 2 5 26 6 1 7 33 8 27 9 31 10 28 11 30 12
REMARK SMILES IDX 17 13 18 14 19 15 20 16 24 17 22 18 21 19 23 21 32 23 29 25
REMARK SMILES IDX 5 27 14 28 6 29 12 30 7 31 10 32 15 33 13 35 8 37 9 38 11 40
REMARK H PARENT 21 20 23 22 32 24 29 26 15 34 13 36 9 39 11 41
REMARK Flexibility Score: inf
ROOT
ATOM      1  O   UNL     1      37.739  47.651 161.707  1.00  0.00    -0.454 OA
ENDROOT
BRANCH   1   2
ATOM      2  C   UNL     1      36.489  47.946 161.136  1.00  0.00     0.214 A 
ATOM      3  C   UNL     1      35.860  46.949 160.328  1.00  0.00     0.180 A 
ATOM      4  O   UNL     1      34.520  47.017 160.287  1.00  0.00    -0.452 OA
ATOM      5  C   UNL     1      35.748  49.086 161.575  1.00  0.00     0.239 A 
ATOM      6  C   UNL     1      33.755  48.036 160.798  1.00  0.00     0.146 A 
ATOM      7  O   UNL     1      36.331  50.118 161.961  1.00  0.00    -0.285 OA
ATOM      8  C   UNL     1      34.293  49.095 161.585  1.00  0.00     0.111 A 
ATOM      9  C   UNL     1      32.526  48.245 160.089  1.00  0.00     0.094 A 
ATOM     10  C   UNL     1      33.391  50.203 161.807  1.00  0.00     0.134 A 
ATOM     11  C   UNL     1      32.172  49.588 159.824  1.00  0.00     0.123 A 
ATOM     12  C   UNL     1      32.621  50.583 160.681  1.00  0.00     0.093 A 
BRANCH   3  13
ATOM     13  C   UNL     1      36.505  45.826 159.483  1.00  0.00     0.025 A 
ATOM     14  C   UNL     1      35.845  44.590 159.374  1.00  0.00     0.016 A 
ATOM     15  C   UNL     1      35.980  43.840 158.204  1.00  0.00     0.051 A 
ATOM     16  C   UNL     1      36.820  44.339 157.138  1.00  0.00     0.157 A 
ATOM     17  C   UNL     1      37.525  46.178 158.562  1.00  0.00     0.062 A 
ATOM     18  C   UNL     1      37.734  45.388 157.388  1.00  0.00     0.158 A 
BRANCH  16  19
ATOM     19  O   UNL     1      36.775  43.707 155.893  1.00  0.00    -0.504 OA
ATOM     20  H   UNL     1      36.147  44.056 155.168  1.00  0.00     0.293 HD
ENDBRANCH  16  19
BRANCH  18  21
ATOM     21  O   UNL     1      38.740  45.767 156.439  1.00  0.00    -0.504 OA
ATOM     22  H   UNL     1      39.554  46.312 156.676  1.00  0.00     0.293 HD
ENDBRANCH  18  21
ENDBRANCH   3  13
BRANCH  10  23
ATOM     23  O   UNL     1      32.711  50.554 162.968  1.00  0.00    -0.507 OA
ATOM     24  H   UNL     1      32.205  50.794 163.841  1.00  0.00     0.293 HD
ENDBRANCH  10  23
BRANCH  11  25
ATOM     25  O   UNL     1      31.454  49.870 158.649  1.00  0.00    -0.508 OA
ATOM     26  H   UNL     1      31.038  50.741 158.417  1.00  0.00     0.293 HD
ENDBRANCH  11  25
ENDBRANCH   1   2
BRANCH   1  27
ATOM     27  C   UNL     1      37.763  47.018 163.021  1.00  0.00     0.339 C 
ATOM     28  C   UNL     1      38.783  47.609 164.057  1.00  0.00     0.214 C 
ATOM     29  O   UNL     1      37.922  45.618 162.877  1.00  0.00    -0.332 OA
ATOM     30  C   UNL     1      38.388  47.025 165.440  1.00  0.00     0.180 C 
ATOM     31  C   UNL     1      37.962  44.869 164.087  1.00  0.00     0.179 C 
ATOM     32  C   UNL     1      37.510  45.716 165.343  1.00  0.00     0.177 C 
BRANCH  28  33
ATOM     33  O   UNL     1      40.111  47.242 163.695  1.00  0.00    -0.384 OA
ATOM     34  H   UNL     1      40.643  48.079 163.737  1.00  0.00     0.211 HD
ENDBRANCH  28  33
BRANCH  30  35
ATOM     35  O   UNL     1      39.552  46.736 166.202  1.00  0.00    -0.387 OA
ATOM     36  H   UNL     1      39.617  45.735 166.285  1.00  0.00     0.211 HD
ENDBRANCH  30  35
BRANCH  31  37
ATOM     37  C   UNL     1      37.155  43.617 163.801  1.00  0.00     0.191 C 
BRANCH  37  38
ATOM     38  O   UNL     1      37.505  42.586 164.644  1.00  0.00    -0.394 OA
ATOM     39  H   UNL     1      38.410  42.256 164.414  1.00  0.00     0.210 HD
ENDBRANCH  37  38
ENDBRANCH  31  37
BRANCH  32  40
ATOM     40  O   UNL     1      37.728  44.924 166.546  1.00  0.00    -0.387 OA
ATOM     41  H   UNL     1      36.950  44.315 166.397  1.00  0.00     0.211 HD
ENDBRANCH  32  40
ENDBRANCH   1  27
TORSDOF 12
ENDMDL
