MODEL 1
REMARK VINA RESULT:    -5.083      0.000      0.000
REMARK INTER + INTRA:         -17.402
REMARK INTER:                 -12.810
REMARK INTRA:                  -4.592
REMARK UNBOUND:                -4.592
REMARK SMILES CCCCCCCCCCCCCCCCCCCCCCCCCCCC(=O)[O-]
REMARK SMILES IDX 15 1 16 2 17 3 18 4 19 5 20 6 21 7 22 8 23 9 24 10 25 11
REMARK SMILES IDX 26 12 27 13 28 14 29 15 30 16 14 17 13 18 12 19 11 20 10 21
REMARK SMILES IDX 9 22 8 23 7 24 6 25 5 26 4 27 3 28 2 29 1 30
REMARK H PARENT
REMARK Flexibility Score: inf
ROOT
ATOM      1  C   UNL     1      -2.996   4.663  27.447  1.00  0.00     0.000 C 
ENDROOT
BRANCH   1   2
ATOM      2  C   UNL     1      -1.574   4.524  28.006  1.00  0.00     0.000 C 
BRANCH   2   3
ATOM      3  C   UNL     1      -1.285   5.600  29.058  1.00  0.00     0.000 C 
BRANCH   3   4
ATOM      4  C   UNL     1      -1.047   6.963  28.393  1.00  0.00     0.000 C 
BRANCH   4   5
ATOM      5  C   UNL     1      -0.539   8.031  29.378  1.00  0.00     0.000 C 
BRANCH   5   6
ATOM      6  C   UNL     1       0.847   7.748  29.994  1.00  0.00     0.000 C 
BRANCH   6   7
ATOM      7  C   UNL     1       0.910   7.812  31.532  1.00  0.00     0.000 C 
BRANCH   7   8
ATOM      8  C   UNL     1       1.621   6.623  32.208  1.00  0.00     0.000 C 
BRANCH   8   9
ATOM      9  C   UNL     1       1.249   5.248  31.612  1.00  0.00     0.000 C 
BRANCH   9  10
ATOM     10  C   UNL     1       2.429   4.567  30.902  1.00  0.00     0.000 C 
BRANCH  10  11
ATOM     11  C   UNL     1       2.035   4.123  29.484  1.00  0.00     0.000 C 
BRANCH  11  12
ATOM     12  C   UNL     1       2.703   4.967  28.388  1.00  0.00     0.006 C 
BRANCH  12  13
ATOM     13  C   UNL     1       3.136   4.132  27.172  1.00  0.00     0.053 C 
BRANCH  13  14
ATOM     14  C   UNL     1       3.780   4.988  26.124  1.00  0.00     0.041 C 
ATOM     15  O   UNL     1       4.102   4.499  25.009  1.00  0.00    -0.550 OA
ATOM     16  O   UNL     1       3.965   6.347  26.358  1.00  0.00    -0.550 OA
ENDBRANCH  13  14
ENDBRANCH  12  13
ENDBRANCH  11  12
ENDBRANCH  10  11
ENDBRANCH   9  10
ENDBRANCH   8   9
ENDBRANCH   7   8
ENDBRANCH   6   7
ENDBRANCH   5   6
ENDBRANCH   4   5
ENDBRANCH   3   4
ENDBRANCH   2   3
ENDBRANCH   1   2
BRANCH   1  17
ATOM     17  C   UNL     1      -2.994   4.576  25.913  1.00  0.00     0.000 C 
BRANCH  17  18
ATOM     18  C   UNL     1      -3.463   5.878  25.245  1.00  0.00     0.000 C 
BRANCH  18  19
ATOM     19  C   UNL     1      -4.909   6.242  25.625  1.00  0.00     0.000 C 
BRANCH  19  20
ATOM     20  C   UNL     1      -5.903   6.002  24.477  1.00  0.00     0.000 C 
BRANCH  20  21
ATOM     21  C   UNL     1      -6.243   4.522  24.209  1.00  0.00     0.000 C 
BRANCH  21  22
ATOM     22  C   UNL     1      -5.885   4.047  22.783  1.00  0.00    -0.000 C 
BRANCH  22  23
ATOM     23  C   UNL     1      -4.559   3.266  22.744  1.00  0.00    -0.000 C 
BRANCH  23  24
ATOM     24  C   UNL     1      -3.623   3.748  21.625  1.00  0.00    -0.000 C 
BRANCH  24  25
ATOM     25  C   UNL     1      -3.380   5.265  21.669  1.00  0.00    -0.000 C 
BRANCH  25  26
ATOM     26  C   UNL     1      -1.917   5.643  21.373  1.00  0.00    -0.000 C 
BRANCH  26  27
ATOM     27  C   UNL     1      -1.058   5.806  22.646  1.00  0.00    -0.000 C 
BRANCH  27  28
ATOM     28  C   UNL     1      -0.343   4.500  23.035  1.00  0.00    -0.000 C 
BRANCH  28  29
ATOM     29  C   UNL     1       0.517   4.653  24.299  1.00  0.00    -0.003 C 
ATOM     30  C   UNL     1       0.322   6.004  24.987  1.00  0.00     0.004 C 
ENDBRANCH  28  29
ENDBRANCH  27  28
ENDBRANCH  26  27
ENDBRANCH  25  26
ENDBRANCH  24  25
ENDBRANCH  23  24
ENDBRANCH  22  23
ENDBRANCH  21  22
ENDBRANCH  20  21
ENDBRANCH  19  20
ENDBRANCH  18  19
ENDBRANCH  17  18
ENDBRANCH   1  17
TORSDOF 26
ENDMDL
MODEL 2
REMARK VINA RESULT:    -5.044      2.920      8.067
REMARK INTER + INTRA:         -17.304
REMARK INTER:                 -11.538
REMARK INTRA:                  -5.766
REMARK UNBOUND:                -4.592
REMARK SMILES CCCCCCCCCCCCCCCCCCCCCCCCCCCC(=O)[O-]
REMARK SMILES IDX 15 1 16 2 17 3 18 4 19 5 20 6 21 7 22 8 23 9 24 10 25 11
REMARK SMILES IDX 26 12 27 13 28 14 29 15 30 16 14 17 13 18 12 19 11 20 10 21
REMARK SMILES IDX 9 22 8 23 7 24 6 25 5 26 4 27 3 28 2 29 1 30
REMARK H PARENT
REMARK Flexibility Score: inf
ROOT
ATOM      1  C   UNL     1      -0.258   3.739  25.864  1.00  0.00     0.000 C 
ENDROOT
BRANCH   1   2
ATOM      2  C   UNL     1       1.105   4.417  26.046  1.00  0.00     0.000 C 
BRANCH   2   3
ATOM      3  C   UNL     1       1.382   5.416  24.916  1.00  0.00     0.000 C 
BRANCH   3   4
ATOM      4  C   UNL     1       1.338   6.858  25.441  1.00  0.00     0.000 C 
BRANCH   4   5
ATOM      5  C   UNL     1       0.260   7.714  24.755  1.00  0.00     0.000 C 
BRANCH   5   6
ATOM      6  C   UNL     1      -1.187   7.436  25.214  1.00  0.00     0.000 C 
BRANCH   6   7
ATOM      7  C   UNL     1      -2.060   6.663  24.208  1.00  0.00     0.000 C 
BRANCH   7   8
ATOM      8  C   UNL     1      -1.508   6.604  22.770  1.00  0.00     0.000 C 
BRANCH   8   9
ATOM      9  C   UNL     1      -1.299   5.170  22.236  1.00  0.00     0.000 C 
BRANCH   9  10
ATOM     10  C   UNL     1      -2.186   4.135  22.945  1.00  0.00     0.000 C 
BRANCH  10  11
ATOM     11  C   UNL     1      -3.407   3.776  22.083  1.00  0.00     0.000 C 
BRANCH  11  12
ATOM     12  C   UNL     1      -4.620   3.340  22.920  1.00  0.00     0.006 C 
BRANCH  12  13
ATOM     13  C   UNL     1      -4.442   3.623  24.420  1.00  0.00     0.053 C 
BRANCH  13  14
ATOM     14  C   UNL     1      -5.401   4.673  24.894  1.00  0.00     0.041 C 
ATOM     15  O   UNL     1      -5.528   5.755  24.260  1.00  0.00    -0.550 OA
ATOM     16  O   UNL     1      -6.204   4.428  26.002  1.00  0.00    -0.550 OA
ENDBRANCH  13  14
ENDBRANCH  12  13
ENDBRANCH  11  12
ENDBRANCH  10  11
ENDBRANCH   9  10
ENDBRANCH   8   9
ENDBRANCH   7   8
ENDBRANCH   6   7
ENDBRANCH   5   6
ENDBRANCH   4   5
ENDBRANCH   3   4
ENDBRANCH   2   3
ENDBRANCH   1   2
BRANCH   1  17
ATOM     17  C   UNL     1      -1.237   4.171  26.968  1.00  0.00     0.000 C 
BRANCH  17  18
ATOM     18  C   UNL     1      -0.521   4.632  28.248  1.00  0.00     0.000 C 
BRANCH  18  19
ATOM     19  C   UNL     1      -1.361   5.633  29.059  1.00  0.00     0.000 C 
BRANCH  19  20
ATOM     20  C   UNL     1      -0.887   7.085  28.884  1.00  0.00     0.000 C 
BRANCH  20  21
ATOM     21  C   UNL     1       0.630   7.301  29.060  1.00  0.00     0.000 C 
BRANCH  21  22
ATOM     22  C   UNL     1       1.005   8.088  30.334  1.00  0.00    -0.000 C 
BRANCH  22  23
ATOM     23  C   UNL     1       2.001   7.322  31.222  1.00  0.00    -0.000 C 
BRANCH  23  24
ATOM     24  C   UNL     1       1.322   6.227  32.060  1.00  0.00    -0.000 C 
BRANCH  24  25
ATOM     25  C   UNL     1       1.549   4.818  31.489  1.00  0.00    -0.000 C 
BRANCH  25  26
ATOM     26  C   UNL     1       2.971   4.621  30.933  1.00  0.00    -0.000 C 
BRANCH  26  27
ATOM     27  C   UNL     1       3.002   4.345  29.415  1.00  0.00    -0.000 C 
BRANCH  27  28
ATOM     28  C   UNL     1       4.233   4.970  28.736  1.00  0.00    -0.000 C 
BRANCH  28  29
ATOM     29  C   UNL     1       3.872   6.173  27.851  1.00  0.00    -0.003 C 
ATOM     30  C   UNL     1       4.443   7.489  28.381  1.00  0.00     0.004 C 
ENDBRANCH  28  29
ENDBRANCH  27  28
ENDBRANCH  26  27
ENDBRANCH  25  26
ENDBRANCH  24  25
ENDBRANCH  23  24
ENDBRANCH  22  23
ENDBRANCH  21  22
ENDBRANCH  20  21
ENDBRANCH  19  20
ENDBRANCH  18  19
ENDBRANCH  17  18
ENDBRANCH   1  17
TORSDOF 26
ENDMDL
MODEL 3
REMARK VINA RESULT:    -5.044      2.730      8.224
REMARK INTER + INTRA:         -17.302
REMARK INTER:                 -12.421
REMARK INTRA:                  -4.881
REMARK UNBOUND:                -4.592
REMARK SMILES CCCCCCCCCCCCCCCCCCCCCCCCCCCC(=O)[O-]
REMARK SMILES IDX 15 1 16 2 17 3 18 4 19 5 20 6 21 7 22 8 23 9 24 10 25 11
REMARK SMILES IDX 26 12 27 13 28 14 29 15 30 16 14 17 13 18 12 19 11 20 10 21
REMARK SMILES IDX 9 22 8 23 7 24 6 25 5 26 4 27 3 28 2 29 1 30
REMARK H PARENT
REMARK Flexibility Score: inf
ROOT
ATOM      1  C   UNL     1       1.600   5.340  25.583  1.00  0.00     0.000 C 
ENDROOT
BRANCH   1   2
ATOM      2  C   UNL     1       0.633   4.345  24.930  1.00  0.00     0.000 C 
BRANCH   2   3
ATOM      3  C   UNL     1       0.566   4.553  23.412  1.00  0.00     0.000 C 
BRANCH   3   4
ATOM      4  C   UNL     1      -0.891   4.589  22.930  1.00  0.00     0.000 C 
BRANCH   4   5
ATOM      5  C   UNL     1      -1.202   5.812  22.049  1.00  0.00     0.000 C 
BRANCH   5   6
ATOM      6  C   UNL     1      -2.620   6.396  22.216  1.00  0.00     0.000 C 
BRANCH   6   7
ATOM      7  C   UNL     1      -3.267   6.933  20.926  1.00  0.00     0.000 C 
BRANCH   7   8
ATOM      8  C   UNL     1      -2.870   6.190  19.635  1.00  0.00     0.000 C 
BRANCH   8   9
ATOM      9  C   UNL     1      -3.999   5.323  19.037  1.00  0.00     0.000 C 
BRANCH   9  10
ATOM     10  C   UNL     1      -4.284   4.060  19.865  1.00  0.00     0.000 C 
BRANCH  10  11
ATOM     11  C   UNL     1      -5.709   4.093  20.441  1.00  0.00     0.000 C 
BRANCH  11  12
ATOM     12  C   UNL     1      -5.753   3.749  21.938  1.00  0.00     0.006 C 
BRANCH  12  13
ATOM     13  C   UNL     1      -4.414   3.211  22.467  1.00  0.00     0.053 C 
BRANCH  13  14
ATOM     14  C   UNL     1      -4.480   2.936  23.939  1.00  0.00     0.041 C 
ATOM     15  O   UNL     1      -5.432   3.385  24.631  1.00  0.00    -0.550 OA
ATOM     16  O   UNL     1      -3.520   2.127  24.536  1.00  0.00    -0.550 OA
ENDBRANCH  13  14
ENDBRANCH  12  13
ENDBRANCH  11  12
ENDBRANCH  10  11
ENDBRANCH   9  10
ENDBRANCH   8   9
ENDBRANCH   7   8
ENDBRANCH   6   7
ENDBRANCH   5   6
ENDBRANCH   4   5
ENDBRANCH   3   4
ENDBRANCH   2   3
ENDBRANCH   1   2
BRANCH   1  17
ATOM     17  C   UNL     1       1.190   6.788  25.272  1.00  0.00     0.000 C 
BRANCH  17  18
ATOM     18  C   UNL     1       0.879   7.602  26.538  1.00  0.00     0.000 C 
BRANCH  18  19
ATOM     19  C   UNL     1      -0.427   8.405  26.411  1.00  0.00     0.000 C 
BRANCH  19  20
ATOM     20  C   UNL     1      -1.472   7.703  25.527  1.00  0.00     0.000 C 
BRANCH  20  21
ATOM     21  C   UNL     1      -2.601   6.987  26.296  1.00  0.00     0.000 C 
BRANCH  21  22
ATOM     22  C   UNL     1      -2.603   5.453  26.117  1.00  0.00    -0.000 C 
BRANCH  22  23
ATOM     23  C   UNL     1      -2.669   4.708  27.462  1.00  0.00    -0.000 C 
BRANCH  23  24
ATOM     24  C   UNL     1      -1.885   5.425  28.573  1.00  0.00    -0.000 C 
BRANCH  24  25
ATOM     25  C   UNL     1      -0.465   4.866  28.751  1.00  0.00    -0.000 C 
BRANCH  25  26
ATOM     26  C   UNL     1       0.412   5.746  29.661  1.00  0.00    -0.000 C 
BRANCH  26  27
ATOM     27  C   UNL     1       1.396   4.936  30.531  1.00  0.00    -0.000 C 
BRANCH  27  28
ATOM     28  C   UNL     1       2.276   3.994  29.689  1.00  0.00    -0.000 C 
BRANCH  28  29
ATOM     29  C   UNL     1       3.204   4.753  28.730  1.00  0.00    -0.003 C 
ATOM     30  C   UNL     1       4.563   4.074  28.561  1.00  0.00     0.004 C 
ENDBRANCH  28  29
ENDBRANCH  27  28
ENDBRANCH  26  27
ENDBRANCH  25  26
ENDBRANCH  24  25
ENDBRANCH  23  24
ENDBRANCH  22  23
ENDBRANCH  21  22
ENDBRANCH  20  21
ENDBRANCH  19  20
ENDBRANCH  18  19
ENDBRANCH  17  18
ENDBRANCH   1  17
TORSDOF 26
ENDMDL
MODEL 4
REMARK VINA RESULT:    -5.040      1.792      3.401
REMARK INTER + INTRA:         -17.292
REMARK INTER:                 -12.096
REMARK INTRA:                  -5.196
REMARK UNBOUND:                -4.592
REMARK SMILES CCCCCCCCCCCCCCCCCCCCCCCCCCCC(=O)[O-]
REMARK SMILES IDX 15 1 16 2 17 3 18 4 19 5 20 6 21 7 22 8 23 9 24 10 25 11
REMARK SMILES IDX 26 12 27 13 28 14 29 15 30 16 14 17 13 18 12 19 11 20 10 21
REMARK SMILES IDX 9 22 8 23 7 24 6 25 5 26 4 27 3 28 2 29 1 30
REMARK H PARENT
REMARK Flexibility Score: inf
ROOT
ATOM      1  C   UNL     1      -2.756   4.598  27.600  1.00  0.00     0.000 C 
ENDROOT
BRANCH   1   2
ATOM      2  C   UNL     1      -1.456   4.688  28.409  1.00  0.00     0.000 C 
BRANCH   2   3
ATOM      3  C   UNL     1      -1.384   6.001  29.197  1.00  0.00     0.000 C 
BRANCH   3   4
ATOM      4  C   UNL     1      -1.064   7.179  28.264  1.00  0.00     0.000 C 
BRANCH   4   5
ATOM      5  C   UNL     1       0.345   7.095  27.653  1.00  0.00     0.000 C 
BRANCH   5   6
ATOM      6  C   UNL     1       0.385   6.842  26.131  1.00  0.00     0.000 C 
BRANCH   6   7
ATOM      7  C   UNL     1       1.792   6.662  25.530  1.00  0.00     0.000 C 
BRANCH   7   8
ATOM      8  C   UNL     1       2.397   5.252  25.690  1.00  0.00     0.000 C 
BRANCH   8   9
ATOM      9  C   UNL     1       1.345   4.135  25.866  1.00  0.00     0.000 C 
BRANCH   9  10
ATOM     10  C   UNL     1       1.473   3.402  27.211  1.00  0.00     0.000 C 
BRANCH  10  11
ATOM     11  C   UNL     1       2.378   4.183  28.177  1.00  0.00     0.000 C 
BRANCH  11  12
ATOM     12  C   UNL     1       2.056   3.903  29.653  1.00  0.00     0.006 C 
BRANCH  12  13
ATOM     13  C   UNL     1       2.889   4.759  30.619  1.00  0.00     0.053 C 
BRANCH  13  14
ATOM     14  C   UNL     1       2.150   5.998  31.026  1.00  0.00     0.041 C 
ATOM     15  O   UNL     1       2.452   7.115  30.527  1.00  0.00    -0.550 OA
ATOM     16  O   UNL     1       1.081   5.908  31.910  1.00  0.00    -0.550 OA
ENDBRANCH  13  14
ENDBRANCH  12  13
ENDBRANCH  11  12
ENDBRANCH  10  11
ENDBRANCH   9  10
ENDBRANCH   8   9
ENDBRANCH   7   8
ENDBRANCH   6   7
ENDBRANCH   5   6
ENDBRANCH   4   5
ENDBRANCH   3   4
ENDBRANCH   2   3
ENDBRANCH   1   2
BRANCH   1  17
ATOM     17  C   UNL     1      -2.459   4.389  26.107  1.00  0.00     0.000 C 
BRANCH  17  18
ATOM     18  C   UNL     1      -2.791   5.627  25.258  1.00  0.00     0.000 C 
BRANCH  18  19
ATOM     19  C   UNL     1      -3.988   6.415  25.816  1.00  0.00     0.000 C 
BRANCH  19  20
ATOM     20  C   UNL     1      -5.243   6.290  24.936  1.00  0.00     0.000 C 
BRANCH  20  21
ATOM     21  C   UNL     1      -6.308   5.303  25.455  1.00  0.00     0.000 C 
BRANCH  21  22
ATOM     22  C   UNL     1      -5.990   3.824  25.147  1.00  0.00    -0.000 C 
BRANCH  22  23
ATOM     23  C   UNL     1      -5.893   3.550  23.636  1.00  0.00    -0.000 C 
BRANCH  23  24
ATOM     24  C   UNL     1      -4.515   3.013  23.220  1.00  0.00    -0.000 C 
BRANCH  24  25
ATOM     25  C   UNL     1      -4.163   3.350  21.763  1.00  0.00    -0.000 C 
BRANCH  25  26
ATOM     26  C   UNL     1      -4.670   4.738  21.333  1.00  0.00    -0.000 C 
BRANCH  26  27
ATOM     27  C   UNL     1      -3.547   5.671  20.832  1.00  0.00    -0.000 C 
BRANCH  27  28
ATOM     28  C   UNL     1      -2.647   6.164  21.979  1.00  0.00    -0.000 C 
BRANCH  28  29
ATOM     29  C   UNL     1      -1.163   5.850  21.740  1.00  0.00    -0.003 C 
ATOM     30  C   UNL     1      -0.690   4.612  22.503  1.00  0.00     0.004 C 
ENDBRANCH  28  29
ENDBRANCH  27  28
ENDBRANCH  26  27
ENDBRANCH  25  26
ENDBRANCH  24  25
ENDBRANCH  23  24
ENDBRANCH  22  23
ENDBRANCH  21  22
ENDBRANCH  20  21
ENDBRANCH  19  20
ENDBRANCH  18  19
ENDBRANCH  17  18
ENDBRANCH   1  17
TORSDOF 26
ENDMDL
MODEL 5
REMARK VINA RESULT:    -4.988      2.281      8.042
REMARK INTER + INTRA:         -17.161
REMARK INTER:                 -12.090
REMARK INTRA:                  -5.071
REMARK UNBOUND:                -4.592
REMARK SMILES CCCCCCCCCCCCCCCCCCCCCCCCCCCC(=O)[O-]
REMARK SMILES IDX 15 1 16 2 17 3 18 4 19 5 20 6 21 7 22 8 23 9 24 10 25 11
REMARK SMILES IDX 26 12 27 13 28 14 29 15 30 16 14 17 13 18 12 19 11 20 10 21
REMARK SMILES IDX 9 22 8 23 7 24 6 25 5 26 4 27 3 28 2 29 1 30
REMARK H PARENT
REMARK Flexibility Score: inf
ROOT
ATOM      1  C   UNL     1      -0.613   4.232  25.612  1.00  0.00     0.000 C 
ENDROOT
BRANCH   1   2
ATOM      2  C   UNL     1       0.621   4.591  24.776  1.00  0.00     0.000 C 
BRANCH   2   3
ATOM      3  C   UNL     1       0.317   4.506  23.275  1.00  0.00     0.000 C 
BRANCH   3   4
ATOM      4  C   UNL     1      -1.189   4.332  23.033  1.00  0.00     0.000 C 
BRANCH   4   5
ATOM      5  C   UNL     1      -1.737   5.285  21.956  1.00  0.00     0.000 C 
BRANCH   5   6
ATOM      6  C   UNL     1      -3.126   4.912  21.398  1.00  0.00     0.000 C 
BRANCH   6   7
ATOM      7  C   UNL     1      -3.798   3.694  22.060  1.00  0.00     0.000 C 
BRANCH   7   8
ATOM      8  C   UNL     1      -5.254   3.916  22.515  1.00  0.00     0.000 C 
BRANCH   8   9
ATOM      9  C   UNL     1      -5.514   3.543  23.991  1.00  0.00     0.000 C 
BRANCH   9  10
ATOM     10  C   UNL     1      -4.249   3.627  24.859  1.00  0.00     0.000 C 
BRANCH  10  11
ATOM     11  C   UNL     1      -4.441   4.625  26.012  1.00  0.00     0.000 C 
BRANCH  11  12
ATOM     12  C   UNL     1      -4.905   6.009  25.531  1.00  0.00     0.006 C 
BRANCH  12  13
ATOM     13  C   UNL     1      -3.809   7.080  25.649  1.00  0.00     0.053 C 
BRANCH  13  14
ATOM     14  C   UNL     1      -3.422   7.614  24.303  1.00  0.00     0.041 C 
ATOM     15  O   UNL     1      -4.262   7.656  23.366  1.00  0.00    -0.550 OA
ATOM     16  O   UNL     1      -2.145   8.127  24.104  1.00  0.00    -0.550 OA
ENDBRANCH  13  14
ENDBRANCH  12  13
ENDBRANCH  11  12
ENDBRANCH  10  11
ENDBRANCH   9  10
ENDBRANCH   8   9
ENDBRANCH   7   8
ENDBRANCH   6   7
ENDBRANCH   5   6
ENDBRANCH   4   5
ENDBRANCH   3   4
ENDBRANCH   2   3
ENDBRANCH   1   2
BRANCH   1  17
ATOM     17  C   UNL     1      -0.856   5.279  26.710  1.00  0.00     0.000 C 
BRANCH  17  18
ATOM     18  C   UNL     1      -1.298   4.650  28.041  1.00  0.00     0.000 C 
BRANCH  18  19
ATOM     19  C   UNL     1      -1.319   5.672  29.191  1.00  0.00     0.000 C 
BRANCH  19  20
ATOM     20  C   UNL     1      -0.815   7.059  28.763  1.00  0.00     0.000 C 
BRANCH  20  21
ATOM     21  C   UNL     1       0.249   7.681  29.691  1.00  0.00     0.000 C 
BRANCH  21  22
ATOM     22  C   UNL     1       0.268   7.077  31.112  1.00  0.00    -0.000 C 
BRANCH  22  23
ATOM     23  C   UNL     1       1.628   6.446  31.460  1.00  0.00    -0.000 C 
BRANCH  23  24
ATOM     24  C   UNL     1       1.544   4.921  31.629  1.00  0.00    -0.000 C 
BRANCH  24  25
ATOM     25  C   UNL     1       1.875   4.162  30.334  1.00  0.00    -0.000 C 
BRANCH  25  26
ATOM     26  C   UNL     1       2.951   4.867  29.489  1.00  0.00    -0.000 C 
BRANCH  26  27
ATOM     27  C   UNL     1       2.514   5.122  28.031  1.00  0.00    -0.000 C 
BRANCH  27  28
ATOM     28  C   UNL     1       3.013   6.480  27.504  1.00  0.00    -0.000 C 
BRANCH  28  29
ATOM     29  C   UNL     1       3.517   6.401  26.056  1.00  0.00    -0.003 C 
ATOM     30  C   UNL     1       4.065   5.020  25.695  1.00  0.00     0.004 C 
ENDBRANCH  28  29
ENDBRANCH  27  28
ENDBRANCH  26  27
ENDBRANCH  25  26
ENDBRANCH  24  25
ENDBRANCH  23  24
ENDBRANCH  22  23
ENDBRANCH  21  22
ENDBRANCH  20  21
ENDBRANCH  19  20
ENDBRANCH  18  19
ENDBRANCH  17  18
ENDBRANCH   1  17
TORSDOF 26
ENDMDL
MODEL 6
REMARK VINA RESULT:    -4.983      3.121      8.233
REMARK INTER + INTRA:         -17.150
REMARK INTER:                 -12.109
REMARK INTRA:                  -5.041
REMARK UNBOUND:                -4.592
REMARK SMILES CCCCCCCCCCCCCCCCCCCCCCCCCCCC(=O)[O-]
REMARK SMILES IDX 15 1 16 2 17 3 18 4 19 5 20 6 21 7 22 8 23 9 24 10 25 11
REMARK SMILES IDX 26 12 27 13 28 14 29 15 30 16 14 17 13 18 12 19 11 20 10 21
REMARK SMILES IDX 9 22 8 23 7 24 6 25 5 26 4 27 3 28 2 29 1 30
REMARK H PARENT
REMARK Flexibility Score: inf
ROOT
ATOM      1  C   UNL     1      -1.726   5.659  29.060  1.00  0.00     0.000 C 
ENDROOT
BRANCH   1   2
ATOM      2  C   UNL     1      -1.753   4.504  28.051  1.00  0.00     0.000 C 
BRANCH   2   3
ATOM      3  C   UNL     1      -3.039   4.529  27.217  1.00  0.00     0.000 C 
BRANCH   3   4
ATOM      4  C   UNL     1      -2.715   4.550  25.716  1.00  0.00     0.000 C 
BRANCH   4   5
ATOM      5  C   UNL     1      -1.314   5.109  25.412  1.00  0.00     0.000 C 
BRANCH   5   6
ATOM      6  C   UNL     1      -1.279   6.590  24.980  1.00  0.00     0.000 C 
BRANCH   6   7
ATOM      7  C   UNL     1      -0.962   6.836  23.493  1.00  0.00     0.000 C 
BRANCH   7   8
ATOM      8  C   UNL     1      -0.635   5.570  22.676  1.00  0.00     0.000 C 
BRANCH   8   9
ATOM      9  C   UNL     1      -1.634   5.287  21.533  1.00  0.00     0.000 C 
BRANCH   9  10
ATOM     10  C   UNL     1      -3.096   5.279  22.006  1.00  0.00     0.000 C 
BRANCH  10  11
ATOM     11  C   UNL     1      -3.594   3.841  22.223  1.00  0.00     0.000 C 
BRANCH  11  12
ATOM     12  C   UNL     1      -5.124   3.722  22.144  1.00  0.00     0.006 C 
BRANCH  12  13
ATOM     13  C   UNL     1      -5.751   3.206  23.448  1.00  0.00     0.053 C 
BRANCH  13  14
ATOM     14  C   UNL     1      -6.196   4.339  24.324  1.00  0.00     0.041 C 
ATOM     15  O   UNL     1      -6.582   5.425  23.817  1.00  0.00    -0.550 OA
ATOM     16  O   UNL     1      -6.246   4.169  25.703  1.00  0.00    -0.550 OA
ENDBRANCH  13  14
ENDBRANCH  12  13
ENDBRANCH  11  12
ENDBRANCH  10  11
ENDBRANCH   9  10
ENDBRANCH   8   9
ENDBRANCH   7   8
ENDBRANCH   6   7
ENDBRANCH   5   6
ENDBRANCH   4   5
ENDBRANCH   3   4
ENDBRANCH   2   3
ENDBRANCH   1   2
BRANCH   1  17
ATOM     17  C   UNL     1      -0.338   6.318  29.101  1.00  0.00     0.000 C 
BRANCH  17  18
ATOM     18  C   UNL     1       0.628   5.607  30.062  1.00  0.00     0.000 C 
BRANCH  18  19
ATOM     19  C   UNL     1       1.547   6.593  30.802  1.00  0.00     0.000 C 
BRANCH  19  20
ATOM     20  C   UNL     1       3.012   6.127  30.839  1.00  0.00     0.000 C 
BRANCH  20  21
ATOM     21  C   UNL     1       3.242   4.665  30.407  1.00  0.00     0.000 C 
BRANCH  21  22
ATOM     22  C   UNL     1       4.533   4.451  29.588  1.00  0.00    -0.000 C 
BRANCH  22  23
ATOM     23  C   UNL     1       4.242   4.001  28.145  1.00  0.00    -0.000 C 
BRANCH  23  24
ATOM     24  C   UNL     1       2.839   3.395  27.988  1.00  0.00    -0.000 C 
BRANCH  24  25
ATOM     25  C   UNL     1       1.993   4.126  26.934  1.00  0.00    -0.000 C 
BRANCH  25  26
ATOM     26  C   UNL     1       2.778   5.227  26.198  1.00  0.00    -0.000 C 
BRANCH  26  27
ATOM     27  C   UNL     1       2.080   6.603  26.233  1.00  0.00    -0.000 C 
BRANCH  27  28
ATOM     28  C   UNL     1       2.677   7.530  27.307  1.00  0.00    -0.000 C 
BRANCH  28  29
ATOM     29  C   UNL     1       4.209   7.445  27.375  1.00  0.00    -0.003 C 
ATOM     30  C   UNL     1       4.794   8.228  28.551  1.00  0.00     0.004 C 
ENDBRANCH  28  29
ENDBRANCH  27  28
ENDBRANCH  26  27
ENDBRANCH  25  26
ENDBRANCH  24  25
ENDBRANCH  23  24
ENDBRANCH  22  23
ENDBRANCH  21  22
ENDBRANCH  20  21
ENDBRANCH  19  20
ENDBRANCH  18  19
ENDBRANCH  17  18
ENDBRANCH   1  17
TORSDOF 26
ENDMDL
MODEL 7
REMARK VINA RESULT:    -4.976      2.700      7.799
REMARK INTER + INTRA:         -17.131
REMARK INTER:                 -11.268
REMARK INTRA:                  -5.863
REMARK UNBOUND:                -4.592
REMARK SMILES CCCCCCCCCCCCCCCCCCCCCCCCCCCC(=O)[O-]
REMARK SMILES IDX 15 1 16 2 17 3 18 4 19 5 20 6 21 7 22 8 23 9 24 10 25 11
REMARK SMILES IDX 26 12 27 13 28 14 29 15 30 16 14 17 13 18 12 19 11 20 10 21
REMARK SMILES IDX 9 22 8 23 7 24 6 25 5 26 4 27 3 28 2 29 1 30
REMARK H PARENT
REMARK Flexibility Score: inf
ROOT
ATOM      1  C   UNL     1      -0.166   7.361  25.610  1.00  0.00     0.000 C 
ENDROOT
BRANCH   1   2
ATOM      2  C   UNL     1      -0.120   6.596  24.282  1.00  0.00     0.000 C 
BRANCH   2   3
ATOM      3  C   UNL     1      -0.232   5.084  24.510  1.00  0.00     0.000 C 
BRANCH   3   4
ATOM      4  C   UNL     1      -0.646   4.366  23.218  1.00  0.00     0.000 C 
BRANCH   4   5
ATOM      5  C   UNL     1      -1.312   5.305  22.197  1.00  0.00     0.000 C 
BRANCH   5   6
ATOM      6  C   UNL     1      -2.768   4.946  21.830  1.00  0.00     0.000 C 
BRANCH   6   7
ATOM      7  C   UNL     1      -3.812   6.038  22.132  1.00  0.00     0.000 C 
BRANCH   7   8
ATOM      8  C   UNL     1      -3.231   7.389  22.595  1.00  0.00     0.000 C 
BRANCH   8   9
ATOM      9  C   UNL     1      -3.821   7.903  23.926  1.00  0.00     0.000 C 
BRANCH   9  10
ATOM     10  C   UNL     1      -4.574   6.813  24.705  1.00  0.00     0.000 C 
BRANCH  10  11
ATOM     11  C   UNL     1      -3.682   6.204  25.798  1.00  0.00     0.000 C 
BRANCH  11  12
ATOM     12  C   UNL     1      -3.676   4.668  25.775  1.00  0.00     0.006 C 
BRANCH  12  13
ATOM     13  C   UNL     1      -4.959   4.075  25.173  1.00  0.00     0.053 C 
BRANCH  13  14
ATOM     14  C   UNL     1      -4.652   2.935  24.249  1.00  0.00     0.041 C 
ATOM     15  O   UNL     1      -3.630   2.222  24.431  1.00  0.00    -0.550 OA
ATOM     16  O   UNL     1      -5.534   2.620  23.221  1.00  0.00    -0.550 OA
ENDBRANCH  13  14
ENDBRANCH  12  13
ENDBRANCH  11  12
ENDBRANCH  10  11
ENDBRANCH   9  10
ENDBRANCH   8   9
ENDBRANCH   7   8
ENDBRANCH   6   7
ENDBRANCH   5   6
ENDBRANCH   4   5
ENDBRANCH   3   4
ENDBRANCH   2   3
ENDBRANCH   1   2
BRANCH   1  17
ATOM     17  C   UNL     1       1.190   7.297  26.328  1.00  0.00     0.000 C 
BRANCH  17  18
ATOM     18  C   UNL     1       1.118   7.804  27.778  1.00  0.00     0.000 C 
BRANCH  18  19
ATOM     19  C   UNL     1      -0.324   7.844  28.312  1.00  0.00     0.000 C 
BRANCH  19  20
ATOM     20  C   UNL     1      -0.600   6.753  29.358  1.00  0.00     0.000 C 
BRANCH  20  21
ATOM     21  C   UNL     1      -1.583   5.653  28.908  1.00  0.00     0.000 C 
BRANCH  21  22
ATOM     22  C   UNL     1      -0.917   4.504  28.120  1.00  0.00    -0.000 C 
BRANCH  22  23
ATOM     23  C   UNL     1       0.516   4.217  28.605  1.00  0.00    -0.000 C 
BRANCH  23  24
ATOM     24  C   UNL     1       1.430   3.711  27.479  1.00  0.00    -0.000 C 
BRANCH  24  25
ATOM     25  C   UNL     1       2.852   3.393  27.968  1.00  0.00    -0.000 C 
BRANCH  25  26
ATOM     26  C   UNL     1       3.873   4.477  27.577  1.00  0.00    -0.000 C 
BRANCH  26  27
ATOM     27  C   UNL     1       3.982   5.617  28.611  1.00  0.00    -0.000 C 
BRANCH  27  28
ATOM     28  C   UNL     1       3.945   5.095  30.058  1.00  0.00    -0.000 C 
BRANCH  28  29
ATOM     29  C   UNL     1       3.043   5.941  30.968  1.00  0.00    -0.003 C 
ATOM     30  C   UNL     1       1.900   5.133  31.585  1.00  0.00     0.004 C 
ENDBRANCH  28  29
ENDBRANCH  27  28
ENDBRANCH  26  27
ENDBRANCH  25  26
ENDBRANCH  24  25
ENDBRANCH  23  24
ENDBRANCH  22  23
ENDBRANCH  21  22
ENDBRANCH  20  21
ENDBRANCH  19  20
ENDBRANCH  18  19
ENDBRANCH  17  18
ENDBRANCH   1  17
TORSDOF 26
ENDMDL
MODEL 8
REMARK VINA RESULT:    -4.972      2.028      4.472
REMARK INTER + INTRA:         -17.122
REMARK INTER:                 -11.752
REMARK INTRA:                  -5.369
REMARK UNBOUND:                -4.592
REMARK SMILES CCCCCCCCCCCCCCCCCCCCCCCCCCCC(=O)[O-]
REMARK SMILES IDX 15 1 16 2 17 3 18 4 19 5 20 6 21 7 22 8 23 9 24 10 25 11
REMARK SMILES IDX 26 12 27 13 28 14 29 15 30 16 14 17 13 18 12 19 11 20 10 21
REMARK SMILES IDX 9 22 8 23 7 24 6 25 5 26 4 27 3 28 2 29 1 30
REMARK H PARENT
REMARK Flexibility Score: inf
ROOT
ATOM      1  C   UNL     1      -1.023   4.510  28.109  1.00  0.00     0.000 C 
ENDROOT
BRANCH   1   2
ATOM      2  C   UNL     1      -0.428   5.886  28.436  1.00  0.00     0.000 C 
BRANCH   2   3
ATOM      3  C   UNL     1       0.610   5.788  29.560  1.00  0.00     0.000 C 
BRANCH   3   4
ATOM      4  C   UNL     1       1.249   4.392  29.591  1.00  0.00     0.000 C 
BRANCH   4   5
ATOM      5  C   UNL     1       2.778   4.427  29.418  1.00  0.00     0.000 C 
BRANCH   5   6
ATOM      6  C   UNL     1       3.323   3.605  28.232  1.00  0.00     0.000 C 
BRANCH   6   7
ATOM      7  C   UNL     1       2.326   3.367  27.082  1.00  0.00     0.000 C 
BRANCH   7   8
ATOM      8  C   UNL     1       2.304   4.464  25.998  1.00  0.00     0.000 C 
BRANCH   8   9
ATOM      9  C   UNL     1       3.706   4.957  25.576  1.00  0.00     0.000 C 
BRANCH   9  10
ATOM     10  C   UNL     1       3.986   6.403  26.014  1.00  0.00     0.000 C 
BRANCH  10  11
ATOM     11  C   UNL     1       2.755   7.017  26.699  1.00  0.00     0.000 C 
BRANCH  11  12
ATOM     12  C   UNL     1       3.122   7.900  27.902  1.00  0.00     0.006 C 
BRANCH  12  13
ATOM     13  C   UNL     1       4.614   7.828  28.262  1.00  0.00     0.053 C 
BRANCH  13  14
ATOM     14  C   UNL     1       4.831   8.035  29.731  1.00  0.00     0.041 C 
ATOM     15  O   UNL     1       4.132   7.413  30.574  1.00  0.00    -0.550 OA
ATOM     16  O   UNL     1       5.853   8.870  30.169  1.00  0.00    -0.550 OA
ENDBRANCH  13  14
ENDBRANCH  12  13
ENDBRANCH  11  12
ENDBRANCH  10  11
ENDBRANCH   9  10
ENDBRANCH   8   9
ENDBRANCH   7   8
ENDBRANCH   6   7
ENDBRANCH   5   6
ENDBRANCH   4   5
ENDBRANCH   3   4
ENDBRANCH   2   3
ENDBRANCH   1   2
BRANCH   1  17
ATOM     17  C   UNL     1      -2.536   4.611  27.864  1.00  0.00     0.000 C 
BRANCH  17  18
ATOM     18  C   UNL     1      -2.898   4.586  26.370  1.00  0.00     0.000 C 
BRANCH  18  19
ATOM     19  C   UNL     1      -4.142   5.434  26.056  1.00  0.00     0.000 C 
BRANCH  19  20
ATOM     20  C   UNL     1      -3.800   6.741  25.323  1.00  0.00     0.000 C 
BRANCH  20  21
ATOM     21  C   UNL     1      -2.587   7.507  25.887  1.00  0.00     0.000 C 
BRANCH  21  22
ATOM     22  C   UNL     1      -1.531   7.877  24.823  1.00  0.00    -0.000 C 
BRANCH  22  23
ATOM     23  C   UNL     1      -0.367   6.871  24.781  1.00  0.00    -0.000 C 
BRANCH  23  24
ATOM     24  C   UNL     1      -0.585   5.759  23.744  1.00  0.00    -0.000 C 
BRANCH  24  25
ATOM     25  C   UNL     1      -1.287   6.263  22.473  1.00  0.00    -0.000 C 
BRANCH  25  26
ATOM     26  C   UNL     1      -2.131   5.174  21.785  1.00  0.00    -0.000 C 
BRANCH  26  27
ATOM     27  C   UNL     1      -2.546   4.032  22.736  1.00  0.00    -0.000 C 
BRANCH  27  28
ATOM     28  C   UNL     1      -4.006   3.596  22.518  1.00  0.00    -0.000 C 
BRANCH  28  29
ATOM     29  C   UNL     1      -4.504   2.636  23.609  1.00  0.00    -0.003 C 
ATOM     30  C   UNL     1      -5.994   2.805  23.909  1.00  0.00     0.004 C 
ENDBRANCH  28  29
ENDBRANCH  27  28
ENDBRANCH  26  27
ENDBRANCH  25  26
ENDBRANCH  24  25
ENDBRANCH  23  24
ENDBRANCH  22  23
ENDBRANCH  21  22
ENDBRANCH  20  21
ENDBRANCH  19  20
ENDBRANCH  18  19
ENDBRANCH  17  18
ENDBRANCH   1  17
TORSDOF 26
ENDMDL
MODEL 9
REMARK VINA RESULT:    -4.960      3.161      8.564
REMARK INTER + INTRA:         -17.090
REMARK INTER:                 -12.440
REMARK INTRA:                  -4.650
REMARK UNBOUND:                -4.592
REMARK SMILES CCCCCCCCCCCCCCCCCCCCCCCCCCCC(=O)[O-]
REMARK SMILES IDX 15 1 16 2 17 3 18 4 19 5 20 6 21 7 22 8 23 9 24 10 25 11
REMARK SMILES IDX 26 12 27 13 28 14 29 15 30 16 14 17 13 18 12 19 11 20 10 21
REMARK SMILES IDX 9 22 8 23 7 24 6 25 5 26 4 27 3 28 2 29 1 30
REMARK H PARENT
REMARK Flexibility Score: inf
ROOT
ATOM      1  C   UNL     1      -1.379   5.860  29.012  1.00  0.00     0.000 C 
ENDROOT
BRANCH   1   2
ATOM      2  C   UNL     1      -1.437   4.524  28.262  1.00  0.00     0.000 C 
BRANCH   2   3
ATOM      3  C   UNL     1      -1.793   4.733  26.786  1.00  0.00     0.000 C 
BRANCH   3   4
ATOM      4  C   UNL     1      -1.046   3.728  25.897  1.00  0.00     0.000 C 
BRANCH   4   5
ATOM      5  C   UNL     1       0.421   4.121  25.648  1.00  0.00     0.000 C 
BRANCH   5   6
ATOM      6  C   UNL     1       0.674   4.919  24.352  1.00  0.00     0.000 C 
BRANCH   6   7
ATOM      7  C   UNL     1       0.051   6.327  24.314  1.00  0.00     0.000 C 
BRANCH   7   8
ATOM      8  C   UNL     1      -1.051   6.527  23.254  1.00  0.00     0.000 C 
BRANCH   8   9
ATOM      9  C   UNL     1      -0.910   5.607  22.021  1.00  0.00     0.000 C 
BRANCH   9  10
ATOM     10  C   UNL     1      -2.258   5.054  21.532  1.00  0.00     0.000 C 
BRANCH  10  11
ATOM     11  C   UNL     1      -2.994   4.322  22.665  1.00  0.00     0.000 C 
BRANCH  11  12
ATOM     12  C   UNL     1      -4.121   3.411  22.152  1.00  0.00     0.006 C 
BRANCH  12  13
ATOM     13  C   UNL     1      -5.510   4.060  22.265  1.00  0.00     0.053 C 
BRANCH  13  14
ATOM     14  C   UNL     1      -6.042   4.447  20.919  1.00  0.00     0.041 C 
ATOM     15  O   UNL     1      -5.492   5.365  20.254  1.00  0.00    -0.550 OA
ATOM     16  O   UNL     1      -7.110   3.746  20.369  1.00  0.00    -0.550 OA
ENDBRANCH  13  14
ENDBRANCH  12  13
ENDBRANCH  11  12
ENDBRANCH  10  11
ENDBRANCH   9  10
ENDBRANCH   8   9
ENDBRANCH   7   8
ENDBRANCH   6   7
ENDBRANCH   5   6
ENDBRANCH   4   5
ENDBRANCH   3   4
ENDBRANCH   2   3
ENDBRANCH   1   2
BRANCH   1  17
ATOM     17  C   UNL     1      -0.183   6.702  28.542  1.00  0.00     0.000 C 
BRANCH  17  18
ATOM     18  C   UNL     1      -0.076   8.046  29.282  1.00  0.00     0.000 C 
BRANCH  18  19
ATOM     19  C   UNL     1       1.326   8.666  29.167  1.00  0.00     0.000 C 
BRANCH  19  20
ATOM     20  C   UNL     1       1.926   9.037  30.533  1.00  0.00     0.000 C 
BRANCH  20  21
ATOM     21  C   UNL     1       2.571   7.866  31.302  1.00  0.00     0.000 C 
BRANCH  21  22
ATOM     22  C   UNL     1       1.651   7.240  32.373  1.00  0.00    -0.000 C 
BRANCH  22  23
ATOM     23  C   UNL     1       1.274   5.785  32.041  1.00  0.00    -0.000 C 
BRANCH  23  24
ATOM     24  C   UNL     1       2.361   5.064  31.230  1.00  0.00    -0.000 C 
BRANCH  24  25
ATOM     25  C   UNL     1       1.782   4.028  30.254  1.00  0.00    -0.000 C 
BRANCH  25  26
ATOM     26  C   UNL     1       2.340   4.176  28.827  1.00  0.00    -0.000 C 
BRANCH  26  27
ATOM     27  C   UNL     1       3.767   4.764  28.787  1.00  0.00    -0.000 C 
BRANCH  27  28
ATOM     28  C   UNL     1       3.792   6.191  28.209  1.00  0.00    -0.000 C 
BRANCH  28  29
ATOM     29  C   UNL     1       3.149   6.275  26.817  1.00  0.00    -0.003 C 
ATOM     30  C   UNL     1       4.152   6.041  25.687  1.00  0.00     0.004 C 
ENDBRANCH  28  29
ENDBRANCH  27  28
ENDBRANCH  26  27
ENDBRANCH  25  26
ENDBRANCH  24  25
ENDBRANCH  23  24
ENDBRANCH  22  23
ENDBRANCH  21  22
ENDBRANCH  20  21
ENDBRANCH  19  20
ENDBRANCH  18  19
ENDBRANCH  17  18
ENDBRANCH   1  17
TORSDOF 26
ENDMDL
