MODEL 1
REMARK VINA RESULT:    -2.958      0.000      0.000
REMARK INTER + INTRA:          -3.777
REMARK INTER:                  -3.563
REMARK INTRA:                  -0.213
REMARK UNBOUND:                -0.213
REMARK SMILES OCC(O)CO
REMARK SMILES IDX 3 1 5 2 6 3 2 5 1 6 4 8
REMARK H PARENT 6 4 1 7 4 9
REMARK Flexibility Score: inf
ROOT
ATOM      1  C   UNL     1     102.266 117.608 113.380  1.00  0.00     0.165 C 
ENDROOT
BRANCH   1   2
ATOM      2  C   UNL     1     101.325 118.476 114.235  1.00  0.00     0.190 C 
BRANCH   2   3
ATOM      3  O   UNL     1     100.045 117.908 114.326  1.00  0.00    -0.394 OA
ATOM      4  H   UNL     1      99.808 117.881 115.288  1.00  0.00     0.210 HD
ENDBRANCH   2   3
ENDBRANCH   1   2
BRANCH   1   5
ATOM      5  C   UNL     1     102.278 118.022 111.896  1.00  0.00     0.190 C 
BRANCH   5   6
ATOM      6  O   UNL     1     100.994 118.394 111.469  1.00  0.00    -0.394 OA
ATOM      7  H   UNL     1     100.351 117.932 112.067  1.00  0.00     0.210 HD
ENDBRANCH   5   6
ENDBRANCH   1   5
BRANCH   1   8
ATOM      8  O   UNL     1     103.567 117.618 113.909  1.00  0.00    -0.388 OA
ATOM      9  H   UNL     1     103.568 118.216 114.702  1.00  0.00     0.211 HD
ENDBRANCH   1   8
TORSDOF 5
ENDMDL
MODEL 2
REMARK VINA RESULT:    -2.905      0.893      3.022
REMARK INTER + INTRA:          -3.712
REMARK INTER:                  -3.709
REMARK INTRA:                  -0.003
REMARK UNBOUND:                -0.213
REMARK SMILES OCC(O)CO
REMARK SMILES IDX 3 1 5 2 6 3 2 5 1 6 4 8
REMARK H PARENT 6 4 1 7 4 9
REMARK Flexibility Score: inf
ROOT
ATOM      1  C   UNL     1     102.012 117.559 113.379  1.00  0.00     0.165 C 
ENDROOT
BRANCH   1   2
ATOM      2  C   UNL     1     102.388 118.041 111.966  1.00  0.00     0.190 C 
BRANCH   2   3
ATOM      3  O   UNL     1     101.443 117.623 111.015  1.00  0.00    -0.394 OA
ATOM      4  H   UNL     1     101.937 117.453 110.172  1.00  0.00     0.210 HD
ENDBRANCH   2   3
ENDBRANCH   1   2
BRANCH   1   5
ATOM      5  C   UNL     1     103.066 117.934 114.438  1.00  0.00     0.190 C 
BRANCH   5   6
ATOM      6  O   UNL     1     104.214 117.137 114.307  1.00  0.00    -0.394 OA
ATOM      7  H   UNL     1     104.211 116.507 115.074  1.00  0.00     0.210 HD
ENDBRANCH   5   6
ENDBRANCH   1   5
BRANCH   1   8
ATOM      8  O   UNL     1     100.745 118.043 113.747  1.00  0.00    -0.388 OA
ATOM      9  H   UNL     1     100.082 117.673 113.107  1.00  0.00     0.211 HD
ENDBRANCH   1   8
TORSDOF 5
ENDMDL
MODEL 3
REMARK VINA RESULT:    -2.083     19.713     20.650
REMARK INTER + INTRA:          -2.722
REMARK INTER:                  -2.719
REMARK INTRA:                  -0.003
REMARK UNBOUND:                -0.213
REMARK SMILES OCC(O)CO
REMARK SMILES IDX 3 1 5 2 6 3 2 5 1 6 4 8
REMARK H PARENT 6 4 1 7 4 9
REMARK Flexibility Score: inf
ROOT
ATOM      1  C   UNL     1     112.442 103.062 104.370  1.00  0.00     0.165 C 
ENDROOT
BRANCH   1   2
ATOM      2  C   UNL     1     112.785 101.888 103.435  1.00  0.00     0.190 C 
BRANCH   2   3
ATOM      3  O   UNL     1     114.143 101.544 103.523  1.00  0.00    -0.394 OA
ATOM      4  H   UNL     1     114.335 101.373 104.481  1.00  0.00     0.210 HD
ENDBRANCH   2   3
ENDBRANCH   1   2
BRANCH   1   5
ATOM      5  C   UNL     1     110.997 103.567 104.192  1.00  0.00     0.190 C 
BRANCH   5   6
ATOM      6  O   UNL     1     110.369 103.738 105.434  1.00  0.00    -0.394 OA
ATOM      7  H   UNL     1     110.159 104.704 105.516  1.00  0.00     0.210 HD
ENDBRANCH   5   6
ENDBRANCH   1   5
BRANCH   1   8
ATOM      8  O   UNL     1     112.685 102.716 105.710  1.00  0.00    -0.388 OA
ATOM      9  H   UNL     1     113.645 102.887 105.898  1.00  0.00     0.211 HD
ENDBRANCH   1   8
TORSDOF 5
ENDMDL
MODEL 4
REMARK VINA RESULT:    -2.074     13.367     14.177
REMARK INTER + INTRA:          -2.712
REMARK INTER:                  -2.709
REMARK INTRA:                  -0.003
REMARK UNBOUND:                -0.213
REMARK SMILES OCC(O)CO
REMARK SMILES IDX 3 1 5 2 6 3 2 5 1 6 4 8
REMARK H PARENT 6 4 1 7 4 9
REMARK Flexibility Score: inf
ROOT
ATOM      1  C   UNL     1     111.454 114.483 104.177  1.00  0.00     0.165 C 
ENDROOT
BRANCH   1   2
ATOM      2  C   UNL     1     112.329 115.274 103.187  1.00  0.00     0.190 C 
BRANCH   2   3
ATOM      3  O   UNL     1     111.644 116.388 102.677  1.00  0.00    -0.394 OA
ATOM      4  H   UNL     1     111.893 116.467 101.720  1.00  0.00     0.210 HD
ENDBRANCH   2   3
ENDBRANCH   1   2
BRANCH   1   5
ATOM      5  C   UNL     1     111.821 112.988 104.236  1.00  0.00     0.190 C 
BRANCH   5   6
ATOM      6  O   UNL     1     111.725 112.500 105.548  1.00  0.00    -0.394 OA
ATOM      7  H   UNL     1     112.600 112.678 105.981  1.00  0.00     0.210 HD
ENDBRANCH   5   6
ENDBRANCH   1   5
BRANCH   1   8
ATOM      8  O   UNL     1     111.510 115.060 105.457  1.00  0.00    -0.388 OA
ATOM      9  H   UNL     1     112.384 115.522 105.544  1.00  0.00     0.211 HD
ENDBRANCH   1   8
TORSDOF 5
ENDMDL
MODEL 5
REMARK VINA RESULT:    -2.064     20.254     21.024
REMARK INTER + INTRA:          -2.699
REMARK INTER:                  -2.484
REMARK INTRA:                  -0.215
REMARK UNBOUND:                -0.213
REMARK SMILES OCC(O)CO
REMARK SMILES IDX 3 1 5 2 6 3 2 5 1 6 4 8
REMARK H PARENT 6 4 1 7 4 9
REMARK Flexibility Score: inf
ROOT
ATOM      1  C   UNL     1     112.886 102.050 103.825  1.00  0.00     0.165 C 
ENDROOT
BRANCH   1   2
ATOM      2  C   UNL     1     112.747 103.358 104.624  1.00  0.00     0.190 C 
BRANCH   2   3
ATOM      3  O   UNL     1     111.563 103.374 105.377  1.00  0.00    -0.394 OA
ATOM      4  H   UNL     1     110.815 103.228 104.742  1.00  0.00     0.210 HD
ENDBRANCH   2   3
ENDBRANCH   1   2
BRANCH   1   5
ATOM      5  C   UNL     1     112.038 102.042 102.539  1.00  0.00     0.190 C 
BRANCH   5   6
ATOM      6  O   UNL     1     110.779 102.619 102.764  1.00  0.00    -0.394 OA
ATOM      7  H   UNL     1     110.495 103.025 101.904  1.00  0.00     0.210 HD
ENDBRANCH   5   6
ENDBRANCH   1   5
BRANCH   1   8
ATOM      8  O   UNL     1     114.236 101.789 103.532  1.00  0.00    -0.388 OA
ATOM      9  H   UNL     1     114.422 100.845 103.774  1.00  0.00     0.211 HD
ENDBRANCH   1   8
TORSDOF 5
ENDMDL
MODEL 6
REMARK VINA RESULT:    -2.064     13.515     14.603
REMARK INTER + INTRA:          -2.699
REMARK INTER:                  -2.475
REMARK INTRA:                  -0.224
REMARK UNBOUND:                -0.213
REMARK SMILES OCC(O)CO
REMARK SMILES IDX 3 1 5 2 6 3 2 5 1 6 4 8
REMARK H PARENT 6 4 1 7 4 9
REMARK Flexibility Score: inf
ROOT
ATOM      1  C   UNL     1     112.414 114.911 103.086  1.00  0.00     0.165 C 
ENDROOT
BRANCH   1   2
ATOM      2  C   UNL     1     111.727 116.163 102.509  1.00  0.00     0.190 C 
BRANCH   2   3
ATOM      3  O   UNL     1     111.622 117.178 103.473  1.00  0.00    -0.394 OA
ATOM      4  H   UNL     1     111.523 118.033 102.982  1.00  0.00     0.210 HD
ENDBRANCH   2   3
ENDBRANCH   1   2
BRANCH   1   5
ATOM      5  C   UNL     1     111.563 114.201 104.156  1.00  0.00     0.190 C 
BRANCH   5   6
ATOM      6  O   UNL     1     111.566 114.924 105.359  1.00  0.00    -0.394 OA
ATOM      7  H   UNL     1     110.616 115.095 105.590  1.00  0.00     0.210 HD
ENDBRANCH   5   6
ENDBRANCH   1   5
BRANCH   1   8
ATOM      8  O   UNL     1     112.763 114.019 102.057  1.00  0.00    -0.388 OA
ATOM      9  H   UNL     1     112.906 114.550 101.231  1.00  0.00     0.211 HD
ENDBRANCH   1   8
TORSDOF 5
ENDMDL
MODEL 7
REMARK VINA RESULT:    -2.060     20.569     21.557
REMARK INTER + INTRA:          -2.695
REMARK INTER:                  -2.472
REMARK INTRA:                  -0.223
REMARK UNBOUND:                -0.213
REMARK SMILES OCC(O)CO
REMARK SMILES IDX 3 1 5 2 6 3 2 5 1 6 4 8
REMARK H PARENT 6 4 1 7 4 9
REMARK Flexibility Score: inf
ROOT
ATOM      1  C   UNL     1     112.111 102.154 103.139  1.00  0.00     0.165 C 
ENDROOT
BRANCH   1   2
ATOM      2  C   UNL     1     113.533 102.094 102.554  1.00  0.00     0.190 C 
BRANCH   2   3
ATOM      3  O   UNL     1     114.490 101.871 103.557  1.00  0.00    -0.394 OA
ATOM      4  H   UNL     1     114.006 101.502 104.340  1.00  0.00     0.210 HD
ENDBRANCH   2   3
ENDBRANCH   1   2
BRANCH   1   5
ATOM      5  C   UNL     1     111.943 103.267 104.191  1.00  0.00     0.190 C 
BRANCH   5   6
ATOM      6  O   UNL     1     112.517 102.890 105.415  1.00  0.00    -0.394 OA
ATOM      7  H   UNL     1     112.022 103.380 106.123  1.00  0.00     0.210 HD
ENDBRANCH   5   6
ENDBRANCH   1   5
BRANCH   1   8
ATOM      8  O   UNL     1     111.159 102.292 102.115  1.00  0.00    -0.388 OA
ATOM      9  H   UNL     1     110.844 101.383 101.869  1.00  0.00     0.211 HD
ENDBRANCH   1   8
TORSDOF 5
ENDMDL
MODEL 8
REMARK VINA RESULT:    -2.059     13.034     13.759
REMARK INTER + INTRA:          -2.694
REMARK INTER:                  -2.473
REMARK INTRA:                  -0.220
REMARK UNBOUND:                -0.213
REMARK SMILES OCC(O)CO
REMARK SMILES IDX 3 1 5 2 6 3 2 5 1 6 4 8
REMARK H PARENT 6 4 1 7 4 9
REMARK Flexibility Score: inf
ROOT
ATOM      1  C   UNL     1     100.806 108.153 103.728  1.00  0.00     0.165 C 
ENDROOT
BRANCH   1   2
ATOM      2  C   UNL     1     101.927 107.583 104.615  1.00  0.00     0.190 C 
BRANCH   2   3
ATOM      3  O   UNL     1     102.621 108.605 105.282  1.00  0.00    -0.394 OA
ATOM      4  H   UNL     1     103.252 108.165 105.907  1.00  0.00     0.210 HD
ENDBRANCH   2   3
ENDBRANCH   1   2
BRANCH   1   5
ATOM      5  C   UNL     1     101.330 108.737 102.402  1.00  0.00     0.190 C 
BRANCH   5   6
ATOM      6  O   UNL     1     102.345 109.678 102.635  1.00  0.00    -0.394 OA
ATOM      7  H   UNL     1     102.069 110.203 103.430  1.00  0.00     0.210 HD
ENDBRANCH   5   6
ENDBRANCH   1   5
BRANCH   1   8
ATOM      8  O   UNL     1      99.821 107.180 103.487  1.00  0.00    -0.388 OA
ATOM      9  H   UNL     1      99.425 106.926 104.361  1.00  0.00     0.211 HD
ENDBRANCH   1   8
TORSDOF 5
ENDMDL
MODEL 9
REMARK VINA RESULT:    -2.040     13.358     14.407
REMARK INTER + INTRA:          -2.671
REMARK INTER:                  -2.448
REMARK INTRA:                  -0.223
REMARK UNBOUND:                -0.213
REMARK SMILES OCC(O)CO
REMARK SMILES IDX 3 1 5 2 6 3 2 5 1 6 4 8
REMARK H PARENT 6 4 1 7 4 9
REMARK Flexibility Score: inf
ROOT
ATOM      1  C   UNL     1     112.040 115.568 103.662  1.00  0.00     0.165 C 
ENDROOT
BRANCH   1   2
ATOM      2  C   UNL     1     111.254 114.989 104.852  1.00  0.00     0.190 C 
BRANCH   2   3
ATOM      3  O   UNL     1     111.665 113.681 105.150  1.00  0.00    -0.394 OA
ATOM      4  H   UNL     1     110.847 113.122 105.185  1.00  0.00     0.210 HD
ENDBRANCH   2   3
ENDBRANCH   1   2
BRANCH   1   5
ATOM      5  C   UNL     1     111.927 114.702 102.392  1.00  0.00     0.190 C 
BRANCH   5   6
ATOM      6  O   UNL     1     112.843 113.640 102.426  1.00  0.00    -0.394 OA
ATOM      7  H   UNL     1     113.627 113.924 101.889  1.00  0.00     0.210 HD
ENDBRANCH   5   6
ENDBRANCH   1   5
BRANCH   1   8
ATOM      8  O   UNL     1     111.641 116.890 103.399  1.00  0.00    -0.388 OA
ATOM      9  H   UNL     1     112.405 117.486 103.615  1.00  0.00     0.211 HD
ENDBRANCH   1   8
TORSDOF 5
ENDMDL
