MODEL 1
REMARK VINA RESULT:    -5.239      0.000      0.000
REMARK INTER + INTRA:          -5.640
REMARK INTER:                  -5.545
REMARK INTRA:                  -0.095
REMARK UNBOUND:                -0.095
REMARK SMILES C=C(C)[C@@H]1CC=C(C)C(=O)C1
REMARK SMILES IDX 8 1 7 2 6 3 5 4 4 5 11 6 9 7 10 8 2 9 1 10 3 11
REMARK H PARENT
REMARK Flexibility Score: inf
ROOT
ATOM      1  C   UNL     1       3.401  17.507  -6.110  1.00  0.00     0.048 C 
ATOM      2  C   UNL     1       3.700  16.115  -6.596  1.00  0.00    -0.012 C 
ATOM      3  C   UNL     1       3.934  15.898  -7.901  1.00  0.00    -0.019 C 
ATOM      4  C   UNL     1       4.256  14.528  -8.438  1.00  0.00     0.036 C 
ATOM      5  C   UNL     1       3.536  13.432  -7.629  1.00  0.00     0.025 C 
ATOM      6  C   UNL     1       3.872  13.566  -6.132  1.00  0.00     0.089 C 
ATOM      7  C   UNL     1       3.614  14.970  -5.655  1.00  0.00     0.158 C 
ATOM      8  O   UNL     1       3.359  15.167  -4.437  1.00  0.00    -0.295 OA
ENDROOT
BRANCH   5   9
ATOM      9  C   UNL     1       3.861  12.041  -8.155  1.00  0.00    -0.077 C 
ATOM     10  C   UNL     1       5.029  11.780  -8.768  1.00  0.00     0.008 C 
ATOM     11  C   UNL     1       2.865  10.921  -7.995  1.00  0.00     0.039 C 
ENDBRANCH   5   9
TORSDOF 1
ENDMDL
MODEL 2
REMARK VINA RESULT:    -4.922      1.530      2.108
REMARK INTER + INTRA:          -5.305
REMARK INTER:                  -5.207
REMARK INTRA:                  -0.098
REMARK UNBOUND:                -0.095
REMARK SMILES C=C(C)[C@@H]1CC=C(C)C(=O)C1
REMARK SMILES IDX 8 1 7 2 6 3 5 4 4 5 11 6 9 7 10 8 2 9 1 10 3 11
REMARK H PARENT
REMARK Flexibility Score: inf
ROOT
ATOM      1  C   UNL     1       3.362  17.134  -6.079  1.00  0.00     0.048 C 
ATOM      2  C   UNL     1       3.280  15.759  -6.684  1.00  0.00    -0.012 C 
ATOM      3  C   UNL     1       2.737  14.750  -5.980  1.00  0.00    -0.019 C 
ATOM      4  C   UNL     1       2.613  13.360  -6.545  1.00  0.00     0.036 C 
ATOM      5  C   UNL     1       3.779  13.044  -7.502  1.00  0.00     0.025 C 
ATOM      6  C   UNL     1       3.869  14.115  -8.604  1.00  0.00     0.089 C 
ATOM      7  C   UNL     1       3.908  15.493  -8.002  1.00  0.00     0.158 C 
ATOM      8  O   UNL     1       4.450  16.430  -8.648  1.00  0.00    -0.295 OA
ENDROOT
BRANCH   5   9
ATOM      9  C   UNL     1       3.661  11.643  -8.088  1.00  0.00    -0.077 C 
ATOM     10  C   UNL     1       4.426  11.251  -9.121  1.00  0.00     0.008 C 
ATOM     11  C   UNL     1       2.669  10.665  -7.512  1.00  0.00     0.039 C 
ENDBRANCH   5   9
TORSDOF 1
ENDMDL
MODEL 3
REMARK VINA RESULT:    -4.856      2.002      4.651
REMARK INTER + INTRA:          -5.235
REMARK INTER:                  -5.139
REMARK INTRA:                  -0.096
REMARK UNBOUND:                -0.095
REMARK SMILES C=C(C)[C@@H]1CC=C(C)C(=O)C1
REMARK SMILES IDX 8 1 7 2 6 3 5 4 4 5 11 6 9 7 10 8 2 9 1 10 3 11
REMARK H PARENT
REMARK Flexibility Score: inf
ROOT
ATOM      1  C   UNL     1       4.227  11.116  -9.124  1.00  0.00     0.048 C 
ATOM      2  C   UNL     1       4.094  12.231  -8.123  1.00  0.00    -0.012 C 
ATOM      3  C   UNL     1       3.023  12.278  -7.313  1.00  0.00    -0.019 C 
ATOM      4  C   UNL     1       2.849  13.361  -6.281  1.00  0.00     0.036 C 
ATOM      5  C   UNL     1       3.465  14.689  -6.762  1.00  0.00     0.025 C 
ATOM      6  C   UNL     1       4.941  14.483  -7.149  1.00  0.00     0.089 C 
ATOM      7  C   UNL     1       5.080  13.340  -8.117  1.00  0.00     0.158 C 
ATOM      8  O   UNL     1       6.066  13.317  -8.902  1.00  0.00    -0.295 OA
ENDROOT
BRANCH   5   9
ATOM      9  C   UNL     1       3.305  15.791  -5.723  1.00  0.00    -0.077 C 
ATOM     10  C   UNL     1       3.046  15.506  -4.435  1.00  0.00     0.008 C 
ATOM     11  C   UNL     1       3.434  17.236  -6.130  1.00  0.00     0.039 C 
ENDBRANCH   5   9
TORSDOF 1
ENDMDL
MODEL 4
REMARK VINA RESULT:    -4.519      1.459      1.987
REMARK INTER + INTRA:          -4.878
REMARK INTER:                  -4.787
REMARK INTRA:                  -0.091
REMARK UNBOUND:                -0.095
REMARK SMILES C=C(C)[C@@H]1CC=C(C)C(=O)C1
REMARK SMILES IDX 8 1 7 2 6 3 5 4 4 5 11 6 9 7 10 8 2 9 1 10 3 11
REMARK H PARENT
REMARK Flexibility Score: inf
ROOT
ATOM      1  C   UNL     1       1.686  16.147  -5.158  1.00  0.00     0.048 C 
ATOM      2  C   UNL     1       2.559  15.400  -6.129  1.00  0.00    -0.012 C 
ATOM      3  C   UNL     1       1.998  14.624  -7.073  1.00  0.00    -0.019 C 
ATOM      4  C   UNL     1       2.824  13.870  -8.081  1.00  0.00     0.036 C 
ATOM      5  C   UNL     1       4.173  13.432  -7.477  1.00  0.00     0.025 C 
ATOM      6  C   UNL     1       4.920  14.650  -6.904  1.00  0.00     0.089 C 
ATOM      7  C   UNL     1       4.034  15.423  -5.966  1.00  0.00     0.158 C 
ATOM      8  O   UNL     1       4.561  16.121  -5.058  1.00  0.00    -0.295 OA
ENDROOT
BRANCH   5   9
ATOM      9  C   UNL     1       5.023  12.677  -8.489  1.00  0.00    -0.077 C 
ATOM     10  C   UNL     1       4.710  11.427  -8.872  1.00  0.00     0.008 C 
ATOM     11  C   UNL     1       6.246  13.327  -9.082  1.00  0.00     0.039 C 
ENDBRANCH   5   9
TORSDOF 1
ENDMDL
MODEL 5
REMARK VINA RESULT:    -3.910      1.760      4.409
REMARK INTER + INTRA:          -4.234
REMARK INTER:                  -4.137
REMARK INTRA:                  -0.097
REMARK UNBOUND:                -0.095
REMARK SMILES C=C(C)[C@@H]1CC=C(C)C(=O)C1
REMARK SMILES IDX 8 1 7 2 6 3 5 4 4 5 11 6 9 7 10 8 2 9 1 10 3 11
REMARK H PARENT
REMARK Flexibility Score: inf
ROOT
ATOM      1  C   UNL     1       4.524  11.371  -9.125  1.00  0.00     0.048 C 
ATOM      2  C   UNL     1       3.965  12.587  -8.437  1.00  0.00    -0.012 C 
ATOM      3  C   UNL     1       4.382  13.812  -8.800  1.00  0.00    -0.019 C 
ATOM      4  C   UNL     1       3.842  15.062  -8.157  1.00  0.00     0.036 C 
ATOM      5  C   UNL     1       3.487  14.816  -6.678  1.00  0.00     0.025 C 
ATOM      6  C   UNL     1       2.514  13.629  -6.553  1.00  0.00     0.089 C 
ATOM      7  C   UNL     1       3.051  12.426  -7.278  1.00  0.00     0.158 C 
ATOM      8  O   UNL     1       2.688  11.276  -6.912  1.00  0.00    -0.295 OA
ENDROOT
BRANCH   5   9
ATOM      9  C   UNL     1       2.930  16.070  -6.017  1.00  0.00    -0.077 C 
ATOM     10  C   UNL     1       1.762  16.051  -5.352  1.00  0.00     0.008 C 
ATOM     11  C   UNL     1       3.689  17.369  -6.103  1.00  0.00     0.039 C 
ENDBRANCH   5   9
TORSDOF 1
ENDMDL
MODEL 6
REMARK VINA RESULT:    -2.658      1.289      4.461
REMARK INTER + INTRA:          -2.908
REMARK INTER:                  -2.819
REMARK INTRA:                  -0.089
REMARK UNBOUND:                -0.095
REMARK SMILES C=C(C)[C@@H]1CC=C(C)C(=O)C1
REMARK SMILES IDX 8 1 7 2 6 3 5 4 4 5 11 6 9 7 10 8 2 9 1 10 3 11
REMARK H PARENT
REMARK Flexibility Score: inf
ROOT
ATOM      1  C   UNL     1       4.904  12.405  -7.392  1.00  0.00     0.048 C 
ATOM      2  C   UNL     1       4.339  13.762  -7.069  1.00  0.00    -0.012 C 
ATOM      3  C   UNL     1       4.470  14.768  -7.950  1.00  0.00    -0.019 C 
ATOM      4  C   UNL     1       3.908  16.140  -7.685  1.00  0.00     0.036 C 
ATOM      5  C   UNL     1       3.944  16.472  -6.181  1.00  0.00     0.025 C 
ATOM      6  C   UNL     1       3.218  15.379  -5.375  1.00  0.00     0.089 C 
ATOM      7  C   UNL     1       3.752  14.018  -5.730  1.00  0.00     0.158 C 
ATOM      8  O   UNL     1       3.662  13.084  -4.888  1.00  0.00    -0.295 OA
ENDROOT
BRANCH   5   9
ATOM      9  C   UNL     1       3.369  17.853  -5.897  1.00  0.00    -0.077 C 
ATOM     10  C   UNL     1       4.164  18.930  -5.769  1.00  0.00     0.008 C 
ATOM     11  C   UNL     1       1.880  18.036  -5.750  1.00  0.00     0.039 C 
ENDBRANCH   5   9
TORSDOF 1
ENDMDL
MODEL 7
REMARK VINA RESULT:    -2.557      1.571      2.720
REMARK INTER + INTRA:          -2.801
REMARK INTER:                  -2.707
REMARK INTRA:                  -0.094
REMARK UNBOUND:                -0.095
REMARK SMILES C=C(C)[C@@H]1CC=C(C)C(=O)C1
REMARK SMILES IDX 8 1 7 2 6 3 5 4 4 5 11 6 9 7 10 8 2 9 1 10 3 11
REMARK H PARENT
REMARK Flexibility Score: inf
ROOT
ATOM      1  C   UNL     1       3.681  15.511  -2.858  1.00  0.00     0.048 C 
ATOM      2  C   UNL     1       3.498  15.103  -4.295  1.00  0.00    -0.012 C 
ATOM      3  C   UNL     1       3.239  13.819  -4.598  1.00  0.00    -0.019 C 
ATOM      4  C   UNL     1       3.030  13.360  -6.017  1.00  0.00     0.036 C 
ATOM      5  C   UNL     1       3.881  14.189  -6.998  1.00  0.00     0.025 C 
ATOM      6  C   UNL     1       3.588  15.690  -6.822  1.00  0.00     0.089 C 
ATOM      7  C   UNL     1       3.728  16.091  -5.379  1.00  0.00     0.158 C 
ATOM      8  O   UNL     1       4.007  17.287  -5.097  1.00  0.00    -0.295 OA
ENDROOT
BRANCH   5   9
ATOM      9  C   UNL     1       3.671  13.742  -8.439  1.00  0.00    -0.077 C 
ATOM     10  C   UNL     1       2.568  14.087  -9.125  1.00  0.00     0.008 C 
ATOM     11  C   UNL     1       4.711  12.893  -9.125  1.00  0.00     0.039 C 
ENDBRANCH   5   9
TORSDOF 1
ENDMDL
