MODEL 1
REMARK VINA RESULT:    -6.554      0.000      0.000
REMARK INTER + INTRA:          -8.836
REMARK INTER:                  -8.279
REMARK INTRA:                  -0.558
REMARK UNBOUND:                -0.558
REMARK SMILES Oc1cc(O)cc(CCc2ccccc2O)c1
REMARK SMILES IDX 9 1 10 2 12 3 13 4 11 5 14 6 15 7 16 8 8 10 7 11 6 12 17 13
REMARK SMILES IDX 4 14 2 15 3 16 5 17 1 19
REMARK H PARENT 16 9 5 18 1 20
REMARK Flexibility Score: inf
ROOT
ATOM      1  C   UNL     1      -9.965  -5.616  -6.592  1.00  0.00     0.044 C 
ENDROOT
BRANCH   1   2
ATOM      2  C   UNL     1     -10.491  -5.066  -7.894  1.00  0.00    -0.006 A 
ATOM      3  C   UNL     1     -11.120  -5.426 -10.215  1.00  0.00     0.001 A 
ATOM      4  C   UNL     1     -11.530  -4.096 -10.317  1.00  0.00     0.004 A 
ATOM      5  C   UNL     1     -10.607  -5.912  -9.010  1.00  0.00     0.007 A 
ATOM      6  C   UNL     1     -11.432  -3.248  -9.210  1.00  0.00     0.046 A 
ATOM      7  C   UNL     1     -10.920  -3.727  -7.996  1.00  0.00     0.118 A 
BRANCH   7   8
ATOM      8  O   UNL     1     -10.839  -2.879  -6.891  1.00  0.00    -0.508 OA
ATOM      9  H   UNL     1     -11.479  -2.962  -6.109  1.00  0.00     0.293 HD
ENDBRANCH   7   8
ENDBRANCH   1   2
BRANCH   1  10
ATOM     10  C   UNL     1     -11.043  -6.442  -5.883  1.00  0.00     0.040 C 
BRANCH  10  11
ATOM     11  C   UNL     1     -10.570  -7.856  -5.671  1.00  0.00    -0.040 A 
ATOM     12  C   UNL     1      -9.280  -8.104  -5.175  1.00  0.00     0.050 A 
ATOM     13  C   UNL     1     -11.436  -8.935  -5.911  1.00  0.00     0.050 A 
ATOM     14  C   UNL     1      -8.851  -9.416  -4.946  1.00  0.00     0.119 A 
ATOM     15  C   UNL     1     -11.009 -10.250  -5.681  1.00  0.00     0.119 A 
ATOM     16  C   UNL     1      -9.717 -10.488  -5.202  1.00  0.00     0.092 A 
BRANCH  14  17
ATOM     17  O   UNL     1      -7.564  -9.644  -4.462  1.00  0.00    -0.508 OA
ATOM     18  H   UNL     1      -7.157  -9.053  -3.745  1.00  0.00     0.293 HD
ENDBRANCH  14  17
BRANCH  15  19
ATOM     19  O   UNL     1     -11.861 -11.326  -5.924  1.00  0.00    -0.508 OA
ATOM     20  H   UNL     1     -12.013 -12.047  -5.229  1.00  0.00     0.293 HD
ENDBRANCH  15  19
ENDBRANCH  10  11
ENDBRANCH   1  10
TORSDOF 6
ENDMDL
MODEL 2
REMARK VINA RESULT:    -6.550      0.064      2.036
REMARK INTER + INTRA:          -8.830
REMARK INTER:                  -8.278
REMARK INTRA:                  -0.552
REMARK UNBOUND:                -0.558
REMARK SMILES Oc1cc(O)cc(CCc2ccccc2O)c1
REMARK SMILES IDX 9 1 10 2 12 3 13 4 11 5 14 6 15 7 16 8 8 10 7 11 6 12 17 13
REMARK SMILES IDX 4 14 2 15 3 16 5 17 1 19
REMARK H PARENT 16 9 5 18 1 20
REMARK Flexibility Score: inf
ROOT
ATOM      1  C   UNL     1      -9.910  -5.636  -6.671  1.00  0.00     0.044 C 
ENDROOT
BRANCH   1   2
ATOM      2  C   UNL     1     -10.451  -5.084  -7.966  1.00  0.00    -0.006 A 
ATOM      3  C   UNL     1     -11.107  -5.439 -10.280  1.00  0.00     0.001 A 
ATOM      4  C   UNL     1     -11.520  -4.109 -10.374  1.00  0.00     0.004 A 
ATOM      5  C   UNL     1     -10.580  -5.927  -9.082  1.00  0.00     0.007 A 
ATOM      6  C   UNL     1     -11.411  -3.264  -9.267  1.00  0.00     0.046 A 
ATOM      7  C   UNL     1     -10.884  -3.745  -8.059  1.00  0.00     0.118 A 
BRANCH   7   8
ATOM      8  O   UNL     1     -10.792  -2.899  -6.953  1.00  0.00    -0.508 OA
ATOM      9  H   UNL     1     -10.240  -2.050  -6.979  1.00  0.00     0.293 HD
ENDBRANCH   7   8
ENDBRANCH   1   2
BRANCH   1  10
ATOM     10  C   UNL     1     -11.002  -6.398  -5.913  1.00  0.00     0.040 C 
BRANCH  10  11
ATOM     11  C   UNL     1     -10.566  -7.812  -5.640  1.00  0.00    -0.040 A 
ATOM     12  C   UNL     1     -11.430  -8.885  -5.915  1.00  0.00     0.050 A 
ATOM     13  C   UNL     1      -9.272  -8.074  -5.162  1.00  0.00     0.050 A 
ATOM     14  C   UNL     1     -11.014 -10.203  -5.693  1.00  0.00     0.119 A 
ATOM     15  C   UNL     1      -8.854  -9.393  -4.939  1.00  0.00     0.119 A 
ATOM     16  C   UNL     1      -9.726 -10.454  -5.202  1.00  0.00     0.092 A 
BRANCH  14  17
ATOM     17  O   UNL     1     -11.888 -11.253  -5.964  1.00  0.00    -0.508 OA
ATOM     18  H   UNL     1     -11.753 -12.172  -5.559  1.00  0.00     0.293 HD
ENDBRANCH  14  17
BRANCH  15  19
ATOM     19  O   UNL     1      -7.573  -9.660  -4.458  1.00  0.00    -0.508 OA
ATOM     20  H   UNL     1      -6.941 -10.280  -4.951  1.00  0.00     0.293 HD
ENDBRANCH  15  19
ENDBRANCH  10  11
ENDBRANCH   1  10
TORSDOF 6
ENDMDL
MODEL 3
REMARK VINA RESULT:    -6.308      1.270      2.667
REMARK INTER + INTRA:          -8.526
REMARK INTER:                  -7.989
REMARK INTRA:                  -0.536
REMARK UNBOUND:                -0.558
REMARK SMILES Oc1cc(O)cc(CCc2ccccc2O)c1
REMARK SMILES IDX 9 1 10 2 12 3 13 4 11 5 14 6 15 7 16 8 8 10 7 11 6 12 17 13
REMARK SMILES IDX 4 14 2 15 3 16 5 17 1 19
REMARK H PARENT 16 9 5 18 1 20
REMARK Flexibility Score: inf
ROOT
ATOM      1  C   UNL     1     -10.756  -6.972  -5.526  1.00  0.00     0.044 C 
ENDROOT
BRANCH   1   2
ATOM      2  C   UNL     1     -10.755  -5.910  -6.597  1.00  0.00    -0.006 A 
ATOM      3  C   UNL     1     -10.573  -5.308  -8.946  1.00  0.00     0.001 A 
ATOM      4  C   UNL     1     -10.815  -3.971  -8.628  1.00  0.00     0.004 A 
ATOM      5  C   UNL     1     -10.547  -6.275  -7.938  1.00  0.00     0.007 A 
ATOM      6  C   UNL     1     -11.037  -3.597  -7.300  1.00  0.00     0.046 A 
ATOM      7  C   UNL     1     -11.015  -4.561  -6.281  1.00  0.00     0.118 A 
BRANCH   7   8
ATOM      8  O   UNL     1     -11.253  -4.182  -4.959  1.00  0.00    -0.508 OA
ATOM      9  H   UNL     1     -10.624  -4.447  -4.210  1.00  0.00     0.293 HD
ENDBRANCH   7   8
ENDBRANCH   1   2
BRANCH   1  10
ATOM     10  C   UNL     1      -9.326  -7.287  -5.080  1.00  0.00     0.040 C 
BRANCH  10  11
ATOM     11  C   UNL     1      -9.056  -8.765  -5.176  1.00  0.00    -0.040 A 
ATOM     12  C   UNL     1     -10.117  -9.668  -5.350  1.00  0.00     0.050 A 
ATOM     13  C   UNL     1      -7.737  -9.246  -5.152  1.00  0.00     0.050 A 
ATOM     14  C   UNL     1      -9.865 -11.040  -5.473  1.00  0.00     0.119 A 
ATOM     15  C   UNL     1      -7.483 -10.619  -5.276  1.00  0.00     0.119 A 
ATOM     16  C   UNL     1      -8.547 -11.513  -5.434  1.00  0.00     0.092 A 
BRANCH  14  17
ATOM     17  O   UNL     1     -10.931 -11.922  -5.637  1.00  0.00    -0.508 OA
ATOM     18  H   UNL     1     -11.862 -11.695  -5.305  1.00  0.00     0.293 HD
ENDBRANCH  14  17
BRANCH  15  19
ATOM     19  O   UNL     1      -6.177 -11.105  -5.245  1.00  0.00    -0.508 OA
ATOM     20  H   UNL     1      -5.977 -12.094  -5.339  1.00  0.00     0.293 HD
ENDBRANCH  15  19
ENDBRANCH  10  11
ENDBRANCH   1  10
TORSDOF 6
ENDMDL
MODEL 4
REMARK VINA RESULT:    -6.287      1.664      6.421
REMARK INTER + INTRA:          -8.498
REMARK INTER:                  -8.006
REMARK INTRA:                  -0.492
REMARK UNBOUND:                -0.558
REMARK SMILES Oc1cc(O)cc(CCc2ccccc2O)c1
REMARK SMILES IDX 9 1 10 2 12 3 13 4 11 5 14 6 15 7 16 8 8 10 7 11 6 12 17 13
REMARK SMILES IDX 4 14 2 15 3 16 5 17 1 19
REMARK H PARENT 16 9 5 18 1 20
REMARK Flexibility Score: inf
ROOT
ATOM      1  C   UNL     1      -9.778  -7.913  -5.229  1.00  0.00     0.044 C 
ENDROOT
BRANCH   1   2
ATOM      2  C   UNL     1      -9.700  -9.409  -5.406  1.00  0.00    -0.006 A 
ATOM      3  C   UNL     1     -10.776 -11.502  -6.017  1.00  0.00     0.001 A 
ATOM      4  C   UNL     1      -9.576 -12.185  -5.814  1.00  0.00     0.004 A 
ATOM      5  C   UNL     1     -10.839 -10.121  -5.819  1.00  0.00     0.007 A 
ATOM      6  C   UNL     1      -8.432 -11.486  -5.418  1.00  0.00     0.046 A 
ATOM      7  C   UNL     1      -8.485 -10.099  -5.218  1.00  0.00     0.118 A 
BRANCH   7   8
ATOM      8  O   UNL     1      -7.336  -9.406  -4.836  1.00  0.00    -0.508 OA
ATOM      9  H   UNL     1      -7.316  -8.829  -4.004  1.00  0.00     0.293 HD
ENDBRANCH   7   8
ENDBRANCH   1   2
BRANCH   1  10
ATOM     10  C   UNL     1     -11.187  -7.406  -5.551  1.00  0.00     0.040 C 
BRANCH  10  11
ATOM     11  C   UNL     1     -11.120  -6.150  -6.379  1.00  0.00    -0.040 A 
ATOM     12  C   UNL     1     -11.542  -4.924  -5.840  1.00  0.00     0.050 A 
ATOM     13  C   UNL     1     -10.581  -6.185  -7.675  1.00  0.00     0.050 A 
ATOM     14  C   UNL     1     -11.450  -3.750  -6.597  1.00  0.00     0.119 A 
ATOM     15  C   UNL     1     -10.487  -5.010  -8.434  1.00  0.00     0.119 A 
ATOM     16  C   UNL     1     -10.924  -3.797  -7.894  1.00  0.00     0.092 A 
BRANCH  14  17
ATOM     17  O   UNL     1     -11.881  -2.544  -6.048  1.00  0.00    -0.508 OA
ATOM     18  H   UNL     1     -12.671  -2.503  -5.415  1.00  0.00     0.293 HD
ENDBRANCH  14  17
BRANCH  15  19
ATOM     19  O   UNL     1      -9.959  -5.039  -9.724  1.00  0.00    -0.508 OA
ATOM     20  H   UNL     1      -9.004  -4.759  -9.911  1.00  0.00     0.293 HD
ENDBRANCH  15  19
ENDBRANCH  10  11
ENDBRANCH   1  10
TORSDOF 6
ENDMDL
MODEL 5
REMARK VINA RESULT:    -6.263      1.265      1.756
REMARK INTER + INTRA:          -8.468
REMARK INTER:                  -7.925
REMARK INTRA:                  -0.544
REMARK UNBOUND:                -0.558
REMARK SMILES Oc1cc(O)cc(CCc2ccccc2O)c1
REMARK SMILES IDX 9 1 10 2 12 3 13 4 11 5 14 6 15 7 16 8 8 10 7 11 6 12 17 13
REMARK SMILES IDX 4 14 2 15 3 16 5 17 1 19
REMARK H PARENT 16 9 5 18 1 20
REMARK Flexibility Score: inf
ROOT
ATOM      1  C   UNL     1     -10.701  -6.900  -5.478  1.00  0.00     0.044 C 
ENDROOT
BRANCH   1   2
ATOM      2  C   UNL     1     -10.735  -5.872  -6.582  1.00  0.00    -0.006 A 
ATOM      3  C   UNL     1     -10.549  -5.333  -8.945  1.00  0.00     0.001 A 
ATOM      4  C   UNL     1     -10.858  -4.000  -8.672  1.00  0.00     0.004 A 
ATOM      5  C   UNL     1     -10.491  -6.267  -7.908  1.00  0.00     0.007 A 
ATOM      6  C   UNL     1     -11.116  -3.597  -7.359  1.00  0.00     0.046 A 
ATOM      7  C   UNL     1     -11.063  -4.528  -6.311  1.00  0.00     0.118 A 
BRANCH   7   8
ATOM      8  O   UNL     1     -11.336  -4.122  -5.004  1.00  0.00    -0.508 OA
ATOM      9  H   UNL     1     -11.116  -3.187  -4.682  1.00  0.00     0.293 HD
ENDBRANCH   7   8
ENDBRANCH   1   2
BRANCH   1  10
ATOM     10  C   UNL     1      -9.256  -7.255  -5.118  1.00  0.00     0.040 C 
BRANCH  10  11
ATOM     11  C   UNL     1      -9.028  -8.737  -5.246  1.00  0.00    -0.040 A 
ATOM     12  C   UNL     1      -7.724  -9.258  -5.221  1.00  0.00     0.050 A 
ATOM     13  C   UNL     1     -10.120  -9.616  -5.331  1.00  0.00     0.050 A 
ATOM     14  C   UNL     1      -7.513 -10.639  -5.306  1.00  0.00     0.119 A 
ATOM     15  C   UNL     1      -9.910 -11.000  -5.415  1.00  0.00     0.119 A 
ATOM     16  C   UNL     1      -8.608 -11.507  -5.405  1.00  0.00     0.092 A 
BRANCH  14  17
ATOM     17  O   UNL     1      -6.211 -11.136  -5.289  1.00  0.00    -0.508 OA
ATOM     18  H   UNL     1      -5.433 -10.570  -4.972  1.00  0.00     0.293 HD
ENDBRANCH  14  17
BRANCH  15  19
ATOM     19  O   UNL     1     -10.989 -11.877  -5.507  1.00  0.00    -0.508 OA
ATOM     20  H   UNL     1     -10.963 -12.687  -6.115  1.00  0.00     0.293 HD
ENDBRANCH  15  19
ENDBRANCH  10  11
ENDBRANCH   1  10
TORSDOF 6
ENDMDL
MODEL 6
REMARK VINA RESULT:    -6.258      1.662      6.438
REMARK INTER + INTRA:          -8.462
REMARK INTER:                  -7.981
REMARK INTRA:                  -0.481
REMARK UNBOUND:                -0.558
REMARK SMILES Oc1cc(O)cc(CCc2ccccc2O)c1
REMARK SMILES IDX 9 1 10 2 12 3 13 4 11 5 14 6 15 7 16 8 8 10 7 11 6 12 17 13
REMARK SMILES IDX 4 14 2 15 3 16 5 17 1 19
REMARK H PARENT 16 9 5 18 1 20
REMARK Flexibility Score: inf
ROOT
ATOM      1  C   UNL     1      -9.850  -7.954  -5.178  1.00  0.00     0.044 C 
ENDROOT
BRANCH   1   2
ATOM      2  C   UNL     1      -9.720  -9.442  -5.394  1.00  0.00    -0.006 A 
ATOM      3  C   UNL     1     -10.722 -11.555  -6.058  1.00  0.00     0.001 A 
ATOM      4  C   UNL     1      -9.498 -12.200  -5.873  1.00  0.00     0.004 A 
ATOM      5  C   UNL     1     -10.833 -10.182  -5.825  1.00  0.00     0.007 A 
ATOM      6  C   UNL     1      -8.380 -11.472  -5.458  1.00  0.00     0.046 A 
ATOM      7  C   UNL     1      -8.482 -10.093  -5.223  1.00  0.00     0.118 A 
BRANCH   7   8
ATOM      8  O   UNL     1      -7.357  -9.371  -4.823  1.00  0.00    -0.508 OA
ATOM      9  H   UNL     1      -7.197  -9.133  -3.851  1.00  0.00     0.293 HD
ENDBRANCH   7   8
ENDBRANCH   1   2
BRANCH   1  10
ATOM     10  C   UNL     1     -11.229  -7.464  -5.628  1.00  0.00     0.040 C 
BRANCH  10  11
ATOM     11  C   UNL     1     -11.106  -6.183  -6.409  1.00  0.00    -0.040 A 
ATOM     12  C   UNL     1     -10.593  -6.198  -7.716  1.00  0.00     0.050 A 
ATOM     13  C   UNL     1     -11.557  -4.973  -5.858  1.00  0.00     0.050 A 
ATOM     14  C   UNL     1     -10.509  -5.013  -8.456  1.00  0.00     0.119 A 
ATOM     15  C   UNL     1     -11.474  -3.785  -6.598  1.00  0.00     0.119 A 
ATOM     16  C   UNL     1     -10.948  -3.807  -7.893  1.00  0.00     0.092 A 
BRANCH  14  17
ATOM     17  O   UNL     1      -9.990  -5.045  -9.748  1.00  0.00    -0.508 OA
ATOM     18  H   UNL     1      -9.007  -4.877  -9.928  1.00  0.00     0.293 HD
ENDBRANCH  14  17
BRANCH  15  19
ATOM     19  O   UNL     1     -11.913  -2.579  -6.054  1.00  0.00    -0.508 OA
ATOM     20  H   UNL     1     -12.471  -1.927  -6.594  1.00  0.00     0.293 HD
ENDBRANCH  15  19
ENDBRANCH  10  11
ENDBRANCH   1  10
TORSDOF 6
ENDMDL
MODEL 7
REMARK VINA RESULT:    -6.180      1.553      6.527
REMARK INTER + INTRA:          -8.364
REMARK INTER:                  -7.869
REMARK INTRA:                  -0.495
REMARK UNBOUND:                -0.558
REMARK SMILES Oc1cc(O)cc(CCc2ccccc2O)c1
REMARK SMILES IDX 9 1 10 2 12 3 13 4 11 5 14 6 15 7 16 8 8 10 7 11 6 12 17 13
REMARK SMILES IDX 4 14 2 15 3 16 5 17 1 19
REMARK H PARENT 16 9 5 18 1 20
REMARK Flexibility Score: inf
ROOT
ATOM      1  C   UNL     1     -10.387  -8.168  -5.295  1.00  0.00     0.044 C 
ENDROOT
BRANCH   1   2
ATOM      2  C   UNL     1      -9.429  -9.331  -5.371  1.00  0.00    -0.006 A 
ATOM      3  C   UNL     1      -7.172 -10.203  -5.128  1.00  0.00     0.001 A 
ATOM      4  C   UNL     1      -7.628 -11.486  -5.435  1.00  0.00     0.004 A 
ATOM      5  C   UNL     1      -8.067  -9.131  -5.091  1.00  0.00     0.007 A 
ATOM      6  C   UNL     1      -8.983 -11.701  -5.701  1.00  0.00     0.046 A 
ATOM      7  C   UNL     1      -9.889 -10.631  -5.665  1.00  0.00     0.118 A 
BRANCH   7   8
ATOM      8  O   UNL     1     -11.243 -10.856  -5.918  1.00  0.00    -0.508 OA
ATOM      9  H   UNL     1     -11.961 -10.243  -5.550  1.00  0.00     0.293 HD
ENDBRANCH   7   8
ENDBRANCH   1   2
BRANCH   1  10
ATOM     10  C   UNL     1      -9.621  -6.852  -5.133  1.00  0.00     0.040 C 
BRANCH  10  11
ATOM     11  C   UNL     1     -10.121  -5.826  -6.114  1.00  0.00    -0.040 A 
ATOM     12  C   UNL     1      -9.850  -5.967  -7.485  1.00  0.00     0.050 A 
ATOM     13  C   UNL     1     -10.911  -4.751  -5.674  1.00  0.00     0.050 A 
ATOM     14  C   UNL     1     -10.342  -5.032  -8.403  1.00  0.00     0.119 A 
ATOM     15  C   UNL     1     -11.405  -3.814  -6.592  1.00  0.00     0.119 A 
ATOM     16  C   UNL     1     -11.118  -3.955  -7.953  1.00  0.00     0.092 A 
BRANCH  14  17
ATOM     17  O   UNL     1     -10.057  -5.184  -9.758  1.00  0.00    -0.508 OA
ATOM     18  H   UNL     1     -10.304  -4.471 -10.434  1.00  0.00     0.293 HD
ENDBRANCH  14  17
BRANCH  15  19
ATOM     19  O   UNL     1     -12.184  -2.742  -6.161  1.00  0.00    -0.508 OA
ATOM     20  H   UNL     1     -12.908  -2.861  -5.463  1.00  0.00     0.293 HD
ENDBRANCH  15  19
ENDBRANCH  10  11
ENDBRANCH   1  10
TORSDOF 6
ENDMDL
MODEL 8
REMARK VINA RESULT:    -6.026      1.865      6.344
REMARK INTER + INTRA:          -8.169
REMARK INTER:                  -7.658
REMARK INTRA:                  -0.511
REMARK UNBOUND:                -0.558
REMARK SMILES Oc1cc(O)cc(CCc2ccccc2O)c1
REMARK SMILES IDX 9 1 10 2 12 3 13 4 11 5 14 6 15 7 16 8 8 10 7 11 6 12 17 13
REMARK SMILES IDX 4 14 2 15 3 16 5 17 1 19
REMARK H PARENT 16 9 5 18 1 20
REMARK Flexibility Score: inf
ROOT
ATOM      1  C   UNL     1      -9.109  -7.587  -4.909  1.00  0.00     0.044 C 
ENDROOT
BRANCH   1   2
ATOM      2  C   UNL     1      -8.902  -9.057  -5.178  1.00  0.00    -0.006 A 
ATOM      3  C   UNL     1      -7.396 -10.956  -5.367  1.00  0.00     0.001 A 
ATOM      4  C   UNL     1      -8.482 -11.801  -5.604  1.00  0.00     0.004 A 
ATOM      5  C   UNL     1      -7.603  -9.592  -5.151  1.00  0.00     0.007 A 
ATOM      6  C   UNL     1      -9.779 -11.283  -5.619  1.00  0.00     0.046 A 
ATOM      7  C   UNL     1      -9.997  -9.915  -5.401  1.00  0.00     0.118 A 
BRANCH   7   8
ATOM      8  O   UNL     1     -11.297  -9.408  -5.403  1.00  0.00    -0.508 OA
ATOM      9  H   UNL     1     -12.081  -9.954  -5.063  1.00  0.00     0.293 HD
ENDBRANCH   7   8
ENDBRANCH   1   2
BRANCH   1  10
ATOM     10  C   UNL     1      -9.150  -6.801  -6.223  1.00  0.00     0.040 C 
BRANCH  10  11
ATOM     11  C   UNL     1     -10.333  -5.870  -6.245  1.00  0.00    -0.040 A 
ATOM     12  C   UNL     1     -11.211  -5.815  -5.150  1.00  0.00     0.050 A 
ATOM     13  C   UNL     1     -10.533  -5.006  -7.334  1.00  0.00     0.050 A 
ATOM     14  C   UNL     1     -12.292  -4.926  -5.155  1.00  0.00     0.119 A 
ATOM     15  C   UNL     1     -11.614  -4.114  -7.340  1.00  0.00     0.119 A 
ATOM     16  C   UNL     1     -12.492  -4.078  -6.252  1.00  0.00     0.092 A 
BRANCH  14  17
ATOM     17  O   UNL     1     -13.158  -4.892  -4.064  1.00  0.00    -0.508 OA
ATOM     18  H   UNL     1     -13.891  -4.196  -3.992  1.00  0.00     0.293 HD
ENDBRANCH  14  17
BRANCH  15  19
ATOM     19  O   UNL     1     -11.823  -3.259  -8.421  1.00  0.00    -0.508 OA
ATOM     20  H   UNL     1     -11.112  -3.118  -9.129  1.00  0.00     0.293 HD
ENDBRANCH  15  19
ENDBRANCH  10  11
ENDBRANCH   1  10
TORSDOF 6
ENDMDL
MODEL 9
REMARK VINA RESULT:    -5.949      7.073     11.006
REMARK INTER + INTRA:          -8.071
REMARK INTER:                  -7.555
REMARK INTRA:                  -0.516
REMARK UNBOUND:                -0.558
REMARK SMILES Oc1cc(O)cc(CCc2ccccc2O)c1
REMARK SMILES IDX 9 1 10 2 12 3 13 4 11 5 14 6 15 7 16 8 8 10 7 11 6 12 17 13
REMARK SMILES IDX 4 14 2 15 3 16 5 17 1 19
REMARK H PARENT 16 9 5 18 1 20
REMARK Flexibility Score: inf
ROOT
ATOM      1  C   UNL     1      -2.098 -12.805  -5.600  1.00  0.00     0.044 C 
ENDROOT
BRANCH   1   2
ATOM      2  C   UNL     1      -1.585 -13.238  -4.249  1.00  0.00    -0.006 A 
ATOM      3  C   UNL     1      -2.028 -14.125  -2.029  1.00  0.00     0.001 A 
ATOM      4  C   UNL     1      -0.661 -14.120  -1.748  1.00  0.00     0.004 A 
ATOM      5  C   UNL     1      -2.489 -13.691  -3.274  1.00  0.00     0.007 A 
ATOM      6  C   UNL     1       0.250 -13.685  -2.714  1.00  0.00     0.046 A 
ATOM      7  C   UNL     1      -0.203 -13.249  -3.968  1.00  0.00     0.118 A 
BRANCH   7   8
ATOM      8  O   UNL     1       0.713 -12.830  -4.933  1.00  0.00    -0.508 OA
ATOM      9  H   UNL     1       1.323 -13.487  -5.407  1.00  0.00     0.293 HD
ENDBRANCH   7   8
ENDBRANCH   1   2
BRANCH   1  10
ATOM     10  C   UNL     1      -2.799 -11.447  -5.498  1.00  0.00     0.040 C 
BRANCH  10  11
ATOM     11  C   UNL     1      -4.129 -11.485  -6.202  1.00  0.00    -0.040 A 
ATOM     12  C   UNL     1      -4.414 -12.507  -7.121  1.00  0.00     0.050 A 
ATOM     13  C   UNL     1      -5.116 -10.532  -5.901  1.00  0.00     0.050 A 
ATOM     14  C   UNL     1      -5.662 -12.563  -7.752  1.00  0.00     0.119 A 
ATOM     15  C   UNL     1      -6.367 -10.587  -6.531  1.00  0.00     0.119 A 
ATOM     16  C   UNL     1      -6.636 -11.600  -7.457  1.00  0.00     0.092 A 
BRANCH  14  17
ATOM     17  O   UNL     1      -5.925 -13.580  -8.667  1.00  0.00    -0.508 OA
ATOM     18  H   UNL     1      -5.323 -14.392  -8.743  1.00  0.00     0.293 HD
ENDBRANCH  14  17
BRANCH  15  19
ATOM     19  O   UNL     1      -7.348  -9.640  -6.243  1.00  0.00    -0.508 OA
ATOM     20  H   UNL     1      -7.108  -8.696  -5.965  1.00  0.00     0.293 HD
ENDBRANCH  15  19
ENDBRANCH  10  11
ENDBRANCH   1  10
TORSDOF 6
ENDMDL
