MODEL 1
REMARK VINA RESULT:    -2.983      0.000      0.000
REMARK INTER + INTRA:          -8.251
REMARK INTER:                  -5.773
REMARK INTRA:                  -2.478
REMARK UNBOUND:                -2.478
REMARK SMILES CCCCCCCCCCCCCCCCCC(=O)[O-]
REMARK SMILES IDX 10 1 11 2 12 3 13 4 14 5 15 6 16 7 17 8 18 9 19 10 20 11
REMARK SMILES IDX 9 12 8 13 7 14 6 15 5 16 4 17 3 18 2 19 1 20
REMARK H PARENT
REMARK Flexibility Score: inf
ROOT
ATOM      1  C   UNL     1       5.756  -2.614  -4.636  1.00  0.00     0.000 C 
ENDROOT
BRANCH   1   2
ATOM      2  C   UNL     1       7.259  -2.289  -4.600  1.00  0.00     0.000 C 
BRANCH   2   3
ATOM      3  C   UNL     1       7.804  -1.847  -5.970  1.00  0.00     0.000 C 
BRANCH   3   4
ATOM      4  C   UNL     1       7.967  -0.322  -6.079  1.00  0.00     0.000 C 
BRANCH   4   5
ATOM      5  C   UNL     1       7.037   0.298  -7.136  1.00  0.00     0.000 C 
BRANCH   5   6
ATOM      6  C   UNL     1       6.075   1.337  -6.538  1.00  0.00     0.000 C 
BRANCH   6   7
ATOM      7  C   UNL     1       4.605   0.888  -6.603  1.00  0.00     0.006 C 
BRANCH   7   8
ATOM      8  C   UNL     1       3.968   0.785  -5.210  1.00  0.00     0.053 C 
BRANCH   8   9
ATOM      9  C   UNL     1       2.837   1.753  -5.041  1.00  0.00     0.041 C 
ATOM     10  O   UNL     1       2.412   2.035  -3.889  1.00  0.00    -0.550 OA
ATOM     11  O   UNL     1       2.271   2.365  -6.154  1.00  0.00    -0.550 OA
ENDBRANCH   8   9
ENDBRANCH   7   8
ENDBRANCH   6   7
ENDBRANCH   5   6
ENDBRANCH   4   5
ENDBRANCH   3   4
ENDBRANCH   2   3
ENDBRANCH   1   2
BRANCH   1  12
ATOM     12  C   UNL     1       5.305  -3.167  -5.998  1.00  0.00     0.000 C 
BRANCH  12  13
ATOM     13  C   UNL     1       3.873  -2.744  -6.373  1.00  0.00    -0.000 C 
BRANCH  13  14
ATOM     14  C   UNL     1       3.085  -3.776  -7.201  1.00  0.00    -0.000 C 
BRANCH  14  15
ATOM     15  C   UNL     1       2.986  -5.147  -6.510  1.00  0.00    -0.000 C 
BRANCH  15  16
ATOM     16  C   UNL     1       1.710  -5.296  -5.665  1.00  0.00    -0.000 C 
BRANCH  16  17
ATOM     17  C   UNL     1       2.003  -5.811  -4.244  1.00  0.00    -0.000 C 
BRANCH  17  18
ATOM     18  C   UNL     1       3.021  -4.935  -3.497  1.00  0.00    -0.000 C 
BRANCH  18  19
ATOM     19  C   UNL     1       4.076  -5.760  -2.744  1.00  0.00    -0.003 C 
ATOM     20  C   UNL     1       5.256  -6.099  -3.649  1.00  0.00     0.004 C 
ENDBRANCH  18  19
ENDBRANCH  17  18
ENDBRANCH  16  17
ENDBRANCH  15  16
ENDBRANCH  14  15
ENDBRANCH  13  14
ENDBRANCH  12  13
ENDBRANCH   1  12
TORSDOF 16
ENDMDL
MODEL 2
REMARK VINA RESULT:    -2.884     10.343     13.211
REMARK INTER + INTRA:          -8.059
REMARK INTER:                  -6.642
REMARK INTRA:                  -1.417
REMARK UNBOUND:                -2.478
REMARK SMILES CCCCCCCCCCCCCCCCCC(=O)[O-]
REMARK SMILES IDX 10 1 11 2 12 3 13 4 14 5 15 6 16 7 17 8 18 9 19 10 20 11
REMARK SMILES IDX 9 12 8 13 7 14 6 15 5 16 4 17 3 18 2 19 1 20
REMARK H PARENT
REMARK Flexibility Score: inf
ROOT
ATOM      1  C   UNL     1       3.400  -0.681   7.158  1.00  0.00     0.000 C 
ENDROOT
BRANCH   1   2
ATOM      2  C   UNL     1       1.890  -0.715   7.446  1.00  0.00     0.000 C 
BRANCH   2   3
ATOM      3  C   UNL     1       1.087   0.210   6.513  1.00  0.00     0.000 C 
BRANCH   3   4
ATOM      4  C   UNL     1       0.582  -0.512   5.254  1.00  0.00     0.000 C 
BRANCH   4   5
ATOM      5  C   UNL     1      -0.075  -1.866   5.572  1.00  0.00     0.000 C 
BRANCH   5   6
ATOM      6  C   UNL     1       0.380  -2.982   4.617  1.00  0.00     0.000 C 
BRANCH   6   7
ATOM      7  C   UNL     1      -0.797  -3.798   4.057  1.00  0.00     0.006 C 
BRANCH   7   8
ATOM      8  C   UNL     1      -2.155  -3.185   4.427  1.00  0.00     0.053 C 
BRANCH   8   9
ATOM      9  C   UNL     1      -3.242  -3.635   3.499  1.00  0.00     0.041 C 
ATOM     10  O   UNL     1      -3.103  -4.692   2.827  1.00  0.00    -0.550 OA
ATOM     11  O   UNL     1      -4.419  -2.904   3.397  1.00  0.00    -0.550 OA
ENDBRANCH   8   9
ENDBRANCH   7   8
ENDBRANCH   6   7
ENDBRANCH   5   6
ENDBRANCH   4   5
ENDBRANCH   3   4
ENDBRANCH   2   3
ENDBRANCH   1   2
BRANCH   1  12
ATOM     12  C   UNL     1       4.077   0.589   7.701  1.00  0.00     0.000 C 
BRANCH  12  13
ATOM     13  C   UNL     1       4.629   1.498   6.588  1.00  0.00    -0.000 C 
BRANCH  13  14
ATOM     14  C   UNL     1       4.531   3.008   6.873  1.00  0.00    -0.000 C 
BRANCH  14  15
ATOM     15  C   UNL     1       3.827   3.784   5.746  1.00  0.00    -0.000 C 
BRANCH  15  16
ATOM     16  C   UNL     1       2.940   2.885   4.869  1.00  0.00    -0.000 C 
BRANCH  16  17
ATOM     17  C   UNL     1       3.061   3.221   3.372  1.00  0.00    -0.000 C 
BRANCH  17  18
ATOM     18  C   UNL     1       3.297   4.719   3.121  1.00  0.00    -0.000 C 
BRANCH  18  19
ATOM     19  C   UNL     1       4.541   4.987   2.261  1.00  0.00    -0.003 C 
ATOM     20  C   UNL     1       5.573   5.809   3.028  1.00  0.00     0.004 C 
ENDBRANCH  18  19
ENDBRANCH  17  18
ENDBRANCH  16  17
ENDBRANCH  15  16
ENDBRANCH  14  15
ENDBRANCH  13  14
ENDBRANCH  12  13
ENDBRANCH   1  12
TORSDOF 16
ENDMDL
MODEL 3
REMARK VINA RESULT:    -2.871      9.726     11.967
REMARK INTER + INTRA:          -8.034
REMARK INTER:                  -6.681
REMARK INTRA:                  -1.354
REMARK UNBOUND:                -2.478
REMARK SMILES CCCCCCCCCCCCCCCCCC(=O)[O-]
REMARK SMILES IDX 10 1 11 2 12 3 13 4 14 5 15 6 16 7 17 8 18 9 19 10 20 11
REMARK SMILES IDX 9 12 8 13 7 14 6 15 5 16 4 17 3 18 2 19 1 20
REMARK H PARENT
REMARK Flexibility Score: inf
ROOT
ATOM      1  C   UNL     1       2.721   3.264   3.675  1.00  0.00     0.000 C 
ENDROOT
BRANCH   1   2
ATOM      2  C   UNL     1       3.821   4.050   2.942  1.00  0.00     0.000 C 
BRANCH   2   3
ATOM      3  C   UNL     1       4.448   5.150   3.818  1.00  0.00     0.000 C 
BRANCH   3   4
ATOM      4  C   UNL     1       4.755   6.432   3.027  1.00  0.00     0.000 C 
BRANCH   4   5
ATOM      5  C   UNL     1       4.245   6.370   1.577  1.00  0.00     0.000 C 
BRANCH   5   6
ATOM      6  C   UNL     1       5.112   7.194   0.611  1.00  0.00     0.000 C 
BRANCH   6   7
ATOM      7  C   UNL     1       5.768   6.329  -0.479  1.00  0.00     0.006 C 
BRANCH   7   8
ATOM      8  C   UNL     1       6.304   5.003   0.078  1.00  0.00     0.053 C 
BRANCH   8   9
ATOM      9  C   UNL     1       7.800   4.998   0.166  1.00  0.00     0.041 C 
ATOM     10  O   UNL     1       8.462   4.057  -0.347  1.00  0.00    -0.550 OA
ATOM     11  O   UNL     1       8.465   6.048   0.790  1.00  0.00    -0.550 OA
ENDBRANCH   8   9
ENDBRANCH   7   8
ENDBRANCH   6   7
ENDBRANCH   5   6
ENDBRANCH   4   5
ENDBRANCH   3   4
ENDBRANCH   2   3
ENDBRANCH   1   2
BRANCH   1  12
ATOM     12  C   UNL     1       2.399   3.850   5.060  1.00  0.00     0.000 C 
BRANCH  12  13
ATOM     13  C   UNL     1       0.995   4.478   5.134  1.00  0.00    -0.000 C 
BRANCH  13  14
ATOM     14  C   UNL     1       0.715   5.573   4.089  1.00  0.00    -0.000 C 
BRANCH  14  15
ATOM     15  C   UNL     1      -0.653   6.249   4.283  1.00  0.00    -0.000 C 
BRANCH  15  16
ATOM     16  C   UNL     1      -1.681   5.826   3.221  1.00  0.00    -0.000 C 
BRANCH  16  17
ATOM     17  C   UNL     1      -1.778   6.834   2.062  1.00  0.00    -0.000 C 
BRANCH  17  18
ATOM     18  C   UNL     1      -2.638   6.315   0.899  1.00  0.00    -0.000 C 
BRANCH  18  19
ATOM     19  C   UNL     1      -2.638   4.782   0.798  1.00  0.00    -0.003 C 
ATOM     20  C   UNL     1      -2.501   4.328  -0.652  1.00  0.00     0.004 C 
ENDBRANCH  18  19
ENDBRANCH  17  18
ENDBRANCH  16  17
ENDBRANCH  15  16
ENDBRANCH  14  15
ENDBRANCH  13  14
ENDBRANCH  12  13
ENDBRANCH   1  12
TORSDOF 16
ENDMDL
MODEL 4
REMARK VINA RESULT:    -2.869      9.240     10.886
REMARK INTER + INTRA:          -8.030
REMARK INTER:                  -7.304
REMARK INTRA:                  -0.726
REMARK UNBOUND:                -2.478
REMARK SMILES CCCCCCCCCCCCCCCCCC(=O)[O-]
REMARK SMILES IDX 10 1 11 2 12 3 13 4 14 5 15 6 16 7 17 8 18 9 19 10 20 11
REMARK SMILES IDX 9 12 8 13 7 14 6 15 5 16 4 17 3 18 2 19 1 20
REMARK H PARENT
REMARK Flexibility Score: inf
ROOT
ATOM      1  C   UNL     1       1.963   1.625   6.691  1.00  0.00     0.000 C 
ENDROOT
BRANCH   1   2
ATOM      2  C   UNL     1       2.864   2.403   5.716  1.00  0.00     0.000 C 
BRANCH   2   3
ATOM      3  C   UNL     1       2.060   3.196   4.670  1.00  0.00     0.000 C 
BRANCH   3   4
ATOM      4  C   UNL     1       2.763   3.256   3.304  1.00  0.00     0.000 C 
BRANCH   4   5
ATOM      5  C   UNL     1       4.051   4.097   3.339  1.00  0.00     0.000 C 
BRANCH   5   6
ATOM      6  C   UNL     1       4.137   5.091   2.169  1.00  0.00     0.000 C 
BRANCH   6   7
ATOM      7  C   UNL     1       5.574   5.573   1.907  1.00  0.00     0.006 C 
BRANCH   7   8
ATOM      8  C   UNL     1       6.100   5.110   0.541  1.00  0.00     0.053 C 
BRANCH   8   9
ATOM      9  C   UNL     1       7.595   5.015   0.522  1.00  0.00     0.041 C 
ATOM     10  O   UNL     1       8.284   5.704   1.321  1.00  0.00    -0.550 OA
ATOM     11  O   UNL     1       8.227   4.144  -0.358  1.00  0.00    -0.550 OA
ENDBRANCH   8   9
ENDBRANCH   7   8
ENDBRANCH   6   7
ENDBRANCH   5   6
ENDBRANCH   4   5
ENDBRANCH   3   4
ENDBRANCH   2   3
ENDBRANCH   1   2
BRANCH   1  12
ATOM     12  C   UNL     1       0.683   1.099   6.020  1.00  0.00     0.000 C 
BRANCH  12  13
ATOM     13  C   UNL     1       0.904  -0.220   5.258  1.00  0.00    -0.000 C 
BRANCH  13  14
ATOM     14  C   UNL     1       0.103  -1.422   5.791  1.00  0.00    -0.000 C 
BRANCH  14  15
ATOM     15  C   UNL     1       0.909  -2.732   5.777  1.00  0.00    -0.000 C 
BRANCH  15  16
ATOM     16  C   UNL     1       0.418  -3.721   4.708  1.00  0.00    -0.000 C 
BRANCH  16  17
ATOM     17  C   UNL     1      -0.850  -3.227   3.989  1.00  0.00    -0.000 C 
BRANCH  17  18
ATOM     18  C   UNL     1      -2.083  -4.087   4.309  1.00  0.00    -0.000 C 
BRANCH  18  19
ATOM     19  C   UNL     1      -3.228  -3.880   3.307  1.00  0.00    -0.003 C 
ATOM     20  C   UNL     1      -3.573  -5.182   2.590  1.00  0.00     0.004 C 
ENDBRANCH  18  19
ENDBRANCH  17  18
ENDBRANCH  16  17
ENDBRANCH  15  16
ENDBRANCH  14  15
ENDBRANCH  13  14
ENDBRANCH  12  13
ENDBRANCH   1  12
TORSDOF 16
ENDMDL
MODEL 5
REMARK VINA RESULT:    -2.847     10.531     12.687
REMARK INTER + INTRA:          -7.988
REMARK INTER:                  -6.429
REMARK INTRA:                  -1.559
REMARK UNBOUND:                -2.478
REMARK SMILES CCCCCCCCCCCCCCCCCC(=O)[O-]
REMARK SMILES IDX 10 1 11 2 12 3 13 4 14 5 15 6 16 7 17 8 18 9 19 10 20 11
REMARK SMILES IDX 9 12 8 13 7 14 6 15 5 16 4 17 3 18 2 19 1 20
REMARK H PARENT
REMARK Flexibility Score: inf
ROOT
ATOM      1  C   UNL     1       0.680   6.011   4.007  1.00  0.00     0.000 C 
ENDROOT
BRANCH   1   2
ATOM      2  C   UNL     1      -0.560   6.421   3.195  1.00  0.00     0.000 C 
BRANCH   2   3
ATOM      3  C   UNL     1      -1.876   5.966   3.852  1.00  0.00     0.000 C 
BRANCH   3   4
ATOM      4  C   UNL     1      -2.927   5.517   2.824  1.00  0.00     0.000 C 
BRANCH   4   5
ATOM      5  C   UNL     1      -2.488   5.785   1.374  1.00  0.00     0.000 C 
BRANCH   5   6
ATOM      6  C   UNL     1      -2.509   4.515   0.507  1.00  0.00     0.000 C 
BRANCH   6   7
ATOM      7  C   UNL     1      -2.488   4.827  -0.999  1.00  0.00     0.006 C 
BRANCH   7   8
ATOM      8  C   UNL     1      -3.613   5.787  -1.408  1.00  0.00     0.053 C 
BRANCH   8   9
ATOM      9  C   UNL     1      -4.027   5.587  -2.834  1.00  0.00     0.041 C 
ATOM     10  O   UNL     1      -4.863   4.692  -3.131  1.00  0.00    -0.550 OA
ATOM     11  O   UNL     1      -3.511   6.406  -3.832  1.00  0.00    -0.550 OA
ENDBRANCH   8   9
ENDBRANCH   7   8
ENDBRANCH   6   7
ENDBRANCH   5   6
ENDBRANCH   4   5
ENDBRANCH   3   4
ENDBRANCH   2   3
ENDBRANCH   1   2
BRANCH   1  12
ATOM     12  C   UNL     1       0.366   4.937   5.063  1.00  0.00     0.000 C 
BRANCH  12  13
ATOM     13  C   UNL     1       1.626   4.225   5.588  1.00  0.00    -0.000 C 
BRANCH  13  14
ATOM     14  C   UNL     1       1.877   2.825   4.998  1.00  0.00    -0.000 C 
BRANCH  14  15
ATOM     15  C   UNL     1       2.513   2.871   3.598  1.00  0.00    -0.000 C 
BRANCH  15  16
ATOM     16  C   UNL     1       3.864   3.604   3.583  1.00  0.00    -0.000 C 
BRANCH  16  17
ATOM     17  C   UNL     1       3.958   4.640   2.449  1.00  0.00    -0.000 C 
BRANCH  17  18
ATOM     18  C   UNL     1       4.756   5.889   2.854  1.00  0.00    -0.000 C 
BRANCH  18  19
ATOM     19  C   UNL     1       3.959   7.189   2.671  1.00  0.00    -0.003 C 
ATOM     20  C   UNL     1       3.195   7.183   1.350  1.00  0.00     0.004 C 
ENDBRANCH  18  19
ENDBRANCH  17  18
ENDBRANCH  16  17
ENDBRANCH  15  16
ENDBRANCH  14  15
ENDBRANCH  13  14
ENDBRANCH  12  13
ENDBRANCH   1  12
TORSDOF 16
ENDMDL
MODEL 6
REMARK VINA RESULT:    -2.832     10.934     13.292
REMARK INTER + INTRA:          -7.959
REMARK INTER:                  -5.043
REMARK INTRA:                  -2.916
REMARK UNBOUND:                -2.478
REMARK SMILES CCCCCCCCCCCCCCCCCC(=O)[O-]
REMARK SMILES IDX 10 1 11 2 12 3 13 4 14 5 15 6 16 7 17 8 18 9 19 10 20 11
REMARK SMILES IDX 9 12 8 13 7 14 6 15 5 16 4 17 3 18 2 19 1 20
REMARK H PARENT
REMARK Flexibility Score: inf
ROOT
ATOM      1  C   UNL     1      -2.596  -8.236   2.131  1.00  0.00     0.000 C 
ENDROOT
BRANCH   1   2
ATOM      2  C   UNL     1      -2.518  -7.834   0.648  1.00  0.00     0.000 C 
BRANCH   2   3
ATOM      3  C   UNL     1      -3.500  -6.704   0.288  1.00  0.00     0.000 C 
BRANCH   3   4
ATOM      4  C   UNL     1      -4.969  -7.112   0.484  1.00  0.00     0.000 C 
BRANCH   4   5
ATOM      5  C   UNL     1      -5.725  -6.165   1.431  1.00  0.00     0.000 C 
BRANCH   5   6
ATOM      6  C   UNL     1      -6.197  -6.867   2.715  1.00  0.00     0.000 C 
BRANCH   6   7
ATOM      7  C   UNL     1      -6.549  -5.876   3.837  1.00  0.00     0.006 C 
BRANCH   7   8
ATOM      8  C   UNL     1      -6.937  -4.495   3.289  1.00  0.00     0.053 C 
BRANCH   8   9
ATOM      9  C   UNL     1      -6.970  -3.456   4.369  1.00  0.00     0.041 C 
ATOM     10  O   UNL     1      -8.070  -2.978   4.753  1.00  0.00    -0.550 OA
ATOM     11  O   UNL     1      -5.789  -3.038   4.970  1.00  0.00    -0.550 OA
ENDBRANCH   8   9
ENDBRANCH   7   8
ENDBRANCH   6   7
ENDBRANCH   5   6
ENDBRANCH   4   5
ENDBRANCH   3   4
ENDBRANCH   2   3
ENDBRANCH   1   2
BRANCH   1  12
ATOM     12  C   UNL     1      -1.932  -7.204   3.058  1.00  0.00     0.000 C 
BRANCH  12  13
ATOM     13  C   UNL     1      -2.783  -6.876   4.298  1.00  0.00    -0.000 C 
BRANCH  13  14
ATOM     14  C   UNL     1      -2.939  -5.375   4.603  1.00  0.00    -0.000 C 
BRANCH  14  15
ATOM     15  C   UNL     1      -3.046  -4.515   3.331  1.00  0.00    -0.000 C 
BRANCH  15  16
ATOM     16  C   UNL     1      -2.162  -3.258   3.389  1.00  0.00    -0.000 C 
BRANCH  16  17
ATOM     17  C   UNL     1      -1.538  -3.042   4.778  1.00  0.00    -0.000 C 
BRANCH  17  18
ATOM     18  C   UNL     1      -0.003  -2.970   4.731  1.00  0.00    -0.000 C 
BRANCH  18  19
ATOM     19  C   UNL     1       0.613  -4.037   3.814  1.00  0.00    -0.003 C 
ATOM     20  C   UNL     1       0.970  -5.296   4.600  1.00  0.00     0.004 C 
ENDBRANCH  18  19
ENDBRANCH  17  18
ENDBRANCH  16  17
ENDBRANCH  15  16
ENDBRANCH  14  15
ENDBRANCH  13  14
ENDBRANCH  12  13
ENDBRANCH   1  12
TORSDOF 16
ENDMDL
MODEL 7
REMARK VINA RESULT:    -2.796     11.045     13.142
REMARK INTER + INTRA:          -7.889
REMARK INTER:                  -5.867
REMARK INTRA:                  -2.022
REMARK UNBOUND:                -2.478
REMARK SMILES CCCCCCCCCCCCCCCCCC(=O)[O-]
REMARK SMILES IDX 10 1 11 2 12 3 13 4 14 5 15 6 16 7 17 8 18 9 19 10 20 11
REMARK SMILES IDX 9 12 8 13 7 14 6 15 5 16 4 17 3 18 2 19 1 20
REMARK H PARENT
REMARK Flexibility Score: inf
ROOT
ATOM      1  C   UNL     1       2.435   7.125   3.097  1.00  0.00     0.000 C 
ENDROOT
BRANCH   1   2
ATOM      2  C   UNL     1       3.413   6.800   1.955  1.00  0.00     0.000 C 
BRANCH   2   3
ATOM      3  C   UNL     1       4.051   5.407   2.099  1.00  0.00     0.000 C 
BRANCH   3   4
ATOM      4  C   UNL     1       4.030   4.893   3.548  1.00  0.00     0.000 C 
BRANCH   4   5
ATOM      5  C   UNL     1       3.770   3.379   3.634  1.00  0.00     0.000 C 
BRANCH   5   6
ATOM      6  C   UNL     1       2.279   3.046   3.805  1.00  0.00     0.000 C 
BRANCH   6   7
ATOM      7  C   UNL     1       2.017   2.093   4.985  1.00  0.00     0.006 C 
BRANCH   7   8
ATOM      8  C   UNL     1       1.128   2.734   6.060  1.00  0.00     0.053 C 
BRANCH   8   9
ATOM      9  C   UNL     1       1.785   3.923   6.692  1.00  0.00     0.041 C 
ATOM     10  O   UNL     1       1.167   5.017   6.777  1.00  0.00    -0.550 OA
ATOM     11  O   UNL     1       3.069   3.815   7.212  1.00  0.00    -0.550 OA
ENDBRANCH   8   9
ENDBRANCH   7   8
ENDBRANCH   6   7
ENDBRANCH   5   6
ENDBRANCH   4   5
ENDBRANCH   3   4
ENDBRANCH   2   3
ENDBRANCH   1   2
BRANCH   1  12
ATOM     12  C   UNL     1       0.964   6.963   2.677  1.00  0.00     0.000 C 
BRANCH  12  13
ATOM     13  C   UNL     1       0.174   6.026   3.609  1.00  0.00    -0.000 C 
BRANCH  13  14
ATOM     14  C   UNL     1      -0.946   6.705   4.418  1.00  0.00    -0.000 C 
BRANCH  14  15
ATOM     15  C   UNL     1      -2.134   5.768   4.698  1.00  0.00    -0.000 C 
BRANCH  15  16
ATOM     16  C   UNL     1      -2.882   5.358   3.419  1.00  0.00    -0.000 C 
BRANCH  16  17
ATOM     17  C   UNL     1      -3.175   6.557   2.500  1.00  0.00    -0.000 C 
BRANCH  17  18
ATOM     18  C   UNL     1      -2.835   6.270   1.029  1.00  0.00    -0.000 C 
BRANCH  18  19
ATOM     19  C   UNL     1      -2.393   4.818   0.794  1.00  0.00    -0.003 C 
ATOM     20  C   UNL     1      -2.709   4.371  -0.630  1.00  0.00     0.004 C 
ENDBRANCH  18  19
ENDBRANCH  17  18
ENDBRANCH  16  17
ENDBRANCH  15  16
ENDBRANCH  14  15
ENDBRANCH  13  14
ENDBRANCH  12  13
ENDBRANCH   1  12
TORSDOF 16
ENDMDL
MODEL 8
REMARK VINA RESULT:    -2.788     10.687     12.212
REMARK INTER + INTRA:          -7.873
REMARK INTER:                  -5.927
REMARK INTRA:                  -1.947
REMARK UNBOUND:                -2.478
REMARK SMILES CCCCCCCCCCCCCCCCCC(=O)[O-]
REMARK SMILES IDX 10 1 11 2 12 3 13 4 14 5 15 6 16 7 17 8 18 9 19 10 20 11
REMARK SMILES IDX 9 12 8 13 7 14 6 15 5 16 4 17 3 18 2 19 1 20
REMARK H PARENT
REMARK Flexibility Score: inf
ROOT
ATOM      1  C   UNL     1       1.784   7.458   1.784  1.00  0.00     0.000 C 
ENDROOT
BRANCH   1   2
ATOM      2  C   UNL     1       3.220   7.282   2.306  1.00  0.00     0.000 C 
BRANCH   2   3
ATOM      3  C   UNL     1       4.147   6.609   1.278  1.00  0.00     0.000 C 
BRANCH   3   4
ATOM      4  C   UNL     1       4.779   5.312   1.809  1.00  0.00     0.000 C 
BRANCH   4   5
ATOM      5  C   UNL     1       4.254   4.926   3.202  1.00  0.00     0.000 C 
BRANCH   5   6
ATOM      6  C   UNL     1       3.423   3.633   3.182  1.00  0.00     0.000 C 
BRANCH   6   7
ATOM      7  C   UNL     1       2.410   3.564   4.338  1.00  0.00     0.006 C 
BRANCH   7   8
ATOM      8  C   UNL     1       1.281   4.593   4.182  1.00  0.00     0.053 C 
BRANCH   8   9
ATOM      9  C   UNL     1       1.133   5.448   5.403  1.00  0.00     0.041 C 
ATOM     10  O   UNL     1       0.499   5.019   6.404  1.00  0.00    -0.550 OA
ATOM     11  O   UNL     1       1.720   6.707   5.448  1.00  0.00    -0.550 OA
ENDBRANCH   8   9
ENDBRANCH   7   8
ENDBRANCH   6   7
ENDBRANCH   5   6
ENDBRANCH   4   5
ENDBRANCH   3   4
ENDBRANCH   2   3
ENDBRANCH   1   2
BRANCH   1  12
ATOM     12  C   UNL     1       1.741   7.830   0.292  1.00  0.00     0.000 C 
BRANCH  12  13
ATOM     13  C   UNL     1       0.335   7.692  -0.320  1.00  0.00    -0.000 C 
BRANCH  13  14
ATOM     14  C   UNL     1       0.307   7.469  -1.843  1.00  0.00    -0.000 C 
BRANCH  14  15
ATOM     15  C   UNL     1      -0.429   6.179  -2.245  1.00  0.00    -0.000 C 
BRANCH  15  16
ATOM     16  C   UNL     1      -1.958   6.331  -2.209  1.00  0.00    -0.000 C 
BRANCH  16  17
ATOM     17  C   UNL     1      -2.625   5.347  -1.232  1.00  0.00    -0.000 C 
BRANCH  17  18
ATOM     18  C   UNL     1      -2.903   5.977   0.142  1.00  0.00    -0.000 C 
BRANCH  18  19
ATOM     19  C   UNL     1      -2.391   5.115   1.306  1.00  0.00    -0.003 C 
ATOM     20  C   UNL     1      -1.829   5.984   2.427  1.00  0.00     0.004 C 
ENDBRANCH  18  19
ENDBRANCH  17  18
ENDBRANCH  16  17
ENDBRANCH  15  16
ENDBRANCH  14  15
ENDBRANCH  13  14
ENDBRANCH  12  13
ENDBRANCH   1  12
TORSDOF 16
ENDMDL
MODEL 9
REMARK VINA RESULT:    -2.772     10.384     12.449
REMARK INTER + INTRA:          -7.843
REMARK INTER:                  -5.565
REMARK INTRA:                  -2.278
REMARK UNBOUND:                -2.478
REMARK SMILES CCCCCCCCCCCCCCCCCC(=O)[O-]
REMARK SMILES IDX 10 1 11 2 12 3 13 4 14 5 15 6 16 7 17 8 18 9 19 10 20 11
REMARK SMILES IDX 9 12 8 13 7 14 6 15 5 16 4 17 3 18 2 19 1 20
REMARK H PARENT
REMARK Flexibility Score: inf
ROOT
ATOM      1  C   UNL     1       1.375   6.659   3.379  1.00  0.00     0.000 C 
ENDROOT
BRANCH   1   2
ATOM      2  C   UNL     1       0.532   5.552   4.035  1.00  0.00     0.000 C 
BRANCH   2   3
ATOM      3  C   UNL     1       1.395   4.470   4.709  1.00  0.00     0.000 C 
BRANCH   3   4
ATOM      4  C   UNL     1       2.382   3.808   3.734  1.00  0.00     0.000 C 
BRANCH   4   5
ATOM      5  C   UNL     1       3.841   3.907   4.211  1.00  0.00     0.000 C 
BRANCH   5   6
ATOM      6  C   UNL     1       4.626   5.011   3.485  1.00  0.00     0.000 C 
BRANCH   6   7
ATOM      7  C   UNL     1       4.393   4.999   1.964  1.00  0.00     0.006 C 
BRANCH   7   8
ATOM      8  C   UNL     1       4.884   6.289   1.293  1.00  0.00     0.053 C 
BRANCH   8   9
ATOM      9  C   UNL     1       5.888   6.010   0.215  1.00  0.00     0.041 C 
ATOM     10  O   UNL     1       6.348   4.847   0.064  1.00  0.00    -0.550 OA
ATOM     11  O   UNL     1       6.294   7.028  -0.640  1.00  0.00    -0.550 OA
ENDBRANCH   8   9
ENDBRANCH   7   8
ENDBRANCH   6   7
ENDBRANCH   5   6
ENDBRANCH   4   5
ENDBRANCH   3   4
ENDBRANCH   2   3
ENDBRANCH   1   2
BRANCH   1  12
ATOM     12  C   UNL     1       0.574   7.484   2.358  1.00  0.00     0.000 C 
BRANCH  12  13
ATOM     13  C   UNL     1       1.296   7.629   1.006  1.00  0.00    -0.000 C 
BRANCH  13  14
ATOM     14  C   UNL     1       0.388   8.000  -0.181  1.00  0.00    -0.000 C 
BRANCH  14  15
ATOM     15  C   UNL     1      -1.110   7.878   0.152  1.00  0.00    -0.000 C 
BRANCH  15  16
ATOM     16  C   UNL     1      -1.756   6.628  -0.466  1.00  0.00    -0.000 C 
BRANCH  16  17
ATOM     17  C   UNL     1      -2.840   6.018   0.441  1.00  0.00    -0.000 C 
BRANCH  17  18
ATOM     18  C   UNL     1      -2.249   5.193   1.595  1.00  0.00    -0.000 C 
BRANCH  18  19
ATOM     19  C   UNL     1      -2.990   5.412   2.922  1.00  0.00    -0.003 C 
ATOM     20  C   UNL     1      -2.986   6.887   3.315  1.00  0.00     0.004 C 
ENDBRANCH  18  19
ENDBRANCH  17  18
ENDBRANCH  16  17
ENDBRANCH  15  16
ENDBRANCH  14  15
ENDBRANCH  13  14
ENDBRANCH  12  13
ENDBRANCH   1  12
TORSDOF 16
ENDMDL
