MODEL 1
REMARK VINA RESULT:    -5.209      0.000      0.000
REMARK INTER + INTRA:          -8.180
REMARK INTER:                  -7.340
REMARK INTRA:                  -0.840
REMARK UNBOUND:                -0.840
REMARK SMILES OC[C@H]1O[C@@H](O[C@H]2OC=C[C@@H]3[C@@H](O)[C@H]4O[C@@]4(CO)[C@H]23)[C@@H](O)[C@@H](O)[C@@H]1O
REMARK SMILES IDX 6 1 7 2 10 3 9 4 11 5 8 6 19 7 12 8 16 9 14 10 15 11 13 12
REMARK SMILES IDX 17 14 18 15 5 17 20 18 4 19 22 20 3 21 24 22 21 23 23 25
REMARK SMILES IDX 2 27 1 28 25 30
REMARK H PARENT 13 13 18 16 21 24 23 26 1 29 25 31
REMARK Flexibility Score: inf
ROOT
ATOM      1  O   UNL     1     -24.468 -19.803 -14.316  1.00  0.00    -0.310 OA
ENDROOT
BRANCH   1   2
ATOM      2  C   UNL     1     -25.032 -18.513 -14.495  1.00  0.00     0.315 C 
ATOM      3  C   UNL     1     -23.575 -17.322 -12.357  1.00  0.00     0.018 C 
ATOM      4  C   UNL     1     -24.844 -17.692 -12.183  1.00  0.00     0.186 C 
ATOM      5  C   UNL     1     -22.929 -17.253 -13.728  1.00  0.00     0.059 C 
ATOM      6  O   UNL     1     -25.622 -18.109 -13.264  1.00  0.00    -0.472 OA
ATOM      7  C   UNL     1     -23.917 -17.520 -14.889  1.00  0.00     0.105 C 
ATOM      8  C   UNL     1     -22.397 -15.828 -13.975  1.00  0.00     0.154 C 
ATOM      9  C   UNL     1     -24.403 -16.129 -15.313  1.00  0.00     0.130 C 
ATOM     10  C   UNL     1     -23.486 -15.112 -14.767  1.00  0.00     0.183 C 
ATOM     11  O   UNL     1     -23.492 -15.442 -16.140  1.00  0.00    -0.360 OA
BRANCH   8  12
ATOM     12  O   UNL     1     -21.212 -15.864 -14.728  1.00  0.00    -0.390 OA
ATOM     13  H   UNL     1     -21.308 -15.178 -15.440  1.00  0.00     0.211 HD
ENDBRANCH   8  12
BRANCH   9  14
ATOM     14  C   UNL     1     -25.864 -15.728 -15.545  1.00  0.00     0.195 C 
BRANCH  14  15
ATOM     15  O   UNL     1     -26.143 -15.764 -16.917  1.00  0.00    -0.393 OA
ATOM     16  H   UNL     1     -27.125 -15.892 -16.995  1.00  0.00     0.210 HD
ENDBRANCH  14  15
ENDBRANCH   9  14
ENDBRANCH   1   2
BRANCH   1  17
ATOM     17  C   UNL     1     -25.466 -20.809 -14.273  1.00  0.00     0.286 C 
ATOM     18  C   UNL     1     -25.023 -22.045 -15.069  1.00  0.00     0.202 C 
ATOM     19  O   UNL     1     -25.819 -21.134 -12.937  1.00  0.00    -0.341 OA
ATOM     20  C   UNL     1     -23.825 -22.731 -14.397  1.00  0.00     0.179 C 
ATOM     21  C   UNL     1     -24.794 -21.784 -12.193  1.00  0.00     0.178 C 
ATOM     22  C   UNL     1     -24.134 -22.998 -12.911  1.00  0.00     0.177 C 
BRANCH  18  23
ATOM     23  O   UNL     1     -24.707 -21.669 -16.384  1.00  0.00    -0.385 OA
ATOM     24  H   UNL     1     -25.281 -20.889 -16.604  1.00  0.00     0.211 HD
ENDBRANCH  18  23
BRANCH  20  25
ATOM     25  O   UNL     1     -22.662 -21.953 -14.520  1.00  0.00    -0.387 OA
ATOM     26  H   UNL     1     -22.382 -21.994 -15.472  1.00  0.00     0.211 HD
ENDBRANCH  20  25
BRANCH  21  27
ATOM     27  C   UNL     1     -23.815 -20.794 -11.523  1.00  0.00     0.191 C 
BRANCH  27  28
ATOM     28  O   UNL     1     -22.719 -20.495 -12.338  1.00  0.00    -0.394 OA
ATOM     29  H   UNL     1     -22.074 -20.004 -11.767  1.00  0.00     0.210 HD
ENDBRANCH  27  28
ENDBRANCH  21  27
BRANCH  22  30
ATOM     30  O   UNL     1     -25.004 -24.100 -12.814  1.00  0.00    -0.387 OA
ATOM     31  H   UNL     1     -24.467 -24.869 -12.492  1.00  0.00     0.211 HD
ENDBRANCH  22  30
ENDBRANCH   1  17
TORSDOF 10
ENDMDL
MODEL 2
REMARK VINA RESULT:    -4.864      1.425      2.059
REMARK INTER + INTRA:          -7.695
REMARK INTER:                  -7.423
REMARK INTRA:                  -0.272
REMARK UNBOUND:                -0.840
REMARK SMILES OC[C@H]1O[C@@H](O[C@H]2OC=C[C@@H]3[C@@H](O)[C@H]4O[C@@]4(CO)[C@H]23)[C@@H](O)[C@@H](O)[C@@H]1O
REMARK SMILES IDX 6 1 7 2 10 3 9 4 11 5 8 6 19 7 12 8 16 9 14 10 15 11 13 12
REMARK SMILES IDX 17 14 18 15 5 17 20 18 4 19 22 20 3 21 24 22 21 23 23 25
REMARK SMILES IDX 2 27 1 28 25 30
REMARK H PARENT 13 13 18 16 21 24 23 26 1 29 25 31
REMARK Flexibility Score: inf
ROOT
ATOM      1  O   UNL     1     -24.500 -20.770 -13.512  1.00  0.00    -0.310 OA
ENDROOT
BRANCH   1   2
ATOM      2  C   UNL     1     -25.196 -19.570 -13.811  1.00  0.00     0.315 C 
ATOM      3  C   UNL     1     -23.810 -18.009 -11.874  1.00  0.00     0.018 C 
ATOM      4  C   UNL     1     -25.030 -18.479 -11.612  1.00  0.00     0.186 C 
ATOM      5  C   UNL     1     -23.212 -18.033 -13.267  1.00  0.00     0.059 C 
ATOM      6  O   UNL     1     -25.791 -19.090 -12.610  1.00  0.00    -0.472 OA
ATOM      7  C   UNL     1     -24.198 -18.524 -14.353  1.00  0.00     0.105 C 
ATOM      8  C   UNL     1     -22.833 -16.599 -13.690  1.00  0.00     0.154 C 
ATOM      9  C   UNL     1     -24.834 -17.244 -14.908  1.00  0.00     0.130 C 
ATOM     10  C   UNL     1     -24.010 -16.087 -14.513  1.00  0.00     0.183 C 
ATOM     11  O   UNL     1     -24.019 -16.570 -15.840  1.00  0.00    -0.360 OA
BRANCH   8  12
ATOM     12  O   UNL     1     -21.672 -16.604 -14.478  1.00  0.00    -0.390 OA
ATOM     13  H   UNL     1     -21.873 -16.058 -15.282  1.00  0.00     0.211 HD
ENDBRANCH   8  12
BRANCH   9  14
ATOM     14  C   UNL     1     -26.333 -17.017 -15.128  1.00  0.00     0.195 C 
BRANCH  14  15
ATOM     15  O   UNL     1     -26.519 -15.894 -15.944  1.00  0.00    -0.393 OA
ATOM     16  H   UNL     1     -27.379 -15.486 -15.660  1.00  0.00     0.210 HD
ENDBRANCH  14  15
ENDBRANCH   9  14
ENDBRANCH   1   2
BRANCH   1  17
ATOM     17  C   UNL     1     -24.539 -21.682 -14.597  1.00  0.00     0.286 C 
ATOM     18  C   UNL     1     -23.412 -22.717 -14.476  1.00  0.00     0.202 C 
ATOM     19  O   UNL     1     -25.814 -22.294 -14.717  1.00  0.00    -0.341 OA
ATOM     20  C   UNL     1     -23.634 -23.631 -13.262  1.00  0.00     0.179 C 
ATOM     21  C   UNL     1     -26.151 -23.178 -13.652  1.00  0.00     0.178 C 
ATOM     22  C   UNL     1     -25.055 -24.227 -13.302  1.00  0.00     0.177 C 
BRANCH  18  23
ATOM     23  O   UNL     1     -22.176 -22.058 -14.383  1.00  0.00    -0.385 OA
ATOM     24  H   UNL     1     -21.706 -22.442 -13.597  1.00  0.00     0.211 HD
ENDBRANCH  18  23
BRANCH  20  25
ATOM     25  O   UNL     1     -23.431 -22.933 -12.060  1.00  0.00    -0.387 OA
ATOM     26  H   UNL     1     -23.829 -22.031 -12.174  1.00  0.00     0.211 HD
ENDBRANCH  20  25
BRANCH  21  27
ATOM     27  C   UNL     1     -26.789 -22.453 -12.446  1.00  0.00     0.191 C 
BRANCH  27  28
ATOM     28  O   UNL     1     -27.859 -23.169 -11.900  1.00  0.00    -0.394 OA
ATOM     29  H   UNL     1     -27.989 -23.961 -12.483  1.00  0.00     0.210 HD
ENDBRANCH  27  28
ENDBRANCH  21  27
BRANCH  22  30
ATOM     30  O   UNL     1     -25.095 -25.253 -14.264  1.00  0.00    -0.387 OA
ATOM     31  H   UNL     1     -25.636 -25.991 -13.881  1.00  0.00     0.211 HD
ENDBRANCH  22  30
ENDBRANCH   1  17
TORSDOF 10
ENDMDL
MODEL 3
REMARK VINA RESULT:    -4.353      2.005      3.484
REMARK INTER + INTRA:          -6.974
REMARK INTER:                  -6.739
REMARK INTRA:                  -0.235
REMARK UNBOUND:                -0.840
REMARK SMILES OC[C@H]1O[C@@H](O[C@H]2OC=C[C@@H]3[C@@H](O)[C@H]4O[C@@]4(CO)[C@H]23)[C@@H](O)[C@@H](O)[C@@H]1O
REMARK SMILES IDX 6 1 7 2 10 3 9 4 11 5 8 6 19 7 12 8 16 9 14 10 15 11 13 12
REMARK SMILES IDX 17 14 18 15 5 17 20 18 4 19 22 20 3 21 24 22 21 23 23 25
REMARK SMILES IDX 2 27 1 28 25 30
REMARK H PARENT 13 13 18 16 21 24 23 26 1 29 25 31
REMARK Flexibility Score: inf
ROOT
ATOM      1  O   UNL     1     -25.264 -22.242 -13.505  1.00  0.00    -0.310 OA
ENDROOT
BRANCH   1   2
ATOM      2  C   UNL     1     -25.657 -20.879 -13.557  1.00  0.00     0.315 C 
ATOM      3  C   UNL     1     -23.817 -20.030 -11.555  1.00  0.00     0.018 C 
ATOM      4  C   UNL     1     -25.099 -20.235 -11.249  1.00  0.00     0.186 C 
ATOM      5  C   UNL     1     -23.325 -19.965 -12.988  1.00  0.00     0.059 C 
ATOM      6  O   UNL     1     -26.044 -20.476 -12.248  1.00  0.00    -0.472 OA
ATOM      7  C   UNL     1     -24.463 -20.024 -14.035  1.00  0.00     0.105 C 
ATOM      8  C   UNL     1     -22.627 -18.612 -13.231  1.00  0.00     0.154 C 
ATOM      9  C   UNL     1     -24.792 -18.556 -14.334  1.00  0.00     0.130 C 
ATOM     10  C   UNL     1     -23.685 -17.708 -13.854  1.00  0.00     0.183 C 
ATOM     11  O   UNL     1     -23.890 -17.949 -15.231  1.00  0.00    -0.360 OA
BRANCH   8  12
ATOM     12  O   UNL     1     -21.551 -18.761 -14.120  1.00  0.00    -0.390 OA
ATOM     13  H   UNL     1     -21.268 -17.846 -14.379  1.00  0.00     0.211 HD
ENDBRANCH   8  12
BRANCH   9  14
ATOM     14  C   UNL     1     -26.197 -17.948 -14.373  1.00  0.00     0.195 C 
BRANCH  14  15
ATOM     15  O   UNL     1     -26.240 -16.936 -15.341  1.00  0.00    -0.393 OA
ATOM     16  H   UNL     1     -27.107 -17.042 -15.812  1.00  0.00     0.210 HD
ENDBRANCH  14  15
ENDBRANCH   9  14
ENDBRANCH   1   2
BRANCH   1  17
ATOM     17  C   UNL     1     -24.298 -22.547 -14.497  1.00  0.00     0.286 C 
ATOM     18  C   UNL     1     -23.355 -23.655 -14.011  1.00  0.00     0.202 C 
ATOM     19  O   UNL     1     -24.910 -22.872 -15.736  1.00  0.00    -0.341 OA
ATOM     20  C   UNL     1     -24.106 -24.986 -13.854  1.00  0.00     0.179 C 
ATOM     21  C   UNL     1     -25.642 -24.093 -15.735  1.00  0.00     0.178 C 
ATOM     22  C   UNL     1     -24.874 -25.315 -15.149  1.00  0.00     0.177 C 
BRANCH  18  23
ATOM     23  O   UNL     1     -22.764 -23.272 -12.796  1.00  0.00    -0.385 OA
ATOM     24  H   UNL     1     -22.139 -24.000 -12.540  1.00  0.00     0.211 HD
ENDBRANCH  18  23
BRANCH  20  25
ATOM     25  O   UNL     1     -24.988 -24.943 -12.761  1.00  0.00    -0.387 OA
ATOM     26  H   UNL     1     -24.434 -24.965 -11.937  1.00  0.00     0.211 HD
ENDBRANCH  20  25
BRANCH  21  27
ATOM     27  C   UNL     1     -27.097 -23.923 -15.244  1.00  0.00     0.191 C 
BRANCH  27  28
ATOM     28  O   UNL     1     -27.998 -24.713 -15.965  1.00  0.00    -0.394 OA
ATOM     29  H   UNL     1     -27.785 -25.655 -15.738  1.00  0.00     0.210 HD
ENDBRANCH  27  28
ENDBRANCH  21  27
BRANCH  22  30
ATOM     30  O   UNL     1     -23.964 -25.776 -16.118  1.00  0.00    -0.387 OA
ATOM     31  H   UNL     1     -23.222 -26.222 -15.633  1.00  0.00     0.211 HD
ENDBRANCH  22  30
ENDBRANCH   1  17
TORSDOF 10
ENDMDL
MODEL 4
REMARK VINA RESULT:    -4.242      1.419      1.678
REMARK INTER + INTRA:          -6.818
REMARK INTER:                  -6.358
REMARK INTRA:                  -0.459
REMARK UNBOUND:                -0.840
REMARK SMILES OC[C@H]1O[C@@H](O[C@H]2OC=C[C@@H]3[C@@H](O)[C@H]4O[C@@]4(CO)[C@H]23)[C@@H](O)[C@@H](O)[C@@H]1O
REMARK SMILES IDX 6 1 7 2 10 3 9 4 11 5 8 6 19 7 12 8 16 9 14 10 15 11 13 12
REMARK SMILES IDX 17 14 18 15 5 17 20 18 4 19 22 20 3 21 24 22 21 23 23 25
REMARK SMILES IDX 2 27 1 28 25 30
REMARK H PARENT 13 13 18 16 21 24 23 26 1 29 25 31
REMARK Flexibility Score: inf
ROOT
ATOM      1  O   UNL     1     -24.757 -21.099 -14.403  1.00  0.00    -0.310 OA
ENDROOT
BRANCH   1   2
ATOM      2  C   UNL     1     -25.369 -19.821 -14.335  1.00  0.00     0.315 C 
ATOM      3  C   UNL     1     -23.785 -18.920 -12.147  1.00  0.00     0.018 C 
ATOM      4  C   UNL     1     -25.025 -19.362 -11.942  1.00  0.00     0.186 C 
ATOM      5  C   UNL     1     -23.249 -18.613 -13.533  1.00  0.00     0.059 C 
ATOM      6  O   UNL     1     -25.873 -19.638 -13.017  1.00  0.00    -0.472 OA
ATOM      7  C   UNL     1     -24.315 -18.735 -14.647  1.00  0.00     0.105 C 
ATOM      8  C   UNL     1     -22.778 -17.146 -13.589  1.00  0.00     0.154 C 
ATOM      9  C   UNL     1     -24.872 -17.316 -14.809  1.00  0.00     0.130 C 
ATOM     10  C   UNL     1     -23.944 -16.360 -14.177  1.00  0.00     0.183 C 
ATOM     11  O   UNL     1     -24.047 -16.473 -15.581  1.00  0.00    -0.360 OA
BRANCH   8  12
ATOM     12  O   UNL     1     -21.655 -17.018 -14.421  1.00  0.00    -0.390 OA
ATOM     13  H   UNL     1     -20.900 -17.457 -13.948  1.00  0.00     0.211 HD
ENDBRANCH   8  12
BRANCH   9  14
ATOM     14  C   UNL     1     -26.357 -16.942 -14.870  1.00  0.00     0.195 C 
BRANCH  14  15
ATOM     15  O   UNL     1     -26.560 -16.008 -15.893  1.00  0.00    -0.393 OA
ATOM     16  H   UNL     1     -25.787 -15.387 -15.857  1.00  0.00     0.210 HD
ENDBRANCH  14  15
ENDBRANCH   9  14
ENDBRANCH   1   2
BRANCH   1  17
ATOM     17  C   UNL     1     -25.491 -22.071 -13.678  1.00  0.00     0.286 C 
ATOM     18  C   UNL     1     -25.867 -23.253 -14.582  1.00  0.00     0.202 C 
ATOM     19  O   UNL     1     -24.792 -22.490 -12.516  1.00  0.00    -0.341 OA
ATOM     20  C   UNL     1     -24.617 -24.032 -15.015  1.00  0.00     0.179 C 
ATOM     21  C   UNL     1     -23.604 -23.233 -12.773  1.00  0.00     0.178 C 
ATOM     22  C   UNL     1     -23.774 -24.408 -13.781  1.00  0.00     0.177 C 
BRANCH  18  23
ATOM     23  O   UNL     1     -26.573 -22.783 -15.702  1.00  0.00    -0.385 OA
ATOM     24  H   UNL     1     -26.090 -21.979 -16.027  1.00  0.00     0.211 HD
ENDBRANCH  18  23
BRANCH  20  25
ATOM     25  O   UNL     1     -23.846 -23.287 -15.924  1.00  0.00    -0.387 OA
ATOM     26  H   UNL     1     -22.980 -23.089 -15.480  1.00  0.00     0.211 HD
ENDBRANCH  20  25
BRANCH  21  27
ATOM     27  C   UNL     1     -22.368 -22.335 -12.997  1.00  0.00     0.191 C 
BRANCH  27  28
ATOM     28  O   UNL     1     -22.260 -21.899 -14.321  1.00  0.00    -0.394 OA
ATOM     29  H   UNL     1     -22.889 -22.457 -14.849  1.00  0.00     0.210 HD
ENDBRANCH  27  28
ENDBRANCH  21  27
BRANCH  22  30
ATOM     30  O   UNL     1     -24.390 -25.483 -13.115  1.00  0.00    -0.387 OA
ATOM     31  H   UNL     1     -23.668 -26.020 -12.696  1.00  0.00     0.211 HD
ENDBRANCH  22  30
ENDBRANCH   1  17
TORSDOF 10
ENDMDL
MODEL 5
REMARK VINA RESULT:    -4.165      2.818      5.109
REMARK INTER + INTRA:          -6.710
REMARK INTER:                  -6.869
REMARK INTRA:                   0.159
REMARK UNBOUND:                -0.840
REMARK SMILES OC[C@H]1O[C@@H](O[C@H]2OC=C[C@@H]3[C@@H](O)[C@H]4O[C@@]4(CO)[C@H]23)[C@@H](O)[C@@H](O)[C@@H]1O
REMARK SMILES IDX 6 1 7 2 10 3 9 4 11 5 8 6 19 7 12 8 16 9 14 10 15 11 13 12
REMARK SMILES IDX 17 14 18 15 5 17 20 18 4 19 22 20 3 21 24 22 21 23 23 25
REMARK SMILES IDX 2 27 1 28 25 30
REMARK H PARENT 13 13 18 16 21 24 23 26 1 29 25 31
REMARK Flexibility Score: inf
ROOT
ATOM      1  O   UNL     1     -24.899 -21.981 -13.832  1.00  0.00    -0.310 OA
ENDROOT
BRANCH   1   2
ATOM      2  C   UNL     1     -24.312 -21.206 -12.798  1.00  0.00     0.315 C 
ATOM      3  C   UNL     1     -25.702 -18.815 -13.480  1.00  0.00     0.018 C 
ATOM      4  C   UNL     1     -24.437 -18.992 -13.864  1.00  0.00     0.186 C 
ATOM      5  C   UNL     1     -26.374 -19.712 -12.457  1.00  0.00     0.059 C 
ATOM      6  O   UNL     1     -23.690 -20.071 -13.389  1.00  0.00    -0.472 OA
ATOM      7  C   UNL     1     -25.416 -20.746 -11.820  1.00  0.00     0.105 C 
ATOM      8  C   UNL     1     -26.882 -18.858 -11.279  1.00  0.00     0.154 C 
ATOM      9  C   UNL     1     -24.910 -20.070 -10.540  1.00  0.00     0.130 C 
ATOM     10  C   UNL     1     -25.795 -18.937 -10.213  1.00  0.00     0.183 C 
ATOM     11  O   UNL     1     -25.824 -20.137  -9.469  1.00  0.00    -0.360 OA
BRANCH   8  12
ATOM     12  O   UNL     1     -28.082 -19.379 -10.770  1.00  0.00    -0.390 OA
ATOM     13  H   UNL     1     -27.869 -20.277 -10.405  1.00  0.00     0.211 HD
ENDBRANCH   8  12
BRANCH   9  14
ATOM     14  C   UNL     1     -23.447 -19.990 -10.092  1.00  0.00     0.195 C 
BRANCH  14  15
ATOM     15  O   UNL     1     -22.721 -19.220 -11.009  1.00  0.00    -0.393 OA
ATOM     16  H   UNL     1     -22.486 -19.830 -11.756  1.00  0.00     0.210 HD
ENDBRANCH  14  15
ENDBRANCH   9  14
ENDBRANCH   1   2
BRANCH   1  17
ATOM     17  C   UNL     1     -23.917 -22.645 -14.610  1.00  0.00     0.286 C 
ATOM     18  C   UNL     1     -23.262 -23.776 -13.804  1.00  0.00     0.202 C 
ATOM     19  O   UNL     1     -24.454 -23.109 -15.839  1.00  0.00    -0.341 OA
ATOM     20  C   UNL     1     -24.270 -24.895 -13.509  1.00  0.00     0.179 C 
ATOM     21  C   UNL     1     -25.408 -24.160 -15.713  1.00  0.00     0.178 C 
ATOM     22  C   UNL     1     -24.955 -25.347 -14.813  1.00  0.00     0.177 C 
BRANCH  18  23
ATOM     23  O   UNL     1     -22.731 -23.257 -12.612  1.00  0.00    -0.385 OA
ATOM     24  H   UNL     1     -23.002 -23.876 -11.886  1.00  0.00     0.211 HD
ENDBRANCH  18  23
BRANCH  20  25
ATOM     25  O   UNL     1     -25.231 -24.477 -12.572  1.00  0.00    -0.387 OA
ATOM     26  H   UNL     1     -25.561 -23.589 -12.869  1.00  0.00     0.211 HD
ENDBRANCH  20  25
BRANCH  21  27
ATOM     27  C   UNL     1     -26.843 -23.644 -15.465  1.00  0.00     0.191 C 
BRANCH  27  28
ATOM     28  O   UNL     1     -27.816 -24.573 -15.847  1.00  0.00    -0.394 OA
ATOM     29  H   UNL     1     -27.684 -25.367 -15.266  1.00  0.00     0.210 HD
ENDBRANCH  27  28
ENDBRANCH  21  27
BRANCH  22  30
ATOM     30  O   UNL     1     -24.062 -26.148 -15.547  1.00  0.00    -0.387 OA
ATOM     31  H   UNL     1     -23.339 -26.424 -14.926  1.00  0.00     0.211 HD
ENDBRANCH  22  30
ENDBRANCH   1  17
TORSDOF 10
ENDMDL
MODEL 6
REMARK VINA RESULT:    -3.786      2.076      4.030
REMARK INTER + INTRA:          -6.175
REMARK INTER:                  -5.362
REMARK INTRA:                  -0.814
REMARK UNBOUND:                -0.840
REMARK SMILES OC[C@H]1O[C@@H](O[C@H]2OC=C[C@@H]3[C@@H](O)[C@H]4O[C@@]4(CO)[C@H]23)[C@@H](O)[C@@H](O)[C@@H]1O
REMARK SMILES IDX 6 1 7 2 10 3 9 4 11 5 8 6 19 7 12 8 16 9 14 10 15 11 13 12
REMARK SMILES IDX 17 14 18 15 5 17 20 18 4 19 22 20 3 21 24 22 21 23 23 25
REMARK SMILES IDX 2 27 1 28 25 30
REMARK H PARENT 13 13 18 16 21 24 23 26 1 29 25 31
REMARK Flexibility Score: inf
ROOT
ATOM      1  O   UNL     1     -24.029 -22.149 -13.720  1.00  0.00    -0.310 OA
ENDROOT
BRANCH   1   2
ATOM      2  C   UNL     1     -23.731 -21.277 -12.640  1.00  0.00     0.315 C 
ATOM      3  C   UNL     1     -22.490 -19.301 -14.274  1.00  0.00     0.018 C 
ATOM      4  C   UNL     1     -21.748 -20.168 -13.586  1.00  0.00     0.186 C 
ATOM      5  C   UNL     1     -23.977 -19.129 -14.029  1.00  0.00     0.059 C 
ATOM      6  O   UNL     1     -22.330 -21.022 -12.647  1.00  0.00    -0.472 OA
ATOM      7  C   UNL     1     -24.503 -19.952 -12.829  1.00  0.00     0.105 C 
ATOM      8  C   UNL     1     -24.273 -17.661 -13.668  1.00  0.00     0.154 C 
ATOM      9  C   UNL     1     -24.439 -18.987 -11.639  1.00  0.00     0.130 C 
ATOM     10  C   UNL     1     -24.306 -17.609 -12.144  1.00  0.00     0.183 C 
ATOM     11  O   UNL     1     -25.517 -18.080 -11.592  1.00  0.00    -0.360 OA
BRANCH   8  12
ATOM     12  O   UNL     1     -25.519 -17.265 -14.181  1.00  0.00    -0.390 OA
ATOM     13  H   UNL     1     -25.375 -16.392 -14.631  1.00  0.00     0.211 HD
ENDBRANCH   8  12
BRANCH   9  14
ATOM     14  C   UNL     1     -23.848 -19.307 -10.262  1.00  0.00     0.195 C 
BRANCH  14  15
ATOM     15  O   UNL     1     -24.807 -19.972  -9.487  1.00  0.00    -0.393 OA
ATOM     16  H   UNL     1     -25.658 -19.478  -9.619  1.00  0.00     0.210 HD
ENDBRANCH  14  15
ENDBRANCH   9  14
ENDBRANCH   1   2
BRANCH   1  17
ATOM     17  C   UNL     1     -25.427 -22.316 -13.887  1.00  0.00     0.286 C 
ATOM     18  C   UNL     1     -25.807 -22.257 -15.372  1.00  0.00     0.202 C 
ATOM     19  O   UNL     1     -25.885 -23.508 -13.266  1.00  0.00    -0.341 OA
ATOM     20  C   UNL     1     -25.231 -23.459 -16.135  1.00  0.00     0.179 C 
ATOM     21  C   UNL     1     -25.428 -24.710 -13.879  1.00  0.00     0.178 C 
ATOM     22  C   UNL     1     -25.618 -24.771 -15.423  1.00  0.00     0.177 C 
BRANCH  18  23
ATOM     23  O   UNL     1     -25.348 -21.051 -15.927  1.00  0.00    -0.385 OA
ATOM     24  H   UNL     1     -24.537 -21.270 -16.456  1.00  0.00     0.211 HD
ENDBRANCH  18  23
BRANCH  20  25
ATOM     25  O   UNL     1     -23.834 -23.362 -16.253  1.00  0.00    -0.387 OA
ATOM     26  H   UNL     1     -23.447 -24.168 -15.821  1.00  0.00     0.211 HD
ENDBRANCH  20  25
BRANCH  21  27
ATOM     27  C   UNL     1     -24.044 -25.162 -13.359  1.00  0.00     0.191 C 
BRANCH  27  28
ATOM     28  O   UNL     1     -23.204 -25.594 -14.389  1.00  0.00    -0.394 OA
ATOM     29  H   UNL     1     -22.686 -24.798 -14.677  1.00  0.00     0.210 HD
ENDBRANCH  27  28
ENDBRANCH  21  27
BRANCH  22  30
ATOM     30  O   UNL     1     -26.968 -25.059 -15.695  1.00  0.00    -0.387 OA
ATOM     31  H   UNL     1     -27.120 -26.008 -15.446  1.00  0.00     0.211 HD
ENDBRANCH  22  30
ENDBRANCH   1  17
TORSDOF 10
ENDMDL
MODEL 7
REMARK VINA RESULT:    -3.709      2.056      6.497
REMARK INTER + INTRA:          -6.067
REMARK INTER:                  -5.654
REMARK INTRA:                  -0.413
REMARK UNBOUND:                -0.840
REMARK SMILES OC[C@H]1O[C@@H](O[C@H]2OC=C[C@@H]3[C@@H](O)[C@H]4O[C@@]4(CO)[C@H]23)[C@@H](O)[C@@H](O)[C@@H]1O
REMARK SMILES IDX 6 1 7 2 10 3 9 4 11 5 8 6 19 7 12 8 16 9 14 10 15 11 13 12
REMARK SMILES IDX 17 14 18 15 5 17 20 18 4 19 22 20 3 21 24 22 21 23 23 25
REMARK SMILES IDX 2 27 1 28 25 30
REMARK H PARENT 13 13 18 16 21 24 23 26 1 29 25 31
REMARK Flexibility Score: inf
ROOT
ATOM      1  O   UNL     1     -24.280 -20.548 -13.984  1.00  0.00    -0.310 OA
ENDROOT
BRANCH   1   2
ATOM      2  C   UNL     1     -23.923 -21.916 -13.868  1.00  0.00     0.315 C 
ATOM      3  C   UNL     1     -26.500 -22.755 -12.991  1.00  0.00     0.018 C 
ATOM      4  C   UNL     1     -25.515 -22.576 -12.111  1.00  0.00     0.186 C 
ATOM      5  C   UNL     1     -26.255 -22.797 -14.487  1.00  0.00     0.059 C 
ATOM      6  O   UNL     1     -24.207 -22.340 -12.539  1.00  0.00    -0.472 OA
ATOM      7  C   UNL     1     -24.757 -22.746 -14.869  1.00  0.00     0.105 C 
ATOM      8  C   UNL     1     -26.768 -24.135 -15.056  1.00  0.00     0.154 C 
ATOM      9  C   UNL     1     -24.340 -24.216 -15.002  1.00  0.00     0.130 C 
ATOM     10  C   UNL     1     -25.550 -25.050 -15.119  1.00  0.00     0.183 C 
ATOM     11  O   UNL     1     -24.716 -24.797 -16.230  1.00  0.00    -0.360 OA
BRANCH   8  12
ATOM     12  O   UNL     1     -27.294 -23.958 -16.345  1.00  0.00    -0.390 OA
ATOM     13  H   UNL     1     -27.883 -23.160 -16.303  1.00  0.00     0.211 HD
ENDBRANCH   8  12
BRANCH   9  14
ATOM     14  C   UNL     1     -23.089 -24.847 -14.382  1.00  0.00     0.195 C 
BRANCH  14  15
ATOM     15  O   UNL     1     -22.979 -26.176 -14.809  1.00  0.00    -0.393 OA
ATOM     16  H   UNL     1     -22.660 -26.138 -15.749  1.00  0.00     0.210 HD
ENDBRANCH  14  15
ENDBRANCH   9  14
ENDBRANCH   1   2
BRANCH   1  17
ATOM     17  C   UNL     1     -23.155 -19.698 -13.835  1.00  0.00     0.286 C 
ATOM     18  C   UNL     1     -23.312 -18.434 -14.691  1.00  0.00     0.202 C 
ATOM     19  O   UNL     1     -22.913 -19.391 -12.470  1.00  0.00    -0.341 OA
ATOM     20  C   UNL     1     -24.464 -17.560 -14.172  1.00  0.00     0.179 C 
ATOM     21  C   UNL     1     -23.908 -18.576 -11.859  1.00  0.00     0.178 C 
ATOM     22  C   UNL     1     -24.291 -17.299 -12.663  1.00  0.00     0.177 C 
BRANCH  18  23
ATOM     23  O   UNL     1     -23.528 -18.797 -16.030  1.00  0.00    -0.385 OA
ATOM     24  H   UNL     1     -22.667 -18.660 -16.505  1.00  0.00     0.211 HD
ENDBRANCH  18  23
BRANCH  20  25
ATOM     25  O   UNL     1     -25.709 -18.161 -14.424  1.00  0.00    -0.387 OA
ATOM     26  H   UNL     1     -25.982 -17.896 -15.341  1.00  0.00     0.211 HD
ENDBRANCH  20  25
BRANCH  21  27
ATOM     27  C   UNL     1     -25.095 -19.392 -11.299  1.00  0.00     0.191 C 
BRANCH  27  28
ATOM     28  O   UNL     1     -26.292 -19.117 -11.966  1.00  0.00    -0.394 OA
ATOM     29  H   UNL     1     -26.515 -19.934 -12.484  1.00  0.00     0.210 HD
ENDBRANCH  27  28
ENDBRANCH  21  27
BRANCH  22  30
ATOM     30  O   UNL     1     -23.282 -16.335 -12.477  1.00  0.00    -0.387 OA
ATOM     31  H   UNL     1     -23.284 -16.093 -11.515  1.00  0.00     0.211 HD
ENDBRANCH  22  30
ENDBRANCH   1  17
TORSDOF 10
ENDMDL
MODEL 8
REMARK VINA RESULT:    -3.707      1.552      2.113
REMARK INTER + INTRA:          -6.065
REMARK INTER:                  -5.385
REMARK INTRA:                  -0.680
REMARK UNBOUND:                -0.840
REMARK SMILES OC[C@H]1O[C@@H](O[C@H]2OC=C[C@@H]3[C@@H](O)[C@H]4O[C@@]4(CO)[C@H]23)[C@@H](O)[C@@H](O)[C@@H]1O
REMARK SMILES IDX 6 1 7 2 10 3 9 4 11 5 8 6 19 7 12 8 16 9 14 10 15 11 13 12
REMARK SMILES IDX 17 14 18 15 5 17 20 18 4 19 22 20 3 21 24 22 21 23 23 25
REMARK SMILES IDX 2 27 1 28 25 30
REMARK H PARENT 13 13 18 16 21 24 23 26 1 29 25 31
REMARK Flexibility Score: inf
ROOT
ATOM      1  O   UNL     1     -23.639 -18.484 -13.731  1.00  0.00    -0.310 OA
ENDROOT
BRANCH   1   2
ATOM      2  C   UNL     1     -24.381 -17.409 -14.286  1.00  0.00     0.315 C 
ATOM      3  C   UNL     1     -22.989 -15.392 -12.835  1.00  0.00     0.018 C 
ATOM      4  C   UNL     1     -24.185 -15.812 -12.424  1.00  0.00     0.186 C 
ATOM      5  C   UNL     1     -22.431 -15.739 -14.202  1.00  0.00     0.059 C 
ATOM      6  O   UNL     1     -24.955 -16.665 -13.217  1.00  0.00    -0.472 OA
ATOM      7  C   UNL     1     -23.432 -16.503 -15.101  1.00  0.00     0.105 C 
ATOM      8  C   UNL     1     -22.110 -14.443 -14.972  1.00  0.00     0.154 C 
ATOM      9  C   UNL     1     -24.124 -15.411 -15.926  1.00  0.00     0.130 C 
ATOM     10  C   UNL     1     -23.325 -14.174 -15.852  1.00  0.00     0.183 C 
ATOM     11  O   UNL     1     -23.357 -14.964 -17.022  1.00  0.00    -0.360 OA
BRANCH   8  12
ATOM     12  O   UNL     1     -20.972 -14.613 -15.776  1.00  0.00    -0.390 OA
ATOM     13  H   UNL     1     -21.296 -14.696 -16.711  1.00  0.00     0.211 HD
ENDBRANCH   8  12
BRANCH   9  14
ATOM     14  C   UNL     1     -25.635 -15.279 -16.141  1.00  0.00     0.195 C 
BRANCH  14  15
ATOM     15  O   UNL     1     -26.178 -14.464 -15.140  1.00  0.00    -0.393 OA
ATOM     16  H   UNL     1     -25.443 -14.297 -14.493  1.00  0.00     0.210 HD
ENDBRANCH  14  15
ENDBRANCH   9  14
ENDBRANCH   1   2
BRANCH   1  17
ATOM     17  C   UNL     1     -23.845 -19.688 -14.450  1.00  0.00     0.286 C 
ATOM     18  C   UNL     1     -22.921 -20.796 -13.927  1.00  0.00     0.202 C 
ATOM     19  O   UNL     1     -25.210 -20.079 -14.430  1.00  0.00    -0.341 OA
ATOM     20  C   UNL     1     -23.297 -21.193 -12.492  1.00  0.00     0.179 C 
ATOM     21  C   UNL     1     -25.694 -20.480 -13.152  1.00  0.00     0.178 C 
ATOM     22  C   UNL     1     -24.801 -21.518 -12.411  1.00  0.00     0.177 C 
BRANCH  18  23
ATOM     23  O   UNL     1     -21.586 -20.364 -13.990  1.00  0.00    -0.385 OA
ATOM     24  H   UNL     1     -21.034 -21.168 -14.173  1.00  0.00     0.211 HD
ENDBRANCH  18  23
BRANCH  20  25
ATOM     25  O   UNL     1     -22.967 -20.175 -11.582  1.00  0.00    -0.387 OA
ATOM     26  H   UNL     1     -22.302 -19.588 -12.028  1.00  0.00     0.211 HD
ENDBRANCH  20  25
BRANCH  21  27
ATOM     27  C   UNL     1     -26.188 -19.292 -12.295  1.00  0.00     0.191 C 
BRANCH  27  28
ATOM     28  O   UNL     1     -25.315 -18.996 -11.243  1.00  0.00    -0.394 OA
ATOM     29  H   UNL     1     -24.629 -19.713 -11.242  1.00  0.00     0.210 HD
ENDBRANCH  27  28
ENDBRANCH  21  27
BRANCH  22  30
ATOM     30  O   UNL     1     -25.028 -22.786 -12.976  1.00  0.00    -0.387 OA
ATOM     31  H   UNL     1     -24.329 -22.928 -13.665  1.00  0.00     0.211 HD
ENDBRANCH  22  30
ENDBRANCH   1  17
TORSDOF 10
ENDMDL
MODEL 9
REMARK VINA RESULT:    -3.487      1.564      6.132
REMARK INTER + INTRA:          -5.754
REMARK INTER:                  -5.482
REMARK INTRA:                  -0.272
REMARK UNBOUND:                -0.840
REMARK SMILES OC[C@H]1O[C@@H](O[C@H]2OC=C[C@@H]3[C@@H](O)[C@H]4O[C@@]4(CO)[C@H]23)[C@@H](O)[C@@H](O)[C@@H]1O
REMARK SMILES IDX 6 1 7 2 10 3 9 4 11 5 8 6 19 7 12 8 16 9 14 10 15 11 13 12
REMARK SMILES IDX 17 14 18 15 5 17 20 18 4 19 22 20 3 21 24 22 21 23 23 25
REMARK SMILES IDX 2 27 1 28 25 30
REMARK H PARENT 13 13 18 16 21 24 23 26 1 29 25 31
REMARK Flexibility Score: inf
ROOT
ATOM      1  O   UNL     1     -24.351 -16.931 -13.293  1.00  0.00    -0.310 OA
ENDROOT
BRANCH   1   2
ATOM      2  C   UNL     1     -23.991 -17.977 -12.405  1.00  0.00     0.315 C 
ATOM      3  C   UNL     1     -26.396 -19.451 -12.793  1.00  0.00     0.018 C 
ATOM      4  C   UNL     1     -26.245 -18.682 -11.715  1.00  0.00     0.186 C 
ATOM      5  C   UNL     1     -25.240 -19.803 -13.709  1.00  0.00     0.059 C 
ATOM      6  O   UNL     1     -25.012 -18.097 -11.420  1.00  0.00    -0.472 OA
ATOM      7  C   UNL     1     -23.871 -19.298 -13.196  1.00  0.00     0.105 C 
ATOM      8  C   UNL     1     -25.096 -21.336 -13.791  1.00  0.00     0.154 C 
ATOM      9  C   UNL     1     -23.292 -20.479 -12.407  1.00  0.00     0.130 C 
ATOM     10  C   UNL     1     -24.026 -21.705 -12.770  1.00  0.00     0.183 C 
ATOM     11  O   UNL     1     -22.710 -21.469 -13.225  1.00  0.00    -0.360 OA
BRANCH   8  12
ATOM     12  O   UNL     1     -24.679 -21.727 -15.074  1.00  0.00    -0.390 OA
ATOM     13  H   UNL     1     -25.009 -22.654 -15.208  1.00  0.00     0.211 HD
ENDBRANCH   8  12
BRANCH   9  14
ATOM     14  C   UNL     1     -22.674 -20.399 -11.008  1.00  0.00     0.195 C 
BRANCH  14  15
ATOM     15  O   UNL     1     -23.688 -20.201 -10.062  1.00  0.00    -0.393 OA
ATOM     16  H   UNL     1     -23.229 -20.040  -9.196  1.00  0.00     0.210 HD
ENDBRANCH  14  15
ENDBRANCH   9  14
ENDBRANCH   1   2
BRANCH   1  17
ATOM     17  C   UNL     1     -23.980 -17.227 -14.629  1.00  0.00     0.286 C 
ATOM     18  C   UNL     1     -24.932 -16.543 -15.620  1.00  0.00     0.202 C 
ATOM     19  O   UNL     1     -22.622 -16.895 -14.877  1.00  0.00    -0.341 OA
ATOM     20  C   UNL     1     -24.781 -15.016 -15.561  1.00  0.00     0.179 C 
ATOM     21  C   UNL     1     -22.339 -15.499 -14.857  1.00  0.00     0.178 C 
ATOM     22  C   UNL     1     -23.299 -14.625 -15.717  1.00  0.00     0.177 C 
BRANCH  18  23
ATOM     23  O   UNL     1     -26.254 -16.924 -15.341  1.00  0.00    -0.385 OA
ATOM     24  H   UNL     1     -26.795 -16.683 -16.138  1.00  0.00     0.211 HD
ENDBRANCH  18  23
BRANCH  20  25
ATOM     25  O   UNL     1     -25.298 -14.503 -14.360  1.00  0.00    -0.387 OA
ATOM     26  H   UNL     1     -25.231 -13.514 -14.412  1.00  0.00     0.211 HD
ENDBRANCH  20  25
BRANCH  21  27
ATOM     27  C   UNL     1     -22.043 -14.965 -13.438  1.00  0.00     0.191 C 
BRANCH  27  28
ATOM     28  O   UNL     1     -21.069 -13.962 -13.439  1.00  0.00    -0.394 OA
ATOM     29  H   UNL     1     -21.134 -13.513 -14.322  1.00  0.00     0.210 HD
ENDBRANCH  27  28
ENDBRANCH  21  27
BRANCH  22  30
ATOM     30  O   UNL     1     -22.930 -14.755 -17.069  1.00  0.00    -0.387 OA
ATOM     31  H   UNL     1     -23.764 -14.712 -17.605  1.00  0.00     0.211 HD
ENDBRANCH  22  30
ENDBRANCH   1  17
TORSDOF 10
ENDMDL
