MODEL 1
REMARK VINA RESULT:    -7.294      0.000      0.000
REMARK INTER + INTRA:         -11.098
REMARK INTER:                 -10.491
REMARK INTRA:                  -0.606
REMARK UNBOUND:                -0.606
REMARK SMILES O=c1cc(-c2ccc(O)c(O)c2)oc2cc(O[C@H]3O[C@H](CO)[C@H](O)[C@@H](O)[C@H]3O)cc(O)c12
REMARK SMILES IDX 17 1 16 2 4 3 3 4 13 5 2 6 14 7 1 8 32 9 15 10 30 11 29 12
REMARK SMILES IDX 5 13 6 14 7 15 8 16 12 17 10 18 9 19 11 21 31 23 18 25 27 26
REMARK SMILES IDX 19 27 25 28 20 29 23 30 28 31 26 33 21 35 22 36 24 38
REMARK H PARENT 9 20 11 22 31 24 28 32 26 34 22 37 24 39
REMARK Flexibility Score: inf
ROOT
ATOM      1  O   UNL     1      13.538   0.780  -1.431  1.00  0.00    -0.462 OA
ENDROOT
BRANCH   1   2
ATOM      2  C   UNL     1      12.345   1.267  -0.868  1.00  0.00     0.130 A 
ATOM      3  C   UNL     1       9.286   4.919  -0.723  1.00  0.00     0.138 A 
ATOM      4  C   UNL     1       8.409   4.244   0.138  1.00  0.00     0.100 A 
ATOM      5  O   UNL     1      10.405   4.318  -1.113  1.00  0.00    -0.456 OA
ATOM      6  C   UNL     1       8.723   2.955   0.571  1.00  0.00     0.197 A 
ATOM      7  C   UNL     1      10.754   3.096  -0.726  1.00  0.00     0.146 A 
ATOM      8  O   UNL     1       7.888   2.353   1.295  1.00  0.00    -0.289 OA
ATOM      9  C   UNL     1       9.939   2.354   0.167  1.00  0.00     0.107 A 
ATOM     10  C   UNL     1      11.940   2.552  -1.224  1.00  0.00     0.094 A 
ATOM     11  C   UNL     1      10.382   1.061   0.575  1.00  0.00     0.134 A 
ATOM     12  C   UNL     1      11.556   0.527   0.029  1.00  0.00     0.093 A 
BRANCH   3  13
ATOM     13  C   UNL     1       9.004   6.293  -1.212  1.00  0.00     0.021 A 
ATOM     14  C   UNL     1       9.076   7.411  -0.360  1.00  0.00     0.016 A 
ATOM     15  C   UNL     1       8.796   8.691  -0.847  1.00  0.00     0.051 A 
ATOM     16  C   UNL     1       8.432   8.875  -2.187  1.00  0.00     0.157 A 
ATOM     17  C   UNL     1       8.625   6.485  -2.553  1.00  0.00     0.062 A 
ATOM     18  C   UNL     1       8.345   7.765  -3.043  1.00  0.00     0.158 A 
BRANCH  16  19
ATOM     19  O   UNL     1       8.155  10.153  -2.669  1.00  0.00    -0.504 OA
ATOM     20  H   UNL     1       7.873  10.308  -3.630  1.00  0.00     0.293 HD
ENDBRANCH  16  19
BRANCH  18  21
ATOM     21  O   UNL     1       7.982   7.913  -4.381  1.00  0.00    -0.504 OA
ATOM     22  H   UNL     1       8.608   7.669  -5.139  1.00  0.00     0.293 HD
ENDBRANCH  18  21
ENDBRANCH   3  13
BRANCH  11  23
ATOM     23  O   UNL     1       9.724   0.273   1.524  1.00  0.00    -0.507 OA
ATOM     24  H   UNL     1       9.502  -0.704   1.411  1.00  0.00     0.293 HD
ENDBRANCH  11  23
ENDBRANCH   1   2
BRANCH   1  25
ATOM     25  C   UNL     1      14.494   1.525  -2.198  1.00  0.00     0.339 C 
ATOM     26  C   UNL     1      15.728   0.674  -2.590  1.00  0.00     0.214 C 
ATOM     27  O   UNL     1      14.894   2.684  -1.481  1.00  0.00    -0.332 OA
ATOM     28  C   UNL     1      16.590   0.322  -1.357  1.00  0.00     0.180 C 
ATOM     29  C   UNL     1      15.561   2.351  -0.272  1.00  0.00     0.179 C 
ATOM     30  C   UNL     1      16.886   1.604  -0.554  1.00  0.00     0.177 C 
BRANCH  26  31
ATOM     31  O   UNL     1      15.376  -0.469  -3.330  1.00  0.00    -0.384 OA
ATOM     32  H   UNL     1      14.400  -0.444  -3.496  1.00  0.00     0.211 HD
ENDBRANCH  26  31
BRANCH  28  33
ATOM     33  O   UNL     1      15.920  -0.608  -0.542  1.00  0.00    -0.387 OA
ATOM     34  H   UNL     1      16.413  -1.466  -0.620  1.00  0.00     0.211 HD
ENDBRANCH  28  33
BRANCH  29  35
ATOM     35  C   UNL     1      15.790   3.629   0.546  1.00  0.00     0.191 C 
BRANCH  35  36
ATOM     36  O   UNL     1      16.513   4.572  -0.197  1.00  0.00    -0.394 OA
ATOM     37  H   UNL     1      15.914   4.860  -0.933  1.00  0.00     0.210 HD
ENDBRANCH  35  36
ENDBRANCH  29  35
BRANCH  30  38
ATOM     38  O   UNL     1      17.761   2.429  -1.282  1.00  0.00    -0.387 OA
ATOM     39  H   UNL     1      18.393   1.829  -1.758  1.00  0.00     0.211 HD
ENDBRANCH  30  38
ENDBRANCH   1  25
TORSDOF 11
ENDMDL
MODEL 2
REMARK VINA RESULT:    -6.868      1.913      8.111
REMARK INTER + INTRA:         -10.486
REMARK INTER:                 -10.161
REMARK INTRA:                  -0.325
REMARK UNBOUND:                -0.606
REMARK SMILES O=c1cc(-c2ccc(O)c(O)c2)oc2cc(O[C@H]3O[C@H](CO)[C@H](O)[C@@H](O)[C@H]3O)cc(O)c12
REMARK SMILES IDX 17 1 16 2 4 3 3 4 13 5 2 6 14 7 1 8 32 9 15 10 30 11 29 12
REMARK SMILES IDX 5 13 6 14 7 15 8 16 12 17 10 18 9 19 11 21 31 23 18 25 27 26
REMARK SMILES IDX 19 27 25 28 20 29 23 30 28 31 26 33 21 35 22 36 24 38
REMARK H PARENT 9 20 11 22 31 24 28 32 26 34 22 37 24 39
REMARK Flexibility Score: inf
ROOT
ATOM      1  O   UNL     1      10.036   5.855   0.472  1.00  0.00    -0.462 OA
ENDROOT
BRANCH   1   2
ATOM      2  C   UNL     1      10.599   4.627   0.861  1.00  0.00     0.130 A 
ATOM      3  C   UNL     1      14.108   1.498   0.074  1.00  0.00     0.138 A 
ATOM      4  C   UNL     1      13.704   0.671   1.131  1.00  0.00     0.100 A 
ATOM      5  O   UNL     1      13.417   2.604  -0.186  1.00  0.00    -0.456 OA
ATOM      6  C   UNL     1      12.588   1.019   1.893  1.00  0.00     0.197 A 
ATOM      7  C   UNL     1      12.345   2.977   0.503  1.00  0.00     0.146 A 
ATOM      8  O   UNL     1      12.286   0.286   2.871  1.00  0.00    -0.289 OA
ATOM      9  C   UNL     1      11.851   2.183   1.570  1.00  0.00     0.107 A 
ATOM     10  C   UNL     1      11.716   4.176   0.160  1.00  0.00     0.094 A 
ATOM     11  C   UNL     1      10.676   2.617   2.252  1.00  0.00     0.134 A 
ATOM     12  C   UNL     1      10.090   3.842   1.910  1.00  0.00     0.093 A 
BRANCH   3  13
ATOM     13  C   UNL     1      15.285   1.175  -0.771  1.00  0.00     0.021 A 
ATOM     14  C   UNL     1      16.549   1.746  -0.531  1.00  0.00     0.016 A 
ATOM     15  C   UNL     1      17.636   1.431  -1.350  1.00  0.00     0.051 A 
ATOM     16  C   UNL     1      17.479   0.548  -2.426  1.00  0.00     0.157 A 
ATOM     17  C   UNL     1      15.133   0.300  -1.862  1.00  0.00     0.062 A 
ATOM     18  C   UNL     1      16.220  -0.019  -2.683  1.00  0.00     0.158 A 
BRANCH  16  19
ATOM     19  O   UNL     1      18.567   0.234  -3.240  1.00  0.00    -0.504 OA
ATOM     20  H   UNL     1      19.425   0.771  -3.209  1.00  0.00     0.293 HD
ENDBRANCH  16  19
BRANCH  18  21
ATOM     21  O   UNL     1      16.030  -0.899  -3.748  1.00  0.00    -0.504 OA
ATOM     22  H   UNL     1      15.717  -0.582  -4.659  1.00  0.00     0.293 HD
ENDBRANCH  18  21
ENDBRANCH   3  13
BRANCH  11  23
ATOM     23  O   UNL     1      10.034   1.878   3.250  1.00  0.00    -0.507 OA
ATOM     24  H   UNL     1       9.119   1.463   3.164  1.00  0.00     0.293 HD
ENDBRANCH  11  23
ENDBRANCH   1   2
BRANCH   1  25
ATOM     25  C   UNL     1       8.727   6.066  -0.074  1.00  0.00     0.339 C 
ATOM     26  C   UNL     1       8.509   5.292  -1.399  1.00  0.00     0.214 C 
ATOM     27  O   UNL     1       8.498   7.455  -0.264  1.00  0.00    -0.332 OA
ATOM     28  C   UNL     1       9.373   5.869  -2.543  1.00  0.00     0.180 C 
ATOM     29  C   UNL     1       9.396   8.011  -1.214  1.00  0.00     0.179 C 
ATOM     30  C   UNL     1       9.173   7.395  -2.616  1.00  0.00     0.177 C 
BRANCH  26  31
ATOM     31  O   UNL     1       8.696   3.906  -1.245  1.00  0.00    -0.384 OA
ATOM     32  H   UNL     1       8.519   3.672  -0.299  1.00  0.00     0.211 HD
ENDBRANCH  26  31
BRANCH  28  33
ATOM     33  O   UNL     1      10.730   5.574  -2.327  1.00  0.00    -0.387 OA
ATOM     34  H   UNL     1      10.839   5.421  -1.352  1.00  0.00     0.211 HD
ENDBRANCH  28  33
BRANCH  29  35
ATOM     35  C   UNL     1       9.232   9.537  -1.229  1.00  0.00     0.191 C 
BRANCH  35  36
ATOM     36  O   UNL     1       9.787  10.085  -2.393  1.00  0.00    -0.394 OA
ATOM     37  H   UNL     1       9.059  10.093  -3.068  1.00  0.00     0.210 HD
ENDBRANCH  35  36
ENDBRANCH  29  35
BRANCH  30  38
ATOM     38  O   UNL     1       7.875   7.685  -3.072  1.00  0.00    -0.387 OA
ATOM     39  H   UNL     1       7.783   7.262  -3.966  1.00  0.00     0.211 HD
ENDBRANCH  30  38
ENDBRANCH   1  25
TORSDOF 11
ENDMDL
MODEL 3
REMARK VINA RESULT:    -6.484      1.228      2.515
REMARK INTER + INTRA:          -9.933
REMARK INTER:                  -9.676
REMARK INTRA:                  -0.258
REMARK UNBOUND:                -0.606
REMARK SMILES O=c1cc(-c2ccc(O)c(O)c2)oc2cc(O[C@H]3O[C@H](CO)[C@H](O)[C@@H](O)[C@H]3O)cc(O)c12
REMARK SMILES IDX 17 1 16 2 4 3 3 4 13 5 2 6 14 7 1 8 32 9 15 10 30 11 29 12
REMARK SMILES IDX 5 13 6 14 7 15 8 16 12 17 10 18 9 19 11 21 31 23 18 25 27 26
REMARK SMILES IDX 19 27 25 28 20 29 23 30 28 31 26 33 21 35 22 36 24 38
REMARK H PARENT 9 20 11 22 31 24 28 32 26 34 22 37 24 39
REMARK Flexibility Score: inf
ROOT
ATOM      1  O   UNL     1      14.276   2.159   0.686  1.00  0.00    -0.462 OA
ENDROOT
BRANCH   1   2
ATOM      2  C   UNL     1      12.902   2.434   0.809  1.00  0.00     0.130 A 
ATOM      3  C   UNL     1       9.383   5.428  -0.362  1.00  0.00     0.138 A 
ATOM      4  C   UNL     1       8.408   4.639   0.263  1.00  0.00     0.100 A 
ATOM      5  O   UNL     1      10.653   5.036  -0.331  1.00  0.00    -0.456 OA
ATOM      6  C   UNL     1       8.781   3.458   0.906  1.00  0.00     0.197 A 
ATOM      7  C   UNL     1      11.063   3.925   0.271  1.00  0.00     0.146 A 
ATOM      8  O   UNL     1       7.875   2.743   1.407  1.00  0.00    -0.289 OA
ATOM      9  C   UNL     1      10.146   3.085   0.953  1.00  0.00     0.107 A 
ATOM     10  C   UNL     1      12.419   3.596   0.213  1.00  0.00     0.094 A 
ATOM     11  C   UNL     1      10.649   1.923   1.610  1.00  0.00     0.134 A 
ATOM     12  C   UNL     1      12.007   1.600   1.502  1.00  0.00     0.093 A 
BRANCH   3  13
ATOM     13  C   UNL     1       9.043   6.695  -1.057  1.00  0.00     0.021 A 
ATOM     14  C   UNL     1       9.065   7.935  -0.390  1.00  0.00     0.016 A 
ATOM     15  C   UNL     1       8.730   9.110  -1.069  1.00  0.00     0.051 A 
ATOM     16  C   UNL     1       8.360   9.066  -2.419  1.00  0.00     0.157 A 
ATOM     17  C   UNL     1       8.657   6.659  -2.410  1.00  0.00     0.062 A 
ATOM     18  C   UNL     1       8.322   7.834  -3.092  1.00  0.00     0.158 A 
BRANCH  16  19
ATOM     19  O   UNL     1       8.027  10.241  -3.093  1.00  0.00    -0.504 OA
ATOM     20  H   UNL     1       7.072  10.577  -3.133  1.00  0.00     0.293 HD
ENDBRANCH  16  19
BRANCH  18  21
ATOM     21  O   UNL     1       7.955   7.757  -4.434  1.00  0.00    -0.504 OA
ATOM     22  H   UNL     1       7.093   7.315  -4.732  1.00  0.00     0.293 HD
ENDBRANCH  18  21
ENDBRANCH   3  13
BRANCH  11  23
ATOM     23  O   UNL     1       9.868   1.071   2.397  1.00  0.00    -0.507 OA
ATOM     24  H   UNL     1       9.627   1.235   3.362  1.00  0.00     0.293 HD
ENDBRANCH  11  23
ENDBRANCH   1   2
BRANCH   1  25
ATOM     25  C   UNL     1      14.870   0.946   0.202  1.00  0.00     0.339 C 
ATOM     26  C   UNL     1      16.116   1.212  -0.681  1.00  0.00     0.214 C 
ATOM     27  O   UNL     1      13.906   0.184  -0.510  1.00  0.00    -0.332 OA
ATOM     28  C   UNL     1      15.730   1.876  -2.022  1.00  0.00     0.180 C 
ATOM     29  C   UNL     1      13.448   0.867  -1.669  1.00  0.00     0.179 C 
ATOM     30  C   UNL     1      14.596   1.071  -2.686  1.00  0.00     0.177 C 
BRANCH  26  31
ATOM     31  O   UNL     1      17.109   1.939   0.000  1.00  0.00    -0.384 OA
ATOM     32  H   UNL     1      17.898   1.351   0.119  1.00  0.00     0.211 HD
ENDBRANCH  26  31
BRANCH  28  33
ATOM     33  O   UNL     1      15.315   3.202  -1.809  1.00  0.00    -0.387 OA
ATOM     34  H   UNL     1      15.992   3.787  -2.238  1.00  0.00     0.211 HD
ENDBRANCH  28  33
BRANCH  29  35
ATOM     35  C   UNL     1      12.275   0.088  -2.282  1.00  0.00     0.191 C 
BRANCH  35  36
ATOM     36  O   UNL     1      11.144   0.906  -2.401  1.00  0.00    -0.394 OA
ATOM     37  H   UNL     1      11.392   1.779  -2.000  1.00  0.00     0.210 HD
ENDBRANCH  35  36
ENDBRANCH  29  35
BRANCH  30  38
ATOM     38  O   UNL     1      15.086  -0.174  -3.119  1.00  0.00    -0.387 OA
ATOM     39  H   UNL     1      15.382  -0.055  -4.059  1.00  0.00     0.211 HD
ENDBRANCH  30  38
ENDBRANCH   1  25
TORSDOF 11
ENDMDL
MODEL 4
REMARK VINA RESULT:    -5.721     16.900     21.089
REMARK INTER + INTRA:          -8.836
REMARK INTER:                  -8.013
REMARK INTRA:                  -0.823
REMARK UNBOUND:                -0.606
REMARK SMILES O=c1cc(-c2ccc(O)c(O)c2)oc2cc(O[C@H]3O[C@H](CO)[C@H](O)[C@@H](O)[C@H]3O)cc(O)c12
REMARK SMILES IDX 17 1 16 2 4 3 3 4 13 5 2 6 14 7 1 8 32 9 15 10 30 11 29 12
REMARK SMILES IDX 5 13 6 14 7 15 8 16 12 17 10 18 9 19 11 21 31 23 18 25 27 26
REMARK SMILES IDX 19 27 25 28 20 29 23 30 28 31 26 33 21 35 22 36 24 38
REMARK H PARENT 9 20 11 22 31 24 28 32 26 34 22 37 24 39
REMARK Flexibility Score: inf
ROOT
ATOM      1  O   UNL     1      26.619  16.114   5.858  1.00  0.00    -0.462 OA
ENDROOT
BRANCH   1   2
ATOM      2  C   UNL     1      26.870  15.328   6.997  1.00  0.00     0.130 A 
ATOM      3  C   UNL     1      27.183  10.889   8.705  1.00  0.00     0.138 A 
ATOM      4  C   UNL     1      27.576  11.330   9.976  1.00  0.00     0.100 A 
ATOM      5  O   UNL     1      26.931  11.785   7.756  1.00  0.00    -0.456 OA
ATOM      6  C   UNL     1      27.697  12.697  10.227  1.00  0.00     0.197 A 
ATOM      7  C   UNL     1      27.025  13.097   7.942  1.00  0.00     0.146 A 
ATOM      8  O   UNL     1      28.107  13.058  11.360  1.00  0.00    -0.289 OA
ATOM      9  C   UNL     1      27.388  13.629   9.207  1.00  0.00     0.107 A 
ATOM     10  C   UNL     1      26.767  13.945   6.863  1.00  0.00     0.094 A 
ATOM     11  C   UNL     1      27.439  15.046   9.358  1.00  0.00     0.134 A 
ATOM     12  C   UNL     1      27.212  15.869   8.247  1.00  0.00     0.093 A 
BRANCH   3  13
ATOM     13  C   UNL     1      27.034   9.447   8.384  1.00  0.00     0.021 A 
ATOM     14  C   UNL     1      27.750   8.456   9.080  1.00  0.00     0.016 A 
ATOM     15  C   UNL     1      27.596   7.107   8.749  1.00  0.00     0.051 A 
ATOM     16  C   UNL     1      26.733   6.726   7.713  1.00  0.00     0.157 A 
ATOM     17  C   UNL     1      26.179   9.057   7.336  1.00  0.00     0.062 A 
ATOM     18  C   UNL     1      26.022   7.708   7.003  1.00  0.00     0.158 A 
BRANCH  16  19
ATOM     19  O   UNL     1      26.581   5.379   7.387  1.00  0.00    -0.504 OA
ATOM     20  H   UNL     1      26.325   4.690   8.084  1.00  0.00     0.293 HD
ENDBRANCH  16  19
BRANCH  18  21
ATOM     21  O   UNL     1      25.158   7.362   5.965  1.00  0.00    -0.504 OA
ATOM     22  H   UNL     1      25.475   7.280   5.006  1.00  0.00     0.293 HD
ENDBRANCH  18  21
ENDBRANCH   3  13
BRANCH  11  23
ATOM     23  O   UNL     1      27.685  15.695  10.572  1.00  0.00    -0.507 OA
ATOM     24  H   UNL     1      27.351  15.384  11.471  1.00  0.00     0.293 HD
ENDBRANCH  11  23
ENDBRANCH   1   2
BRANCH   1  25
ATOM     25  C   UNL     1      26.090  17.447   5.833  1.00  0.00     0.339 C 
ATOM     26  C   UNL     1      24.553  17.468   5.631  1.00  0.00     0.214 C 
ATOM     27  O   UNL     1      26.737  18.207   4.822  1.00  0.00    -0.332 OA
ATOM     28  C   UNL     1      24.160  16.997   4.213  1.00  0.00     0.180 C 
ATOM     29  C   UNL     1      26.487  17.680   3.527  1.00  0.00     0.179 C 
ATOM     30  C   UNL     1      24.985  17.772   3.168  1.00  0.00     0.177 C 
BRANCH  26  31
ATOM     31  O   UNL     1      23.873  16.751   6.632  1.00  0.00    -0.384 OA
ATOM     32  H   UNL     1      23.247  16.121   6.193  1.00  0.00     0.211 HD
ENDBRANCH  26  31
BRANCH  28  33
ATOM     33  O   UNL     1      24.389  15.617   4.075  1.00  0.00    -0.387 OA
ATOM     34  H   UNL     1      25.323  15.511   3.757  1.00  0.00     0.211 HD
ENDBRANCH  28  33
BRANCH  29  35
ATOM     35  C   UNL     1      27.365  18.417   2.505  1.00  0.00     0.191 C 
BRANCH  35  36
ATOM     36  O   UNL     1      27.573  17.626   1.367  1.00  0.00    -0.394 OA
ATOM     37  H   UNL     1      26.671  17.366   1.045  1.00  0.00     0.210 HD
ENDBRANCH  35  36
ENDBRANCH  29  35
BRANCH  30  38
ATOM     38  O   UNL     1      24.576  19.117   3.140  1.00  0.00    -0.387 OA
ATOM     39  H   UNL     1      23.631  19.124   2.836  1.00  0.00     0.211 HD
ENDBRANCH  30  38
ENDBRANCH   1  25
TORSDOF 11
ENDMDL
MODEL 5
REMARK VINA RESULT:    -5.556     16.552     20.922
REMARK INTER + INTRA:          -8.598
REMARK INTER:                  -7.869
REMARK INTRA:                  -0.729
REMARK UNBOUND:                -0.606
REMARK SMILES O=c1cc(-c2ccc(O)c(O)c2)oc2cc(O[C@H]3O[C@H](CO)[C@H](O)[C@@H](O)[C@H]3O)cc(O)c12
REMARK SMILES IDX 17 1 16 2 4 3 3 4 13 5 2 6 14 7 1 8 32 9 15 10 30 11 29 12
REMARK SMILES IDX 5 13 6 14 7 15 8 16 12 17 10 18 9 19 11 21 31 23 18 25 27 26
REMARK SMILES IDX 19 27 25 28 20 29 23 30 28 31 26 33 21 35 22 36 24 38
REMARK H PARENT 9 20 11 22 31 24 28 32 26 34 22 37 24 39
REMARK Flexibility Score: inf
ROOT
ATOM      1  O   UNL     1      26.867  16.224   6.259  1.00  0.00    -0.462 OA
ENDROOT
BRANCH   1   2
ATOM      2  C   UNL     1      27.069  15.354   7.345  1.00  0.00     0.130 A 
ATOM      3  C   UNL     1      27.259  10.799   8.734  1.00  0.00     0.138 A 
ATOM      4  C   UNL     1      27.615  11.139  10.047  1.00  0.00     0.100 A 
ATOM      5  O   UNL     1      27.053  11.765   7.846  1.00  0.00    -0.456 OA
ATOM      6  C   UNL     1      27.748  12.483  10.400  1.00  0.00     0.197 A 
ATOM      7  C   UNL     1      27.159  13.058   8.131  1.00  0.00     0.146 A 
ATOM      8  O   UNL     1      28.125  12.754  11.570  1.00  0.00    -0.289 OA
ATOM      9  C   UNL     1      27.487  13.491   9.441  1.00  0.00     0.107 A 
ATOM     10  C   UNL     1      26.950  13.986   7.108  1.00  0.00     0.094 A 
ATOM     11  C   UNL     1      27.554  14.893   9.697  1.00  0.00     0.134 A 
ATOM     12  C   UNL     1      27.376  15.798   8.643  1.00  0.00     0.093 A 
BRANCH   3  13
ATOM     13  C   UNL     1      27.100   9.387   8.305  1.00  0.00     0.021 A 
ATOM     14  C   UNL     1      27.845   8.345   8.890  1.00  0.00     0.016 A 
ATOM     15  C   UNL     1      27.681   7.027   8.457  1.00  0.00     0.051 A 
ATOM     16  C   UNL     1      26.778   6.726   7.430  1.00  0.00     0.157 A 
ATOM     17  C   UNL     1      26.205   9.078   7.264  1.00  0.00     0.062 A 
ATOM     18  C   UNL     1      26.038   7.758   6.829  1.00  0.00     0.158 A 
BRANCH  16  19
ATOM     19  O   UNL     1      26.615   5.409   7.002  1.00  0.00    -0.504 OA
ATOM     20  H   UNL     1      26.101   4.732   7.553  1.00  0.00     0.293 HD
ENDBRANCH  16  19
BRANCH  18  21
ATOM     21  O   UNL     1      25.134   7.493   5.802  1.00  0.00    -0.504 OA
ATOM     22  H   UNL     1      24.401   8.145   5.548  1.00  0.00     0.293 HD
ENDBRANCH  18  21
ENDBRANCH   3  13
BRANCH  11  23
ATOM     23  O   UNL     1      27.767  15.447  10.962  1.00  0.00    -0.507 OA
ATOM     24  H   UNL     1      28.664  15.729  11.327  1.00  0.00     0.293 HD
ENDBRANCH  11  23
ENDBRANCH   1   2
BRANCH   1  25
ATOM     25  C   UNL     1      26.605  15.854   4.898  1.00  0.00     0.339 C 
ATOM     26  C   UNL     1      26.795  17.040   3.918  1.00  0.00     0.214 C 
ATOM     27  O   UNL     1      25.294  15.318   4.785  1.00  0.00    -0.332 OA
ATOM     28  C   UNL     1      25.709  18.121   4.116  1.00  0.00     0.180 C 
ATOM     29  C   UNL     1      24.302  16.282   5.110  1.00  0.00     0.179 C 
ATOM     30  C   UNL     1      24.318  17.458   4.106  1.00  0.00     0.177 C 
BRANCH  26  31
ATOM     31  O   UNL     1      28.093  17.579   3.977  1.00  0.00    -0.384 OA
ATOM     32  H   UNL     1      28.109  18.411   3.439  1.00  0.00     0.211 HD
ENDBRANCH  26  31
BRANCH  28  33
ATOM     33  O   UNL     1      25.909  18.797   5.333  1.00  0.00    -0.387 OA
ATOM     34  H   UNL     1      25.454  19.675   5.251  1.00  0.00     0.211 HD
ENDBRANCH  28  33
BRANCH  29  35
ATOM     35  C   UNL     1      22.930  15.594   5.162  1.00  0.00     0.191 C 
BRANCH  35  36
ATOM     36  O   UNL     1      22.922  14.573   6.122  1.00  0.00    -0.394 OA
ATOM     37  H   UNL     1      23.143  15.008   6.987  1.00  0.00     0.210 HD
ENDBRANCH  35  36
ENDBRANCH  29  35
BRANCH  30  38
ATOM     38  O   UNL     1      24.020  16.995   2.813  1.00  0.00    -0.387 OA
ATOM     39  H   UNL     1      23.042  16.823   2.787  1.00  0.00     0.211 HD
ENDBRANCH  30  38
ENDBRANCH   1  25
TORSDOF 11
ENDMDL
MODEL 6
REMARK VINA RESULT:    -5.242      3.353      8.823
REMARK INTER + INTRA:          -8.147
REMARK INTER:                  -7.998
REMARK INTRA:                  -0.149
REMARK UNBOUND:                -0.606
REMARK SMILES O=c1cc(-c2ccc(O)c(O)c2)oc2cc(O[C@H]3O[C@H](CO)[C@H](O)[C@@H](O)[C@H]3O)cc(O)c12
REMARK SMILES IDX 17 1 16 2 4 3 3 4 13 5 2 6 14 7 1 8 32 9 15 10 30 11 29 12
REMARK SMILES IDX 5 13 6 14 7 15 8 16 12 17 10 18 9 19 11 21 31 23 18 25 27 26
REMARK SMILES IDX 19 27 25 28 20 29 23 30 28 31 26 33 21 35 22 36 24 38
REMARK H PARENT 9 20 11 22 31 24 28 32 26 34 22 37 24 39
REMARK Flexibility Score: inf
ROOT
ATOM      1  O   UNL     1      11.686   4.192  -1.550  1.00  0.00    -0.462 OA
ENDROOT
BRANCH   1   2
ATOM      2  C   UNL     1      12.519   3.068  -1.407  1.00  0.00     0.130 A 
ATOM      3  C   UNL     1      14.544   0.061   1.687  1.00  0.00     0.138 A 
ATOM      4  C   UNL     1      15.106  -0.722   0.668  1.00  0.00     0.100 A 
ATOM      5  O   UNL     1      13.823   1.129   1.363  1.00  0.00    -0.456 OA
ATOM      6  C   UNL     1      14.900  -0.370  -0.667  1.00  0.00     0.197 A 
ATOM      7  C   UNL     1      13.601   1.511   0.110  1.00  0.00     0.146 A 
ATOM      8  O   UNL     1      15.368  -1.125  -1.558  1.00  0.00    -0.289 OA
ATOM      9  C   UNL     1      14.157   0.793  -0.980  1.00  0.00     0.107 A 
ATOM     10  C   UNL     1      12.801   2.634  -0.113  1.00  0.00     0.094 A 
ATOM     11  C   UNL     1      13.914   1.271  -2.302  1.00  0.00     0.134 A 
ATOM     12  C   UNL     1      13.076   2.376  -2.496  1.00  0.00     0.093 A 
BRANCH   3  13
ATOM     13  C   UNL     1      14.734  -0.265   3.123  1.00  0.00     0.021 A 
ATOM     14  C   UNL     1      13.707  -0.838   3.895  1.00  0.00     0.016 A 
ATOM     15  C   UNL     1      13.912  -1.125   5.247  1.00  0.00     0.051 A 
ATOM     16  C   UNL     1      15.142  -0.836   5.853  1.00  0.00     0.157 A 
ATOM     17  C   UNL     1      15.962   0.034   3.743  1.00  0.00     0.062 A 
ATOM     18  C   UNL     1      16.171  -0.253   5.096  1.00  0.00     0.158 A 
BRANCH  16  19
ATOM     19  O   UNL     1      15.343  -1.125   7.202  1.00  0.00    -0.504 OA
ATOM     20  H   UNL     1      14.571  -1.165   7.857  1.00  0.00     0.293 HD
ENDBRANCH  16  19
BRANCH  18  21
ATOM     21  O   UNL     1      17.405   0.050   5.670  1.00  0.00    -0.504 OA
ATOM     22  H   UNL     1      17.487   0.638   6.491  1.00  0.00     0.293 HD
ENDBRANCH  18  21
ENDBRANCH   3  13
BRANCH  11  23
ATOM     23  O   UNL     1      14.484   0.714  -3.451  1.00  0.00    -0.507 OA
ATOM     24  H   UNL     1      14.703  -0.262  -3.574  1.00  0.00     0.293 HD
ENDBRANCH  11  23
ENDBRANCH   1   2
BRANCH   1  25
ATOM     25  C   UNL     1      10.256   4.192  -1.666  1.00  0.00     0.339 C 
ATOM     26  C   UNL     1       9.626   5.523  -1.182  1.00  0.00     0.214 C 
ATOM     27  O   UNL     1       9.711   3.092  -0.951  1.00  0.00    -0.332 OA
ATOM     28  C   UNL     1       9.771   5.698   0.346  1.00  0.00     0.180 C 
ATOM     29  C   UNL     1       9.975   3.187   0.442  1.00  0.00     0.179 C 
ATOM     30  C   UNL     1       9.277   4.423   1.058  1.00  0.00     0.177 C 
BRANCH  26  31
ATOM     31  O   UNL     1      10.118   6.636  -1.889  1.00  0.00    -0.384 OA
ATOM     32  H   UNL     1       9.426   6.922  -2.538  1.00  0.00     0.211 HD
ENDBRANCH  26  31
BRANCH  28  33
ATOM     33  O   UNL     1      11.113   5.945   0.684  1.00  0.00    -0.387 OA
ATOM     34  H   UNL     1      11.359   5.284   1.383  1.00  0.00     0.211 HD
ENDBRANCH  28  33
BRANCH  29  35
ATOM     35  C   UNL     1       9.538   1.885   1.127  1.00  0.00     0.191 C 
BRANCH  35  36
ATOM     36  O   UNL     1       9.404   2.072   2.509  1.00  0.00    -0.394 OA
ATOM     37  H   UNL     1       9.731   1.236   2.933  1.00  0.00     0.210 HD
ENDBRANCH  35  36
ENDBRANCH  29  35
BRANCH  30  38
ATOM     38  O   UNL     1       7.882   4.311   0.920  1.00  0.00    -0.387 OA
ATOM     39  H   UNL     1       7.573   3.688   1.628  1.00  0.00     0.211 HD
ENDBRANCH  30  38
ENDBRANCH   1  25
TORSDOF 11
ENDMDL
MODEL 7
REMARK VINA RESULT:    -4.893      3.169      8.888
REMARK INTER + INTRA:          -7.645
REMARK INTER:                  -7.653
REMARK INTRA:                   0.008
REMARK UNBOUND:                -0.606
REMARK SMILES O=c1cc(-c2ccc(O)c(O)c2)oc2cc(O[C@H]3O[C@H](CO)[C@H](O)[C@@H](O)[C@H]3O)cc(O)c12
REMARK SMILES IDX 17 1 16 2 4 3 3 4 13 5 2 6 14 7 1 8 32 9 15 10 30 11 29 12
REMARK SMILES IDX 5 13 6 14 7 15 8 16 12 17 10 18 9 19 11 21 31 23 18 25 27 26
REMARK SMILES IDX 19 27 25 28 20 29 23 30 28 31 26 33 21 35 22 36 24 38
REMARK H PARENT 9 20 11 22 31 24 28 32 26 34 22 37 24 39
REMARK Flexibility Score: inf
ROOT
ATOM      1  O   UNL     1      10.576   4.381  -0.711  1.00  0.00    -0.462 OA
ENDROOT
BRANCH   1   2
ATOM      2  C   UNL     1      11.895   3.897  -0.783  1.00  0.00     0.130 A 
ATOM      3  C   UNL     1      15.315   1.487   1.500  1.00  0.00     0.138 A 
ATOM      4  C   UNL     1      16.192   1.558   0.409  1.00  0.00     0.100 A 
ATOM      5  O   UNL     1      14.116   2.053   1.407  1.00  0.00    -0.456 OA
ATOM      6  C   UNL     1      15.796   2.218  -0.755  1.00  0.00     0.197 A 
ATOM      7  C   UNL     1      13.692   2.699   0.327  1.00  0.00     0.146 A 
ATOM      8  O   UNL     1      16.583   2.214  -1.737  1.00  0.00    -0.289 OA
ATOM      9  C   UNL     1      14.527   2.842  -0.811  1.00  0.00     0.107 A 
ATOM     10  C   UNL     1      12.400   3.228   0.330  1.00  0.00     0.094 A 
ATOM     11  C   UNL     1      14.030   3.575  -1.930  1.00  0.00     0.134 A 
ATOM     12  C   UNL     1      12.717   4.062  -1.911  1.00  0.00     0.093 A 
BRANCH   3  13
ATOM     13  C   UNL     1      15.686   0.801   2.763  1.00  0.00     0.021 A 
ATOM     14  C   UNL     1      15.256  -0.509   3.049  1.00  0.00     0.016 A 
ATOM     15  C   UNL     1      15.613  -1.125   4.251  1.00  0.00     0.051 A 
ATOM     16  C   UNL     1      16.397  -0.443   5.191  1.00  0.00     0.157 A 
ATOM     17  C   UNL     1      16.462   1.483   3.718  1.00  0.00     0.062 A 
ATOM     18  C   UNL     1      16.822   0.868   4.922  1.00  0.00     0.158 A 
BRANCH  16  19
ATOM     19  O   UNL     1      16.753  -1.062   6.388  1.00  0.00    -0.504 OA
ATOM     20  H   UNL     1      17.272  -0.570   7.106  1.00  0.00     0.293 HD
ENDBRANCH  16  19
BRANCH  18  21
ATOM     21  O   UNL     1      17.600   1.575   5.838  1.00  0.00    -0.504 OA
ATOM     22  H   UNL     1      17.572   2.586   5.901  1.00  0.00     0.293 HD
ENDBRANCH  18  21
ENDBRANCH   3  13
BRANCH  11  23
ATOM     23  O   UNL     1      14.787   3.873  -3.067  1.00  0.00    -0.507 OA
ATOM     24  H   UNL     1      15.158   3.191  -3.709  1.00  0.00     0.293 HD
ENDBRANCH  11  23
ENDBRANCH   1   2
BRANCH   1  25
ATOM     25  C   UNL     1       9.401   3.754  -1.244  1.00  0.00     0.339 C 
ATOM     26  C   UNL     1       8.230   3.738  -0.229  1.00  0.00     0.214 C 
ATOM     27  O   UNL     1       9.707   2.435  -1.674  1.00  0.00    -0.332 OA
ATOM     28  C   UNL     1       8.521   2.796   0.960  1.00  0.00     0.180 C 
ATOM     29  C   UNL     1      10.115   1.610  -0.591  1.00  0.00     0.179 C 
ATOM     30  C   UNL     1       8.965   1.420   0.428  1.00  0.00     0.177 C 
BRANCH  26  31
ATOM     31  O   UNL     1       7.875   5.031   0.198  1.00  0.00    -0.384 OA
ATOM     32  H   UNL     1       7.875   5.042   1.188  1.00  0.00     0.211 HD
ENDBRANCH  26  31
BRANCH  28  33
ATOM     33  O   UNL     1       9.525   3.339   1.780  1.00  0.00    -0.387 OA
ATOM     34  H   UNL     1       9.318   4.303   1.888  1.00  0.00     0.211 HD
ENDBRANCH  28  33
BRANCH  29  35
ATOM     35  C   UNL     1      10.617   0.268  -1.142  1.00  0.00     0.191 C 
BRANCH  35  36
ATOM     36  O   UNL     1       9.972  -0.048  -2.345  1.00  0.00    -0.394 OA
ATOM     37  H   UNL     1       9.858  -1.034  -2.345  1.00  0.00     0.210 HD
ENDBRANCH  35  36
ENDBRANCH  29  35
BRANCH  30  38
ATOM     38  O   UNL     1       7.878   0.772  -0.184  1.00  0.00    -0.387 OA
ATOM     39  H   UNL     1       7.979   0.904  -1.163  1.00  0.00     0.211 HD
ENDBRANCH  30  38
ENDBRANCH   1  25
TORSDOF 11
ENDMDL
MODEL 8
REMARK VINA RESULT:    -4.703     16.105     18.369
REMARK INTER + INTRA:          -7.372
REMARK INTER:                  -6.405
REMARK INTRA:                  -0.967
REMARK UNBOUND:                -0.606
REMARK SMILES O=c1cc(-c2ccc(O)c(O)c2)oc2cc(O[C@H]3O[C@H](CO)[C@H](O)[C@@H](O)[C@H]3O)cc(O)c12
REMARK SMILES IDX 17 1 16 2 4 3 3 4 13 5 2 6 14 7 1 8 32 9 15 10 30 11 29 12
REMARK SMILES IDX 5 13 6 14 7 15 8 16 12 17 10 18 9 19 11 21 31 23 18 25 27 26
REMARK SMILES IDX 19 27 25 28 20 29 23 30 28 31 26 33 21 35 22 36 24 38
REMARK H PARENT 9 20 11 22 31 24 28 32 26 34 22 37 24 39
REMARK Flexibility Score: inf
ROOT
ATOM      1  O   UNL     1      26.312   9.968   7.264  1.00  0.00    -0.462 OA
ENDROOT
BRANCH   1   2
ATOM      2  C   UNL     1      26.342  11.368   7.395  1.00  0.00     0.130 A 
ATOM      3  C   UNL     1      24.462  15.484   5.898  1.00  0.00     0.138 A 
ATOM      4  C   UNL     1      25.225  16.242   6.798  1.00  0.00     0.100 A 
ATOM      5  O   UNL     1      24.606  14.163   5.876  1.00  0.00    -0.456 OA
ATOM      6  C   UNL     1      26.120  15.601   7.655  1.00  0.00     0.197 A 
ATOM      7  C   UNL     1      25.448  13.505   6.665  1.00  0.00     0.146 A 
ATOM      8  O   UNL     1      26.747  16.304   8.490  1.00  0.00    -0.289 OA
ATOM      9  C   UNL     1      26.278  14.197   7.585  1.00  0.00     0.107 A 
ATOM     10  C   UNL     1      25.493  12.112   6.578  1.00  0.00     0.094 A 
ATOM     11  C   UNL     1      27.187  13.440   8.382  1.00  0.00     0.134 A 
ATOM     12  C   UNL     1      27.182  12.042   8.298  1.00  0.00     0.093 A 
BRANCH   3  13
ATOM     13  C   UNL     1      23.498  16.114   4.961  1.00  0.00     0.021 A 
ATOM     14  C   UNL     1      23.924  16.799   3.808  1.00  0.00     0.016 A 
ATOM     15  C   UNL     1      22.993  17.390   2.950  1.00  0.00     0.051 A 
ATOM     16  C   UNL     1      21.623  17.314   3.231  1.00  0.00     0.157 A 
ATOM     17  C   UNL     1      22.121  16.054   5.243  1.00  0.00     0.062 A 
ATOM     18  C   UNL     1      21.186  16.643   4.385  1.00  0.00     0.158 A 
BRANCH  16  19
ATOM     19  O   UNL     1      20.697  17.903   2.372  1.00  0.00    -0.504 OA
ATOM     20  H   UNL     1      20.046  18.609   2.697  1.00  0.00     0.293 HD
ENDBRANCH  16  19
BRANCH  18  21
ATOM     21  O   UNL     1      19.830  16.553   4.696  1.00  0.00    -0.504 OA
ATOM     22  H   UNL     1      19.347  17.277   5.215  1.00  0.00     0.293 HD
ENDBRANCH  18  21
ENDBRANCH   3  13
BRANCH  11  23
ATOM     23  O   UNL     1      28.125  14.007   9.249  1.00  0.00    -0.507 OA
ATOM     24  H   UNL     1      27.925  14.726   9.927  1.00  0.00     0.293 HD
ENDBRANCH  11  23
ENDBRANCH   1   2
BRANCH   1  25
ATOM     25  C   UNL     1      27.385   9.123   6.826  1.00  0.00     0.339 C 
ATOM     26  C   UNL     1      26.885   7.931   5.971  1.00  0.00     0.214 C 
ATOM     27  O   UNL     1      28.125   8.658   7.946  1.00  0.00    -0.332 OA
ATOM     28  C   UNL     1      26.078   6.923   6.818  1.00  0.00     0.180 C 
ATOM     29  C   UNL     1      27.331   7.846   8.800  1.00  0.00     0.179 C 
ATOM     30  C   UNL     1      26.882   6.553   8.080  1.00  0.00     0.177 C 
BRANCH  26  31
ATOM     31  O   UNL     1      26.173   8.352   4.833  1.00  0.00    -0.384 OA
ATOM     32  H   UNL     1      26.691   8.093   4.029  1.00  0.00     0.211 HD
ENDBRANCH  26  31
BRANCH  28  33
ATOM     33  O   UNL     1      24.838   7.475   7.186  1.00  0.00    -0.387 OA
ATOM     34  H   UNL     1      25.009   8.419   7.439  1.00  0.00     0.211 HD
ENDBRANCH  28  33
BRANCH  29  35
ATOM     35  C   UNL     1      28.121   7.540  10.081  1.00  0.00     0.191 C 
BRANCH  35  36
ATOM     36  O   UNL     1      27.641   6.375  10.695  1.00  0.00    -0.394 OA
ATOM     37  H   UNL     1      28.367   5.704  10.615  1.00  0.00     0.210 HD
ENDBRANCH  35  36
ENDBRANCH  29  35
BRANCH  30  38
ATOM     38  O   UNL     1      28.003   5.784   7.721  1.00  0.00    -0.387 OA
ATOM     39  H   UNL     1      28.362   6.172   6.881  1.00  0.00     0.211 HD
ENDBRANCH  30  38
ENDBRANCH   1  25
TORSDOF 11
ENDMDL
