MODEL 1
REMARK VINA RESULT:     5.497      0.000      0.000
REMARK INTER + INTRA:          12.869
REMARK INTER:                  12.567
REMARK INTRA:                   0.302
REMARK UNBOUND:                 0.302
REMARK SMILES CCCCCCCCCCCCCCCCCCCCCCCC(=O)[O-]
REMARK SMILES IDX 13 1 14 2 15 3 16 4 17 5 18 6 19 7 20 8 21 9 22 10 23 11
REMARK SMILES IDX 24 12 25 13 26 14 12 15 11 16 10 17 9 18 8 19 7 20 6 21 5 22
REMARK SMILES IDX 4 23 3 24 2 25 1 26
REMARK H PARENT
REMARK Flexibility Score: inf
ROOT
ATOM      1  C   UNL     1      -2.932  37.084  20.637  1.00  0.00     0.000 C 
ENDROOT
BRANCH   1   2
ATOM      2  C   UNL     1      -3.883  37.695  19.596  1.00  0.00     0.000 C 
BRANCH   2   3
ATOM      3  C   UNL     1      -4.371  36.628  18.604  1.00  0.00     0.000 C 
BRANCH   3   4
ATOM      4  C   UNL     1      -3.901  35.209  18.970  1.00  0.00     0.000 C 
BRANCH   4   5
ATOM      5  C   UNL     1      -4.866  34.410  19.870  1.00  0.00     0.000 C 
BRANCH   5   6
ATOM      6  C   UNL     1      -5.125  35.027  21.257  1.00  0.00     0.000 C 
BRANCH   6   7
ATOM      7  C   UNL     1      -4.041  34.657  22.284  1.00  0.00     0.000 C 
BRANCH   7   8
ATOM      8  C   UNL     1      -4.631  34.281  23.653  1.00  0.00     0.000 C 
BRANCH   8   9
ATOM      9  C   UNL     1      -5.125  35.510  24.434  1.00  0.00     0.000 C 
BRANCH   9  10
ATOM     10  C   UNL     1      -4.016  36.165  25.278  1.00  0.00     0.006 C 
BRANCH  10  11
ATOM     11  C   UNL     1      -4.339  37.591  25.753  1.00  0.00     0.053 C 
BRANCH  11  12
ATOM     12  C   UNL     1      -4.858  38.451  24.643  1.00  0.00     0.041 C 
ATOM     13  O   UNL     1      -5.123  39.665  24.852  1.00  0.00    -0.550 OA
ATOM     14  O   UNL     1      -5.073  37.907  23.382  1.00  0.00    -0.550 OA
ENDBRANCH  11  12
ENDBRANCH  10  11
ENDBRANCH   9  10
ENDBRANCH   8   9
ENDBRANCH   7   8
ENDBRANCH   6   7
ENDBRANCH   5   6
ENDBRANCH   4   5
ENDBRANCH   3   4
ENDBRANCH   2   3
ENDBRANCH   1   2
BRANCH   1  15
ATOM     15  C   UNL     1      -1.449  37.220  20.229  1.00  0.00     0.000 C 
BRANCH  15  16
ATOM     16  C   UNL     1      -1.211  38.220  19.085  1.00  0.00     0.000 C 
BRANCH  16  17
ATOM     17  C   UNL     1      -0.798  37.538  17.770  1.00  0.00     0.000 C 
BRANCH  17  18
ATOM     18  C   UNL     1      -1.775  37.832  16.621  1.00  0.00    -0.000 C 
BRANCH  18  19
ATOM     19  C   UNL     1      -1.346  37.181  15.297  1.00  0.00    -0.000 C 
BRANCH  19  20
ATOM     20  C   UNL     1      -1.999  35.803  15.127  1.00  0.00    -0.000 C 
BRANCH  20  21
ATOM     21  C   UNL     1      -3.469  35.835  15.573  1.00  0.00    -0.000 C 
BRANCH  21  22
ATOM     22  C   UNL     1      -4.397  36.469  14.525  1.00  0.00    -0.000 C 
BRANCH  22  23
ATOM     23  C   UNL     1      -3.968  37.867  14.043  1.00  0.00    -0.000 C 
BRANCH  23  24
ATOM     24  C   UNL     1      -5.044  38.954  14.256  1.00  0.00    -0.000 C 
BRANCH  24  25
ATOM     25  C   UNL     1      -4.436  40.299  14.676  1.00  0.00    -0.003 C 
ATOM     26  C   UNL     1      -5.037  41.454  13.882  1.00  0.00     0.004 C 
ENDBRANCH  24  25
ENDBRANCH  23  24
ENDBRANCH  22  23
ENDBRANCH  21  22
ENDBRANCH  20  21
ENDBRANCH  19  20
ENDBRANCH  18  19
ENDBRANCH  17  18
ENDBRANCH  16  17
ENDBRANCH  15  16
ENDBRANCH   1  15
TORSDOF 22
ENDMDL
MODEL 2
REMARK VINA RESULT:     5.994      2.823      9.709
REMARK INTER + INTRA:          14.005
REMARK INTER:                  13.220
REMARK INTRA:                   0.785
REMARK UNBOUND:                 0.302
REMARK SMILES CCCCCCCCCCCCCCCCCCCCCCCC(=O)[O-]
REMARK SMILES IDX 13 1 14 2 15 3 16 4 17 5 18 6 19 7 20 8 21 9 22 10 23 11
REMARK SMILES IDX 24 12 25 13 26 14 12 15 11 16 10 17 9 18 8 19 7 20 6 21 5 22
REMARK SMILES IDX 4 23 3 24 2 25 1 26
REMARK H PARENT
REMARK Flexibility Score: inf
ROOT
ATOM      1  C   UNL     1      -3.375  35.277  21.406  1.00  0.00     0.000 C 
ENDROOT
BRANCH   1   2
ATOM      2  C   UNL     1      -3.628  35.607  19.926  1.00  0.00     0.000 C 
BRANCH   2   3
ATOM      3  C   UNL     1      -4.934  34.964  19.435  1.00  0.00     0.000 C 
BRANCH   3   4
ATOM      4  C   UNL     1      -5.121  35.077  17.911  1.00  0.00     0.000 C 
BRANCH   4   5
ATOM      5  C   UNL     1      -3.857  35.476  17.123  1.00  0.00     0.000 C 
BRANCH   5   6
ATOM      6  C   UNL     1      -4.035  36.669  16.166  1.00  0.00     0.000 C 
BRANCH   6   7
ATOM      7  C   UNL     1      -3.535  36.370  14.743  1.00  0.00     0.000 C 
BRANCH   7   8
ATOM      8  C   UNL     1      -2.004  36.452  14.628  1.00  0.00     0.000 C 
BRANCH   8   9
ATOM      9  C   UNL     1      -1.306  36.306  15.991  1.00  0.00     0.000 C 
BRANCH   9  10
ATOM     10  C   UNL     1      -1.436  37.567  16.865  1.00  0.00     0.006 C 
BRANCH  10  11
ATOM     11  C   UNL     1      -0.487  37.601  18.074  1.00  0.00     0.053 C 
BRANCH  11  12
ATOM     12  C   UNL     1      -1.228  37.733  19.369  1.00  0.00     0.041 C 
ATOM     13  O   UNL     1      -0.638  37.525  20.462  1.00  0.00    -0.550 OA
ATOM     14  O   UNL     1      -2.579  38.064  19.367  1.00  0.00    -0.550 OA
ENDBRANCH  11  12
ENDBRANCH  10  11
ENDBRANCH   9  10
ENDBRANCH   8   9
ENDBRANCH   7   8
ENDBRANCH   6   7
ENDBRANCH   5   6
ENDBRANCH   4   5
ENDBRANCH   3   4
ENDBRANCH   2   3
ENDBRANCH   1   2
BRANCH   1  15
ATOM     15  C   UNL     1      -4.645  34.765  22.119  1.00  0.00     0.000 C 
BRANCH  15  16
ATOM     16  C   UNL     1      -4.596  34.912  23.650  1.00  0.00     0.000 C 
BRANCH  16  17
ATOM     17  C   UNL     1      -5.125  36.271  24.138  1.00  0.00     0.000 C 
BRANCH  17  18
ATOM     18  C   UNL     1      -5.068  36.411  25.667  1.00  0.00    -0.000 C 
BRANCH  18  19
ATOM     19  C   UNL     1      -5.023  37.876  26.128  1.00  0.00    -0.000 C 
BRANCH  19  20
ATOM     20  C   UNL     1      -3.590  38.298  26.474  1.00  0.00    -0.000 C 
BRANCH  20  21
ATOM     21  C   UNL     1      -2.657  37.078  26.532  1.00  0.00    -0.000 C 
BRANCH  21  22
ATOM     22  C   UNL     1      -2.176  36.763  27.957  1.00  0.00    -0.000 C 
BRANCH  22  23
ATOM     23  C   UNL     1      -1.395  35.443  28.098  1.00  0.00    -0.000 C 
BRANCH  23  24
ATOM     24  C   UNL     1      -1.784  34.623  29.348  1.00  0.00    -0.000 C 
BRANCH  24  25
ATOM     25  C   UNL     1      -0.561  34.228  30.186  1.00  0.00    -0.003 C 
ATOM     26  C   UNL     1       0.265  33.152  29.490  1.00  0.00     0.004 C 
ENDBRANCH  24  25
ENDBRANCH  23  24
ENDBRANCH  22  23
ENDBRANCH  21  22
ENDBRANCH  20  21
ENDBRANCH  19  20
ENDBRANCH  18  19
ENDBRANCH  17  18
ENDBRANCH  16  17
ENDBRANCH  15  16
ENDBRANCH   1  15
TORSDOF 22
ENDMDL
MODEL 3
REMARK VINA RESULT:     6.419      2.998      4.993
REMARK INTER + INTRA:          14.976
REMARK INTER:                  13.753
REMARK INTRA:                   1.223
REMARK UNBOUND:                 0.302
REMARK SMILES CCCCCCCCCCCCCCCCCCCCCCCC(=O)[O-]
REMARK SMILES IDX 13 1 14 2 15 3 16 4 17 5 18 6 19 7 20 8 21 9 22 10 23 11
REMARK SMILES IDX 24 12 25 13 26 14 12 15 11 16 10 17 9 18 8 19 7 20 6 21 5 22
REMARK SMILES IDX 4 23 3 24 2 25 1 26
REMARK H PARENT
REMARK Flexibility Score: inf
ROOT
ATOM      1  C   UNL     1      -3.470  36.662  21.651  1.00  0.00     0.000 C 
ENDROOT
BRANCH   1   2
ATOM      2  C   UNL     1      -3.747  35.176  21.930  1.00  0.00     0.000 C 
BRANCH   2   3
ATOM      3  C   UNL     1      -5.125  34.987  22.582  1.00  0.00     0.000 C 
BRANCH   3   4
ATOM      4  C   UNL     1      -5.066  34.996  24.120  1.00  0.00     0.000 C 
BRANCH   4   5
ATOM      5  C   UNL     1      -5.019  36.395  24.767  1.00  0.00     0.000 C 
BRANCH   5   6
ATOM      6  C   UNL     1      -4.582  36.416  26.244  1.00  0.00     0.000 C 
BRANCH   6   7
ATOM      7  C   UNL     1      -4.131  37.810  26.710  1.00  0.00     0.000 C 
BRANCH   7   8
ATOM      8  C   UNL     1      -2.688  38.133  26.292  1.00  0.00     0.000 C 
BRANCH   8   9
ATOM      9  C   UNL     1      -1.659  37.230  26.994  1.00  0.00     0.000 C 
BRANCH   9  10
ATOM     10  C   UNL     1      -2.258  36.460  28.185  1.00  0.00     0.006 C 
BRANCH  10  11
ATOM     11  C   UNL     1      -1.978  34.948  28.168  1.00  0.00     0.053 C 
BRANCH  11  12
ATOM     12  C   UNL     1      -1.262  34.493  29.402  1.00  0.00     0.041 C 
ATOM     13  O   UNL     1      -1.885  34.377  30.490  1.00  0.00    -0.550 OA
ATOM     14  O   UNL     1       0.100  34.219  29.356  1.00  0.00    -0.550 OA
ENDBRANCH  11  12
ENDBRANCH  10  11
ENDBRANCH   9  10
ENDBRANCH   8   9
ENDBRANCH   7   8
ENDBRANCH   6   7
ENDBRANCH   5   6
ENDBRANCH   4   5
ENDBRANCH   3   4
ENDBRANCH   2   3
ENDBRANCH   1   2
BRANCH   1  15
ATOM     15  C   UNL     1      -3.486  36.990  20.143  1.00  0.00     0.000 C 
BRANCH  15  16
ATOM     16  C   UNL     1      -4.776  36.552  19.428  1.00  0.00     0.000 C 
BRANCH  16  17
ATOM     17  C   UNL     1      -4.927  35.024  19.348  1.00  0.00     0.000 C 
BRANCH  17  18
ATOM     18  C   UNL     1      -4.493  34.459  17.986  1.00  0.00    -0.000 C 
BRANCH  18  19
ATOM     19  C   UNL     1      -4.216  35.559  16.949  1.00  0.00    -0.000 C 
BRANCH  19  20
ATOM     20  C   UNL     1      -3.054  35.165  16.029  1.00  0.00    -0.000 C 
BRANCH  20  21
ATOM     21  C   UNL     1      -2.660  36.335  15.113  1.00  0.00    -0.000 C 
BRANCH  21  22
ATOM     22  C   UNL     1      -3.229  37.681  15.587  1.00  0.00    -0.000 C 
BRANCH  22  23
ATOM     23  C   UNL     1      -2.889  38.050  17.043  1.00  0.00    -0.000 C 
BRANCH  23  24
ATOM     24  C   UNL     1      -1.437  37.711  17.445  1.00  0.00    -0.000 C 
BRANCH  24  25
ATOM     25  C   UNL     1      -1.099  38.198  18.861  1.00  0.00    -0.003 C 
ATOM     26  C   UNL     1       0.070  37.418  19.452  1.00  0.00     0.004 C 
ENDBRANCH  24  25
ENDBRANCH  23  24
ENDBRANCH  22  23
ENDBRANCH  21  22
ENDBRANCH  20  21
ENDBRANCH  19  20
ENDBRANCH  18  19
ENDBRANCH  17  18
ENDBRANCH  16  17
ENDBRANCH  15  16
ENDBRANCH   1  15
TORSDOF 22
ENDMDL
MODEL 4
REMARK VINA RESULT:     6.600      2.909      9.484
REMARK INTER + INTRA:          15.391
REMARK INTER:                  16.886
REMARK INTRA:                  -1.496
REMARK UNBOUND:                 0.302
REMARK SMILES CCCCCCCCCCCCCCCCCCCCCCCC(=O)[O-]
REMARK SMILES IDX 13 1 14 2 15 3 16 4 17 5 18 6 19 7 20 8 21 9 22 10 23 11
REMARK SMILES IDX 24 12 25 13 26 14 12 15 11 16 10 17 9 18 8 19 7 20 6 21 5 22
REMARK SMILES IDX 4 23 3 24 2 25 1 26
REMARK H PARENT
REMARK Flexibility Score: inf
ROOT
ATOM      1  C   UNL     1      -3.641  35.032  22.402  1.00  0.00     0.000 C 
ENDROOT
BRANCH   1   2
ATOM      2  C   UNL     1      -3.712  35.074  20.868  1.00  0.00     0.000 C 
BRANCH   2   3
ATOM      3  C   UNL     1      -5.121  34.713  20.372  1.00  0.00     0.000 C 
BRANCH   3   4
ATOM      4  C   UNL     1      -5.124  34.127  18.949  1.00  0.00     0.000 C 
BRANCH   4   5
ATOM      5  C   UNL     1      -3.935  34.550  18.063  1.00  0.00     0.000 C 
BRANCH   5   6
ATOM      6  C   UNL     1      -4.106  35.902  17.346  1.00  0.00     0.000 C 
BRANCH   6   7
ATOM      7  C   UNL     1      -2.978  36.188  16.340  1.00  0.00     0.000 C 
BRANCH   7   8
ATOM      8  C   UNL     1      -2.001  37.264  16.842  1.00  0.00     0.000 C 
BRANCH   8   9
ATOM      9  C   UNL     1      -1.775  37.185  18.362  1.00  0.00     0.000 C 
BRANCH   9  10
ATOM     10  C   UNL     1      -2.329  38.410  19.111  1.00  0.00     0.006 C 
BRANCH  10  11
ATOM     11  C   UNL     1      -2.966  38.086  20.472  1.00  0.00     0.053 C 
BRANCH  11  12
ATOM     12  C   UNL     1      -4.439  38.356  20.485  1.00  0.00     0.041 C 
ATOM     13  O   UNL     1      -5.125  38.175  19.444  1.00  0.00    -0.550 OA
ATOM     14  O   UNL     1      -5.050  38.829  21.640  1.00  0.00    -0.550 OA
ENDBRANCH  11  12
ENDBRANCH  10  11
ENDBRANCH   9  10
ENDBRANCH   8   9
ENDBRANCH   7   8
ENDBRANCH   6   7
ENDBRANCH   5   6
ENDBRANCH   4   5
ENDBRANCH   3   4
ENDBRANCH   2   3
ENDBRANCH   1   2
BRANCH   1  15
ATOM     15  C   UNL     1      -5.030  34.855  23.051  1.00  0.00     0.000 C 
BRANCH  15  16
ATOM     16  C   UNL     1      -5.103  35.354  24.504  1.00  0.00     0.000 C 
BRANCH  16  17
ATOM     17  C   UNL     1      -5.089  36.887  24.612  1.00  0.00     0.000 C 
BRANCH  17  18
ATOM     18  C   UNL     1      -4.897  37.375  26.057  1.00  0.00    -0.000 C 
BRANCH  18  19
ATOM     19  C   UNL     1      -3.767  38.408  26.189  1.00  0.00    -0.000 C 
BRANCH  19  20
ATOM     20  C   UNL     1      -2.459  37.737  26.628  1.00  0.00    -0.000 C 
BRANCH  20  21
ATOM     21  C   UNL     1      -2.734  36.367  27.268  1.00  0.00    -0.000 C 
BRANCH  21  22
ATOM     22  C   UNL     1      -1.686  35.983  28.326  1.00  0.00    -0.000 C 
BRANCH  22  23
ATOM     23  C   UNL     1      -1.744  34.516  28.789  1.00  0.00    -0.000 C 
BRANCH  23  24
ATOM     24  C   UNL     1      -0.811  34.205  29.980  1.00  0.00    -0.000 C 
BRANCH  24  25
ATOM     25  C   UNL     1       0.642  33.987  29.537  1.00  0.00    -0.003 C 
ATOM     26  C   UNL     1       0.998  32.504  29.512  1.00  0.00     0.004 C 
ENDBRANCH  24  25
ENDBRANCH  23  24
ENDBRANCH  22  23
ENDBRANCH  21  22
ENDBRANCH  20  21
ENDBRANCH  19  20
ENDBRANCH  18  19
ENDBRANCH  17  18
ENDBRANCH  16  17
ENDBRANCH  15  16
ENDBRANCH   1  15
TORSDOF 22
ENDMDL
MODEL 5
REMARK VINA RESULT:     6.661      2.889      9.498
REMARK INTER + INTRA:          15.530
REMARK INTER:                  16.614
REMARK INTRA:                  -1.084
REMARK UNBOUND:                 0.302
REMARK SMILES CCCCCCCCCCCCCCCCCCCCCCCC(=O)[O-]
REMARK SMILES IDX 13 1 14 2 15 3 16 4 17 5 18 6 19 7 20 8 21 9 22 10 23 11
REMARK SMILES IDX 24 12 25 13 26 14 12 15 11 16 10 17 9 18 8 19 7 20 6 21 5 22
REMARK SMILES IDX 4 23 3 24 2 25 1 26
REMARK H PARENT
REMARK Flexibility Score: inf
ROOT
ATOM      1  C   UNL     1      -2.878  34.449  22.400  1.00  0.00     0.000 C 
ENDROOT
BRANCH   1   2
ATOM      2  C   UNL     1      -2.787  35.210  21.068  1.00  0.00     0.000 C 
BRANCH   2   3
ATOM      3  C   UNL     1      -4.005  36.125  20.873  1.00  0.00     0.000 C 
BRANCH   3   4
ATOM      4  C   UNL     1      -4.825  35.771  19.619  1.00  0.00     0.000 C 
BRANCH   4   5
ATOM      5  C   UNL     1      -4.045  35.036  18.510  1.00  0.00     0.000 C 
BRANCH   5   6
ATOM      6  C   UNL     1      -4.686  35.100  17.112  1.00  0.00     0.000 C 
BRANCH   6   7
ATOM      7  C   UNL     1      -3.643  35.138  15.982  1.00  0.00     0.000 C 
BRANCH   7   8
ATOM      8  C   UNL     1      -3.646  36.474  15.222  1.00  0.00     0.000 C 
BRANCH   8   9
ATOM      9  C   UNL     1      -2.801  37.549  15.927  1.00  0.00     0.000 C 
BRANCH   9  10
ATOM     10  C   UNL     1      -2.149  37.038  17.225  1.00  0.00     0.006 C 
BRANCH  10  11
ATOM     11  C   UNL     1      -2.164  38.049  18.383  1.00  0.00     0.053 C 
BRANCH  11  12
ATOM     12  C   UNL     1      -0.799  38.270  18.956  1.00  0.00     0.041 C 
ATOM     13  O   UNL     1      -0.231  37.357  19.613  1.00  0.00    -0.550 OA
ATOM     14  O   UNL     1      -0.161  39.494  18.786  1.00  0.00    -0.550 OA
ENDBRANCH  11  12
ENDBRANCH  10  11
ENDBRANCH   9  10
ENDBRANCH   8   9
ENDBRANCH   7   8
ENDBRANCH   6   7
ENDBRANCH   5   6
ENDBRANCH   4   5
ENDBRANCH   3   4
ENDBRANCH   2   3
ENDBRANCH   1   2
BRANCH   1  15
ATOM     15  C   UNL     1      -4.166  33.604  22.507  1.00  0.00     0.000 C 
BRANCH  15  16
ATOM     16  C   UNL     1      -5.125  34.076  23.613  1.00  0.00     0.000 C 
BRANCH  16  17
ATOM     17  C   UNL     1      -5.108  35.601  23.810  1.00  0.00     0.000 C 
BRANCH  17  18
ATOM     18  C   UNL     1      -5.125  36.004  25.293  1.00  0.00    -0.000 C 
BRANCH  18  19
ATOM     19  C   UNL     1      -4.999  37.522  25.496  1.00  0.00    -0.000 C 
BRANCH  19  20
ATOM     20  C   UNL     1      -4.216  37.840  26.776  1.00  0.00    -0.000 C 
BRANCH  20  21
ATOM     21  C   UNL     1      -2.777  38.267  26.447  1.00  0.00    -0.000 C 
BRANCH  21  22
ATOM     22  C   UNL     1      -1.726  37.503  27.270  1.00  0.00    -0.000 C 
BRANCH  22  23
ATOM     23  C   UNL     1      -2.169  36.108  27.748  1.00  0.00    -0.000 C 
BRANCH  23  24
ATOM     24  C   UNL     1      -1.237  35.494  28.815  1.00  0.00    -0.000 C 
BRANCH  24  25
ATOM     25  C   UNL     1      -1.809  34.200  29.410  1.00  0.00    -0.003 C 
ATOM     26  C   UNL     1      -0.700  33.219  29.776  1.00  0.00     0.004 C 
ENDBRANCH  24  25
ENDBRANCH  23  24
ENDBRANCH  22  23
ENDBRANCH  21  22
ENDBRANCH  20  21
ENDBRANCH  19  20
ENDBRANCH  18  19
ENDBRANCH  17  18
ENDBRANCH  16  17
ENDBRANCH  15  16
ENDBRANCH   1  15
TORSDOF 22
ENDMDL
MODEL 6
REMARK VINA RESULT:     6.901      1.929      4.466
REMARK INTER + INTRA:          16.079
REMARK INTER:                  12.320
REMARK INTRA:                   3.759
REMARK UNBOUND:                 0.302
REMARK SMILES CCCCCCCCCCCCCCCCCCCCCCCC(=O)[O-]
REMARK SMILES IDX 13 1 14 2 15 3 16 4 17 5 18 6 19 7 20 8 21 9 22 10 23 11
REMARK SMILES IDX 24 12 25 13 26 14 12 15 11 16 10 17 9 18 8 19 7 20 6 21 5 22
REMARK SMILES IDX 4 23 3 24 2 25 1 26
REMARK H PARENT
REMARK Flexibility Score: inf
ROOT
ATOM      1  C   UNL     1      -2.595  35.210  21.585  1.00  0.00     0.000 C 
ENDROOT
BRANCH   1   2
ATOM      2  C   UNL     1      -3.179  34.079  22.447  1.00  0.00     0.000 C 
BRANCH   2   3
ATOM      3  C   UNL     1      -4.690  34.263  22.647  1.00  0.00     0.000 C 
BRANCH   3   4
ATOM      4  C   UNL     1      -5.058  34.685  24.081  1.00  0.00     0.000 C 
BRANCH   4   5
ATOM      5  C   UNL     1      -4.892  36.187  24.387  1.00  0.00     0.000 C 
BRANCH   5   6
ATOM      6  C   UNL     1      -4.903  36.553  25.882  1.00  0.00     0.000 C 
BRANCH   6   7
ATOM      7  C   UNL     1      -4.065  37.804  26.194  1.00  0.00     0.000 C 
BRANCH   7   8
ATOM      8  C   UNL     1      -4.668  39.083  25.590  1.00  0.00     0.000 C 
BRANCH   8   9
ATOM      9  C   UNL     1      -5.110  38.887  24.129  1.00  0.00     0.000 C 
BRANCH   9  10
ATOM     10  C   UNL     1      -4.287  39.733  23.140  1.00  0.00     0.006 C 
BRANCH  10  11
ATOM     11  C   UNL     1      -5.056  40.159  21.879  1.00  0.00     0.053 C 
BRANCH  11  12
ATOM     12  C   UNL     1      -4.838  39.214  20.738  1.00  0.00     0.041 C 
ATOM     13  O   UNL     1      -4.382  38.059  20.950  1.00  0.00    -0.550 OA
ATOM     14  O   UNL     1      -5.115  39.617  19.437  1.00  0.00    -0.550 OA
ENDBRANCH  11  12
ENDBRANCH  10  11
ENDBRANCH   9  10
ENDBRANCH   8   9
ENDBRANCH   7   8
ENDBRANCH   6   7
ENDBRANCH   5   6
ENDBRANCH   4   5
ENDBRANCH   3   4
ENDBRANCH   2   3
ENDBRANCH   1   2
BRANCH   1  15
ATOM     15  C   UNL     1      -3.692  36.048  20.895  1.00  0.00     0.000 C 
BRANCH  15  16
ATOM     16  C   UNL     1      -4.869  35.211  20.365  1.00  0.00     0.000 C 
BRANCH  16  17
ATOM     17  C   UNL     1      -4.505  34.384  19.121  1.00  0.00     0.000 C 
BRANCH  17  18
ATOM     18  C   UNL     1      -5.014  35.023  17.819  1.00  0.00    -0.000 C 
BRANCH  18  19
ATOM     19  C   UNL     1      -3.872  35.460  16.887  1.00  0.00    -0.000 C 
BRANCH  19  20
ATOM     20  C   UNL     1      -4.280  36.684  16.058  1.00  0.00    -0.000 C 
BRANCH  20  21
ATOM     21  C   UNL     1      -3.163  37.078  15.078  1.00  0.00    -0.000 C 
BRANCH  21  22
ATOM     22  C   UNL     1      -1.801  36.474  15.453  1.00  0.00    -0.000 C 
BRANCH  22  23
ATOM     23  C   UNL     1      -1.129  37.110  16.684  1.00  0.00    -0.000 C 
BRANCH  23  24
ATOM     24  C   UNL     1      -2.130  37.694  17.704  1.00  0.00    -0.000 C 
BRANCH  24  25
ATOM     25  C   UNL     1      -1.537  37.776  19.117  1.00  0.00    -0.003 C 
ATOM     26  C   UNL     1      -0.049  38.108  19.077  1.00  0.00     0.004 C 
ENDBRANCH  24  25
ENDBRANCH  23  24
ENDBRANCH  22  23
ENDBRANCH  21  22
ENDBRANCH  20  21
ENDBRANCH  19  20
ENDBRANCH  18  19
ENDBRANCH  17  18
ENDBRANCH  16  17
ENDBRANCH  15  16
ENDBRANCH   1  15
TORSDOF 22
ENDMDL
