MODEL 1
REMARK VINA RESULT:    -4.078      0.000      0.000
REMARK INTER + INTRA:          -5.181
REMARK INTER:                  -5.032
REMARK INTRA:                  -0.150
REMARK UNBOUND:                -0.150
REMARK SMILES CCOC(=O)c1ccc(O)c(O)c1
REMARK SMILES IDX 4 1 5 2 3 3 2 4 1 5 6 6 13 7 7 8 11 9 8 10 9 11 12 12 10 14
REMARK H PARENT 12 13 10 15
REMARK Flexibility Score: inf
ROOT
ATOM      1  C   UNL     1     -11.840   5.574  -3.570  1.00  0.00     0.338 C 
ATOM      2  O   UNL     1     -11.753   6.502  -2.719  1.00  0.00    -0.246 OA
ENDROOT
BRANCH   1   3
ATOM      3  O   UNL     1     -12.100   5.875  -4.913  1.00  0.00    -0.462 OA
BRANCH   3   4
ATOM      4  C   UNL     1     -11.969   7.183  -5.467  1.00  0.00     0.230 C 
ATOM      5  C   UNL     1     -11.435   7.111  -6.894  1.00  0.00     0.049 C 
ENDBRANCH   3   4
ENDBRANCH   1   3
BRANCH   1   6
ATOM      6  C   UNL     1     -11.663   4.166  -3.153  1.00  0.00     0.064 A 
ATOM      7  C   UNL     1     -11.979   3.758  -1.843  1.00  0.00     0.065 A 
ATOM      8  C   UNL     1     -11.176   3.213  -4.063  1.00  0.00     0.020 A 
ATOM      9  C   UNL     1     -11.810   2.422  -1.451  1.00  0.00     0.158 A 
ATOM     10  C   UNL     1     -11.008   1.881  -3.674  1.00  0.00     0.051 A 
ATOM     11  C   UNL     1     -11.322   1.481  -2.372  1.00  0.00     0.157 A 
BRANCH   9  12
ATOM     12  O   UNL     1     -12.125   2.029  -0.151  1.00  0.00    -0.504 OA
ATOM     13  H   UNL     1     -11.511   2.233   0.629  1.00  0.00     0.293 HD
ENDBRANCH   9  12
BRANCH  11  14
ATOM     14  O   UNL     1     -11.143   0.145  -2.013  1.00  0.00    -0.504 OA
ATOM     15  H   UNL     1     -10.225  -0.248  -1.841  1.00  0.00     0.293 HD
ENDBRANCH  11  14
ENDBRANCH   1   6
TORSDOF 5
ENDMDL
MODEL 2
REMARK VINA RESULT:    -3.822     14.426     16.240
REMARK INTER + INTRA:          -4.866
REMARK INTER:                  -4.645
REMARK INTRA:                  -0.221
REMARK UNBOUND:                -0.150
REMARK SMILES CCOC(=O)c1ccc(O)c(O)c1
REMARK SMILES IDX 4 1 5 2 3 3 2 4 1 5 6 6 13 7 7 8 11 9 8 10 9 11 12 12 10 14
REMARK H PARENT 12 13 10 15
REMARK Flexibility Score: inf
ROOT
ATOM      1  C   UNL     1       2.344  -3.338  -8.557  1.00  0.00     0.338 C 
ATOM      2  O   UNL     1       2.449  -2.188  -9.068  1.00  0.00    -0.246 OA
ENDROOT
BRANCH   1   3
ATOM      3  O   UNL     1       3.453  -3.939  -7.948  1.00  0.00    -0.462 OA
BRANCH   3   4
ATOM      4  C   UNL     1       4.113  -3.400  -6.804  1.00  0.00     0.230 C 
ATOM      5  C   UNL     1       4.357  -4.486  -5.762  1.00  0.00     0.049 C 
ENDBRANCH   3   4
ENDBRANCH   1   3
BRANCH   1   6
ATOM      6  C   UNL     1       1.049  -4.051  -8.596  1.00  0.00     0.064 A 
ATOM      7  C   UNL     1      -0.125  -3.390  -9.004  1.00  0.00     0.065 A 
ATOM      8  C   UNL     1       0.974  -5.404  -8.226  1.00  0.00     0.020 A 
ATOM      9  C   UNL     1      -1.351  -4.069  -9.040  1.00  0.00     0.158 A 
ATOM     10  C   UNL     1      -0.248  -6.083  -8.261  1.00  0.00     0.051 A 
ATOM     11  C   UNL     1      -1.411  -5.422  -8.666  1.00  0.00     0.157 A 
BRANCH   9  12
ATOM     12  O   UNL     1      -2.508  -3.405  -9.444  1.00  0.00    -0.504 OA
ATOM     13  H   UNL     1      -2.590  -2.997 -10.369  1.00  0.00     0.293 HD
ENDBRANCH   9  12
BRANCH  11  14
ATOM     14  O   UNL     1      -2.615  -6.125  -8.692  1.00  0.00    -0.504 OA
ATOM     15  H   UNL     1      -2.856  -6.806  -7.981  1.00  0.00     0.293 HD
ENDBRANCH  11  14
ENDBRANCH   1   6
TORSDOF 5
ENDMDL
MODEL 3
REMARK VINA RESULT:    -3.634     13.883     15.539
REMARK INTER + INTRA:          -4.633
REMARK INTER:                  -4.358
REMARK INTRA:                  -0.276
REMARK UNBOUND:                -0.150
REMARK SMILES CCOC(=O)c1ccc(O)c(O)c1
REMARK SMILES IDX 4 1 5 2 3 3 2 4 1 5 6 6 13 7 7 8 11 9 8 10 9 11 12 12 10 14
REMARK H PARENT 12 13 10 15
REMARK Flexibility Score: inf
ROOT
ATOM      1  C   UNL     1       1.664  -2.107  -8.782  1.00  0.00     0.338 C 
ATOM      2  O   UNL     1       1.438  -0.869  -8.879  1.00  0.00    -0.246 OA
ENDROOT
BRANCH   1   3
ATOM      3  O   UNL     1       2.976  -2.570  -8.614  1.00  0.00    -0.462 OA
BRANCH   3   4
ATOM      4  C   UNL     1       3.716  -2.420  -7.404  1.00  0.00     0.230 C 
ATOM      5  C   UNL     1       3.999  -3.781  -6.776  1.00  0.00     0.049 C 
ENDBRANCH   3   4
ENDBRANCH   1   3
BRANCH   1   6
ATOM      6  C   UNL     1       0.545  -3.073  -8.841  1.00  0.00     0.064 A 
ATOM      7  C   UNL     1      -0.769  -2.637  -9.091  1.00  0.00     0.065 A 
ATOM      8  C   UNL     1       0.782  -4.444  -8.648  1.00  0.00     0.020 A 
ATOM      9  C   UNL     1      -1.828  -3.555  -9.146  1.00  0.00     0.158 A 
ATOM     10  C   UNL     1      -0.272  -5.361  -8.703  1.00  0.00     0.051 A 
ATOM     11  C   UNL     1      -1.576  -4.923  -8.951  1.00  0.00     0.157 A 
BRANCH   9  12
ATOM     12  O   UNL     1      -3.126  -3.113  -9.394  1.00  0.00    -0.504 OA
ATOM     13  H   UNL     1      -3.917  -3.747  -9.368  1.00  0.00     0.293 HD
ENDBRANCH   9  12
BRANCH  11  14
ATOM     14  O   UNL     1      -2.607  -5.861  -9.000  1.00  0.00    -0.504 OA
ATOM     15  H   UNL     1      -2.428  -6.853  -9.096  1.00  0.00     0.293 HD
ENDBRANCH  11  14
ENDBRANCH   1   6
TORSDOF 5
ENDMDL
MODEL 4
REMARK VINA RESULT:    -3.579     14.264     16.043
REMARK INTER + INTRA:          -4.565
REMARK INTER:                  -4.281
REMARK INTRA:                  -0.285
REMARK UNBOUND:                -0.150
REMARK SMILES CCOC(=O)c1ccc(O)c(O)c1
REMARK SMILES IDX 4 1 5 2 3 3 2 4 1 5 6 6 13 7 7 8 11 9 8 10 9 11 12 12 10 14
REMARK H PARENT 12 13 10 15
REMARK Flexibility Score: inf
ROOT
ATOM      1  C   UNL     1       2.714  -2.594  -8.514  1.00  0.00     0.338 C 
ATOM      2  O   UNL     1       3.467  -2.496  -9.523  1.00  0.00    -0.246 OA
ENDROOT
BRANCH   1   3
ATOM      3  O   UNL     1       3.236  -2.407  -7.227  1.00  0.00    -0.462 OA
BRANCH   3   4
ATOM      4  C   UNL     1       4.342  -3.145  -6.711  1.00  0.00     0.230 C 
ATOM      5  C   UNL     1       3.933  -4.581  -6.402  1.00  0.00     0.049 C 
ENDBRANCH   3   4
ENDBRANCH   1   3
BRANCH   1   6
ATOM      6  C   UNL     1       1.277  -2.900  -8.689  1.00  0.00     0.064 A 
ATOM      7  C   UNL     1       0.779  -4.189  -8.424  1.00  0.00     0.065 A 
ATOM      8  C   UNL     1       0.388  -1.902  -9.122  1.00  0.00     0.020 A 
ATOM      9  C   UNL     1      -0.584  -4.475  -8.591  1.00  0.00     0.158 A 
ATOM     10  C   UNL     1      -0.971  -2.186  -9.287  1.00  0.00     0.051 A 
ATOM     11  C   UNL     1      -1.461  -3.468  -9.024  1.00  0.00     0.157 A 
BRANCH   9  12
ATOM     12  O   UNL     1      -1.068  -5.756  -8.326  1.00  0.00    -0.504 OA
ATOM     13  H   UNL     1      -1.435  -6.348  -9.063  1.00  0.00     0.293 HD
ENDBRANCH   9  12
BRANCH  11  14
ATOM     14  O   UNL     1      -2.821  -3.721  -9.198  1.00  0.00    -0.504 OA
ATOM     15  H   UNL     1      -3.535  -3.082  -8.870  1.00  0.00     0.293 HD
ENDBRANCH  11  14
ENDBRANCH   1   6
TORSDOF 5
ENDMDL
MODEL 5
REMARK VINA RESULT:    -3.504     13.537     14.699
REMARK INTER + INTRA:          -4.473
REMARK INTER:                  -4.294
REMARK INTRA:                  -0.179
REMARK UNBOUND:                -0.150
REMARK SMILES CCOC(=O)c1ccc(O)c(O)c1
REMARK SMILES IDX 4 1 5 2 3 3 2 4 1 5 6 6 13 7 7 8 11 9 8 10 9 11 12 12 10 14
REMARK H PARENT 12 13 10 15
REMARK Flexibility Score: inf
ROOT
ATOM      1  C   UNL     1       1.204  -0.958  -8.223  1.00  0.00     0.338 C 
ATOM      2  O   UNL     1       0.957  -0.391  -7.123  1.00  0.00    -0.246 OA
ENDROOT
BRANCH   1   3
ATOM      3  O   UNL     1       2.219  -0.466  -9.054  1.00  0.00    -0.462 OA
BRANCH   3   4
ATOM      4  C   UNL     1       2.042   0.630  -9.950  1.00  0.00     0.230 C 
ATOM      5  C   UNL     1       2.494   1.933  -9.298  1.00  0.00     0.049 C 
ENDBRANCH   3   4
ENDBRANCH   1   3
BRANCH   1   6
ATOM      6  C   UNL     1       0.427  -2.147  -8.635  1.00  0.00     0.064 A 
ATOM      7  C   UNL     1      -0.962  -2.062  -8.841  1.00  0.00     0.065 A 
ATOM      8  C   UNL     1       1.070  -3.382  -8.828  1.00  0.00     0.020 A 
ATOM      9  C   UNL     1      -1.697  -3.192  -9.232  1.00  0.00     0.158 A 
ATOM     10  C   UNL     1       0.339  -4.508  -9.218  1.00  0.00     0.051 A 
ATOM     11  C   UNL     1      -1.040  -4.419  -9.421  1.00  0.00     0.157 A 
BRANCH   9  12
ATOM     12  O   UNL     1      -3.073  -3.098  -9.433  1.00  0.00    -0.504 OA
ATOM     13  H   UNL     1      -3.464  -2.911 -10.350  1.00  0.00     0.293 HD
ENDBRANCH   9  12
BRANCH  11  14
ATOM     14  O   UNL     1      -1.742  -5.560  -9.810  1.00  0.00    -0.504 OA
ATOM     15  H   UNL     1      -1.332  -6.486  -9.767  1.00  0.00     0.293 HD
ENDBRANCH  11  14
ENDBRANCH   1   6
TORSDOF 5
ENDMDL
MODEL 6
REMARK VINA RESULT:    -3.503     17.543     18.962
REMARK INTER + INTRA:          -4.472
REMARK INTER:                  -4.324
REMARK INTRA:                  -0.148
REMARK UNBOUND:                -0.150
REMARK SMILES CCOC(=O)c1ccc(O)c(O)c1
REMARK SMILES IDX 4 1 5 2 3 3 2 4 1 5 6 6 13 7 7 8 11 9 8 10 9 11 12 12 10 14
REMARK H PARENT 12 13 10 15
REMARK Flexibility Score: inf
ROOT
ATOM      1  C   UNL     1       4.155  -3.982  -6.411  1.00  0.00     0.338 C 
ATOM      2  O   UNL     1       3.584  -4.853  -7.124  1.00  0.00    -0.246 OA
ENDROOT
BRANCH   1   3
ATOM      3  O   UNL     1       3.914  -2.621  -6.637  1.00  0.00    -0.462 OA
BRANCH   3   4
ATOM      4  C   UNL     1       3.406  -2.104  -7.867  1.00  0.00     0.230 C 
ATOM      5  C   UNL     1       2.390  -0.997  -7.604  1.00  0.00     0.049 C 
ENDBRANCH   3   4
ENDBRANCH   1   3
BRANCH   1   6
ATOM      6  C   UNL     1       5.077  -4.396  -5.331  1.00  0.00     0.064 A 
ATOM      7  C   UNL     1       5.949  -3.467  -4.733  1.00  0.00     0.065 A 
ATOM      8  C   UNL     1       5.094  -5.729  -4.886  1.00  0.00     0.020 A 
ATOM      9  C   UNL     1       6.822  -3.863  -3.709  1.00  0.00     0.158 A 
ATOM     10  C   UNL     1       5.964  -6.125  -3.866  1.00  0.00     0.051 A 
ATOM     11  C   UNL     1       6.827  -5.199  -3.275  1.00  0.00     0.157 A 
BRANCH   9  12
ATOM     12  O   UNL     1       7.681  -2.935  -3.124  1.00  0.00    -0.504 OA
ATOM     13  H   UNL     1       7.425  -1.959  -3.031  1.00  0.00     0.293 HD
ENDBRANCH   9  12
BRANCH  11  14
ATOM     14  O   UNL     1       7.683  -5.623  -2.259  1.00  0.00    -0.504 OA
ATOM     15  H   UNL     1       7.910  -5.036  -1.465  1.00  0.00     0.293 HD
ENDBRANCH  11  14
ENDBRANCH   1   6
TORSDOF 5
ENDMDL
MODEL 7
REMARK VINA RESULT:    -3.472     17.460     18.967
REMARK INTER + INTRA:          -4.434
REMARK INTER:                  -4.156
REMARK INTRA:                  -0.278
REMARK UNBOUND:                -0.150
REMARK SMILES CCOC(=O)c1ccc(O)c(O)c1
REMARK SMILES IDX 4 1 5 2 3 3 2 4 1 5 6 6 13 7 7 8 11 9 8 10 9 11 12 12 10 14
REMARK H PARENT 12 13 10 15
REMARK Flexibility Score: inf
ROOT
ATOM      1  C   UNL     1       4.201  -3.452  -6.819  1.00  0.00     0.338 C 
ATOM      2  O   UNL     1       3.947  -2.218  -6.749  1.00  0.00    -0.246 OA
ENDROOT
BRANCH   1   3
ATOM      3  O   UNL     1       3.772  -4.197  -7.925  1.00  0.00    -0.462 OA
BRANCH   3   4
ATOM      4  C   UNL     1       2.402  -4.325  -8.305  1.00  0.00     0.230 C 
ATOM      5  C   UNL     1       1.849  -5.678  -7.870  1.00  0.00     0.049 C 
ENDBRANCH   3   4
ENDBRANCH   1   3
BRANCH   1   6
ATOM      6  C   UNL     1       4.959  -4.116  -5.735  1.00  0.00     0.064 A 
ATOM      7  C   UNL     1       5.837  -3.381  -4.917  1.00  0.00     0.065 A 
ATOM      8  C   UNL     1       4.808  -5.494  -5.506  1.00  0.00     0.020 A 
ATOM      9  C   UNL     1       6.553  -4.013  -3.890  1.00  0.00     0.158 A 
ATOM     10  C   UNL     1       5.521  -6.125  -4.483  1.00  0.00     0.051 A 
ATOM     11  C   UNL     1       6.393  -5.392  -3.673  1.00  0.00     0.157 A 
BRANCH   9  12
ATOM     12  O   UNL     1       7.422  -3.276  -3.086  1.00  0.00    -0.504 OA
ATOM     13  H   UNL     1       8.417  -3.236  -3.276  1.00  0.00     0.293 HD
ENDBRANCH   9  12
BRANCH  11  14
ATOM     14  O   UNL     1       7.091  -6.049  -2.661  1.00  0.00    -0.504 OA
ATOM     15  H   UNL     1       8.045  -5.808  -2.420  1.00  0.00     0.293 HD
ENDBRANCH  11  14
ENDBRANCH   1   6
TORSDOF 5
ENDMDL
