MODEL 1
REMARK VINA RESULT:    -5.332      0.000      0.000
REMARK INTER + INTRA:          -8.761
REMARK INTER:                  -7.825
REMARK INTRA:                  -0.936
REMARK UNBOUND:                -0.936
REMARK SMILES CCCOC(=O)c1ccccc1C(=O)OCCC
REMARK SMILES IDX 7 1 8 2 9 3 10 4 11 5 12 6 5 7 6 8 4 9 3 10 2 11 1 12 13 13
REMARK SMILES IDX 14 14 15 15 16 16 17 17 18 18
REMARK H PARENT
REMARK Flexibility Score: inf
ROOT
ATOM      1  C   UNL     1       7.848  -2.503  48.452  1.00  0.00     0.074 A 
ATOM      2  C   UNL     1       8.182  -2.118  47.141  1.00  0.00     0.016 A 
ATOM      3  C   UNL     1       7.356  -1.253  46.421  1.00  0.00     0.001 A 
ATOM      4  C   UNL     1       6.186  -0.762  46.997  1.00  0.00     0.001 A 
ATOM      5  C   UNL     1       5.850  -1.114  48.305  1.00  0.00     0.016 A 
ATOM      6  C   UNL     1       6.680  -1.968  49.056  1.00  0.00     0.074 A 
ENDROOT
BRANCH   1   7
ATOM      7  C   UNL     1       8.689  -3.522  49.116  1.00  0.00     0.339 C 
ATOM      8  O   UNL     1       9.943  -3.379  49.141  1.00  0.00    -0.246 OA
BRANCH   7   9
ATOM      9  O   UNL     1       8.095  -4.665  49.664  1.00  0.00    -0.462 OA
BRANCH   9  10
ATOM     10  C   UNL     1       8.264  -5.974  49.123  1.00  0.00     0.233 C 
BRANCH  10  11
ATOM     11  C   UNL     1       8.135  -5.947  47.598  1.00  0.00     0.038 C 
ATOM     12  C   UNL     1       6.671  -5.929  47.169  1.00  0.00     0.007 C 
ENDBRANCH  10  11
ENDBRANCH   9  10
ENDBRANCH   7   9
ENDBRANCH   1   7
BRANCH   6  13
ATOM     13  C   UNL     1       6.343  -2.201  50.480  1.00  0.00     0.339 C 
ATOM     14  O   UNL     1       7.022  -1.639  51.383  1.00  0.00    -0.246 OA
BRANCH  13  15
ATOM     15  O   UNL     1       5.324  -3.099  50.819  1.00  0.00    -0.462 OA
BRANCH  15  16
ATOM     16  C   UNL     1       4.732  -4.004  49.888  1.00  0.00     0.233 C 
BRANCH  16  17
ATOM     17  C   UNL     1       4.747  -5.432  50.436  1.00  0.00     0.038 C 
ATOM     18  C   UNL     1       3.407  -6.125  50.208  1.00  0.00     0.007 C 
ENDBRANCH  16  17
ENDBRANCH  15  16
ENDBRANCH  13  15
ENDBRANCH   6  13
TORSDOF 8
ENDMDL
MODEL 2
REMARK VINA RESULT:    -5.272      2.243      5.305
REMARK INTER + INTRA:          -8.673
REMARK INTER:                  -7.662
REMARK INTRA:                  -1.011
REMARK UNBOUND:                -0.936
REMARK SMILES CCCOC(=O)c1ccccc1C(=O)OCCC
REMARK SMILES IDX 7 1 8 2 9 3 10 4 11 5 12 6 5 7 6 8 4 9 3 10 2 11 1 12 13 13
REMARK SMILES IDX 14 14 15 15 16 16 17 17 18 18
REMARK H PARENT
REMARK Flexibility Score: inf
ROOT
ATOM      1  C   UNL     1       5.303  -4.684  48.042  1.00  0.00     0.074 A 
ATOM      2  C   UNL     1       4.176  -4.660  48.882  1.00  0.00     0.016 A 
ATOM      3  C   UNL     1       4.255  -5.131  50.194  1.00  0.00     0.001 A 
ATOM      4  C   UNL     1       5.459  -5.633  50.685  1.00  0.00     0.001 A 
ATOM      5  C   UNL     1       6.595  -5.644  49.873  1.00  0.00     0.016 A 
ATOM      6  C   UNL     1       6.541  -5.154  48.555  1.00  0.00     0.074 A 
ENDROOT
BRANCH   1   7
ATOM      7  C   UNL     1       5.128  -4.297  46.626  1.00  0.00     0.339 C 
ATOM      8  O   UNL     1       4.653  -5.128  45.804  1.00  0.00    -0.246 OA
BRANCH   7   9
ATOM      9  O   UNL     1       5.543  -3.031  46.193  1.00  0.00    -0.462 OA
BRANCH   9  10
ATOM     10  C   UNL     1       4.981  -1.813  46.678  1.00  0.00     0.233 C 
BRANCH  10  11
ATOM     11  C   UNL     1       5.972  -1.088  47.592  1.00  0.00     0.038 C 
ATOM     12  C   UNL     1       6.919  -0.202  46.786  1.00  0.00     0.007 C 
ENDBRANCH  10  11
ENDBRANCH   9  10
ENDBRANCH   7   9
ENDBRANCH   1   7
BRANCH   6  13
ATOM     13  C   UNL     1       7.805  -5.068  47.787  1.00  0.00     0.339 C 
ATOM     14  O   UNL     1       8.375  -6.125  47.399  1.00  0.00    -0.246 OA
BRANCH  13  15
ATOM     15  O   UNL     1       8.401  -3.821  47.559  1.00  0.00    -0.462 OA
BRANCH  15  16
ATOM     16  C   UNL     1       9.732  -3.502  47.960  1.00  0.00     0.233 C 
BRANCH  16  17
ATOM     17  C   UNL     1       9.729  -2.389  49.010  1.00  0.00     0.038 C 
ATOM     18  C   UNL     1       8.401  -2.342  49.760  1.00  0.00     0.007 C 
ENDBRANCH  16  17
ENDBRANCH  15  16
ENDBRANCH  13  15
ENDBRANCH   6  13
TORSDOF 8
ENDMDL
MODEL 3
REMARK VINA RESULT:    -5.195      1.871      3.912
REMARK INTER + INTRA:          -8.560
REMARK INTER:                  -7.614
REMARK INTRA:                  -0.946
REMARK UNBOUND:                -0.936
REMARK SMILES CCCOC(=O)c1ccccc1C(=O)OCCC
REMARK SMILES IDX 7 1 8 2 9 3 10 4 11 5 12 6 5 7 6 8 4 9 3 10 2 11 1 12 13 13
REMARK SMILES IDX 14 14 15 15 16 16 17 17 18 18
REMARK H PARENT
REMARK Flexibility Score: inf
ROOT
ATOM      1  C   UNL     1       7.486  -2.753  49.337  1.00  0.00     0.074 A 
ATOM      2  C   UNL     1       8.647  -2.150  48.819  1.00  0.00     0.016 A 
ATOM      3  C   UNL     1       9.787  -2.910  48.556  1.00  0.00     0.001 A 
ATOM      4  C   UNL     1       9.787  -4.281  48.806  1.00  0.00     0.001 A 
ATOM      5  C   UNL     1       8.638  -4.902  49.297  1.00  0.00     0.016 A 
ATOM      6  C   UNL     1       7.470  -4.157  49.550  1.00  0.00     0.074 A 
ENDROOT
BRANCH   1   7
ATOM      7  C   UNL     1       6.356  -1.881  49.719  1.00  0.00     0.339 C 
ATOM      8  O   UNL     1       6.117  -1.665  50.940  1.00  0.00    -0.246 OA
BRANCH   7   9
ATOM      9  O   UNL     1       5.523  -1.345  48.729  1.00  0.00    -0.462 OA
BRANCH   9  10
ATOM     10  C   UNL     1       5.216  -2.021  47.511  1.00  0.00     0.233 C 
BRANCH  10  11
ATOM     11  C   UNL     1       5.868  -1.310  46.322  1.00  0.00     0.038 C 
ATOM     12  C   UNL     1       6.523  -0.001  46.753  1.00  0.00     0.007 C 
ENDBRANCH  10  11
ENDBRANCH   9  10
ENDBRANCH   7   9
ENDBRANCH   1   7
BRANCH   6  13
ATOM     13  C   UNL     1       6.243  -4.888  49.943  1.00  0.00     0.339 C 
ATOM     14  O   UNL     1       5.889  -4.910  51.154  1.00  0.00    -0.246 OA
BRANCH  13  15
ATOM     15  O   UNL     1       5.524  -5.613  48.985  1.00  0.00    -0.462 OA
BRANCH  15  16
ATOM     16  C   UNL     1       4.148  -5.373  48.689  1.00  0.00     0.233 C 
BRANCH  16  17
ATOM     17  C   UNL     1       3.789  -5.922  47.306  1.00  0.00     0.038 C 
ATOM     18  C   UNL     1       4.782  -5.447  46.249  1.00  0.00     0.007 C 
ENDBRANCH  16  17
ENDBRANCH  15  16
ENDBRANCH  13  15
ENDBRANCH   6  13
TORSDOF 8
ENDMDL
MODEL 4
REMARK VINA RESULT:    -5.173      1.791      3.913
REMARK INTER + INTRA:          -8.527
REMARK INTER:                  -7.717
REMARK INTRA:                  -0.810
REMARK UNBOUND:                -0.936
REMARK SMILES CCCOC(=O)c1ccccc1C(=O)OCCC
REMARK SMILES IDX 7 1 8 2 9 3 10 4 11 5 12 6 5 7 6 8 4 9 3 10 2 11 1 12 13 13
REMARK SMILES IDX 14 14 15 15 16 16 17 17 18 18
REMARK H PARENT
REMARK Flexibility Score: inf
ROOT
ATOM      1  C   UNL     1       5.537  -3.397  47.742  1.00  0.00     0.074 A 
ATOM      2  C   UNL     1       5.136  -3.566  46.405  1.00  0.00     0.016 A 
ATOM      3  C   UNL     1       5.171  -2.496  45.510  1.00  0.00     0.001 A 
ATOM      4  C   UNL     1       5.605  -1.242  45.936  1.00  0.00     0.001 A 
ATOM      5  C   UNL     1       6.030  -1.060  47.253  1.00  0.00     0.016 A 
ATOM      6  C   UNL     1       6.022  -2.131  48.166  1.00  0.00     0.074 A 
ENDROOT
BRANCH   1   7
ATOM      7  C   UNL     1       5.355  -4.528  48.675  1.00  0.00     0.339 C 
ATOM      8  O   UNL     1       6.021  -5.588  48.512  1.00  0.00    -0.246 OA
BRANCH   7   9
ATOM      9  O   UNL     1       4.404  -4.440  49.700  1.00  0.00    -0.462 OA
BRANCH   9  10
ATOM     10  C   UNL     1       3.432  -5.451  49.959  1.00  0.00     0.233 C 
BRANCH  10  11
ATOM     11  C   UNL     1       2.524  -5.649  48.742  1.00  0.00     0.038 C 
ATOM     12  C   UNL     1       1.071  -5.328  49.080  1.00  0.00     0.007 C 
ENDBRANCH  10  11
ENDBRANCH   9  10
ENDBRANCH   7   9
ENDBRANCH   1   7
BRANCH   6  13
ATOM     13  C   UNL     1       6.607  -1.912  49.509  1.00  0.00     0.339 C 
ATOM     14  O   UNL     1       5.875  -1.495  50.450  1.00  0.00    -0.246 OA
BRANCH  13  15
ATOM     15  O   UNL     1       7.980  -2.096  49.712  1.00  0.00    -0.462 OA
BRANCH  15  16
ATOM     16  C   UNL     1       8.928  -2.172  48.648  1.00  0.00     0.233 C 
BRANCH  16  17
ATOM     17  C   UNL     1       9.792  -3.428  48.783  1.00  0.00     0.038 C 
ATOM     18  C   UNL     1       9.126  -4.630  48.120  1.00  0.00     0.007 C 
ENDBRANCH  16  17
ENDBRANCH  15  16
ENDBRANCH  13  15
ENDBRANCH   6  13
TORSDOF 8
ENDMDL
MODEL 5
REMARK VINA RESULT:    -5.139      1.746      3.113
REMARK INTER + INTRA:          -8.478
REMARK INTER:                  -7.606
REMARK INTRA:                  -0.872
REMARK UNBOUND:                -0.936
REMARK SMILES CCCOC(=O)c1ccccc1C(=O)OCCC
REMARK SMILES IDX 7 1 8 2 9 3 10 4 11 5 12 6 5 7 6 8 4 9 3 10 2 11 1 12 13 13
REMARK SMILES IDX 14 14 15 15 16 16 17 17 18 18
REMARK H PARENT
REMARK Flexibility Score: inf
ROOT
ATOM      1  C   UNL     1       6.576  -3.232  47.349  1.00  0.00     0.074 A 
ATOM      2  C   UNL     1       7.400  -2.425  46.544  1.00  0.00     0.016 A 
ATOM      3  C   UNL     1       7.155  -1.056  46.422  1.00  0.00     0.001 A 
ATOM      4  C   UNL     1       6.086  -0.474  47.099  1.00  0.00     0.001 A 
ATOM      5  C   UNL     1       5.271  -1.254  47.922  1.00  0.00     0.016 A 
ATOM      6  C   UNL     1       5.513  -2.633  48.075  1.00  0.00     0.074 A 
ENDROOT
BRANCH   1   7
ATOM      7  C   UNL     1       6.801  -4.693  47.336  1.00  0.00     0.339 C 
ATOM      8  O   UNL     1       5.984  -5.447  46.738  1.00  0.00    -0.246 OA
BRANCH   7   9
ATOM      9  O   UNL     1       7.887  -5.237  48.034  1.00  0.00    -0.462 OA
BRANCH   9  10
ATOM     10  C   UNL     1       8.495  -4.603  49.158  1.00  0.00     0.233 C 
BRANCH  10  11
ATOM     11  C   UNL     1       9.835  -3.977  48.763  1.00  0.00     0.038 C 
ATOM     12  C   UNL     1       9.834  -2.471  49.009  1.00  0.00     0.007 C 
ENDBRANCH  10  11
ENDBRANCH   9  10
ENDBRANCH   7   9
ENDBRANCH   1   7
BRANCH   6  13
ATOM     13  C   UNL     1       4.700  -3.382  49.060  1.00  0.00     0.339 C 
ATOM     14  O   UNL     1       3.859  -4.233  48.660  1.00  0.00    -0.246 OA
BRANCH  13  15
ATOM     15  O   UNL     1       4.813  -3.091  50.426  1.00  0.00    -0.462 OA
BRANCH  15  16
ATOM     16  C   UNL     1       6.048  -3.133  51.138  1.00  0.00     0.233 C 
BRANCH  16  17
ATOM     17  C   UNL     1       6.645  -1.730  51.270  1.00  0.00     0.038 C 
ATOM     18  C   UNL     1       7.067  -1.443  52.707  1.00  0.00     0.007 C 
ENDBRANCH  16  17
ENDBRANCH  15  16
ENDBRANCH  13  15
ENDBRANCH   6  13
TORSDOF 8
ENDMDL
MODEL 6
REMARK VINA RESULT:    -5.042      2.113      4.613
REMARK INTER + INTRA:          -8.336
REMARK INTER:                  -7.362
REMARK INTRA:                  -0.974
REMARK UNBOUND:                -0.936
REMARK SMILES CCCOC(=O)c1ccccc1C(=O)OCCC
REMARK SMILES IDX 7 1 8 2 9 3 10 4 11 5 12 6 5 7 6 8 4 9 3 10 2 11 1 12 13 13
REMARK SMILES IDX 14 14 15 15 16 16 17 17 18 18
REMARK H PARENT
REMARK Flexibility Score: inf
ROOT
ATOM      1  C   UNL     1       6.272  -5.399  48.004  1.00  0.00     0.074 A 
ATOM      2  C   UNL     1       7.455  -5.796  47.352  1.00  0.00     0.016 A 
ATOM      3  C   UNL     1       8.596  -6.125  48.086  1.00  0.00     0.001 A 
ATOM      4  C   UNL     1       8.574  -6.062  49.477  1.00  0.00     0.001 A 
ATOM      5  C   UNL     1       7.404  -5.694  50.143  1.00  0.00     0.016 A 
ATOM      6  C   UNL     1       6.236  -5.378  49.423  1.00  0.00     0.074 A 
ENDROOT
BRANCH   1   7
ATOM      7  C   UNL     1       5.139  -4.937  47.175  1.00  0.00     0.339 C 
ATOM      8  O   UNL     1       4.184  -5.723  46.926  1.00  0.00    -0.246 OA
BRANCH   7   9
ATOM      9  O   UNL     1       5.158  -3.649  46.625  1.00  0.00    -0.462 OA
BRANCH   9  10
ATOM     10  C   UNL     1       6.287  -2.781  46.697  1.00  0.00     0.233 C 
BRANCH  10  11
ATOM     11  C   UNL     1       5.894  -1.352  46.312  1.00  0.00     0.038 C 
ATOM     12  C   UNL     1       6.800  -0.328  46.991  1.00  0.00     0.007 C 
ENDBRANCH  10  11
ENDBRANCH   9  10
ENDBRANCH   7   9
ENDBRANCH   1   7
BRANCH   6  13
ATOM     13  C   UNL     1       4.991  -5.124  50.183  1.00  0.00     0.339 C 
ATOM     14  O   UNL     1       4.193  -6.075  50.414  1.00  0.00    -0.246 OA
BRANCH  13  15
ATOM     15  O   UNL     1       4.666  -3.820  50.577  1.00  0.00    -0.462 OA
BRANCH  15  16
ATOM     16  C   UNL     1       5.280  -2.657  50.024  1.00  0.00     0.233 C 
BRANCH  16  17
ATOM     17  C   UNL     1       6.414  -2.163  50.924  1.00  0.00     0.038 C 
ATOM     18  C   UNL     1       7.729  -2.072  50.155  1.00  0.00     0.007 C 
ENDBRANCH  16  17
ENDBRANCH  15  16
ENDBRANCH  13  15
ENDBRANCH   6  13
TORSDOF 8
ENDMDL
MODEL 7
REMARK VINA RESULT:    -5.024      1.868      4.559
REMARK INTER + INTRA:          -8.309
REMARK INTER:                  -6.749
REMARK INTRA:                  -1.560
REMARK UNBOUND:                -0.936
REMARK SMILES CCCOC(=O)c1ccccc1C(=O)OCCC
REMARK SMILES IDX 7 1 8 2 9 3 10 4 11 5 12 6 5 7 6 8 4 9 3 10 2 11 1 12 13 13
REMARK SMILES IDX 14 14 15 15 16 16 17 17 18 18
REMARK H PARENT
REMARK Flexibility Score: inf
ROOT
ATOM      1  C   UNL     1       5.028  -3.349  48.032  1.00  0.00     0.074 A 
ATOM      2  C   UNL     1       4.743  -1.976  47.916  1.00  0.00     0.016 A 
ATOM      3  C   UNL     1       5.543  -1.146  47.130  1.00  0.00     0.001 A 
ATOM      4  C   UNL     1       6.639  -1.672  46.450  1.00  0.00     0.001 A 
ATOM      5  C   UNL     1       6.926  -3.036  46.533  1.00  0.00     0.016 A 
ATOM      6  C   UNL     1       6.119  -3.894  47.304  1.00  0.00     0.074 A 
ENDROOT
BRANCH   1   7
ATOM      7  C   UNL     1       4.228  -4.152  48.980  1.00  0.00     0.339 C 
ATOM      8  O   UNL     1       3.307  -4.898  48.546  1.00  0.00    -0.246 OA
BRANCH   7   9
ATOM      9  O   UNL     1       4.458  -4.038  50.357  1.00  0.00    -0.462 OA
BRANCH   9  10
ATOM     10  C   UNL     1       5.760  -3.938  50.930  1.00  0.00     0.233 C 
BRANCH  10  11
ATOM     11  C   UNL     1       6.044  -2.501  51.375  1.00  0.00     0.038 C 
ATOM     12  C   UNL     1       7.213  -1.903  50.598  1.00  0.00     0.007 C 
ENDBRANCH  10  11
ENDBRANCH   9  10
ENDBRANCH   7   9
ENDBRANCH   1   7
BRANCH   6  13
ATOM     13  C   UNL     1       6.390  -5.349  47.249  1.00  0.00     0.339 C 
ATOM     14  O   UNL     1       5.761  -6.073  46.428  1.00  0.00    -0.246 OA
BRANCH  13  15
ATOM     15  O   UNL     1       7.286  -5.928  48.156  1.00  0.00    -0.462 OA
BRANCH  15  16
ATOM     16  C   UNL     1       8.696  -5.707  48.116  1.00  0.00     0.233 C 
BRANCH  16  17
ATOM     17  C   UNL     1       9.119  -4.717  49.205  1.00  0.00     0.038 C 
ATOM     18  C   UNL     1       9.863  -3.526  48.608  1.00  0.00     0.007 C 
ENDBRANCH  16  17
ENDBRANCH  15  16
ENDBRANCH  13  15
ENDBRANCH   6  13
TORSDOF 8
ENDMDL
MODEL 8
REMARK VINA RESULT:    -4.984      2.158      4.718
REMARK INTER + INTRA:          -8.251
REMARK INTER:                  -7.294
REMARK INTRA:                  -0.956
REMARK UNBOUND:                -0.936
REMARK SMILES CCCOC(=O)c1ccccc1C(=O)OCCC
REMARK SMILES IDX 7 1 8 2 9 3 10 4 11 5 12 6 5 7 6 8 4 9 3 10 2 11 1 12 13 13
REMARK SMILES IDX 14 14 15 15 16 16 17 17 18 18
REMARK H PARENT
REMARK Flexibility Score: inf
ROOT
ATOM      1  C   UNL     1       6.555  -5.274  48.708  1.00  0.00     0.074 A 
ATOM      2  C   UNL     1       6.743  -5.882  49.962  1.00  0.00     0.016 A 
ATOM      3  C   UNL     1       5.674  -6.038  50.846  1.00  0.00     0.001 A 
ATOM      4  C   UNL     1       4.403  -5.589  50.491  1.00  0.00     0.001 A 
ATOM      5  C   UNL     1       4.192  -5.004  49.242  1.00  0.00     0.016 A 
ATOM      6  C   UNL     1       5.252  -4.857  48.328  1.00  0.00     0.074 A 
ENDROOT
BRANCH   1   7
ATOM      7  C   UNL     1       7.745  -5.017  47.870  1.00  0.00     0.339 C 
ATOM      8  O   UNL     1       8.461  -5.984  47.486  1.00  0.00    -0.246 OA
BRANCH   7   9
ATOM      9  O   UNL     1       8.104  -3.701  47.554  1.00  0.00    -0.462 OA
BRANCH   9  10
ATOM     10  C   UNL     1       9.424  -3.186  47.720  1.00  0.00     0.233 C 
BRANCH  10  11
ATOM     11  C   UNL     1       9.626  -2.672  49.148  1.00  0.00     0.038 C 
ATOM     12  C   UNL     1       8.296  -2.290  49.791  1.00  0.00     0.007 C 
ENDBRANCH  10  11
ENDBRANCH   9  10
ENDBRANCH   7   9
ENDBRANCH   1   7
BRANCH   6  13
ATOM     13  C   UNL     1       4.943  -4.352  46.970  1.00  0.00     0.339 C 
ATOM     14  O   UNL     1       4.857  -5.162  46.006  1.00  0.00    -0.246 OA
BRANCH  13  15
ATOM     15  O   UNL     1       4.822  -2.975  46.747  1.00  0.00    -0.462 OA
BRANCH  15  16
ATOM     16  C   UNL     1       5.512  -2.285  45.705  1.00  0.00     0.233 C 
BRANCH  16  17
ATOM     17  C   UNL     1       6.171  -1.013  46.243  1.00  0.00     0.038 C 
ATOM     18  C   UNL     1       5.836  -0.799  47.716  1.00  0.00     0.007 C 
ENDBRANCH  16  17
ENDBRANCH  15  16
ENDBRANCH  13  15
ENDBRANCH   6  13
TORSDOF 8
ENDMDL
