MODEL 1
REMARK VINA RESULT:    -2.943      0.000      0.000
REMARK INTER + INTRA:          -3.580
REMARK INTER:                  -3.459
REMARK INTRA:                  -0.122
REMARK UNBOUND:                -0.122
REMARK SMILES O=C([O-])CCC(=O)[O-]
REMARK SMILES IDX 4 1 2 2 1 3 3 4 5 5 6 6 7 7 8 8
REMARK H PARENT
REMARK Flexibility Score: inf
ROOT
ATOM      1  C   UNL     1      15.205  11.630  16.224  1.00  0.00     0.059 C 
ENDROOT
BRANCH   1   2
ATOM      2  C   UNL     1      13.822  12.207  16.270  1.00  0.00     0.042 C 
ATOM      3  O   UNL     1      13.642  13.392  16.655  1.00  0.00    -0.550 OA
ATOM      4  O   UNL     1      12.730  11.421  15.927  1.00  0.00    -0.550 OA
ENDBRANCH   1   2
BRANCH   1   5
ATOM      5  C   UNL     1      16.017  12.012  17.465  1.00  0.00     0.059 C 
BRANCH   5   6
ATOM      6  C   UNL     1      17.180  12.890  17.114  1.00  0.00     0.042 C 
ATOM      7  O   UNL     1      17.131  13.630  16.098  1.00  0.00    -0.550 OA
ATOM      8  O   UNL     1      18.331  12.860  17.890  1.00  0.00    -0.550 OA
ENDBRANCH   5   6
ENDBRANCH   1   5
TORSDOF 3
ENDMDL
MODEL 2
REMARK VINA RESULT:    -2.929      0.179      1.158
REMARK INTER + INTRA:          -3.565
REMARK INTER:                  -3.446
REMARK INTRA:                  -0.119
REMARK UNBOUND:                -0.122
REMARK SMILES O=C([O-])CCC(=O)[O-]
REMARK SMILES IDX 4 1 2 2 1 3 3 4 5 5 6 6 7 7 8 8
REMARK H PARENT
REMARK Flexibility Score: inf
ROOT
ATOM      1  C   UNL     1      15.098  11.551  16.380  1.00  0.00     0.059 C 
ENDROOT
BRANCH   1   2
ATOM      2  C   UNL     1      13.745  12.185  16.267  1.00  0.00     0.042 C 
ATOM      3  O   UNL     1      12.749  11.499  15.915  1.00  0.00    -0.550 OA
ATOM      4  O   UNL     1      13.592  13.544  16.511  1.00  0.00    -0.550 OA
ENDBRANCH   1   2
BRANCH   1   5
ATOM      5  C   UNL     1      15.893  12.124  17.557  1.00  0.00     0.059 C 
BRANCH   5   6
ATOM      6  C   UNL     1      17.056  12.945  17.090  1.00  0.00     0.042 C 
ATOM      7  O   UNL     1      17.023  13.509  15.965  1.00  0.00    -0.550 OA
ATOM      8  O   UNL     1      18.193  13.052  17.881  1.00  0.00    -0.550 OA
ENDBRANCH   5   6
ENDBRANCH   1   5
TORSDOF 3
ENDMDL
MODEL 3
REMARK VINA RESULT:    -2.918      0.263      3.985
REMARK INTER + INTRA:          -3.552
REMARK INTER:                  -3.432
REMARK INTRA:                  -0.120
REMARK UNBOUND:                -0.122
REMARK SMILES O=C([O-])CCC(=O)[O-]
REMARK SMILES IDX 4 1 2 2 1 3 3 4 5 5 6 6 7 7 8 8
REMARK H PARENT
REMARK Flexibility Score: inf
ROOT
ATOM      1  C   UNL     1      15.913  12.129  17.398  1.00  0.00     0.059 C 
ENDROOT
BRANCH   1   2
ATOM      2  C   UNL     1      17.036  12.981  16.890  1.00  0.00     0.042 C 
ATOM      3  O   UNL     1      16.974  13.492  15.740  1.00  0.00    -0.550 OA
ATOM      4  O   UNL     1      18.168  13.176  17.670  1.00  0.00    -0.550 OA
ENDBRANCH   1   2
BRANCH   1   5
ATOM      5  C   UNL     1      15.085  11.542  16.251  1.00  0.00     0.059 C 
BRANCH   5   6
ATOM      6  C   UNL     1      13.707  12.129  16.209  1.00  0.00     0.042 C 
ATOM      7  O   UNL     1      12.723  11.414  15.887  1.00  0.00    -0.550 OA
ATOM      8  O   UNL     1      13.518  13.477  16.486  1.00  0.00    -0.550 OA
ENDBRANCH   5   6
ENDBRANCH   1   5
TORSDOF 3
ENDMDL
MODEL 4
REMARK VINA RESULT:    -2.869      2.005      2.727
REMARK INTER + INTRA:          -3.493
REMARK INTER:                  -3.393
REMARK INTRA:                  -0.100
REMARK UNBOUND:                -0.122
REMARK SMILES O=C([O-])CCC(=O)[O-]
REMARK SMILES IDX 4 1 2 2 1 3 3 4 5 5 6 6 7 7 8 8
REMARK H PARENT
REMARK Flexibility Score: inf
ROOT
ATOM      1  C   UNL     1      16.341  13.477  17.140  1.00  0.00     0.059 C 
ENDROOT
BRANCH   1   2
ATOM      2  C   UNL     1      16.013  12.026  16.962  1.00  0.00     0.042 C 
ATOM      3  O   UNL     1      15.624  11.595  15.845  1.00  0.00    -0.550 OA
ATOM      4  O   UNL     1      16.096  11.157  18.043  1.00  0.00    -0.550 OA
ENDBRANCH   1   2
BRANCH   1   5
ATOM      5  C   UNL     1      17.556  13.887  16.303  1.00  0.00     0.059 C 
BRANCH   5   6
ATOM      6  C   UNL     1      18.810  13.907  17.124  1.00  0.00     0.042 C 
ATOM      7  O   UNL     1      18.745  13.900  18.381  1.00  0.00    -0.550 OA
ATOM      8  O   UNL     1      20.048  13.974  16.498  1.00  0.00    -0.550 OA
ENDBRANCH   5   6
ENDBRANCH   1   5
TORSDOF 3
ENDMDL
MODEL 5
REMARK VINA RESULT:    -2.868      2.031      4.424
REMARK INTER + INTRA:          -3.493
REMARK INTER:                  -3.403
REMARK INTRA:                  -0.090
REMARK UNBOUND:                -0.122
REMARK SMILES O=C([O-])CCC(=O)[O-]
REMARK SMILES IDX 4 1 2 2 1 3 3 4 5 5 6 6 7 7 8 8
REMARK H PARENT
REMARK Flexibility Score: inf
ROOT
ATOM      1  C   UNL     1      17.459  13.944  16.524  1.00  0.00     0.059 C 
ENDROOT
BRANCH   1   2
ATOM      2  C   UNL     1      18.758  13.958  17.270  1.00  0.00     0.042 C 
ATOM      3  O   UNL     1      18.768  14.036  18.527  1.00  0.00    -0.550 OA
ATOM      4  O   UNL     1      19.960  13.928  16.573  1.00  0.00    -0.550 OA
ENDBRANCH   1   2
BRANCH   1   5
ATOM      5  C   UNL     1      16.309  13.440  17.401  1.00  0.00     0.059 C 
BRANCH   5   6
ATOM      6  C   UNL     1      15.988  12.004  17.118  1.00  0.00     0.042 C 
ATOM      7  O   UNL     1      16.063  11.145  18.035  1.00  0.00    -0.550 OA
ATOM      8  O   UNL     1      15.644  11.610  15.832  1.00  0.00    -0.550 OA
ENDBRANCH   5   6
ENDBRANCH   1   5
TORSDOF 3
ENDMDL
MODEL 6
REMARK VINA RESULT:    -2.693      1.560      3.617
REMARK INTER + INTRA:          -3.287
REMARK INTER:                  -3.111
REMARK INTRA:                  -0.176
REMARK UNBOUND:                -0.122
REMARK SMILES O=C([O-])CCC(=O)[O-]
REMARK SMILES IDX 4 1 2 2 1 3 3 4 5 5 6 6 7 7 8 8
REMARK H PARENT
REMARK Flexibility Score: inf
ROOT
ATOM      1  C   UNL     1      16.245  12.951  15.611  1.00  0.00     0.059 C 
ENDROOT
BRANCH   1   2
ATOM      2  C   UNL     1      16.641  12.709  17.035  1.00  0.00     0.042 C 
ATOM      3  O   UNL     1      17.131  13.641  17.726  1.00  0.00    -0.550 OA
ATOM      4  O   UNL     1      16.509  11.441  17.587  1.00  0.00    -0.550 OA
ENDBRANCH   1   2
BRANCH   1   5
ATOM      5  C   UNL     1      15.031  13.880  15.513  1.00  0.00     0.059 C 
BRANCH   5   6
ATOM      6  C   UNL     1      13.884  13.378  16.336  1.00  0.00     0.042 C 
ATOM      7  O   UNL     1      13.311  12.299  16.034  1.00  0.00    -0.550 OA
ATOM      8  O   UNL     1      13.424  14.123  17.414  1.00  0.00    -0.550 OA
ENDBRANCH   5   6
ENDBRANCH   1   5
TORSDOF 3
ENDMDL
MODEL 7
REMARK VINA RESULT:    -2.641      2.244      3.392
REMARK INTER + INTRA:          -3.226
REMARK INTER:                  -3.112
REMARK INTRA:                  -0.114
REMARK UNBOUND:                -0.122
REMARK SMILES O=C([O-])CCC(=O)[O-]
REMARK SMILES IDX 4 1 2 2 1 3 3 4 5 5 6 6 7 7 8 8
REMARK H PARENT
REMARK Flexibility Score: inf
ROOT
ATOM      1  C   UNL     1      15.659  11.892  15.940  1.00  0.00     0.059 C 
ENDROOT
BRANCH   1   2
ATOM      2  C   UNL     1      15.675  12.041  17.431  1.00  0.00     0.042 C 
ATOM      3  O   UNL     1      16.176  11.140  18.153  1.00  0.00    -0.550 OA
ATOM      4  O   UNL     1      15.100  13.158  18.024  1.00  0.00    -0.550 OA
ENDBRANCH   1   2
BRANCH   1   5
ATOM      5  C   UNL     1      16.240  13.126  15.242  1.00  0.00     0.059 C 
BRANCH   5   6
ATOM      6  C   UNL     1      15.245  13.755  14.315  1.00  0.00     0.042 C 
ATOM      7  O   UNL     1      15.553  13.984  13.116  1.00  0.00    -0.550 OA
ATOM      8  O   UNL     1      13.992  14.124  14.787  1.00  0.00    -0.550 OA
ENDBRANCH   5   6
ENDBRANCH   1   5
TORSDOF 3
ENDMDL
MODEL 8
REMARK VINA RESULT:    -2.515      1.778      2.573
REMARK INTER + INTRA:          -3.078
REMARK INTER:                  -3.009
REMARK INTRA:                  -0.069
REMARK UNBOUND:                -0.122
REMARK SMILES O=C([O-])CCC(=O)[O-]
REMARK SMILES IDX 4 1 2 2 1 3 3 4 5 5 6 6 7 7 8 8
REMARK H PARENT
REMARK Flexibility Score: inf
ROOT
ATOM      1  C   UNL     1      15.836  12.419  17.013  1.00  0.00     0.059 C 
ENDROOT
BRANCH   1   2
ATOM      2  C   UNL     1      14.805  13.365  17.548  1.00  0.00     0.042 C 
ATOM      3  O   UNL     1      14.980  13.933  18.658  1.00  0.00    -0.550 OA
ATOM      4  O   UNL     1      13.631  13.586  16.839  1.00  0.00    -0.550 OA
ENDBRANCH   1   2
BRANCH   1   5
ATOM      5  C   UNL     1      15.771  12.317  15.486  1.00  0.00     0.059 C 
BRANCH   5   6
ATOM      6  C   UNL     1      16.534  13.425  14.826  1.00  0.00     0.042 C 
ATOM      7  O   UNL     1      17.394  14.076  15.475  1.00  0.00    -0.550 OA
ATOM      8  O   UNL     1      16.265  13.763  13.506  1.00  0.00    -0.550 OA
ENDBRANCH   5   6
ENDBRANCH   1   5
TORSDOF 3
ENDMDL
MODEL 9
REMARK VINA RESULT:    -2.373      1.396      3.900
REMARK INTER + INTRA:          -2.911
REMARK INTER:                  -2.797
REMARK INTRA:                  -0.114
REMARK UNBOUND:                -0.122
REMARK SMILES O=C([O-])CCC(=O)[O-]
REMARK SMILES IDX 4 1 2 2 1 3 3 4 5 5 6 6 7 7 8 8
REMARK H PARENT
REMARK Flexibility Score: inf
ROOT
ATOM      1  C   UNL     1      16.219  11.471  17.597  1.00  0.00     0.059 C 
ENDROOT
BRANCH   1   2
ATOM      2  C   UNL     1      17.664  11.642  17.951  1.00  0.00     0.042 C 
ATOM      3  O   UNL     1      18.307  10.693  18.473  1.00  0.00    -0.550 OA
ATOM      4  O   UNL     1      18.291  12.864  17.743  1.00  0.00    -0.550 OA
ENDBRANCH   1   2
BRANCH   1   5
ATOM      5  C   UNL     1      15.534  12.819  17.353  1.00  0.00     0.059 C 
BRANCH   5   6
ATOM      6  C   UNL     1      15.085  12.960  15.930  1.00  0.00     0.042 C 
ATOM      7  O   UNL     1      13.865  13.113  15.662  1.00  0.00    -0.550 OA
ATOM      8  O   UNL     1      16.012  12.881  14.898  1.00  0.00    -0.550 OA
ENDBRANCH   5   6
ENDBRANCH   1   5
TORSDOF 3
ENDMDL
