MODEL 1
REMARK VINA RESULT:    -6.690      0.000      0.000
REMARK INTER + INTRA:          -8.160
REMARK INTER:                  -7.864
REMARK INTRA:                  -0.296
REMARK UNBOUND:                -0.296
REMARK SMILES O=c1c(O)c(-c2ccc(O)c(O)c2)oc2cc(O)ccc12
REMARK SMILES IDX 5 1 3 2 2 3 1 4 21 5 15 6 14 7 16 8 17 9 19 10 20 11 6 12
REMARK SMILES IDX 7 13 8 14 9 15 13 16 11 17 10 18 12 20 4 22 18 24
REMARK H PARENT 10 19 12 21 4 23 18 25
REMARK Flexibility Score: inf
ROOT
ATOM      1  C   UNL     1      24.869  -5.137   9.878  1.00  0.00     0.180 A 
ATOM      2  C   UNL     1      24.313  -6.421  10.052  1.00  0.00     0.208 A 
ATOM      3  C   UNL     1      25.173  -7.529  10.113  1.00  0.00     0.235 A 
ATOM      4  O   UNL     1      24.701  -8.686  10.280  1.00  0.00    -0.285 OA
ATOM      5  C   UNL     1      26.557  -7.336   9.980  1.00  0.00     0.069 A 
ATOM      6  C   UNL     1      27.034  -6.021   9.784  1.00  0.00     0.142 A 
ATOM      7  O   UNL     1      26.186  -4.999   9.742  1.00  0.00    -0.452 OA
ATOM      8  C   UNL     1      28.405  -5.788   9.637  1.00  0.00     0.094 A 
ATOM      9  C   UNL     1      29.311  -6.853   9.685  1.00  0.00     0.119 A 
ATOM     10  C   UNL     1      28.842  -8.159   9.880  1.00  0.00     0.047 A 
ATOM     11  C   UNL     1      27.473  -8.403  10.027  1.00  0.00     0.020 A 
ENDROOT
BRANCH   1  12
ATOM     12  C   UNL     1      24.030  -3.919   9.823  1.00  0.00     0.025 A 
ATOM     13  C   UNL     1      23.834  -3.162  10.989  1.00  0.00     0.016 A 
ATOM     14  C   UNL     1      23.030  -2.019  10.965  1.00  0.00     0.051 A 
ATOM     15  C   UNL     1      22.398  -1.626   9.778  1.00  0.00     0.157 A 
ATOM     16  C   UNL     1      23.376  -3.532   8.639  1.00  0.00     0.062 A 
ATOM     17  C   UNL     1      22.567  -2.386   8.614  1.00  0.00     0.158 A 
BRANCH  15  18
ATOM     18  O   UNL     1      21.597  -0.486   9.749  1.00  0.00    -0.504 OA
ATOM     19  H   UNL     1      21.720   0.231   9.043  1.00  0.00     0.293 HD
ENDBRANCH  15  18
BRANCH  17  20
ATOM     20  O   UNL     1      21.926  -2.001   7.438  1.00  0.00    -0.504 OA
ATOM     21  H   UNL     1      22.313  -1.287   6.833  1.00  0.00     0.293 HD
ENDBRANCH  17  20
ENDBRANCH   1  12
BRANCH   2  22
ATOM     22  O   UNL     1      22.928  -6.588  10.132  1.00  0.00    -0.502 OA
ATOM     23  H   UNL     1      22.445  -7.343   9.659  1.00  0.00     0.293 HD
ENDBRANCH   2  22
BRANCH   9  24
ATOM     24  O   UNL     1      30.673  -6.604   9.537  1.00  0.00    -0.508 OA
ATOM     25  H   UNL     1      31.013  -5.728   9.159  1.00  0.00     0.293 HD
ENDBRANCH   9  24
TORSDOF 5
ENDMDL
MODEL 2
REMARK VINA RESULT:    -6.672      4.280      5.878
REMARK INTER + INTRA:          -8.138
REMARK INTER:                  -7.819
REMARK INTRA:                  -0.319
REMARK UNBOUND:                -0.296
REMARK SMILES O=c1c(O)c(-c2ccc(O)c(O)c2)oc2cc(O)ccc12
REMARK SMILES IDX 5 1 3 2 2 3 1 4 21 5 15 6 14 7 16 8 17 9 19 10 20 11 6 12
REMARK SMILES IDX 7 13 8 14 9 15 13 16 11 17 10 18 12 20 4 22 18 24
REMARK H PARENT 10 19 12 21 4 23 18 25
REMARK Flexibility Score: inf
ROOT
ATOM      1  C   UNL     1      21.441  -6.958  11.359  1.00  0.00     0.180 A 
ATOM      2  C   UNL     1      22.432  -7.908  11.682  1.00  0.00     0.208 A 
ATOM      3  C   UNL     1      23.782  -7.558  11.524  1.00  0.00     0.235 A 
ATOM      4  O   UNL     1      24.687  -8.387  11.816  1.00  0.00    -0.285 OA
ATOM      5  C   UNL     1      24.112  -6.286  11.032  1.00  0.00     0.069 A 
ATOM      6  C   UNL     1      23.061  -5.400  10.709  1.00  0.00     0.142 A 
ATOM      7  O   UNL     1      21.796  -5.767  10.882  1.00  0.00    -0.452 OA
ATOM      8  C   UNL     1      23.349  -4.127  10.206  1.00  0.00     0.094 A 
ATOM      9  C   UNL     1      24.676  -3.723  10.023  1.00  0.00     0.119 A 
ATOM     10  C   UNL     1      25.721  -4.599  10.344  1.00  0.00     0.047 A 
ATOM     11  C   UNL     1      25.444  -5.874  10.845  1.00  0.00     0.020 A 
ENDROOT
BRANCH   1  12
ATOM     12  C   UNL     1      19.997  -7.244  11.516  1.00  0.00     0.025 A 
ATOM     13  C   UNL     1      19.287  -7.818  10.450  1.00  0.00     0.016 A 
ATOM     14  C   UNL     1      17.919  -8.078  10.568  1.00  0.00     0.051 A 
ATOM     15  C   UNL     1      17.238  -7.753  11.749  1.00  0.00     0.157 A 
ATOM     16  C   UNL     1      19.305  -6.900  12.692  1.00  0.00     0.062 A 
ATOM     17  C   UNL     1      17.932  -7.159  12.811  1.00  0.00     0.158 A 
BRANCH  15  18
ATOM     18  O   UNL     1      15.875  -8.012  11.872  1.00  0.00    -0.504 OA
ATOM     19  H   UNL     1      15.450  -8.201  12.773  1.00  0.00     0.293 HD
ENDBRANCH  15  18
BRANCH  17  20
ATOM     20  O   UNL     1      17.250  -6.824  13.979  1.00  0.00    -0.504 OA
ATOM     21  H   UNL     1      17.712  -6.349  14.745  1.00  0.00     0.293 HD
ENDBRANCH  17  20
ENDBRANCH   1  12
BRANCH   2  22
ATOM     22  O   UNL     1      22.072  -9.184  12.123  1.00  0.00    -0.502 OA
ATOM     23  H   UNL     1      22.725  -9.798  12.597  1.00  0.00     0.293 HD
ENDBRANCH   2  22
BRANCH   9  24
ATOM     24  O   UNL     1      24.944  -2.452   9.522  1.00  0.00    -0.508 OA
ATOM     25  H   UNL     1      24.755  -1.618  10.065  1.00  0.00     0.293 HD
ENDBRANCH   9  24
TORSDOF 5
ENDMDL
MODEL 3
REMARK VINA RESULT:    -6.618      0.889      1.548
REMARK INTER + INTRA:          -8.075
REMARK INTER:                  -7.873
REMARK INTRA:                  -0.202
REMARK UNBOUND:                -0.296
REMARK SMILES O=c1c(O)c(-c2ccc(O)c(O)c2)oc2cc(O)ccc12
REMARK SMILES IDX 5 1 3 2 2 3 1 4 21 5 15 6 14 7 16 8 17 9 19 10 20 11 6 12
REMARK SMILES IDX 7 13 8 14 9 15 13 16 11 17 10 18 12 20 4 22 18 24
REMARK H PARENT 10 19 12 21 4 23 18 25
REMARK Flexibility Score: inf
ROOT
ATOM      1  C   UNL     1      24.705  -5.199  10.314  1.00  0.00     0.180 A 
ATOM      2  C   UNL     1      24.202  -6.370  10.918  1.00  0.00     0.208 A 
ATOM      3  C   UNL     1      25.052  -7.479  11.058  1.00  0.00     0.235 A 
ATOM      4  O   UNL     1      24.629  -8.533  11.605  1.00  0.00    -0.285 OA
ATOM      5  C   UNL     1      26.368  -7.404  10.576  1.00  0.00     0.069 A 
ATOM      6  C   UNL     1      26.789  -6.204   9.962  1.00  0.00     0.142 A 
ATOM      7  O   UNL     1      25.957  -5.175   9.858  1.00  0.00    -0.452 OA
ATOM      8  C   UNL     1      28.090  -6.094   9.460  1.00  0.00     0.094 A 
ATOM      9  C   UNL     1      28.981  -7.168   9.566  1.00  0.00     0.119 A 
ATOM     10  C   UNL     1      28.567  -8.359  10.177  1.00  0.00     0.047 A 
ATOM     11  C   UNL     1      27.269  -8.480  10.680  1.00  0.00     0.020 A 
ENDROOT
BRANCH   1  12
ATOM     12  C   UNL     1      23.879  -3.983  10.148  1.00  0.00     0.025 A 
ATOM     13  C   UNL     1      22.834  -3.981   9.210  1.00  0.00     0.016 A 
ATOM     14  C   UNL     1      22.053  -2.837   9.022  1.00  0.00     0.051 A 
ATOM     15  C   UNL     1      22.317  -1.674   9.758  1.00  0.00     0.157 A 
ATOM     16  C   UNL     1      24.153  -2.806  10.869  1.00  0.00     0.062 A 
ATOM     17  C   UNL     1      23.372  -1.657  10.679  1.00  0.00     0.158 A 
BRANCH  15  18
ATOM     18  O   UNL     1      21.541  -0.531   9.574  1.00  0.00    -0.504 OA
ATOM     19  H   UNL     1      20.818  -0.489   8.864  1.00  0.00     0.293 HD
ENDBRANCH  15  18
BRANCH  17  20
ATOM     20  O   UNL     1      23.640  -0.494  11.399  1.00  0.00    -0.504 OA
ATOM     21  H   UNL     1      22.921   0.196  11.579  1.00  0.00     0.293 HD
ENDBRANCH  17  20
ENDBRANCH   1  12
BRANCH   2  22
ATOM     22  O   UNL     1      22.873  -6.432  11.343  1.00  0.00    -0.502 OA
ATOM     23  H   UNL     1      22.354  -7.302  11.374  1.00  0.00     0.293 HD
ENDBRANCH   2  22
BRANCH   9  24
ATOM     24  O   UNL     1      30.273  -7.041   9.062  1.00  0.00    -0.508 OA
ATOM     25  H   UNL     1      30.882  -7.843   8.956  1.00  0.00     0.293 HD
ENDBRANCH   9  24
TORSDOF 5
ENDMDL
MODEL 4
REMARK VINA RESULT:    -6.531      1.483      6.562
REMARK INTER + INTRA:          -7.973
REMARK INTER:                  -7.655
REMARK INTRA:                  -0.318
REMARK UNBOUND:                -0.296
REMARK SMILES O=c1c(O)c(-c2ccc(O)c(O)c2)oc2cc(O)ccc12
REMARK SMILES IDX 5 1 3 2 2 3 1 4 21 5 15 6 14 7 16 8 17 9 19 10 20 11 6 12
REMARK SMILES IDX 7 13 8 14 9 15 13 16 11 17 10 18 12 20 4 22 18 24
REMARK H PARENT 10 19 12 21 4 23 18 25
REMARK Flexibility Score: inf
ROOT
ATOM      1  C   UNL     1      25.942  -5.486  10.321  1.00  0.00     0.180 A 
ATOM      2  C   UNL     1      25.058  -6.377   9.678  1.00  0.00     0.208 A 
ATOM      3  C   UNL     1      23.793  -5.910   9.285  1.00  0.00     0.235 A 
ATOM      4  O   UNL     1      22.989  -6.684   8.699  1.00  0.00    -0.285 OA
ATOM      5  C   UNL     1      23.433  -4.581   9.557  1.00  0.00     0.069 A 
ATOM      6  C   UNL     1      24.366  -3.758  10.226  1.00  0.00     0.142 A 
ATOM      7  O   UNL     1      25.556  -4.237  10.573  1.00  0.00    -0.452 OA
ATOM      8  C   UNL     1      24.042  -2.431  10.524  1.00  0.00     0.094 A 
ATOM      9  C   UNL     1      22.795  -1.910  10.161  1.00  0.00     0.119 A 
ATOM     10  C   UNL     1      21.867  -2.723   9.495  1.00  0.00     0.047 A 
ATOM     11  C   UNL     1      22.181  -4.052   9.194  1.00  0.00     0.020 A 
ENDROOT
BRANCH   1  12
ATOM     12  C   UNL     1      27.298  -5.897  10.749  1.00  0.00     0.025 A 
ATOM     13  C   UNL     1      27.481  -6.451  12.026  1.00  0.00     0.016 A 
ATOM     14  C   UNL     1      28.755  -6.828  12.459  1.00  0.00     0.051 A 
ATOM     15  C   UNL     1      29.867  -6.640  11.627  1.00  0.00     0.157 A 
ATOM     16  C   UNL     1      28.420  -5.691   9.926  1.00  0.00     0.062 A 
ATOM     17  C   UNL     1      29.700  -6.067  10.361  1.00  0.00     0.158 A 
BRANCH  15  18
ATOM     18  O   UNL     1      31.139  -7.015  12.054  1.00  0.00    -0.504 OA
ATOM     19  H   UNL     1      31.808  -6.332  12.392  1.00  0.00     0.293 HD
ENDBRANCH  15  18
BRANCH  17  20
ATOM     20  O   UNL     1      30.809  -5.869   9.541  1.00  0.00    -0.504 OA
ATOM     21  H   UNL     1      30.722  -5.453   8.622  1.00  0.00     0.293 HD
ENDBRANCH  17  20
ENDBRANCH   1  12
BRANCH   2  22
ATOM     22  O   UNL     1      25.424  -7.708   9.465  1.00  0.00    -0.502 OA
ATOM     23  H   UNL     1      25.974  -7.997   8.665  1.00  0.00     0.293 HD
ENDBRANCH   2  22
BRANCH   9  24
ATOM     24  O   UNL     1      22.488  -0.586  10.464  1.00  0.00    -0.508 OA
ATOM     25  H   UNL     1      23.055  -0.045  11.105  1.00  0.00     0.293 HD
ENDBRANCH   9  24
TORSDOF 5
ENDMDL
MODEL 5
REMARK VINA RESULT:    -6.475      2.328      6.845
REMARK INTER + INTRA:          -7.907
REMARK INTER:                  -7.585
REMARK INTRA:                  -0.322
REMARK UNBOUND:                -0.296
REMARK SMILES O=c1c(O)c(-c2ccc(O)c(O)c2)oc2cc(O)ccc12
REMARK SMILES IDX 5 1 3 2 2 3 1 4 21 5 15 6 14 7 16 8 17 9 19 10 20 11 6 12
REMARK SMILES IDX 7 13 8 14 9 15 13 16 11 17 10 18 12 20 4 22 18 24
REMARK H PARENT 10 19 12 21 4 23 18 25
REMARK Flexibility Score: inf
ROOT
ATOM      1  C   UNL     1      26.748  -5.703  10.212  1.00  0.00     0.180 A 
ATOM      2  C   UNL     1      26.094  -5.024   9.163  1.00  0.00     0.208 A 
ATOM      3  C   UNL     1      24.723  -4.749   9.286  1.00  0.00     0.235 A 
ATOM      4  O   UNL     1      24.118  -4.133   8.367  1.00  0.00    -0.285 OA
ATOM      5  C   UNL     1      24.034  -5.170  10.435  1.00  0.00     0.069 A 
ATOM      6  C   UNL     1      24.756  -5.866  11.430  1.00  0.00     0.142 A 
ATOM      7  O   UNL     1      26.055  -6.098  11.279  1.00  0.00    -0.452 OA
ATOM      8  C   UNL     1      24.104  -6.312  12.584  1.00  0.00     0.094 A 
ATOM      9  C   UNL     1      22.737  -6.071  12.761  1.00  0.00     0.119 A 
ATOM     10  C   UNL     1      22.019  -5.380  11.776  1.00  0.00     0.047 A 
ATOM     11  C   UNL     1      22.661  -4.931  10.618  1.00  0.00     0.020 A 
ENDROOT
BRANCH   1  12
ATOM     12  C   UNL     1      28.194  -6.013  10.166  1.00  0.00     0.025 A 
ATOM     13  C   UNL     1      28.621  -7.237   9.627  1.00  0.00     0.016 A 
ATOM     14  C   UNL     1      29.980  -7.561   9.592  1.00  0.00     0.051 A 
ATOM     15  C   UNL     1      30.931  -6.670  10.109  1.00  0.00     0.157 A 
ATOM     16  C   UNL     1      29.151  -5.132  10.703  1.00  0.00     0.062 A 
ATOM     17  C   UNL     1      30.515  -5.456  10.670  1.00  0.00     0.158 A 
BRANCH  15  18
ATOM     18  O   UNL     1      32.287  -6.987  10.074  1.00  0.00    -0.504 OA
ATOM     19  H   UNL     1      32.755  -7.223   9.206  1.00  0.00     0.293 HD
ENDBRANCH  15  18
BRANCH  17  20
ATOM     20  O   UNL     1      31.462  -4.579  11.196  1.00  0.00    -0.504 OA
ATOM     21  H   UNL     1      32.252  -4.261  10.648  1.00  0.00     0.293 HD
ENDBRANCH  17  20
ENDBRANCH   1  12
BRANCH   2  22
ATOM     22  O   UNL     1      26.794  -4.660   8.010  1.00  0.00    -0.502 OA
ATOM     23  H   UNL     1      27.661  -5.109   7.738  1.00  0.00     0.293 HD
ENDBRANCH   2  22
BRANCH   9  24
ATOM     24  O   UNL     1      22.104  -6.521  13.917  1.00  0.00    -0.508 OA
ATOM     25  H   UNL     1      21.466  -5.930  14.435  1.00  0.00     0.293 HD
ENDBRANCH   9  24
TORSDOF 5
ENDMDL
MODEL 6
REMARK VINA RESULT:    -6.336      2.448      6.770
REMARK INTER + INTRA:          -7.744
REMARK INTER:                  -7.511
REMARK INTRA:                  -0.232
REMARK UNBOUND:                -0.296
REMARK SMILES O=c1c(O)c(-c2ccc(O)c(O)c2)oc2cc(O)ccc12
REMARK SMILES IDX 5 1 3 2 2 3 1 4 21 5 15 6 14 7 16 8 17 9 19 10 20 11 6 12
REMARK SMILES IDX 7 13 8 14 9 15 13 16 11 17 10 18 12 20 4 22 18 24
REMARK H PARENT 10 19 12 21 4 23 18 25
REMARK Flexibility Score: inf
ROOT
ATOM      1  C   UNL     1      24.202  -4.968   9.501  1.00  0.00     0.180 A 
ATOM      2  C   UNL     1      23.934  -3.589   9.380  1.00  0.00     0.208 A 
ATOM      3  C   UNL     1      22.731  -3.184   8.778  1.00  0.00     0.235 A 
ATOM      4  O   UNL     1      22.463  -1.956   8.667  1.00  0.00    -0.285 OA
ATOM      5  C   UNL     1      21.839  -4.155   8.296  1.00  0.00     0.069 A 
ATOM      6  C   UNL     1      22.192  -5.515   8.435  1.00  0.00     0.142 A 
ATOM      7  O   UNL     1      23.335  -5.857   9.019  1.00  0.00    -0.452 OA
ATOM      8  C   UNL     1      21.334  -6.512   7.959  1.00  0.00     0.094 A 
ATOM      9  C   UNL     1      20.124  -6.169   7.346  1.00  0.00     0.119 A 
ATOM     10  C   UNL     1      19.770  -4.820   7.209  1.00  0.00     0.047 A 
ATOM     11  C   UNL     1      20.621  -3.816   7.680  1.00  0.00     0.020 A 
ENDROOT
BRANCH   1  12
ATOM     12  C   UNL     1      25.437  -5.475  10.140  1.00  0.00     0.025 A 
ATOM     13  C   UNL     1      25.372  -6.023  11.431  1.00  0.00     0.016 A 
ATOM     14  C   UNL     1      26.529  -6.489  12.061  1.00  0.00     0.051 A 
ATOM     15  C   UNL     1      27.770  -6.399  11.416  1.00  0.00     0.157 A 
ATOM     16  C   UNL     1      26.688  -5.367   9.505  1.00  0.00     0.062 A 
ATOM     17  C   UNL     1      27.850  -5.833  10.138  1.00  0.00     0.158 A 
BRANCH  15  18
ATOM     18  O   UNL     1      28.925  -6.864  12.040  1.00  0.00    -0.504 OA
ATOM     19  H   UNL     1      29.846  -6.546  11.757  1.00  0.00     0.293 HD
ENDBRANCH  15  18
BRANCH  17  20
ATOM     20  O   UNL     1      29.087  -5.732   9.504  1.00  0.00    -0.504 OA
ATOM     21  H   UNL     1      29.379  -4.878   9.044  1.00  0.00     0.293 HD
ENDBRANCH  17  20
ENDBRANCH   1  12
BRANCH   2  22
ATOM     22  O   UNL     1      24.863  -2.645   9.823  1.00  0.00    -0.502 OA
ATOM     23  H   UNL     1      25.511  -2.836  10.578  1.00  0.00     0.293 HD
ENDBRANCH   2  22
BRANCH   9  24
ATOM     24  O   UNL     1      19.281  -7.175   6.878  1.00  0.00    -0.508 OA
ATOM     25  H   UNL     1      18.689  -7.035   6.069  1.00  0.00     0.293 HD
ENDBRANCH   9  24
TORSDOF 5
ENDMDL
MODEL 7
REMARK VINA RESULT:    -6.328      3.309      6.559
REMARK INTER + INTRA:          -7.734
REMARK INTER:                  -7.519
REMARK INTRA:                  -0.215
REMARK UNBOUND:                -0.296
REMARK SMILES O=c1c(O)c(-c2ccc(O)c(O)c2)oc2cc(O)ccc12
REMARK SMILES IDX 5 1 3 2 2 3 1 4 21 5 15 6 14 7 16 8 17 9 19 10 20 11 6 12
REMARK SMILES IDX 7 13 8 14 9 15 13 16 11 17 10 18 12 20 4 22 18 24
REMARK H PARENT 10 19 12 21 4 23 18 25
REMARK Flexibility Score: inf
ROOT
ATOM      1  C   UNL     1      23.529  -6.615  11.159  1.00  0.00     0.180 A 
ATOM      2  C   UNL     1      22.944  -5.983  12.276  1.00  0.00     0.208 A 
ATOM      3  C   UNL     1      21.617  -6.296  12.613  1.00  0.00     0.235 A 
ATOM      4  O   UNL     1      21.076  -5.753  13.614  1.00  0.00    -0.285 OA
ATOM      5  C   UNL     1      20.901  -7.209  11.823  1.00  0.00     0.069 A 
ATOM      6  C   UNL     1      21.551  -7.781  10.707  1.00  0.00     0.142 A 
ATOM      7  O   UNL     1      22.810  -7.466  10.428  1.00  0.00    -0.452 OA
ATOM      8  C   UNL     1      20.868  -8.688   9.889  1.00  0.00     0.094 A 
ATOM      9  C   UNL     1      19.543  -9.035  10.172  1.00  0.00     0.119 A 
ATOM     10  C   UNL     1      18.896  -8.470  11.280  1.00  0.00     0.047 A 
ATOM     11  C   UNL     1      19.569  -7.562  12.103  1.00  0.00     0.020 A 
ENDROOT
BRANCH   1  12
ATOM     12  C   UNL     1      24.927  -6.353  10.751  1.00  0.00     0.025 A 
ATOM     13  C   UNL     1      25.980  -6.815  11.557  1.00  0.00     0.016 A 
ATOM     14  C   UNL     1      27.307  -6.561  11.203  1.00  0.00     0.051 A 
ATOM     15  C   UNL     1      27.601  -5.830  10.044  1.00  0.00     0.157 A 
ATOM     16  C   UNL     1      25.226  -5.600   9.601  1.00  0.00     0.062 A 
ATOM     17  C   UNL     1      26.559  -5.344   9.245  1.00  0.00     0.158 A 
BRANCH  15  18
ATOM     18  O   UNL     1      28.923  -5.576   9.686  1.00  0.00    -0.504 OA
ATOM     19  H   UNL     1      29.158  -5.132   8.805  1.00  0.00     0.293 HD
ENDBRANCH  15  18
BRANCH  17  20
ATOM     20  O   UNL     1      26.853  -4.605   8.101  1.00  0.00    -0.504 OA
ATOM     21  H   UNL     1      27.733  -4.714   7.611  1.00  0.00     0.293 HD
ENDBRANCH  17  20
ENDBRANCH   1  12
BRANCH   2  22
ATOM     22  O   UNL     1      23.664  -5.041  13.014  1.00  0.00    -0.502 OA
ATOM     23  H   UNL     1      23.998  -5.228  13.953  1.00  0.00     0.293 HD
ENDBRANCH   2  22
BRANCH   9  24
ATOM     24  O   UNL     1      18.878  -9.940   9.349  1.00  0.00    -0.508 OA
ATOM     25  H   UNL     1      18.684  -9.728   8.378  1.00  0.00     0.293 HD
ENDBRANCH   9  24
TORSDOF 5
ENDMDL
MODEL 8
REMARK VINA RESULT:    -6.281      2.981      4.240
REMARK INTER + INTRA:          -7.679
REMARK INTER:                  -7.362
REMARK INTRA:                  -0.317
REMARK UNBOUND:                -0.296
REMARK SMILES O=c1c(O)c(-c2ccc(O)c(O)c2)oc2cc(O)ccc12
REMARK SMILES IDX 5 1 3 2 2 3 1 4 21 5 15 6 14 7 16 8 17 9 19 10 20 11 6 12
REMARK SMILES IDX 7 13 8 14 9 15 13 16 11 17 10 18 12 20 4 22 18 24
REMARK H PARENT 10 19 12 21 4 23 18 25
REMARK Flexibility Score: inf
ROOT
ATOM      1  C   UNL     1      25.072  -6.223  11.364  1.00  0.00     0.180 A 
ATOM      2  C   UNL     1      25.298  -5.620  10.109  1.00  0.00     0.208 A 
ATOM      3  C   UNL     1      26.620  -5.436   9.675  1.00  0.00     0.235 A 
ATOM      4  O   UNL     1      26.848  -4.909   8.552  1.00  0.00    -0.285 OA
ATOM      5  C   UNL     1      27.681  -5.834  10.504  1.00  0.00     0.069 A 
ATOM      6  C   UNL     1      27.372  -6.409  11.756  1.00  0.00     0.142 A 
ATOM      7  O   UNL     1      26.107  -6.574  12.126  1.00  0.00    -0.452 OA
ATOM      8  C   UNL     1      28.400  -6.809  12.615  1.00  0.00     0.094 A 
ATOM      9  C   UNL     1      29.738  -6.647  12.239  1.00  0.00     0.119 A 
ATOM     10  C   UNL     1      30.048  -6.079  10.996  1.00  0.00     0.047 A 
ATOM     11  C   UNL     1      29.028  -5.674  10.131  1.00  0.00     0.020 A 
ENDROOT
BRANCH   1  12
ATOM     12  C   UNL     1      23.708  -6.469  11.884  1.00  0.00     0.025 A 
ATOM     13  C   UNL     1      23.150  -5.573  12.810  1.00  0.00     0.016 A 
ATOM     14  C   UNL     1      21.872  -5.796  13.329  1.00  0.00     0.051 A 
ATOM     15  C   UNL     1      21.140  -6.926  12.942  1.00  0.00     0.157 A 
ATOM     16  C   UNL     1      22.978  -7.613  11.514  1.00  0.00     0.062 A 
ATOM     17  C   UNL     1      21.696  -7.839  12.037  1.00  0.00     0.158 A 
BRANCH  15  18
ATOM     18  O   UNL     1      19.865  -7.152  13.456  1.00  0.00    -0.504 OA
ATOM     19  H   UNL     1      19.630  -8.017  13.930  1.00  0.00     0.293 HD
ENDBRANCH  15  18
BRANCH  17  20
ATOM     20  O   UNL     1      20.972  -8.969  11.664  1.00  0.00    -0.504 OA
ATOM     21  H   UNL     1      21.189  -9.483  10.818  1.00  0.00     0.293 HD
ENDBRANCH  17  20
ENDBRANCH   1  12
BRANCH   2  22
ATOM     22  O   UNL     1      24.224  -5.188   9.328  1.00  0.00    -0.502 OA
ATOM     23  H   UNL     1      23.736  -5.805   8.688  1.00  0.00     0.293 HD
ENDBRANCH   2  22
BRANCH   9  24
ATOM     24  O   UNL     1      30.750  -7.052  13.106  1.00  0.00    -0.508 OA
ATOM     25  H   UNL     1      31.073  -8.012  13.131  1.00  0.00     0.293 HD
ENDBRANCH   9  24
TORSDOF 5
ENDMDL
MODEL 9
REMARK VINA RESULT:    -6.217      4.764      7.585
REMARK INTER + INTRA:          -7.603
REMARK INTER:                  -7.283
REMARK INTRA:                  -0.320
REMARK UNBOUND:                -0.296
REMARK SMILES O=c1c(O)c(-c2ccc(O)c(O)c2)oc2cc(O)ccc12
REMARK SMILES IDX 5 1 3 2 2 3 1 4 21 5 15 6 14 7 16 8 17 9 19 10 20 11 6 12
REMARK SMILES IDX 7 13 8 14 9 15 13 16 11 17 10 18 12 20 4 22 18 24
REMARK H PARENT 10 19 12 21 4 23 18 25
REMARK Flexibility Score: inf
ROOT
ATOM      1  C   UNL     1      20.872  -6.565   9.821  1.00  0.00     0.180 A 
ATOM      2  C   UNL     1      20.128  -6.921   8.677  1.00  0.00     0.208 A 
ATOM      3  C   UNL     1      18.779  -7.279   8.832  1.00  0.00     0.235 A 
ATOM      4  O   UNL     1      18.088  -7.590   7.824  1.00  0.00    -0.285 OA
ATOM      5  C   UNL     1      18.212  -7.294  10.117  1.00  0.00     0.069 A 
ATOM      6  C   UNL     1      19.031  -6.948  11.214  1.00  0.00     0.142 A 
ATOM      7  O   UNL     1      20.300  -6.606  11.023  1.00  0.00    -0.452 OA
ATOM      8  C   UNL     1      18.506  -6.961  12.510  1.00  0.00     0.094 A 
ATOM      9  C   UNL     1      17.170  -7.314  12.728  1.00  0.00     0.119 A 
ATOM     10  C   UNL     1      16.354  -7.656  11.641  1.00  0.00     0.047 A 
ATOM     11  C   UNL     1      16.869  -7.647  10.341  1.00  0.00     0.020 A 
ENDROOT
BRANCH   1  12
ATOM     12  C   UNL     1      22.293  -6.158   9.738  1.00  0.00     0.025 A 
ATOM     13  C   UNL     1      23.298  -7.104   9.996  1.00  0.00     0.016 A 
ATOM     14  C   UNL     1      24.646  -6.737   9.944  1.00  0.00     0.051 A 
ATOM     15  C   UNL     1      25.007  -5.416   9.648  1.00  0.00     0.157 A 
ATOM     16  C   UNL     1      22.660  -4.828   9.463  1.00  0.00     0.062 A 
ATOM     17  C   UNL     1      24.012  -4.459   9.412  1.00  0.00     0.158 A 
BRANCH  15  18
ATOM     18  O   UNL     1      26.349  -5.046   9.593  1.00  0.00    -0.504 OA
ATOM     19  H   UNL     1      26.951  -5.347   8.835  1.00  0.00     0.293 HD
ENDBRANCH  15  18
BRANCH  17  20
ATOM     20  O   UNL     1      24.373  -3.142   9.132  1.00  0.00    -0.504 OA
ATOM     21  H   UNL     1      23.829  -2.359   9.474  1.00  0.00     0.293 HD
ENDBRANCH  17  20
ENDBRANCH   1  12
BRANCH   2  22
ATOM     22  O   UNL     1      20.732  -6.944   7.418  1.00  0.00    -0.502 OA
ATOM     23  H   UNL     1      21.547  -7.512   7.219  1.00  0.00     0.293 HD
ENDBRANCH   2  22
BRANCH   9  24
ATOM     24  O   UNL     1      16.663  -7.320  14.025  1.00  0.00    -0.508 OA
ATOM     25  H   UNL     1      16.679  -8.157  14.595  1.00  0.00     0.293 HD
ENDBRANCH   9  24
TORSDOF 5
ENDMDL
