MODEL 1
REMARK VINA RESULT:    -4.719      0.000      0.000
REMARK INTER + INTRA:          -5.733
REMARK INTER:                  -5.409
REMARK INTRA:                  -0.324
REMARK UNBOUND:                -0.324
REMARK SMILES COc1ccc(C(C)=O)c(O)c1
REMARK SMILES IDX 6 1 10 2 12 3 3 4 4 5 5 6 7 7 8 8 9 9 11 10 2 12 1 13
REMARK H PARENT 11 11
REMARK Flexibility Score: inf
ROOT
ATOM      1  C   UNL     1     -17.469  19.368  42.796  1.00  0.00     0.059 A 
ATOM      2  C   UNL     1     -17.054  18.426  43.766  1.00  0.00     0.130 A 
ATOM      3  C   UNL     1     -16.648  17.143  43.367  1.00  0.00     0.093 A 
ATOM      4  C   UNL     1     -16.664  16.770  42.021  1.00  0.00     0.122 A 
ATOM      5  C   UNL     1     -17.095  17.698  41.058  1.00  0.00     0.047 A 
ATOM      6  C   UNL     1     -17.495  18.980  41.444  1.00  0.00     0.019 A 
ENDROOT
BRANCH   1   7
ATOM      7  C   UNL     1     -17.894  20.749  43.153  1.00  0.00     0.163 C 
ATOM      8  C   UNL     1     -18.963  21.482  42.400  1.00  0.00     0.093 C 
ATOM      9  O   UNL     1     -17.341  21.333  44.124  1.00  0.00    -0.294 OA
ENDBRANCH   1   7
BRANCH   2  10
ATOM     10  O   UNL     1     -17.060  18.746  45.123  1.00  0.00    -0.507 OA
ATOM     11  H   UNL     1     -16.801  19.667  45.457  1.00  0.00     0.293 HD
ENDBRANCH   2  10
BRANCH   4  12
ATOM     12  O   UNL     1     -16.248  15.474  41.683  1.00  0.00    -0.497 OA
ATOM     13  C   UNL     1     -15.746  15.098  40.405  1.00  0.00     0.278 C 
ENDBRANCH   4  12
TORSDOF 3
ENDMDL
MODEL 2
REMARK VINA RESULT:    -4.430      2.866      5.837
REMARK INTER + INTRA:          -5.401
REMARK INTER:                  -5.090
REMARK INTRA:                  -0.312
REMARK UNBOUND:                -0.324
REMARK SMILES COc1ccc(C(C)=O)c(O)c1
REMARK SMILES IDX 6 1 10 2 12 3 3 4 4 5 5 6 7 7 8 8 9 9 11 10 2 12 1 13
REMARK H PARENT 11 11
REMARK Flexibility Score: inf
ROOT
ATOM      1  C   UNL     1     -18.699  20.471  41.980  1.00  0.00     0.059 A 
ATOM      2  C   UNL     1     -18.300  21.586  41.206  1.00  0.00     0.130 A 
ATOM      3  C   UNL     1     -19.266  22.478  40.715  1.00  0.00     0.093 A 
ATOM      4  C   UNL     1     -20.626  22.274  40.963  1.00  0.00     0.122 A 
ATOM      5  C   UNL     1     -21.024  21.157  41.715  1.00  0.00     0.047 A 
ATOM      6  C   UNL     1     -20.071  20.266  42.214  1.00  0.00     0.019 A 
ENDROOT
BRANCH   1   7
ATOM      7  C   UNL     1     -17.723  19.499  42.544  1.00  0.00     0.163 C 
ATOM      8  C   UNL     1     -17.524  19.323  44.019  1.00  0.00     0.093 C 
ATOM      9  O   UNL     1     -17.034  18.791  41.760  1.00  0.00    -0.294 OA
ENDBRANCH   1   7
BRANCH   2  10
ATOM     10  O   UNL     1     -16.957  21.804  40.903  1.00  0.00    -0.507 OA
ATOM     11  H   UNL     1     -16.379  21.084  40.485  1.00  0.00     0.293 HD
ENDBRANCH   2  10
BRANCH   4  12
ATOM     12  O   UNL     1     -21.544  23.199  40.445  1.00  0.00    -0.497 OA
ATOM     13  C   UNL     1     -22.769  23.555  41.077  1.00  0.00     0.278 C 
ENDBRANCH   4  12
TORSDOF 3
ENDMDL
MODEL 3
REMARK VINA RESULT:    -4.282      3.214      5.120
REMARK INTER + INTRA:          -5.232
REMARK INTER:                  -4.922
REMARK INTRA:                  -0.309
REMARK UNBOUND:                -0.324
REMARK SMILES COc1ccc(C(C)=O)c(O)c1
REMARK SMILES IDX 6 1 10 2 12 3 3 4 4 5 5 6 7 7 8 8 9 9 11 10 2 12 1 13
REMARK H PARENT 11 11
REMARK Flexibility Score: inf
ROOT
ATOM      1  C   UNL     1     -20.349  22.211  40.863  1.00  0.00     0.059 A 
ATOM      2  C   UNL     1     -18.940  22.305  40.768  1.00  0.00     0.130 A 
ATOM      3  C   UNL     1     -18.132  21.353  41.409  1.00  0.00     0.093 A 
ATOM      4  C   UNL     1     -18.696  20.318  42.159  1.00  0.00     0.122 A 
ATOM      5  C   UNL     1     -20.093  20.235  42.270  1.00  0.00     0.047 A 
ATOM      6  C   UNL     1     -20.908  21.174  41.631  1.00  0.00     0.019 A 
ENDROOT
BRANCH   1   7
ATOM      7  C   UNL     1     -21.261  23.178  40.193  1.00  0.00     0.163 C 
ATOM      8  C   UNL     1     -22.611  23.525  40.744  1.00  0.00     0.093 C 
ATOM      9  O   UNL     1     -20.893  23.732  39.122  1.00  0.00    -0.294 OA
ENDBRANCH   1   7
BRANCH   2  10
ATOM     10  O   UNL     1     -18.337  23.345  40.062  1.00  0.00    -0.507 OA
ATOM     11  H   UNL     1     -17.700  23.170  39.295  1.00  0.00     0.293 HD
ENDBRANCH   2  10
BRANCH   4  12
ATOM     12  O   UNL     1     -17.836  19.398  42.777  1.00  0.00    -0.497 OA
ATOM     13  C   UNL     1     -17.502  19.416  44.162  1.00  0.00     0.278 C 
ENDBRANCH   4  12
TORSDOF 3
ENDMDL
MODEL 4
REMARK VINA RESULT:    -4.243     14.493     16.262
REMARK INTER + INTRA:          -5.187
REMARK INTER:                  -4.856
REMARK INTRA:                  -0.331
REMARK UNBOUND:                -0.324
REMARK SMILES COc1ccc(C(C)=O)c(O)c1
REMARK SMILES IDX 6 1 10 2 12 3 3 4 4 5 5 6 7 7 8 8 9 9 11 10 2 12 1 13
REMARK H PARENT 11 11
REMARK Flexibility Score: inf
ROOT
ATOM      1  C   UNL     1      -6.786  28.379  46.058  1.00  0.00     0.059 A 
ATOM      2  C   UNL     1      -5.803  29.007  46.858  1.00  0.00     0.130 A 
ATOM      3  C   UNL     1      -5.992  30.331  47.285  1.00  0.00     0.093 A 
ATOM      4  C   UNL     1      -7.131  31.050  46.917  1.00  0.00     0.122 A 
ATOM      5  C   UNL     1      -8.098  30.434  46.107  1.00  0.00     0.047 A 
ATOM      6  C   UNL     1      -7.924  29.114  45.681  1.00  0.00     0.019 A 
ENDROOT
BRANCH   1   7
ATOM      7  C   UNL     1      -6.654  26.973  45.587  1.00  0.00     0.163 C 
ATOM      8  C   UNL     1      -6.657  26.607  44.133  1.00  0.00     0.093 C 
ATOM      9  O   UNL     1      -6.533  26.047  46.435  1.00  0.00    -0.294 OA
ENDBRANCH   1   7
BRANCH   2  10
ATOM     10  O   UNL     1      -4.633  28.338  47.214  1.00  0.00    -0.507 OA
ATOM     11  H   UNL     1      -4.327  28.272  48.177  1.00  0.00     0.293 HD
ENDBRANCH   2  10
BRANCH   4  12
ATOM     12  O   UNL     1      -7.263  32.370  47.374  1.00  0.00    -0.497 OA
ATOM     13  C   UNL     1      -6.318  33.028  48.213  1.00  0.00     0.278 C 
ENDBRANCH   4  12
TORSDOF 3
ENDMDL
MODEL 5
REMARK VINA RESULT:    -4.090     16.131     17.342
REMARK INTER + INTRA:          -5.011
REMARK INTER:                  -4.687
REMARK INTRA:                  -0.324
REMARK UNBOUND:                -0.324
REMARK SMILES COc1ccc(C(C)=O)c(O)c1
REMARK SMILES IDX 6 1 10 2 12 3 3 4 4 5 5 6 7 7 8 8 9 9 11 10 2 12 1 13
REMARK H PARENT 11 11
REMARK Flexibility Score: inf
ROOT
ATOM      1  C   UNL     1      -5.292  31.332  47.210  1.00  0.00     0.059 A 
ATOM      2  C   UNL     1      -6.407  30.461  47.195  1.00  0.00     0.130 A 
ATOM      3  C   UNL     1      -6.236  29.113  46.843  1.00  0.00     0.093 A 
ATOM      4  C   UNL     1      -4.980  28.616  46.488  1.00  0.00     0.122 A 
ATOM      5  C   UNL     1      -3.876  29.483  46.485  1.00  0.00     0.047 A 
ATOM      6  C   UNL     1      -4.033  30.826  46.839  1.00  0.00     0.019 A 
ENDROOT
BRANCH   1   7
ATOM      7  C   UNL     1      -5.403  32.767  47.590  1.00  0.00     0.163 C 
ATOM      8  C   UNL     1      -4.312  33.494  48.317  1.00  0.00     0.093 C 
ATOM      9  O   UNL     1      -6.450  33.404  47.294  1.00  0.00    -0.294 OA
ENDBRANCH   1   7
BRANCH   2  10
ATOM     10  O   UNL     1      -7.684  30.927  47.504  1.00  0.00    -0.507 OA
ATOM     11  H   UNL     1      -7.835  31.658  48.189  1.00  0.00     0.293 HD
ENDBRANCH   2  10
BRANCH   4  12
ATOM     12  O   UNL     1      -4.872  27.260  46.146  1.00  0.00    -0.497 OA
ATOM     13  C   UNL     1      -5.959  26.339  46.157  1.00  0.00     0.278 C 
ENDBRANCH   4  12
TORSDOF 3
ENDMDL
MODEL 6
REMARK VINA RESULT:    -4.056     14.904     16.760
REMARK INTER + INTRA:          -4.972
REMARK INTER:                  -4.667
REMARK INTRA:                  -0.306
REMARK UNBOUND:                -0.324
REMARK SMILES COc1ccc(C(C)=O)c(O)c1
REMARK SMILES IDX 6 1 10 2 12 3 3 4 4 5 5 6 7 7 8 8 9 9 11 10 2 12 1 13
REMARK H PARENT 11 11
REMARK Flexibility Score: inf
ROOT
ATOM      1  C   UNL     1      -7.103  29.307  46.146  1.00  0.00     0.059 A 
ATOM      2  C   UNL     1      -7.989  30.394  46.330  1.00  0.00     0.130 A 
ATOM      3  C   UNL     1      -7.527  31.579  46.925  1.00  0.00     0.093 A 
ATOM      4  C   UNL     1      -6.205  31.698  47.359  1.00  0.00     0.122 A 
ATOM      5  C   UNL     1      -5.329  30.613  47.194  1.00  0.00     0.047 A 
ATOM      6  C   UNL     1      -5.776  29.431  46.597  1.00  0.00     0.019 A 
ENDROOT
BRANCH   1   7
ATOM      7  C   UNL     1      -7.525  28.031  45.506  1.00  0.00     0.163 C 
ATOM      8  C   UNL     1      -6.850  26.724  45.795  1.00  0.00     0.093 C 
ATOM      9  O   UNL     1      -8.486  28.039  44.690  1.00  0.00    -0.294 OA
ENDBRANCH   1   7
BRANCH   2  10
ATOM     10  O   UNL     1      -9.326  30.301  45.947  1.00  0.00    -0.507 OA
ATOM     11  H   UNL     1      -9.726  29.434  45.608  1.00  0.00     0.293 HD
ENDBRANCH   2  10
BRANCH   4  12
ATOM     12  O   UNL     1      -5.803  32.907  47.947  1.00  0.00    -0.497 OA
ATOM     13  C   UNL     1      -4.449  33.263  48.207  1.00  0.00     0.278 C 
ENDBRANCH   4  12
TORSDOF 3
ENDMDL
MODEL 7
REMARK VINA RESULT:    -4.001      6.782      8.473
REMARK INTER + INTRA:          -4.910
REMARK INTER:                  -4.570
REMARK INTRA:                  -0.340
REMARK UNBOUND:                -0.324
REMARK SMILES COc1ccc(C(C)=O)c(O)c1
REMARK SMILES IDX 6 1 10 2 12 3 3 4 4 5 5 6 7 7 8 8 9 9 11 10 2 12 1 13
REMARK H PARENT 11 11
REMARK Flexibility Score: inf
ROOT
ATOM      1  C   UNL     1     -21.387  22.382  37.205  1.00  0.00     0.059 A 
ATOM      2  C   UNL     1     -22.019  21.580  38.184  1.00  0.00     0.130 A 
ATOM      3  C   UNL     1     -21.871  21.892  39.545  1.00  0.00     0.093 A 
ATOM      4  C   UNL     1     -21.091  22.977  39.953  1.00  0.00     0.122 A 
ATOM      5  C   UNL     1     -20.448  23.761  38.983  1.00  0.00     0.047 A 
ATOM      6  C   UNL     1     -20.593  23.464  37.625  1.00  0.00     0.019 A 
ENDROOT
BRANCH   1   7
ATOM      7  C   UNL     1     -21.520  22.114  35.746  1.00  0.00     0.163 C 
ATOM      8  C   UNL     1     -20.332  21.988  34.840  1.00  0.00     0.093 C 
ATOM      9  O   UNL     1     -22.669  21.986  35.244  1.00  0.00    -0.294 OA
ENDBRANCH   1   7
BRANCH   2  10
ATOM     10  O   UNL     1     -22.775  20.466  37.820  1.00  0.00    -0.507 OA
ATOM     11  H   UNL     1     -22.873  20.180  36.853  1.00  0.00     0.293 HD
ENDBRANCH   2  10
BRANCH   4  12
ATOM     12  O   UNL     1     -20.980  23.238  41.327  1.00  0.00    -0.497 OA
ATOM     13  C   UNL     1     -20.271  24.342  41.880  1.00  0.00     0.278 C 
ENDBRANCH   4  12
TORSDOF 3
ENDMDL
MODEL 8
REMARK VINA RESULT:    -3.971     14.288     16.172
REMARK INTER + INTRA:          -4.875
REMARK INTER:                  -4.533
REMARK INTRA:                  -0.342
REMARK UNBOUND:                -0.324
REMARK SMILES COc1ccc(C(C)=O)c(O)c1
REMARK SMILES IDX 6 1 10 2 12 3 3 4 4 5 5 6 7 7 8 8 9 9 11 10 2 12 1 13
REMARK H PARENT 11 11
REMARK Flexibility Score: inf
ROOT
ATOM      1  C   UNL     1      -6.841  28.510  45.961  1.00  0.00     0.059 A 
ATOM      2  C   UNL     1      -7.974  29.296  45.641  1.00  0.00     0.130 A 
ATOM      3  C   UNL     1      -8.073  30.609  46.126  1.00  0.00     0.093 A 
ATOM      4  C   UNL     1      -7.076  31.153  46.940  1.00  0.00     0.122 A 
ATOM      5  C   UNL     1      -5.961  30.367  47.274  1.00  0.00     0.047 A 
ATOM      6  C   UNL     1      -5.849  29.061  46.791  1.00  0.00     0.019 A 
ENDROOT
BRANCH   1   7
ATOM      7  C   UNL     1      -6.668  27.118  45.463  1.00  0.00     0.163 C 
ATOM      8  C   UNL     1      -6.233  25.994  46.354  1.00  0.00     0.093 C 
ATOM      9  O   UNL     1      -6.895  26.864  44.249  1.00  0.00    -0.294 OA
ENDBRANCH   1   7
BRANCH   2  10
ATOM     10  O   UNL     1      -9.009  28.778  44.864  1.00  0.00    -0.507 OA
ATOM     11  H   UNL     1      -9.048  28.920  43.862  1.00  0.00     0.293 HD
ENDBRANCH   2  10
BRANCH   4  12
ATOM     12  O   UNL     1      -7.233  32.470  47.396  1.00  0.00    -0.497 OA
ATOM     13  C   UNL     1      -6.351  33.114  48.310  1.00  0.00     0.278 C 
ENDBRANCH   4  12
TORSDOF 3
ENDMDL
MODEL 9
REMARK VINA RESULT:    -3.780     15.828     17.131
REMARK INTER + INTRA:          -4.656
REMARK INTER:                  -4.322
REMARK INTRA:                  -0.334
REMARK UNBOUND:                -0.324
REMARK SMILES COc1ccc(C(C)=O)c(O)c1
REMARK SMILES IDX 6 1 10 2 12 3 3 4 4 5 5 6 7 7 8 8 9 9 11 10 2 12 1 13
REMARK H PARENT 11 11
REMARK Flexibility Score: inf
ROOT
ATOM      1  C   UNL     1      -6.523  31.747  47.234  1.00  0.00     0.059 A 
ATOM      2  C   UNL     1      -5.190  31.276  47.203  1.00  0.00     0.130 A 
ATOM      3  C   UNL     1      -4.924  29.957  46.804  1.00  0.00     0.093 A 
ATOM      4  C   UNL     1      -5.960  29.089  46.453  1.00  0.00     0.122 A 
ATOM      5  C   UNL     1      -7.286  29.550  46.502  1.00  0.00     0.047 A 
ATOM      6  C   UNL     1      -7.562  30.863  46.891  1.00  0.00     0.019 A 
ENDROOT
BRANCH   1   7
ATOM      7  C   UNL     1      -6.870  33.140  47.630  1.00  0.00     0.163 C 
ATOM      8  C   UNL     1      -7.642  34.062  46.736  1.00  0.00     0.093 C 
ATOM      9  O   UNL     1      -6.506  33.568  48.759  1.00  0.00    -0.294 OA
ENDBRANCH   1   7
BRANCH   2  10
ATOM     10  O   UNL     1      -4.130  32.098  47.584  1.00  0.00    -0.507 OA
ATOM     11  H   UNL     1      -4.242  33.099  47.690  1.00  0.00     0.293 HD
ENDBRANCH   2  10
BRANCH   4  12
ATOM     12  O   UNL     1      -5.632  27.781  46.064  1.00  0.00    -0.497 OA
ATOM     13  C   UNL     1      -6.517  26.669  46.156  1.00  0.00     0.278 C 
ENDBRANCH   4  12
TORSDOF 3
ENDMDL
