MODEL 1
REMARK VINA RESULT:    -4.251      0.000      0.000
REMARK INTER + INTRA:          -6.785
REMARK INTER:                  -6.487
REMARK INTRA:                  -0.298
REMARK UNBOUND:                -0.298
REMARK SMILES O=C([O-])CCCCCCCCC(=O)[O-]
REMARK SMILES IDX 7 1 6 2 5 3 4 4 2 5 1 6 3 7 8 8 9 9 10 10 11 11 12 12 13 13
REMARK SMILES IDX 14 14
REMARK H PARENT
REMARK Flexibility Score: inf
ROOT
ATOM      1  C   UNL     1      -4.145  -0.974  -1.149  1.00  0.00     0.000 C 
ENDROOT
BRANCH   1   2
ATOM      2  C   UNL     1      -3.774  -1.859  -2.348  1.00  0.00     0.000 C 
BRANCH   2   3
ATOM      3  C   UNL     1      -3.934  -3.360  -2.048  1.00  0.00     0.006 C 
BRANCH   3   4
ATOM      4  C   UNL     1      -3.465  -3.720  -0.633  1.00  0.00     0.053 C 
BRANCH   4   5
ATOM      5  C   UNL     1      -4.525  -4.448   0.134  1.00  0.00     0.041 C 
ATOM      6  O   UNL     1      -5.052  -3.918   1.148  1.00  0.00    -0.550 OA
ATOM      7  O   UNL     1      -4.957  -5.699  -0.292  1.00  0.00    -0.550 OA
ENDBRANCH   4   5
ENDBRANCH   3   4
ENDBRANCH   2   3
ENDBRANCH   1   2
BRANCH   1   8
ATOM      8  C   UNL     1      -3.057   0.062  -0.819  1.00  0.00     0.000 C 
BRANCH   8   9
ATOM      9  C   UNL     1      -3.621   1.313  -0.128  1.00  0.00     0.000 C 
BRANCH   9  10
ATOM     10  C   UNL     1      -2.779   2.568  -0.401  1.00  0.00     0.006 C 
BRANCH  10  11
ATOM     11  C   UNL     1      -3.394   3.798   0.275  1.00  0.00     0.053 C 
BRANCH  11  12
ATOM     12  C   UNL     1      -2.987   5.048  -0.440  1.00  0.00     0.041 C 
ATOM     13  O   UNL     1      -2.603   6.053   0.212  1.00  0.00    -0.550 OA
ATOM     14  O   UNL     1      -2.986   5.085  -1.829  1.00  0.00    -0.550 OA
ENDBRANCH  11  12
ENDBRANCH  10  11
ENDBRANCH   9  10
ENDBRANCH   8   9
ENDBRANCH   1   8
TORSDOF 9
ENDMDL
MODEL 2
REMARK VINA RESULT:    -4.184      0.061      7.926
REMARK INTER + INTRA:          -6.683
REMARK INTER:                  -6.395
REMARK INTRA:                  -0.288
REMARK UNBOUND:                -0.298
REMARK SMILES O=C([O-])CCCCCCCCC(=O)[O-]
REMARK SMILES IDX 7 1 6 2 5 3 4 4 2 5 1 6 3 7 8 8 9 9 10 10 11 11 12 12 13 13
REMARK SMILES IDX 14 14
REMARK H PARENT
REMARK Flexibility Score: inf
ROOT
ATOM      1  C   UNL     1      -3.084   0.032  -0.757  1.00  0.00     0.000 C 
ENDROOT
BRANCH   1   2
ATOM      2  C   UNL     1      -3.690   1.307  -0.151  1.00  0.00     0.000 C 
BRANCH   2   3
ATOM      3  C   UNL     1      -2.842   2.559  -0.440  1.00  0.00     0.006 C 
BRANCH   3   4
ATOM      4  C   UNL     1      -3.382   3.802   0.278  1.00  0.00     0.053 C 
BRANCH   4   5
ATOM      5  C   UNL     1      -2.997   5.063  -0.433  1.00  0.00     0.041 C 
ATOM      6  O   UNL     1      -2.630   6.074   0.223  1.00  0.00    -0.550 OA
ATOM      7  O   UNL     1      -3.011   5.111  -1.821  1.00  0.00    -0.550 OA
ENDBRANCH   4   5
ENDBRANCH   3   4
ENDBRANCH   2   3
ENDBRANCH   1   2
BRANCH   1   8
ATOM      8  C   UNL     1      -4.154  -1.004  -1.145  1.00  0.00     0.000 C 
BRANCH   8   9
ATOM      9  C   UNL     1      -3.735  -1.867  -2.344  1.00  0.00     0.000 C 
BRANCH   9  10
ATOM     10  C   UNL     1      -3.909  -3.370  -2.079  1.00  0.00     0.006 C 
BRANCH  10  11
ATOM     11  C   UNL     1      -3.454  -3.733  -0.662  1.00  0.00     0.053 C 
BRANCH  11  12
ATOM     12  C   UNL     1      -4.540  -4.462   0.066  1.00  0.00     0.041 C 
ATOM     13  O   UNL     1      -4.925  -5.590  -0.338  1.00  0.00    -0.550 OA
ATOM     14  O   UNL     1      -5.092  -3.917   1.218  1.00  0.00    -0.550 OA
ENDBRANCH  11  12
ENDBRANCH  10  11
ENDBRANCH   9  10
ENDBRANCH   8   9
ENDBRANCH   1   8
TORSDOF 9
ENDMDL
MODEL 3
REMARK VINA RESULT:    -4.143      0.220      7.920
REMARK INTER + INTRA:          -6.621
REMARK INTER:                  -6.323
REMARK INTRA:                  -0.298
REMARK UNBOUND:                -0.298
REMARK SMILES O=C([O-])CCCCCCCCC(=O)[O-]
REMARK SMILES IDX 7 1 6 2 5 3 4 4 2 5 1 6 3 7 8 8 9 9 10 10 11 11 12 12 13 13
REMARK SMILES IDX 14 14
REMARK H PARENT
REMARK Flexibility Score: inf
ROOT
ATOM      1  C   UNL     1      -3.022   0.004  -0.839  1.00  0.00     0.000 C 
ENDROOT
BRANCH   1   2
ATOM      2  C   UNL     1      -3.566   1.205  -0.052  1.00  0.00     0.000 C 
BRANCH   2   3
ATOM      3  C   UNL     1      -2.891   2.529  -0.452  1.00  0.00     0.006 C 
BRANCH   3   4
ATOM      4  C   UNL     1      -3.460   3.726   0.320  1.00  0.00     0.053 C 
BRANCH   4   5
ATOM      5  C   UNL     1      -2.930   5.026  -0.202  1.00  0.00     0.041 C 
ATOM      6  O   UNL     1      -3.034   5.308  -1.425  1.00  0.00    -0.550 OA
ATOM      7  O   UNL     1      -2.352   5.941   0.669  1.00  0.00    -0.550 OA
ENDBRANCH   4   5
ENDBRANCH   3   4
ENDBRANCH   2   3
ENDBRANCH   1   2
BRANCH   1   8
ATOM      8  C   UNL     1      -4.120  -1.010  -1.204  1.00  0.00     0.000 C 
BRANCH   8   9
ATOM      9  C   UNL     1      -3.723  -1.913  -2.382  1.00  0.00     0.000 C 
BRANCH   9  10
ATOM     10  C   UNL     1      -3.960  -3.403  -2.090  1.00  0.00     0.006 C 
BRANCH  10  11
ATOM     11  C   UNL     1      -3.427  -3.781  -0.705  1.00  0.00     0.053 C 
BRANCH  11  12
ATOM     12  C   UNL     1      -4.502  -4.425   0.113  1.00  0.00     0.041 C 
ATOM     13  O   UNL     1      -5.045  -3.793   1.056  1.00  0.00    -0.550 OA
ATOM     14  O   UNL     1      -4.938  -5.707  -0.198  1.00  0.00    -0.550 OA
ENDBRANCH  11  12
ENDBRANCH  10  11
ENDBRANCH   9  10
ENDBRANCH   8   9
ENDBRANCH   1   8
TORSDOF 9
ENDMDL
MODEL 4
REMARK VINA RESULT:    -4.132      0.187      1.235
REMARK INTER + INTRA:          -6.605
REMARK INTER:                  -6.308
REMARK INTRA:                  -0.297
REMARK UNBOUND:                -0.298
REMARK SMILES O=C([O-])CCCCCCCCC(=O)[O-]
REMARK SMILES IDX 7 1 6 2 5 3 4 4 2 5 1 6 3 7 8 8 9 9 10 10 11 11 12 12 13 13
REMARK SMILES IDX 14 14
REMARK H PARENT
REMARK Flexibility Score: inf
ROOT
ATOM      1  C   UNL     1      -4.223  -0.930  -1.252  1.00  0.00     0.000 C 
ENDROOT
BRANCH   1   2
ATOM      2  C   UNL     1      -3.749  -1.799  -2.426  1.00  0.00     0.000 C 
BRANCH   2   3
ATOM      3  C   UNL     1      -3.943  -3.304  -2.165  1.00  0.00     0.006 C 
BRANCH   3   4
ATOM      4  C   UNL     1      -3.445  -3.718  -0.774  1.00  0.00     0.053 C 
BRANCH   4   5
ATOM      5  C   UNL     1      -4.514  -4.409   0.014  1.00  0.00     0.041 C 
ATOM      6  O   UNL     1      -4.907  -5.558  -0.320  1.00  0.00    -0.550 OA
ATOM      7  O   UNL     1      -5.053  -3.798   1.140  1.00  0.00    -0.550 OA
ENDBRANCH   4   5
ENDBRANCH   3   4
ENDBRANCH   2   3
ENDBRANCH   1   2
BRANCH   1   8
ATOM      8  C   UNL     1      -3.129   0.025  -0.745  1.00  0.00     0.000 C 
BRANCH   8   9
ATOM      9  C   UNL     1      -3.706   1.281  -0.072  1.00  0.00     0.000 C 
BRANCH   9  10
ATOM     10  C   UNL     1      -2.921   2.553  -0.426  1.00  0.00     0.006 C 
BRANCH  10  11
ATOM     11  C   UNL     1      -3.498   3.772   0.299  1.00  0.00     0.053 C 
BRANCH  11  12
ATOM     12  C   UNL     1      -2.954   5.037  -0.287  1.00  0.00     0.041 C 
ATOM     13  O   UNL     1      -3.059   5.258  -1.522  1.00  0.00    -0.550 OA
ATOM     14  O   UNL     1      -2.375   5.993   0.537  1.00  0.00    -0.550 OA
ENDBRANCH  11  12
ENDBRANCH  10  11
ENDBRANCH   9  10
ENDBRANCH   8   9
ENDBRANCH   1   8
TORSDOF 9
ENDMDL
MODEL 5
REMARK VINA RESULT:    -3.648      1.810      2.778
REMARK INTER + INTRA:          -5.866
REMARK INTER:                  -5.469
REMARK INTRA:                  -0.397
REMARK UNBOUND:                -0.298
REMARK SMILES O=C([O-])CCCCCCCCC(=O)[O-]
REMARK SMILES IDX 7 1 6 2 5 3 4 4 2 5 1 6 3 7 8 8 9 9 10 10 11 11 12 12 13 13
REMARK SMILES IDX 14 14
REMARK H PARENT
REMARK Flexibility Score: inf
ROOT
ATOM      1  C   UNL     1      -4.102   1.242   0.312  1.00  0.00     0.000 C 
ENDROOT
BRANCH   1   2
ATOM      2  C   UNL     1      -4.540  -0.061  -0.374  1.00  0.00     0.000 C 
BRANCH   2   3
ATOM      3  C   UNL     1      -3.408  -0.707  -1.194  1.00  0.00     0.006 C 
BRANCH   3   4
ATOM      4  C   UNL     1      -3.938  -1.459  -2.421  1.00  0.00     0.053 C 
BRANCH   4   5
ATOM      5  C   UNL     1      -3.842  -2.943  -2.245  1.00  0.00     0.041 C 
ATOM      6  O   UNL     1      -3.823  -3.700  -3.252  1.00  0.00    -0.550 OA
ATOM      7  O   UNL     1      -3.739  -3.488  -0.972  1.00  0.00    -0.550 OA
ENDBRANCH   4   5
ENDBRANCH   3   4
ENDBRANCH   2   3
ENDBRANCH   1   2
BRANCH   1   8
ATOM      8  C   UNL     1      -2.662   1.644  -0.048  1.00  0.00     0.000 C 
BRANCH   8   9
ATOM      9  C   UNL     1      -2.569   3.070  -0.613  1.00  0.00     0.000 C 
BRANCH   9  10
ATOM     10  C   UNL     1      -3.331   4.094   0.241  1.00  0.00     0.006 C 
BRANCH  10  11
ATOM     11  C   UNL     1      -2.843   5.518  -0.047  1.00  0.00     0.053 C 
BRANCH  11  12
ATOM     12  C   UNL     1      -2.114   6.071   1.137  1.00  0.00     0.041 C 
ATOM     13  O   UNL     1      -1.101   6.800   0.972  1.00  0.00    -0.550 OA
ATOM     14  O   UNL     1      -2.583   5.823   2.420  1.00  0.00    -0.550 OA
ENDBRANCH  11  12
ENDBRANCH  10  11
ENDBRANCH   9  10
ENDBRANCH   8   9
ENDBRANCH   1   8
TORSDOF 9
ENDMDL
MODEL 6
REMARK VINA RESULT:    -3.648      1.870      7.715
REMARK INTER + INTRA:          -5.865
REMARK INTER:                  -5.536
REMARK INTRA:                  -0.328
REMARK UNBOUND:                -0.298
REMARK SMILES O=C([O-])CCCCCCCCC(=O)[O-]
REMARK SMILES IDX 7 1 6 2 5 3 4 4 2 5 1 6 3 7 8 8 9 9 10 10 11 11 12 12 13 13
REMARK SMILES IDX 14 14
REMARK H PARENT
REMARK Flexibility Score: inf
ROOT
ATOM      1  C   UNL     1      -4.154   1.928   0.711  1.00  0.00     0.000 C 
ENDROOT
BRANCH   1   2
ATOM      2  C   UNL     1      -3.734   3.406   0.712  1.00  0.00     0.000 C 
BRANCH   2   3
ATOM      3  C   UNL     1      -2.724   3.734  -0.402  1.00  0.00     0.006 C 
BRANCH   3   4
ATOM      4  C   UNL     1      -3.069   5.039  -1.130  1.00  0.00     0.053 C 
BRANCH   4   5
ATOM      5  C   UNL     1      -3.146   4.844  -2.612  1.00  0.00     0.041 C 
ATOM      6  O   UNL     1      -4.102   5.336  -3.268  1.00  0.00    -0.550 OA
ATOM      7  O   UNL     1      -2.143   4.147  -3.275  1.00  0.00    -0.550 OA
ENDBRANCH   4   5
ENDBRANCH   3   4
ENDBRANCH   2   3
ENDBRANCH   1   2
BRANCH   1   8
ATOM      8  C   UNL     1      -3.426   1.108  -0.368  1.00  0.00     0.000 C 
BRANCH   8   9
ATOM      9  C   UNL     1      -4.144  -0.211  -0.693  1.00  0.00     0.000 C 
BRANCH   9  10
ATOM     10  C   UNL     1      -3.288  -1.153  -1.553  1.00  0.00     0.006 C 
BRANCH  10  11
ATOM     11  C   UNL     1      -4.149  -1.880  -2.591  1.00  0.00     0.053 C 
BRANCH  11  12
ATOM     12  C   UNL     1      -3.895  -3.353  -2.543  1.00  0.00     0.041 C 
ATOM     13  O   UNL     1      -3.734  -4.003  -3.609  1.00  0.00    -0.550 OA
ATOM     14  O   UNL     1      -3.788  -4.001  -1.319  1.00  0.00    -0.550 OA
ENDBRANCH  11  12
ENDBRANCH  10  11
ENDBRANCH   9  10
ENDBRANCH   8   9
ENDBRANCH   1   8
TORSDOF 9
ENDMDL
MODEL 7
REMARK VINA RESULT:    -3.583      1.816      7.910
REMARK INTER + INTRA:          -5.766
REMARK INTER:                  -5.324
REMARK INTRA:                  -0.442
REMARK UNBOUND:                -0.298
REMARK SMILES O=C([O-])CCCCCCCCC(=O)[O-]
REMARK SMILES IDX 7 1 6 2 5 3 4 4 2 5 1 6 3 7 8 8 9 9 10 10 11 11 12 12 13 13
REMARK SMILES IDX 14 14
REMARK H PARENT
REMARK Flexibility Score: inf
ROOT
ATOM      1  C   UNL     1      -2.512   1.567  -0.076  1.00  0.00     0.000 C 
ENDROOT
BRANCH   1   2
ATOM      2  C   UNL     1      -2.165   3.044  -0.320  1.00  0.00     0.000 C 
BRANCH   2   3
ATOM      3  C   UNL     1      -3.314   3.992   0.065  1.00  0.00     0.006 C 
BRANCH   3   4
ATOM      4  C   UNL     1      -2.926   5.467  -0.097  1.00  0.00     0.053 C 
BRANCH   4   5
ATOM      5  C   UNL     1      -2.189   5.982   1.101  1.00  0.00     0.041 C 
ATOM      6  O   UNL     1      -2.570   5.672   2.261  1.00  0.00    -0.550 OA
ATOM      7  O   UNL     1      -1.060   6.774   0.935  1.00  0.00    -0.550 OA
ENDBRANCH   4   5
ENDBRANCH   3   4
ENDBRANCH   2   3
ENDBRANCH   1   2
BRANCH   1   8
ATOM      8  C   UNL     1      -4.015   1.346   0.168  1.00  0.00     0.000 C 
BRANCH   8   9
ATOM      9  C   UNL     1      -4.519   0.018  -0.418  1.00  0.00     0.000 C 
BRANCH   9  10
ATOM     10  C   UNL     1      -3.436  -0.726  -1.213  1.00  0.00     0.006 C 
BRANCH  10  11
ATOM     11  C   UNL     1      -4.045  -1.462  -2.411  1.00  0.00     0.053 C 
BRANCH  11  12
ATOM     12  C   UNL     1      -3.842  -2.939  -2.276  1.00  0.00     0.041 C 
ATOM     13  O   UNL     1      -3.715  -3.656  -3.303  1.00  0.00    -0.550 OA
ATOM     14  O   UNL     1      -3.746  -3.515  -1.017  1.00  0.00    -0.550 OA
ENDBRANCH  11  12
ENDBRANCH  10  11
ENDBRANCH   9  10
ENDBRANCH   8   9
ENDBRANCH   1   8
TORSDOF 9
ENDMDL
MODEL 8
REMARK VINA RESULT:    -3.468      1.758      2.669
REMARK INTER + INTRA:          -5.591
REMARK INTER:                  -5.047
REMARK INTRA:                  -0.544
REMARK UNBOUND:                -0.298
REMARK SMILES O=C([O-])CCCCCCCCC(=O)[O-]
REMARK SMILES IDX 7 1 6 2 5 3 4 4 2 5 1 6 3 7 8 8 9 9 10 10 11 11 12 12 13 13
REMARK SMILES IDX 14 14
REMARK H PARENT
REMARK Flexibility Score: inf
ROOT
ATOM      1  C   UNL     1      -2.444   1.147  -0.112  1.00  0.00     0.000 C 
ENDROOT
BRANCH   1   2
ATOM      2  C   UNL     1      -2.443  -0.229  -0.795  1.00  0.00     0.000 C 
BRANCH   2   3
ATOM      3  C   UNL     1      -3.864  -0.752  -1.072  1.00  0.00     0.006 C 
BRANCH   3   4
ATOM      4  C   UNL     1      -3.948  -1.527  -2.392  1.00  0.00     0.053 C 
BRANCH   4   5
ATOM      5  C   UNL     1      -3.816  -3.004  -2.178  1.00  0.00     0.041 C 
ATOM      6  O   UNL     1      -3.736  -3.783  -3.164  1.00  0.00    -0.550 OA
ATOM      7  O   UNL     1      -3.746  -3.516  -0.888  1.00  0.00    -0.550 OA
ENDBRANCH   4   5
ENDBRANCH   3   4
ENDBRANCH   2   3
ENDBRANCH   1   2
BRANCH   1   8
ATOM      8  C   UNL     1      -3.856   1.744   0.012  1.00  0.00     0.000 C 
BRANCH   8   9
ATOM      9  C   UNL     1      -3.848   3.167   0.593  1.00  0.00     0.000 C 
BRANCH   9  10
ATOM     10  C   UNL     1      -2.716   4.032   0.020  1.00  0.00     0.006 C 
BRANCH  10  11
ATOM     11  C   UNL     1      -3.278   5.173  -0.834  1.00  0.00     0.053 C 
BRANCH  11  12
ATOM     12  C   UNL     1      -3.276   4.794  -2.282  1.00  0.00     0.041 C 
ATOM     13  O   UNL     1      -2.547   3.852  -2.688  1.00  0.00    -0.550 OA
ATOM     14  O   UNL     1      -4.115   5.450  -3.173  1.00  0.00    -0.550 OA
ENDBRANCH  11  12
ENDBRANCH  10  11
ENDBRANCH   9  10
ENDBRANCH   8   9
ENDBRANCH   1   8
TORSDOF 9
ENDMDL
MODEL 9
REMARK VINA RESULT:    -3.020     11.879     13.988
REMARK INTER + INTRA:          -4.907
REMARK INTER:                  -4.454
REMARK INTRA:                  -0.453
REMARK UNBOUND:                -0.298
REMARK SMILES O=C([O-])CCCCCCCCC(=O)[O-]
REMARK SMILES IDX 7 1 6 2 5 3 4 4 2 5 1 6 3 7 8 8 9 9 10 10 11 11 12 12 13 13
REMARK SMILES IDX 14 14
REMARK H PARENT
REMARK Flexibility Score: inf
ROOT
ATOM      1  C   UNL     1       2.470  -8.674   9.044  1.00  0.00     0.000 C 
ENDROOT
BRANCH   1   2
ATOM      2  C   UNL     1       3.144  -9.913   9.652  1.00  0.00     0.000 C 
BRANCH   2   3
ATOM      3  C   UNL     1       4.639 -10.008   9.296  1.00  0.00     0.006 C 
BRANCH   3   4
ATOM      4  C   UNL     1       5.233  -8.643   8.927  1.00  0.00     0.053 C 
BRANCH   4   5
ATOM      5  C   UNL     1       5.443  -8.510   7.451  1.00  0.00     0.041 C 
ATOM      6  O   UNL     1       5.713  -7.387   6.947  1.00  0.00    -0.550 OA
ATOM      7  O   UNL     1       5.376  -9.633   6.634  1.00  0.00    -0.550 OA
ENDBRANCH   4   5
ENDBRANCH   3   4
ENDBRANCH   2   3
ENDBRANCH   1   2
BRANCH   1   8
ATOM      8  C   UNL     1       1.875  -7.741  10.113  1.00  0.00     0.000 C 
BRANCH   8   9
ATOM      9  C   UNL     1       2.539  -6.355  10.124  1.00  0.00     0.000 C 
BRANCH   9  10
ATOM     10  C   UNL     1       1.527  -5.214   9.944  1.00  0.00     0.006 C 
BRANCH  10  11
ATOM     11  C   UNL     1       0.253  -5.715   9.258  1.00  0.00     0.053 C 
BRANCH  11  12
ATOM     12  C   UNL     1       0.179  -5.203   7.853  1.00  0.00     0.041 C 
ATOM     13  O   UNL     1      -0.635  -5.711   7.038  1.00  0.00    -0.550 OA
ATOM     14  O   UNL     1       0.973  -4.135   7.459  1.00  0.00    -0.550 OA
ENDBRANCH  11  12
ENDBRANCH  10  11
ENDBRANCH   9  10
ENDBRANCH   8   9
ENDBRANCH   1   8
TORSDOF 9
ENDMDL
