MODEL 1
REMARK VINA RESULT:    -6.458      0.000      0.000
REMARK INTER + INTRA:          -7.446
REMARK INTER:                  -7.402
REMARK INTRA:                  -0.045
REMARK UNBOUND:                -0.045
REMARK SMILES O=C([O-])c1cc(O)c(O)c(O)c1
REMARK SMILES IDX 4 1 5 2 12 3 6 4 10 5 8 6 2 7 1 8 3 9 7 10 11 12 9 14
REMARK H PARENT 7 11 11 13 9 15
REMARK Flexibility Score: inf
ROOT
ATOM      1  C   UNL     1      13.761 -13.282  28.238  1.00  0.00     0.005 A 
ATOM      2  C   UNL     1      12.509 -13.597  27.691  1.00  0.00     0.060 A 
ATOM      3  C   UNL     1      13.832 -12.339  29.276  1.00  0.00     0.060 A 
ATOM      4  C   UNL     1      11.340 -12.989  28.164  1.00  0.00     0.162 A 
ATOM      5  C   UNL     1      12.675 -11.722  29.760  1.00  0.00     0.162 A 
ATOM      6  C   UNL     1      11.420 -12.039  29.211  1.00  0.00     0.200 A 
ENDROOT
BRANCH   1   7
ATOM      7  C   UNL     1      14.987 -13.934  27.726  1.00  0.00     0.072 C 
ATOM      8  O   UNL     1      15.685 -13.379  26.837  1.00  0.00    -0.545 OA
ATOM      9  O   UNL     1      15.386 -15.170  28.223  1.00  0.00    -0.545 OA
ENDBRANCH   1   7
BRANCH   4  10
ATOM     10  O   UNL     1      10.131 -13.356  27.568  1.00  0.00    -0.504 OA
ATOM     11  H   UNL     1       9.972 -14.236  27.100  1.00  0.00     0.293 HD
ENDBRANCH   4  10
BRANCH   5  12
ATOM     12  O   UNL     1      12.795 -10.791  30.793  1.00  0.00    -0.504 OA
ATOM     13  H   UNL     1      13.671 -10.630  31.276  1.00  0.00     0.293 HD
ENDBRANCH   5  12
BRANCH   6  14
ATOM     14  O   UNL     1      10.289 -11.399  29.724  1.00  0.00    -0.502 OA
ATOM     15  H   UNL     1      10.183 -10.397  29.790  1.00  0.00     0.293 HD
ENDBRANCH   6  14
TORSDOF 4
ENDMDL
MODEL 2
REMARK VINA RESULT:    -6.395      0.207      2.452
REMARK INTER + INTRA:          -7.374
REMARK INTER:                  -7.329
REMARK INTRA:                  -0.045
REMARK UNBOUND:                -0.045
REMARK SMILES O=C([O-])c1cc(O)c(O)c(O)c1
REMARK SMILES IDX 4 1 5 2 12 3 6 4 10 5 8 6 2 7 1 8 3 9 7 10 11 12 9 14
REMARK H PARENT 7 11 11 13 9 15
REMARK Flexibility Score: inf
ROOT
ATOM      1  C   UNL     1      13.834 -13.420  28.147  1.00  0.00     0.005 A 
ATOM      2  C   UNL     1      13.945 -12.436  29.141  1.00  0.00     0.060 A 
ATOM      3  C   UNL     1      12.567 -13.712  27.619  1.00  0.00     0.060 A 
ATOM      4  C   UNL     1      12.818 -11.748  29.606  1.00  0.00     0.162 A 
ATOM      5  C   UNL     1      11.430 -13.035  28.072  1.00  0.00     0.162 A 
ATOM      6  C   UNL     1      11.543 -12.049  29.068  1.00  0.00     0.200 A 
ENDROOT
BRANCH   1   7
ATOM      7  C   UNL     1      15.035 -14.138  27.667  1.00  0.00     0.072 C 
ATOM      8  O   UNL     1      15.768 -13.635  26.774  1.00  0.00    -0.545 OA
ATOM      9  O   UNL     1      15.373 -15.377  28.197  1.00  0.00    -0.545 OA
ENDBRANCH   1   7
BRANCH   4  10
ATOM     10  O   UNL     1      13.010 -10.782  30.597  1.00  0.00    -0.504 OA
ATOM     11  H   UNL     1      13.829 -10.726  31.183  1.00  0.00     0.293 HD
ENDBRANCH   4  10
BRANCH   5  12
ATOM     12  O   UNL     1      10.192 -13.361  27.517  1.00  0.00    -0.504 OA
ATOM     13  H   UNL     1      10.049 -14.200  26.969  1.00  0.00     0.293 HD
ENDBRANCH   5  12
BRANCH   6  14
ATOM     14  O   UNL     1      10.383 -11.397  29.493  1.00  0.00    -0.502 OA
ATOM     15  H   UNL     1       9.447 -11.746  29.344  1.00  0.00     0.293 HD
ENDBRANCH   6  14
TORSDOF 4
ENDMDL
MODEL 3
REMARK VINA RESULT:    -6.260     11.773     13.171
REMARK INTER + INTRA:          -7.219
REMARK INTER:                  -7.175
REMARK INTRA:                  -0.045
REMARK UNBOUND:                -0.045
REMARK SMILES O=C([O-])c1cc(O)c(O)c(O)c1
REMARK SMILES IDX 4 1 5 2 12 3 6 4 10 5 8 6 2 7 1 8 3 9 7 10 11 12 9 14
REMARK H PARENT 7 11 11 13 9 15
REMARK Flexibility Score: inf
ROOT
ATOM      1  C   UNL     1      16.619  -1.000  26.318  1.00  0.00     0.005 A 
ATOM      2  C   UNL     1      17.858  -0.541  25.845  1.00  0.00     0.060 A 
ATOM      3  C   UNL     1      16.588  -2.112  27.174  1.00  0.00     0.060 A 
ATOM      4  C   UNL     1      19.051  -1.172  26.215  1.00  0.00     0.162 A 
ATOM      5  C   UNL     1      17.771  -2.755  27.553  1.00  0.00     0.162 A 
ATOM      6  C   UNL     1      19.011  -2.293  27.078  1.00  0.00     0.200 A 
ENDROOT
BRANCH   1   7
ATOM      7  C   UNL     1      15.367  -0.321  25.918  1.00  0.00     0.072 C 
ATOM      8  O   UNL     1      14.741  -0.686  24.888  1.00  0.00    -0.545 OA
ATOM      9  O   UNL     1      14.863   0.730  26.676  1.00  0.00    -0.545 OA
ENDBRANCH   1   7
BRANCH   4  10
ATOM     10  O   UNL     1      20.244  -0.656  25.703  1.00  0.00    -0.504 OA
ATOM     11  H   UNL     1      20.319   0.227  25.220  1.00  0.00     0.293 HD
ENDBRANCH   4  10
BRANCH   5  12
ATOM     12  O   UNL     1      17.690  -3.856  28.406  1.00  0.00    -0.504 OA
ATOM     13  H   UNL     1      18.236  -3.923  29.256  1.00  0.00     0.293 HD
ENDBRANCH   5  12
BRANCH   6  14
ATOM     14  O   UNL     1      20.169  -2.965  27.481  1.00  0.00    -0.502 OA
ATOM     15  H   UNL     1      21.066  -2.873  27.028  1.00  0.00     0.293 HD
ENDBRANCH   6  14
TORSDOF 4
ENDMDL
MODEL 4
REMARK VINA RESULT:    -6.220      1.393      4.109
REMARK INTER + INTRA:          -7.174
REMARK INTER:                  -7.124
REMARK INTRA:                  -0.050
REMARK UNBOUND:                -0.045
REMARK SMILES O=C([O-])c1cc(O)c(O)c(O)c1
REMARK SMILES IDX 4 1 5 2 12 3 6 4 10 5 8 6 2 7 1 8 3 9 7 10 11 12 9 14
REMARK H PARENT 7 11 11 13 9 15
REMARK Flexibility Score: inf
ROOT
ATOM      1  C   UNL     1      12.332 -11.527  29.423  1.00  0.00     0.005 A 
ATOM      2  C   UNL     1      11.898 -12.214  28.279  1.00  0.00     0.060 A 
ATOM      3  C   UNL     1      13.486 -11.971  30.086  1.00  0.00     0.060 A 
ATOM      4  C   UNL     1      12.597 -13.326  27.795  1.00  0.00     0.162 A 
ATOM      5  C   UNL     1      14.197 -13.080  29.616  1.00  0.00     0.162 A 
ATOM      6  C   UNL     1      13.762 -13.768  28.470  1.00  0.00     0.200 A 
ENDROOT
BRANCH   1   7
ATOM      7  C   UNL     1      11.580 -10.354  29.921  1.00  0.00     0.072 C 
ATOM      8  O   UNL     1      10.331 -10.285  29.778  1.00  0.00    -0.545 OA
ATOM      9  O   UNL     1      12.244  -9.311  30.557  1.00  0.00    -0.545 OA
ENDBRANCH   1   7
BRANCH   4  10
ATOM     10  O   UNL     1      12.103 -13.956  26.651  1.00  0.00    -0.504 OA
ATOM     11  H   UNL     1      12.663 -14.192  25.846  1.00  0.00     0.293 HD
ENDBRANCH   4  10
BRANCH   5  12
ATOM     12  O   UNL     1      15.339 -13.485  30.308  1.00  0.00    -0.504 OA
ATOM     13  H   UNL     1      15.359 -14.324  30.875  1.00  0.00     0.293 HD
ENDBRANCH   5  12
BRANCH   6  14
ATOM     14  O   UNL     1      14.501 -14.871  28.035  1.00  0.00    -0.502 OA
ATOM     15  H   UNL     1      14.187 -15.828  28.102  1.00  0.00     0.293 HD
ENDBRANCH   6  14
TORSDOF 4
ENDMDL
MODEL 5
REMARK VINA RESULT:    -6.191      1.440      4.727
REMARK INTER + INTRA:          -7.140
REMARK INTER:                  -7.090
REMARK INTRA:                  -0.050
REMARK UNBOUND:                -0.045
REMARK SMILES O=C([O-])c1cc(O)c(O)c(O)c1
REMARK SMILES IDX 4 1 5 2 12 3 6 4 10 5 8 6 2 7 1 8 3 9 7 10 11 12 9 14
REMARK H PARENT 7 11 11 13 9 15
REMARK Flexibility Score: inf
ROOT
ATOM      1  C   UNL     1      12.358 -11.546  29.423  1.00  0.00     0.005 A 
ATOM      2  C   UNL     1      13.489 -11.980  30.131  1.00  0.00     0.060 A 
ATOM      3  C   UNL     1      11.978 -12.234  28.261  1.00  0.00     0.060 A 
ATOM      4  C   UNL     1      14.234 -13.082  29.696  1.00  0.00     0.162 A 
ATOM      5  C   UNL     1      12.711 -13.337  27.812  1.00  0.00     0.162 A 
ATOM      6  C   UNL     1      13.844 -13.771  28.522  1.00  0.00     0.200 A 
ENDROOT
BRANCH   1   7
ATOM      7  C   UNL     1      11.582 -10.378  29.897  1.00  0.00     0.072 C 
ATOM      8  O   UNL     1      10.331 -10.341  29.757  1.00  0.00    -0.545 OA
ATOM      9  O   UNL     1      12.224  -9.306  30.505  1.00  0.00    -0.545 OA
ENDBRANCH   1   7
BRANCH   4  10
ATOM     10  O   UNL     1      15.347 -13.454  30.455  1.00  0.00    -0.504 OA
ATOM     11  H   UNL     1      15.298 -13.800  31.401  1.00  0.00     0.293 HD
ENDBRANCH   4  10
BRANCH   5  12
ATOM     12  O   UNL     1      12.294 -13.990  26.651  1.00  0.00    -0.504 OA
ATOM     13  H   UNL     1      11.844 -14.897  26.673  1.00  0.00     0.293 HD
ENDBRANCH   5  12
BRANCH   6  14
ATOM     14  O   UNL     1      14.548 -14.878  28.039  1.00  0.00    -0.502 OA
ATOM     15  H   UNL     1      15.391 -14.818  27.487  1.00  0.00     0.293 HD
ENDBRANCH   6  14
TORSDOF 4
ENDMDL
MODEL 6
REMARK VINA RESULT:    -6.131     11.876     13.202
REMARK INTER + INTRA:          -7.072
REMARK INTER:                  -7.027
REMARK INTRA:                  -0.045
REMARK UNBOUND:                -0.045
REMARK SMILES O=C([O-])c1cc(O)c(O)c(O)c1
REMARK SMILES IDX 4 1 5 2 12 3 6 4 10 5 8 6 2 7 1 8 3 9 7 10 11 12 9 14
REMARK H PARENT 7 11 11 13 9 15
REMARK Flexibility Score: inf
ROOT
ATOM      1  C   UNL     1      16.677  -0.977  26.196  1.00  0.00     0.005 A 
ATOM      2  C   UNL     1      16.653  -2.028  27.126  1.00  0.00     0.060 A 
ATOM      3  C   UNL     1      17.915  -0.517  25.721  1.00  0.00     0.060 A 
ATOM      4  C   UNL     1      17.838  -2.618  27.580  1.00  0.00     0.162 A 
ATOM      5  C   UNL     1      19.109  -1.095  26.164  1.00  0.00     0.162 A 
ATOM      6  C   UNL     1      19.084  -2.147  27.096  1.00  0.00     0.200 A 
ENDROOT
BRANCH   1   7
ATOM      7  C   UNL     1      15.414  -0.365  25.726  1.00  0.00     0.072 C 
ATOM      8  O   UNL     1      14.755  -0.892  24.792  1.00  0.00    -0.545 OA
ATOM      9  O   UNL     1      14.938   0.802  26.312  1.00  0.00    -0.545 OA
ENDBRANCH   1   7
BRANCH   4  10
ATOM     10  O   UNL     1      17.732  -3.658  28.505  1.00  0.00    -0.504 OA
ATOM     11  H   UNL     1      16.859  -3.996  28.883  1.00  0.00     0.293 HD
ENDBRANCH   4  10
BRANCH   5  12
ATOM     12  O   UNL     1      20.316  -0.604  25.664  1.00  0.00    -0.504 OA
ATOM     13  H   UNL     1      20.354   0.069  24.908  1.00  0.00     0.293 HD
ENDBRANCH   5  12
BRANCH   6  14
ATOM     14  O   UNL     1      20.299  -2.696  27.513  1.00  0.00    -0.502 OA
ATOM     15  H   UNL     1      21.123  -2.758  26.933  1.00  0.00     0.293 HD
ENDBRANCH   6  14
TORSDOF 4
ENDMDL
MODEL 7
REMARK VINA RESULT:    -5.873     12.358     13.382
REMARK INTER + INTRA:          -6.776
REMARK INTER:                  -6.727
REMARK INTRA:                  -0.049
REMARK UNBOUND:                -0.045
REMARK SMILES O=C([O-])c1cc(O)c(O)c(O)c1
REMARK SMILES IDX 4 1 5 2 12 3 6 4 10 5 8 6 2 7 1 8 3 9 7 10 11 12 9 14
REMARK H PARENT 7 11 11 13 9 15
REMARK Flexibility Score: inf
ROOT
ATOM      1  C   UNL     1      15.949  -0.825  27.519  1.00  0.00     0.005 A 
ATOM      2  C   UNL     1      15.492  -1.023  26.207  1.00  0.00     0.060 A 
ATOM      3  C   UNL     1      15.907   0.467  28.066  1.00  0.00     0.060 A 
ATOM      4  C   UNL     1      14.999   0.043  25.446  1.00  0.00     0.162 A 
ATOM      5  C   UNL     1      15.418   1.543  27.320  1.00  0.00     0.162 A 
ATOM      6  C   UNL     1      14.961   1.344  26.005  1.00  0.00     0.200 A 
ENDROOT
BRANCH   1   7
ATOM      7  C   UNL     1      16.467  -1.964  28.310  1.00  0.00     0.072 C 
ATOM      8  O   UNL     1      16.155  -2.095  29.523  1.00  0.00    -0.545 OA
ATOM      9  O   UNL     1      17.305  -2.905  27.723  1.00  0.00    -0.545 OA
ENDBRANCH   1   7
BRANCH   4  10
ATOM     10  O   UNL     1      14.563  -0.233  24.148  1.00  0.00    -0.504 OA
ATOM     11  H   UNL     1      14.342  -1.157  23.808  1.00  0.00     0.293 HD
ENDBRANCH   4  10
BRANCH   5  12
ATOM     12  O   UNL     1      15.396   2.809  27.906  1.00  0.00    -0.504 OA
ATOM     13  H   UNL     1      16.243   3.289  28.188  1.00  0.00     0.293 HD
ENDBRANCH   5  12
BRANCH   6  14
ATOM     14  O   UNL     1      14.480   2.447  25.294  1.00  0.00    -0.502 OA
ATOM     15  H   UNL     1      14.202   3.320  25.719  1.00  0.00     0.293 HD
ENDBRANCH   6  14
TORSDOF 4
ENDMDL
MODEL 8
REMARK VINA RESULT:    -5.834     12.353     13.583
REMARK INTER + INTRA:          -6.731
REMARK INTER:                  -6.682
REMARK INTRA:                  -0.049
REMARK UNBOUND:                -0.045
REMARK SMILES O=C([O-])c1cc(O)c(O)c(O)c1
REMARK SMILES IDX 4 1 5 2 12 3 6 4 10 5 8 6 2 7 1 8 3 9 7 10 11 12 9 14
REMARK H PARENT 7 11 11 13 9 15
REMARK Flexibility Score: inf
ROOT
ATOM      1  C   UNL     1      15.944  -0.829  27.531  1.00  0.00     0.005 A 
ATOM      2  C   UNL     1      15.909   0.461  28.082  1.00  0.00     0.060 A 
ATOM      3  C   UNL     1      15.484  -1.021  26.219  1.00  0.00     0.060 A 
ATOM      4  C   UNL     1      15.426   1.549  27.344  1.00  0.00     0.162 A 
ATOM      5  C   UNL     1      14.998   0.054  25.468  1.00  0.00     0.162 A 
ATOM      6  C   UNL     1      14.964   1.346  26.020  1.00  0.00     0.200 A 
ENDROOT
BRANCH   1   7
ATOM      7  C   UNL     1      16.457  -1.967  28.325  1.00  0.00     0.072 C 
ATOM      8  O   UNL     1      16.154  -2.088  29.542  1.00  0.00    -0.545 OA
ATOM      9  O   UNL     1      17.280  -2.921  27.738  1.00  0.00    -0.545 OA
ENDBRANCH   1   7
BRANCH   4  10
ATOM     10  O   UNL     1      15.424   2.802  27.960  1.00  0.00    -0.504 OA
ATOM     11  H   UNL     1      16.125   3.511  27.808  1.00  0.00     0.293 HD
ENDBRANCH   4  10
BRANCH   5  12
ATOM     12  O   UNL     1      14.552  -0.187  24.168  1.00  0.00    -0.504 OA
ATOM     13  H   UNL     1      13.619   0.063  23.862  1.00  0.00     0.293 HD
ENDBRANCH   5  12
BRANCH   6  14
ATOM     14  O   UNL     1      14.471   2.392  25.235  1.00  0.00    -0.502 OA
ATOM     15  H   UNL     1      14.209   2.299  24.265  1.00  0.00     0.293 HD
ENDBRANCH   6  14
TORSDOF 4
ENDMDL
MODEL 9
REMARK VINA RESULT:    -5.628      1.582      2.017
REMARK INTER + INTRA:          -6.496
REMARK INTER:                  -6.450
REMARK INTRA:                  -0.046
REMARK UNBOUND:                -0.045
REMARK SMILES O=C([O-])c1cc(O)c(O)c(O)c1
REMARK SMILES IDX 4 1 5 2 12 3 6 4 10 5 8 6 2 7 1 8 3 9 7 10 11 12 9 14
REMARK H PARENT 7 11 11 13 9 15
REMARK Flexibility Score: inf
ROOT
ATOM      1  C   UNL     1      13.528 -12.355  29.809  1.00  0.00     0.005 A 
ATOM      2  C   UNL     1      12.372 -12.706  29.095  1.00  0.00     0.060 A 
ATOM      3  C   UNL     1      13.555 -11.134  30.501  1.00  0.00     0.060 A 
ATOM      4  C   UNL     1      11.256 -11.863  29.068  1.00  0.00     0.162 A 
ATOM      5  C   UNL     1      12.449 -10.279  30.484  1.00  0.00     0.162 A 
ATOM      6  C   UNL     1      11.291 -10.633  29.769  1.00  0.00     0.200 A 
ENDROOT
BRANCH   1   7
ATOM      7  C   UNL     1      14.700 -13.258  29.827  1.00  0.00     0.072 C 
ATOM      8  O   UNL     1      15.076 -13.798  30.901  1.00  0.00    -0.545 OA
ATOM      9  O   UNL     1      15.402 -13.525  28.657  1.00  0.00    -0.545 OA
ENDBRANCH   1   7
BRANCH   4  10
ATOM     10  O   UNL     1      10.143 -12.283  28.336  1.00  0.00    -0.504 OA
ATOM     11  H   UNL     1       9.955 -13.243  28.090  1.00  0.00     0.293 HD
ENDBRANCH   4  10
BRANCH   5  12
ATOM     12  O   UNL     1      12.522  -9.076  31.187  1.00  0.00    -0.504 OA
ATOM     13  H   UNL     1      12.424  -8.177  30.732  1.00  0.00     0.293 HD
ENDBRANCH   5  12
BRANCH   6  14
ATOM     14  O   UNL     1      10.208  -9.750  29.778  1.00  0.00    -0.502 OA
ATOM     15  H   UNL     1       9.282  -9.982  29.448  1.00  0.00     0.293 HD
ENDBRANCH   6  14
TORSDOF 4
ENDMDL
