MODEL 1
REMARK VINA RESULT:    -8.203      0.000      0.000
REMARK INTER + INTRA:          -9.864
REMARK INTER:                  -9.881
REMARK INTRA:                   0.017
REMARK UNBOUND:                 0.017
REMARK SMILES O=c1c(O)c(-c2ccc(O)c(O)c2)oc2cc(O)cc(O)c12
REMARK SMILES IDX 5 1 3 2 2 3 1 4 22 5 20 6 19 7 17 8 16 9 15 10 14 11 6 12
REMARK SMILES IDX 7 13 8 14 9 15 13 16 11 17 10 18 12 20 4 22 21 24 18 26
REMARK H PARENT 10 19 12 21 4 23 21 25 18 27
REMARK Flexibility Score: inf
ROOT
ATOM      1  C   UNL     1      -4.215  21.807  48.191  1.00  0.00     0.180 A 
ATOM      2  C   UNL     1      -3.771  21.866  46.859  1.00  0.00     0.208 A 
ATOM      3  C   UNL     1      -3.275  20.700  46.253  1.00  0.00     0.238 A 
ATOM      4  O   UNL     1      -2.829  20.772  45.079  1.00  0.00    -0.285 OA
ATOM      5  C   UNL     1      -3.245  19.487  46.981  1.00  0.00     0.111 A 
ATOM      6  C   UNL     1      -2.802  18.237  46.455  1.00  0.00     0.134 A 
ATOM      7  C   UNL     1      -2.693  17.128  47.304  1.00  0.00     0.093 A 
ATOM      8  C   UNL     1      -3.075  17.210  48.646  1.00  0.00     0.123 A 
ATOM      9  C   UNL     1      -3.565  18.410  49.155  1.00  0.00     0.094 A 
ATOM     10  C   UNL     1      -3.651  19.543  48.340  1.00  0.00     0.146 A 
ATOM     11  O   UNL     1      -4.113  20.670  48.868  1.00  0.00    -0.452 OA
ENDROOT
BRANCH   1  12
ATOM     12  C   UNL     1      -4.774  22.988  48.889  1.00  0.00     0.025 A 
ATOM     13  C   UNL     1      -5.777  23.747  48.266  1.00  0.00     0.016 A 
ATOM     14  C   UNL     1      -6.304  24.875  48.898  1.00  0.00     0.051 A 
ATOM     15  C   UNL     1      -5.828  25.272  50.152  1.00  0.00     0.157 A 
ATOM     16  C   UNL     1      -4.282  23.400  50.141  1.00  0.00     0.062 A 
ATOM     17  C   UNL     1      -4.809  24.534  50.775  1.00  0.00     0.158 A 
BRANCH  15  18
ATOM     18  O   UNL     1      -6.376  26.402  50.758  1.00  0.00    -0.504 OA
ATOM     19  H   UNL     1      -7.022  26.335  51.535  1.00  0.00     0.293 HD
ENDBRANCH  15  18
BRANCH  17  20
ATOM     20  O   UNL     1      -4.319  24.932  52.019  1.00  0.00    -0.504 OA
ATOM     21  H   UNL     1      -4.908  24.940  52.843  1.00  0.00     0.293 HD
ENDBRANCH  17  20
ENDBRANCH   1  12
BRANCH   2  22
ATOM     22  O   UNL     1      -3.789  23.080  46.165  1.00  0.00    -0.502 OA
ATOM     23  H   UNL     1      -3.597  23.142  45.173  1.00  0.00     0.293 HD
ENDBRANCH   2  22
BRANCH   6  24
ATOM     24  O   UNL     1      -2.486  18.025  45.110  1.00  0.00    -0.507 OA
ATOM     25  H   UNL     1      -1.575  17.760  44.768  1.00  0.00     0.293 HD
ENDBRANCH   6  24
BRANCH   8  26
ATOM     26  O   UNL     1      -2.978  16.098  49.481  1.00  0.00    -0.508 OA
ATOM     27  H   UNL     1      -2.756  15.179  49.116  1.00  0.00     0.293 HD
ENDBRANCH   8  26
TORSDOF 6
ENDMDL
MODEL 2
REMARK VINA RESULT:    -8.095      1.422      1.422
REMARK INTER + INTRA:          -9.733
REMARK INTER:                  -9.416
REMARK INTRA:                  -0.317
REMARK UNBOUND:                 0.017
REMARK SMILES O=c1c(O)c(-c2ccc(O)c(O)c2)oc2cc(O)cc(O)c12
REMARK SMILES IDX 5 1 3 2 2 3 1 4 22 5 20 6 19 7 17 8 16 9 15 10 14 11 6 12
REMARK SMILES IDX 7 13 8 14 9 15 13 16 11 17 10 18 12 20 4 22 21 24 18 26
REMARK H PARENT 10 19 12 21 4 23 21 25 18 27
REMARK Flexibility Score: inf
ROOT
ATOM      1  C   UNL     1      -3.310  21.799  48.699  1.00  0.00     0.180 A 
ATOM      2  C   UNL     1      -2.198  22.032  47.872  1.00  0.00     0.208 A 
ATOM      3  C   UNL     1      -1.423  20.940  47.448  1.00  0.00     0.238 A 
ATOM      4  O   UNL     1      -0.397  21.161  46.754  1.00  0.00    -0.285 OA
ATOM      5  C   UNL     1      -1.780  19.629  47.842  1.00  0.00     0.111 A 
ATOM      6  C   UNL     1      -1.091  18.446  47.438  1.00  0.00     0.134 A 
ATOM      7  C   UNL     1      -1.453  17.211  47.992  1.00  0.00     0.093 A 
ATOM      8  C   UNL     1      -2.523  17.110  48.886  1.00  0.00     0.123 A 
ATOM      9  C   UNL     1      -3.239  18.250  49.240  1.00  0.00     0.094 A 
ATOM     10  C   UNL     1      -2.878  19.501  48.732  1.00  0.00     0.146 A 
ATOM     11  O   UNL     1      -3.581  20.564  49.104  1.00  0.00    -0.452 OA
ENDROOT
BRANCH   1  12
ATOM     12  C   UNL     1      -4.190  22.896  49.165  1.00  0.00     0.025 A 
ATOM     13  C   UNL     1      -5.227  23.349  48.336  1.00  0.00     0.016 A 
ATOM     14  C   UNL     1      -6.055  24.395  48.748  1.00  0.00     0.051 A 
ATOM     15  C   UNL     1      -5.852  25.015  49.985  1.00  0.00     0.157 A 
ATOM     16  C   UNL     1      -3.973  23.533  50.401  1.00  0.00     0.062 A 
ATOM     17  C   UNL     1      -4.803  24.585  50.814  1.00  0.00     0.158 A 
BRANCH  15  18
ATOM     18  O   UNL     1      -6.697  26.055  50.370  1.00  0.00    -0.504 OA
ATOM     19  H   UNL     1      -6.490  27.022  50.155  1.00  0.00     0.293 HD
ENDBRANCH  15  18
BRANCH  17  20
ATOM     20  O   UNL     1      -4.585  25.207  52.043  1.00  0.00    -0.504 OA
ATOM     21  H   UNL     1      -5.300  25.771  52.487  1.00  0.00     0.293 HD
ENDBRANCH  17  20
ENDBRANCH   1  12
BRANCH   2  22
ATOM     22  O   UNL     1      -1.850  23.337  47.514  1.00  0.00    -0.502 OA
ATOM     23  H   UNL     1      -1.929  23.681  46.565  1.00  0.00     0.293 HD
ENDBRANCH   2  22
BRANCH   6  24
ATOM     24  O   UNL     1      -0.071  18.425  46.482  1.00  0.00    -0.507 OA
ATOM     25  H   UNL     1       0.225  17.605  45.974  1.00  0.00     0.293 HD
ENDBRANCH   6  24
BRANCH   8  26
ATOM     26  O   UNL     1      -2.886  15.876  49.421  1.00  0.00    -0.508 OA
ATOM     27  H   UNL     1      -3.387  15.805  50.299  1.00  0.00     0.293 HD
ENDBRANCH   8  26
TORSDOF 6
ENDMDL
MODEL 3
REMARK VINA RESULT:    -7.527      1.721      6.970
REMARK INTER + INTRA:          -9.050
REMARK INTER:                  -8.768
REMARK INTRA:                  -0.282
REMARK UNBOUND:                 0.017
REMARK SMILES O=c1c(O)c(-c2ccc(O)c(O)c2)oc2cc(O)cc(O)c12
REMARK SMILES IDX 5 1 3 2 2 3 1 4 22 5 20 6 19 7 17 8 16 9 15 10 14 11 6 12
REMARK SMILES IDX 7 13 8 14 9 15 13 16 11 17 10 18 12 20 4 22 21 24 18 26
REMARK H PARENT 10 19 12 21 4 23 21 25 18 27
REMARK Flexibility Score: inf
ROOT
ATOM      1  C   UNL     1      -3.872  22.305  49.052  1.00  0.00     0.180 A 
ATOM      2  C   UNL     1      -5.022  23.036  48.705  1.00  0.00     0.208 A 
ATOM      3  C   UNL     1      -5.308  24.225  49.396  1.00  0.00     0.238 A 
ATOM      4  O   UNL     1      -6.367  24.845  49.118  1.00  0.00    -0.285 OA
ATOM      5  C   UNL     1      -4.432  24.677  50.412  1.00  0.00     0.111 A 
ATOM      6  C   UNL     1      -4.602  25.888  51.148  1.00  0.00     0.134 A 
ATOM      7  C   UNL     1      -3.746  26.171  52.220  1.00  0.00     0.093 A 
ATOM      8  C   UNL     1      -2.686  25.317  52.539  1.00  0.00     0.123 A 
ATOM      9  C   UNL     1      -2.477  24.163  51.789  1.00  0.00     0.094 A 
ATOM     10  C   UNL     1      -3.336  23.836  50.736  1.00  0.00     0.146 A 
ATOM     11  O   UNL     1      -3.107  22.721  50.054  1.00  0.00    -0.452 OA
ENDROOT
BRANCH   1  12
ATOM     12  C   UNL     1      -3.491  21.056  48.353  1.00  0.00     0.025 A 
ATOM     13  C   UNL     1      -2.909  21.129  47.078  1.00  0.00     0.016 A 
ATOM     14  C   UNL     1      -2.561  19.963  46.393  1.00  0.00     0.051 A 
ATOM     15  C   UNL     1      -2.801  18.708  46.961  1.00  0.00     0.157 A 
ATOM     16  C   UNL     1      -3.752  19.793  48.916  1.00  0.00     0.062 A 
ATOM     17  C   UNL     1      -3.403  18.622  48.227  1.00  0.00     0.158 A 
BRANCH  15  18
ATOM     18  O   UNL     1      -2.439  17.563  46.254  1.00  0.00    -0.504 OA
ATOM     19  H   UNL     1      -1.492  17.206  46.257  1.00  0.00     0.293 HD
ENDBRANCH  15  18
BRANCH  17  20
ATOM     20  O   UNL     1      -3.660  17.374  48.795  1.00  0.00    -0.504 OA
ATOM     21  H   UNL     1      -4.425  16.793  48.475  1.00  0.00     0.293 HD
ENDBRANCH  17  20
ENDBRANCH   1  12
BRANCH   2  22
ATOM     22  O   UNL     1      -5.885  22.560  47.714  1.00  0.00    -0.502 OA
ATOM     23  H   UNL     1      -5.727  21.685  47.230  1.00  0.00     0.293 HD
ENDBRANCH   2  22
BRANCH   6  24
ATOM     24  O   UNL     1      -5.570  26.852  50.852  1.00  0.00    -0.507 OA
ATOM     25  H   UNL     1      -5.463  27.582  50.164  1.00  0.00     0.293 HD
ENDBRANCH   6  24
BRANCH   8  26
ATOM     26  O   UNL     1      -1.829  25.614  53.598  1.00  0.00    -0.508 OA
ATOM     27  H   UNL     1      -1.896  26.490  54.104  1.00  0.00     0.293 HD
ENDBRANCH   8  26
TORSDOF 6
ENDMDL
MODEL 4
REMARK VINA RESULT:    -7.515      1.515      6.778
REMARK INTER + INTRA:          -9.035
REMARK INTER:                  -8.801
REMARK INTRA:                  -0.234
REMARK UNBOUND:                 0.017
REMARK SMILES O=c1c(O)c(-c2ccc(O)c(O)c2)oc2cc(O)cc(O)c12
REMARK SMILES IDX 5 1 3 2 2 3 1 4 22 5 20 6 19 7 17 8 16 9 15 10 14 11 6 12
REMARK SMILES IDX 7 13 8 14 9 15 13 16 11 17 10 18 12 20 4 22 21 24 18 26
REMARK H PARENT 10 19 12 21 4 23 21 25 18 27
REMARK Flexibility Score: inf
ROOT
ATOM      1  C   UNL     1      -3.438  21.367  48.257  1.00  0.00     0.180 A 
ATOM      2  C   UNL     1      -4.024  22.032  47.165  1.00  0.00     0.208 A 
ATOM      3  C   UNL     1      -4.516  23.335  47.344  1.00  0.00     0.238 A 
ATOM      4  O   UNL     1      -5.089  23.903  46.378  1.00  0.00    -0.285 OA
ATOM      5  C   UNL     1      -4.400  23.964  48.607  1.00  0.00     0.111 A 
ATOM      6  C   UNL     1      -4.825  25.296  48.891  1.00  0.00     0.134 A 
ATOM      7  C   UNL     1      -4.781  25.770  50.208  1.00  0.00     0.093 A 
ATOM      8  C   UNL     1      -4.264  24.982  51.240  1.00  0.00     0.123 A 
ATOM      9  C   UNL     1      -3.790  23.702  50.962  1.00  0.00     0.094 A 
ATOM     10  C   UNL     1      -3.856  23.188  49.664  1.00  0.00     0.146 A 
ATOM     11  O   UNL     1      -3.403  21.959  49.444  1.00  0.00    -0.452 OA
ENDROOT
BRANCH   1  12
ATOM     12  C   UNL     1      -2.876  20.002  48.139  1.00  0.00     0.025 A 
ATOM     13  C   UNL     1      -3.483  18.944  48.832  1.00  0.00     0.016 A 
ATOM     14  C   UNL     1      -2.957  17.652  48.751  1.00  0.00     0.051 A 
ATOM     15  C   UNL     1      -1.809  17.401  47.992  1.00  0.00     0.157 A 
ATOM     16  C   UNL     1      -1.710  19.753  47.392  1.00  0.00     0.062 A 
ATOM     17  C   UNL     1      -1.180  18.457  47.312  1.00  0.00     0.158 A 
BRANCH  15  18
ATOM     18  O   UNL     1      -1.310  16.101  47.929  1.00  0.00    -0.504 OA
ATOM     19  H   UNL     1      -0.548  15.848  47.311  1.00  0.00     0.293 HD
ENDBRANCH  15  18
BRANCH  17  20
ATOM     20  O   UNL     1      -0.027  18.217  46.565  1.00  0.00    -0.504 OA
ATOM     21  H   UNL     1       0.888  18.502  46.893  1.00  0.00     0.293 HD
ENDBRANCH  17  20
ENDBRANCH   1  12
BRANCH   2  22
ATOM     22  O   UNL     1      -4.149  21.384  45.933  1.00  0.00    -0.502 OA
ATOM     23  H   UNL     1      -4.279  21.887  45.064  1.00  0.00     0.293 HD
ENDBRANCH   2  22
BRANCH   6  24
ATOM     24  O   UNL     1      -5.271  26.196  47.919  1.00  0.00    -0.507 OA
ATOM     25  H   UNL     1      -6.065  26.045  47.316  1.00  0.00     0.293 HD
ENDBRANCH   6  24
BRANCH   8  26
ATOM     26  O   UNL     1      -4.208  25.467  52.545  1.00  0.00    -0.508 OA
ATOM     27  H   UNL     1      -3.742  24.952  53.283  1.00  0.00     0.293 HD
ENDBRANCH   8  26
TORSDOF 6
ENDMDL
MODEL 5
REMARK VINA RESULT:    -7.441      1.579      2.023
REMARK INTER + INTRA:          -8.946
REMARK INTER:                  -8.755
REMARK INTRA:                  -0.191
REMARK UNBOUND:                 0.017
REMARK SMILES O=c1c(O)c(-c2ccc(O)c(O)c2)oc2cc(O)cc(O)c12
REMARK SMILES IDX 5 1 3 2 2 3 1 4 22 5 20 6 19 7 17 8 16 9 15 10 14 11 6 12
REMARK SMILES IDX 7 13 8 14 9 15 13 16 11 17 10 18 12 20 4 22 21 24 18 26
REMARK H PARENT 10 19 12 21 4 23 21 25 18 27
REMARK Flexibility Score: inf
ROOT
ATOM      1  C   UNL     1      -3.224  21.947  48.658  1.00  0.00     0.180 A 
ATOM      2  C   UNL     1      -2.119  22.117  47.806  1.00  0.00     0.208 A 
ATOM      3  C   UNL     1      -1.386  20.988  47.406  1.00  0.00     0.238 A 
ATOM      4  O   UNL     1      -0.365  21.154  46.688  1.00  0.00    -0.285 OA
ATOM      5  C   UNL     1      -1.777  19.702  47.848  1.00  0.00     0.111 A 
ATOM      6  C   UNL     1      -1.133  18.485  47.472  1.00  0.00     0.134 A 
ATOM      7  C   UNL     1      -1.524  17.282  48.073  1.00  0.00     0.093 A 
ATOM      8  C   UNL     1      -2.580  17.244  48.987  1.00  0.00     0.123 A 
ATOM      9  C   UNL     1      -3.254  18.417  49.315  1.00  0.00     0.094 A 
ATOM     10  C   UNL     1      -2.863  19.638  48.759  1.00  0.00     0.146 A 
ATOM     11  O   UNL     1      -3.526  20.735  49.108  1.00  0.00    -0.452 OA
ENDROOT
BRANCH   1  12
ATOM     12  C   UNL     1      -4.060  23.085  49.102  1.00  0.00     0.025 A 
ATOM     13  C   UNL     1      -4.144  23.387  50.470  1.00  0.00     0.016 A 
ATOM     14  C   UNL     1      -4.942  24.445  50.913  1.00  0.00     0.051 A 
ATOM     15  C   UNL     1      -5.680  25.205  50.001  1.00  0.00     0.157 A 
ATOM     16  C   UNL     1      -4.818  23.838  48.187  1.00  0.00     0.062 A 
ATOM     17  C   UNL     1      -5.621  24.899  48.631  1.00  0.00     0.158 A 
BRANCH  15  18
ATOM     18  O   UNL     1      -6.466  26.256  50.473  1.00  0.00    -0.504 OA
ATOM     19  H   UNL     1      -7.014  26.178  51.321  1.00  0.00     0.293 HD
ENDBRANCH  15  18
BRANCH  17  20
ATOM     20  O   UNL     1      -6.366  25.644  47.717  1.00  0.00    -0.504 OA
ATOM     21  H   UNL     1      -6.297  26.653  47.674  1.00  0.00     0.293 HD
ENDBRANCH  17  20
ENDBRANCH   1  12
BRANCH   2  22
ATOM     22  O   UNL     1      -1.736  23.399  47.400  1.00  0.00    -0.502 OA
ATOM     23  H   UNL     1      -0.823  23.785  47.606  1.00  0.00     0.293 HD
ENDBRANCH   2  22
BRANCH   6  24
ATOM     24  O   UNL     1      -0.130  18.401  46.501  1.00  0.00    -0.507 OA
ATOM     25  H   UNL     1       0.145  19.155  45.892  1.00  0.00     0.293 HD
ENDBRANCH   6  24
BRANCH   8  26
ATOM     26  O   UNL     1      -2.973  16.039  49.568  1.00  0.00    -0.508 OA
ATOM     27  H   UNL     1      -3.868  15.615  49.355  1.00  0.00     0.293 HD
ENDBRANCH   8  26
TORSDOF 6
ENDMDL
MODEL 6
REMARK VINA RESULT:    -7.111      2.072      7.104
REMARK INTER + INTRA:          -8.549
REMARK INTER:                  -8.304
REMARK INTRA:                  -0.245
REMARK UNBOUND:                 0.017
REMARK SMILES O=c1c(O)c(-c2ccc(O)c(O)c2)oc2cc(O)cc(O)c12
REMARK SMILES IDX 5 1 3 2 2 3 1 4 22 5 20 6 19 7 17 8 16 9 15 10 14 11 6 12
REMARK SMILES IDX 7 13 8 14 9 15 13 16 11 17 10 18 12 20 4 22 21 24 18 26
REMARK H PARENT 10 19 12 21 4 23 21 25 18 27
REMARK Flexibility Score: inf
ROOT
ATOM      1  C   UNL     1      -3.897  22.957  49.404  1.00  0.00     0.180 A 
ATOM      2  C   UNL     1      -4.964  23.871  49.351  1.00  0.00     0.208 A 
ATOM      3  C   UNL     1      -4.987  24.944  50.257  1.00  0.00     0.238 A 
ATOM      4  O   UNL     1      -5.972  25.727  50.241  1.00  0.00    -0.285 OA
ATOM      5  C   UNL     1      -3.936  25.100  51.192  1.00  0.00     0.111 A 
ATOM      6  C   UNL     1      -3.836  26.172  52.128  1.00  0.00     0.134 A 
ATOM      7  C   UNL     1      -2.821  26.155  53.093  1.00  0.00     0.093 A 
ATOM      8  C   UNL     1      -1.864  25.137  53.113  1.00  0.00     0.123 A 
ATOM      9  C   UNL     1      -1.918  24.118  52.166  1.00  0.00     0.094 A 
ATOM     10  C   UNL     1      -2.940  24.089  51.213  1.00  0.00     0.146 A 
ATOM     11  O   UNL     1      -2.961  23.093  50.335  1.00  0.00    -0.452 OA
ENDROOT
BRANCH   1  12
ATOM     12  C   UNL     1      -3.790  21.815  48.467  1.00  0.00     0.025 A 
ATOM     13  C   UNL     1      -3.928  20.507  48.955  1.00  0.00     0.016 A 
ATOM     14  C   UNL     1      -3.810  19.415  48.091  1.00  0.00     0.051 A 
ATOM     15  C   UNL     1      -3.540  19.611  46.734  1.00  0.00     0.157 A 
ATOM     16  C   UNL     1      -3.497  22.011  47.105  1.00  0.00     0.062 A 
ATOM     17  C   UNL     1      -3.378  20.915  46.238  1.00  0.00     0.158 A 
BRANCH  15  18
ATOM     18  O   UNL     1      -3.431  18.501  45.897  1.00  0.00    -0.504 OA
ATOM     19  H   UNL     1      -2.584  18.299  45.380  1.00  0.00     0.293 HD
ENDBRANCH  15  18
BRANCH  17  20
ATOM     20  O   UNL     1      -3.093  21.118  44.888  1.00  0.00    -0.504 OA
ATOM     21  H   UNL     1      -2.484  20.493  44.374  1.00  0.00     0.293 HD
ENDBRANCH  17  20
ENDBRANCH   1  12
BRANCH   2  22
ATOM     22  O   UNL     1      -6.003  23.686  48.435  1.00  0.00    -0.502 OA
ATOM     23  H   UNL     1      -6.978  23.718  48.706  1.00  0.00     0.293 HD
ENDBRANCH   2  22
BRANCH   6  24
ATOM     24  O   UNL     1      -4.684  27.283  52.135  1.00  0.00    -0.507 OA
ATOM     25  H   UNL     1      -5.303  27.539  51.381  1.00  0.00     0.293 HD
ENDBRANCH   6  24
BRANCH   8  26
ATOM     26  O   UNL     1      -0.848  25.136  54.067  1.00  0.00    -0.508 OA
ATOM     27  H   UNL     1      -0.867  25.763  54.862  1.00  0.00     0.293 HD
ENDBRANCH   8  26
TORSDOF 6
ENDMDL
MODEL 7
REMARK VINA RESULT:    -7.047      1.614      7.222
REMARK INTER + INTRA:          -8.472
REMARK INTER:                  -8.169
REMARK INTRA:                  -0.303
REMARK UNBOUND:                 0.017
REMARK SMILES O=c1c(O)c(-c2ccc(O)c(O)c2)oc2cc(O)cc(O)c12
REMARK SMILES IDX 5 1 3 2 2 3 1 4 22 5 20 6 19 7 17 8 16 9 15 10 14 11 6 12
REMARK SMILES IDX 7 13 8 14 9 15 13 16 11 17 10 18 12 20 4 22 21 24 18 26
REMARK H PARENT 10 19 12 21 4 23 21 25 18 27
REMARK Flexibility Score: inf
ROOT
ATOM      1  C   UNL     1      -3.887  22.409  49.005  1.00  0.00     0.180 A 
ATOM      2  C   UNL     1      -2.942  22.934  49.902  1.00  0.00     0.208 A 
ATOM      3  C   UNL     1      -3.222  24.144  50.557  1.00  0.00     0.238 A 
ATOM      4  O   UNL     1      -2.348  24.637  51.317  1.00  0.00    -0.285 OA
ATOM      5  C   UNL     1      -4.451  24.804  50.320  1.00  0.00     0.111 A 
ATOM      6  C   UNL     1      -4.858  26.014  50.960  1.00  0.00     0.134 A 
ATOM      7  C   UNL     1      -6.039  26.648  50.553  1.00  0.00     0.093 A 
ATOM      8  C   UNL     1      -6.860  26.080  49.575  1.00  0.00     0.123 A 
ATOM      9  C   UNL     1      -6.502  24.870  48.988  1.00  0.00     0.094 A 
ATOM     10  C   UNL     1      -5.311  24.232  49.347  1.00  0.00     0.146 A 
ATOM     11  O   UNL     1      -5.002  23.085  48.755  1.00  0.00    -0.452 OA
ENDROOT
BRANCH   1  12
ATOM     12  C   UNL     1      -3.674  21.126  48.296  1.00  0.00     0.025 A 
ATOM     13  C   UNL     1      -3.317  21.139  46.939  1.00  0.00     0.016 A 
ATOM     14  C   UNL     1      -3.130  19.940  46.246  1.00  0.00     0.051 A 
ATOM     15  C   UNL     1      -3.312  18.713  46.892  1.00  0.00     0.157 A 
ATOM     16  C   UNL     1      -3.877  19.891  48.939  1.00  0.00     0.062 A 
ATOM     17  C   UNL     1      -3.692  18.688  48.244  1.00  0.00     0.158 A 
BRANCH  15  18
ATOM     18  O   UNL     1      -3.116  17.534  46.174  1.00  0.00    -0.504 OA
ATOM     19  H   UNL     1      -3.881  17.042  45.730  1.00  0.00     0.293 HD
ENDBRANCH  15  18
BRANCH  17  20
ATOM     20  O   UNL     1      -3.890  17.468  48.890  1.00  0.00    -0.504 OA
ATOM     21  H   UNL     1      -3.111  16.889  49.181  1.00  0.00     0.293 HD
ENDBRANCH  17  20
ENDBRANCH   1  12
BRANCH   2  22
ATOM     22  O   UNL     1      -1.724  22.278  50.104  1.00  0.00    -0.502 OA
ATOM     23  H   UNL     1      -1.480  21.843  50.986  1.00  0.00     0.293 HD
ENDBRANCH   2  22
BRANCH   6  24
ATOM     24  O   UNL     1      -4.158  26.614  52.011  1.00  0.00    -0.507 OA
ATOM     25  H   UNL     1      -3.787  26.123  52.809  1.00  0.00     0.293 HD
ENDBRANCH   6  24
BRANCH   8  26
ATOM     26  O   UNL     1      -8.041  26.710  49.187  1.00  0.00    -0.508 OA
ATOM     27  H   UNL     1      -8.944  26.395  49.521  1.00  0.00     0.293 HD
ENDBRANCH   8  26
TORSDOF 6
ENDMDL
MODEL 8
REMARK VINA RESULT:    -6.984      2.621      3.185
REMARK INTER + INTRA:          -8.395
REMARK INTER:                  -8.390
REMARK INTRA:                  -0.005
REMARK UNBOUND:                 0.017
REMARK SMILES O=c1c(O)c(-c2ccc(O)c(O)c2)oc2cc(O)cc(O)c12
REMARK SMILES IDX 5 1 3 2 2 3 1 4 22 5 20 6 19 7 17 8 16 9 15 10 14 11 6 12
REMARK SMILES IDX 7 13 8 14 9 15 13 16 11 17 10 18 12 20 4 22 21 24 18 26
REMARK H PARENT 10 19 12 21 4 23 21 25 18 27
REMARK Flexibility Score: inf
ROOT
ATOM      1  C   UNL     1      -3.009  21.840  48.363  1.00  0.00     0.180 A 
ATOM      2  C   UNL     1      -3.447  20.626  47.808  1.00  0.00     0.208 A 
ATOM      3  C   UNL     1      -2.496  19.720  47.311  1.00  0.00     0.238 A 
ATOM      4  O   UNL     1      -2.898  18.660  46.766  1.00  0.00    -0.285 OA
ATOM      5  C   UNL     1      -1.118  20.033  47.390  1.00  0.00     0.111 A 
ATOM      6  C   UNL     1      -0.065  19.173  46.955  1.00  0.00     0.134 A 
ATOM      7  C   UNL     1       1.255  19.639  46.961  1.00  0.00     0.093 A 
ATOM      8  C   UNL     1       1.568  20.911  47.449  1.00  0.00     0.123 A 
ATOM      9  C   UNL     1       0.554  21.735  47.932  1.00  0.00     0.094 A 
ATOM     10  C   UNL     1      -0.777  21.311  47.904  1.00  0.00     0.146 A 
ATOM     11  O   UNL     1      -1.714  22.133  48.364  1.00  0.00    -0.452 OA
ENDROOT
BRANCH   1  12
ATOM     12  C   UNL     1      -3.949  22.834  48.931  1.00  0.00     0.025 A 
ATOM     13  C   UNL     1      -5.012  23.305  48.144  1.00  0.00     0.016 A 
ATOM     14  C   UNL     1      -5.899  24.257  48.653  1.00  0.00     0.051 A 
ATOM     15  C   UNL     1      -5.731  24.763  49.946  1.00  0.00     0.157 A 
ATOM     16  C   UNL     1      -3.769  23.358  50.224  1.00  0.00     0.062 A 
ATOM     17  C   UNL     1      -4.658  24.314  50.734  1.00  0.00     0.158 A 
BRANCH  15  18
ATOM     18  O   UNL     1      -6.635  25.710  50.426  1.00  0.00    -0.504 OA
ATOM     19  H   UNL     1      -7.078  25.618  51.332  1.00  0.00     0.293 HD
ENDBRANCH  15  18
BRANCH  17  20
ATOM     20  O   UNL     1      -4.476  24.825  52.019  1.00  0.00    -0.504 OA
ATOM     21  H   UNL     1      -4.904  24.392  52.829  1.00  0.00     0.293 HD
ENDBRANCH  17  20
ENDBRANCH   1  12
BRANCH   2  22
ATOM     22  O   UNL     1      -4.814  20.347  47.720  1.00  0.00    -0.502 OA
ATOM     23  H   UNL     1      -5.362  20.053  48.518  1.00  0.00     0.293 HD
ENDBRANCH   2  22
BRANCH   6  24
ATOM     24  O   UNL     1      -0.259  17.853  46.537  1.00  0.00    -0.507 OA
ATOM     25  H   UNL     1      -1.156  17.442  46.328  1.00  0.00     0.293 HD
ENDBRANCH   6  24
BRANCH   8  26
ATOM     26  O   UNL     1       2.887  21.360  47.467  1.00  0.00    -0.508 OA
ATOM     27  H   UNL     1       3.547  21.039  48.165  1.00  0.00     0.293 HD
ENDBRANCH   8  26
TORSDOF 6
ENDMDL
MODEL 9
REMARK VINA RESULT:    -6.636      4.776      7.158
REMARK INTER + INTRA:          -7.977
REMARK INTER:                  -7.667
REMARK INTRA:                  -0.309
REMARK UNBOUND:                 0.017
REMARK SMILES O=c1c(O)c(-c2ccc(O)c(O)c2)oc2cc(O)cc(O)c12
REMARK SMILES IDX 5 1 3 2 2 3 1 4 22 5 20 6 19 7 17 8 16 9 15 10 14 11 6 12
REMARK SMILES IDX 7 13 8 14 9 15 13 16 11 17 10 18 12 20 4 22 21 24 18 26
REMARK H PARENT 10 19 12 21 4 23 21 25 18 27
REMARK Flexibility Score: inf
ROOT
ATOM      1  C   UNL     1      -5.918  26.393  49.354  1.00  0.00     0.180 A 
ATOM      2  C   UNL     1      -5.438  25.109  49.043  1.00  0.00     0.208 A 
ATOM      3  C   UNL     1      -4.453  24.533  49.862  1.00  0.00     0.238 A 
ATOM      4  O   UNL     1      -3.988  23.407  49.547  1.00  0.00    -0.285 OA
ATOM      5  C   UNL     1      -3.974  25.240  50.991  1.00  0.00     0.111 A 
ATOM      6  C   UNL     1      -3.008  24.736  51.913  1.00  0.00     0.134 A 
ATOM      7  C   UNL     1      -2.511  25.573  52.920  1.00  0.00     0.093 A 
ATOM      8  C   UNL     1      -2.995  26.875  53.078  1.00  0.00     0.123 A 
ATOM      9  C   UNL     1      -3.981  27.355  52.220  1.00  0.00     0.094 A 
ATOM     10  C   UNL     1      -4.470  26.556  51.183  1.00  0.00     0.146 A 
ATOM     11  O   UNL     1      -5.402  27.057  50.381  1.00  0.00    -0.452 OA
ENDROOT
BRANCH   1  12
ATOM     12  C   UNL     1      -6.973  27.056  48.553  1.00  0.00     0.025 A 
ATOM     13  C   UNL     1      -6.617  28.065  47.644  1.00  0.00     0.016 A 
ATOM     14  C   UNL     1      -7.598  28.717  46.893  1.00  0.00     0.051 A 
ATOM     15  C   UNL     1      -8.947  28.383  47.048  1.00  0.00     0.157 A 
ATOM     16  C   UNL     1      -8.332  26.735  48.723  1.00  0.00     0.062 A 
ATOM     17  C   UNL     1      -9.317  27.390  47.970  1.00  0.00     0.158 A 
BRANCH  15  18
ATOM     18  O   UNL     1      -9.903  29.050  46.282  1.00  0.00    -0.504 OA
ATOM     19  H   UNL     1      -9.960  28.937  45.277  1.00  0.00     0.293 HD
ENDBRANCH  15  18
BRANCH  17  20
ATOM     20  O   UNL     1     -10.662  27.062  48.141  1.00  0.00    -0.504 OA
ATOM     21  H   UNL     1     -11.401  27.713  47.904  1.00  0.00     0.293 HD
ENDBRANCH  17  20
ENDBRANCH   1  12
BRANCH   2  22
ATOM     22  O   UNL     1      -5.908  24.438  47.911  1.00  0.00    -0.502 OA
ATOM     23  H   UNL     1      -6.548  24.865  47.253  1.00  0.00     0.293 HD
ENDBRANCH   2  22
BRANCH   6  24
ATOM     24  O   UNL     1      -2.529  23.423  51.900  1.00  0.00    -0.507 OA
ATOM     25  H   UNL     1      -2.984  22.649  51.441  1.00  0.00     0.293 HD
ENDBRANCH   6  24
BRANCH   8  26
ATOM     26  O   UNL     1      -2.506  27.695  54.092  1.00  0.00    -0.508 OA
ATOM     27  H   UNL     1      -2.275  28.667  53.923  1.00  0.00     0.293 HD
ENDBRANCH   8  26
TORSDOF 6
ENDMDL
