MODEL 1
REMARK VINA RESULT:    -4.820      0.000      0.000
REMARK INTER + INTRA:          -6.686
REMARK INTER:                  -6.229
REMARK INTRA:                  -0.457
REMARK UNBOUND:                -0.457
REMARK SMILES CCO[C@@H]1O[C@@H](CO)[C@H](O)[C@@H](O)[C@@H]1O
REMARK SMILES IDX 4 1 13 2 11 3 9 4 6 5 5 6 3 7 2 8 1 9 14 10 12 12 7 14 8 15
REMARK SMILES IDX 10 17
REMARK H PARENT 14 11 12 13 8 16 10 18
REMARK Flexibility Score: inf
ROOT
ATOM      1  C   UNL     1      36.912   9.803  45.061  1.00  0.00     0.281 C 
ATOM      2  C   UNL     1      36.141   9.105  46.193  1.00  0.00     0.202 C 
ATOM      3  C   UNL     1      35.375   7.888  45.650  1.00  0.00     0.179 C 
ATOM      4  C   UNL     1      36.327   6.985  44.844  1.00  0.00     0.177 C 
ATOM      5  C   UNL     1      37.083   7.830  43.790  1.00  0.00     0.178 C 
ATOM      6  O   UNL     1      37.790   8.891  44.414  1.00  0.00    -0.341 OA
ENDROOT
BRANCH   1   7
ATOM      7  O   UNL     1      36.006  10.396  44.140  1.00  0.00    -0.350 OA
BRANCH   7   8
ATOM      8  C   UNL     1      36.499  11.636  43.667  1.00  0.00     0.160 C 
ATOM      9  C   UNL     1      36.492  12.667  44.790  1.00  0.00     0.035 C 
ENDBRANCH   7   8
ENDBRANCH   1   7
BRANCH   2  10
ATOM     10  O   UNL     1      35.250  10.018  46.781  1.00  0.00    -0.385 OA
ATOM     11  H   UNL     1      34.401   9.964  46.267  1.00  0.00     0.211 HD
ENDBRANCH   2  10
BRANCH   3  12
ATOM     12  O   UNL     1      34.829   7.169  46.726  1.00  0.00    -0.387 OA
ATOM     13  H   UNL     1      33.986   6.758  46.402  1.00  0.00     0.211 HD
ENDBRANCH   3  12
BRANCH   5  14
ATOM     14  C   UNL     1      38.103   6.979  43.019  1.00  0.00     0.191 C 
BRANCH  14  15
ATOM     15  O   UNL     1      37.482   6.313  41.954  1.00  0.00    -0.394 OA
ATOM     16  H   UNL     1      37.301   7.004  41.266  1.00  0.00     0.210 HD
ENDBRANCH  14  15
ENDBRANCH   5  14
BRANCH   4  17
ATOM     17  O   UNL     1      35.584   5.978  44.203  1.00  0.00    -0.387 OA
ATOM     18  H   UNL     1      34.640   6.090  44.486  1.00  0.00     0.211 HD
ENDBRANCH   4  17
TORSDOF 7
ENDMDL
MODEL 2
REMARK VINA RESULT:    -4.724      1.921      4.045
REMARK INTER + INTRA:          -6.562
REMARK INTER:                  -6.317
REMARK INTRA:                  -0.245
REMARK UNBOUND:                -0.457
REMARK SMILES CCO[C@@H]1O[C@@H](CO)[C@H](O)[C@@H](O)[C@@H]1O
REMARK SMILES IDX 4 1 13 2 11 3 9 4 6 5 5 6 3 7 2 8 1 9 14 10 12 12 7 14 8 15
REMARK SMILES IDX 10 17
REMARK H PARENT 14 11 12 13 8 16 10 18
REMARK Flexibility Score: inf
ROOT
ATOM      1  C   UNL     1      37.609   8.404  44.462  1.00  0.00     0.281 C 
ATOM      2  C   UNL     1      36.273   8.879  45.054  1.00  0.00     0.202 C 
ATOM      3  C   UNL     1      36.327  10.384  45.363  1.00  0.00     0.179 C 
ATOM      4  C   UNL     1      36.811  11.157  44.123  1.00  0.00     0.177 C 
ATOM      5  C   UNL     1      38.125  10.530  43.595  1.00  0.00     0.178 C 
ATOM      6  O   UNL     1      37.938   9.154  43.300  1.00  0.00    -0.341 OA
ENDROOT
BRANCH   1   7
ATOM      7  O   UNL     1      38.637   8.481  45.439  1.00  0.00    -0.350 OA
BRANCH   7   8
ATOM      8  C   UNL     1      39.582   7.441  45.268  1.00  0.00     0.160 C 
ATOM      9  C   UNL     1      38.895   6.190  44.732  1.00  0.00     0.035 C 
ENDBRANCH   7   8
ENDBRANCH   1   7
BRANCH   2  10
ATOM     10  O   UNL     1      35.998   8.152  46.225  1.00  0.00    -0.385 OA
ATOM     11  H   UNL     1      36.741   8.336  46.859  1.00  0.00     0.211 HD
ENDBRANCH   2  10
BRANCH   3  12
ATOM     12  O   UNL     1      35.046  10.826  45.732  1.00  0.00    -0.387 OA
ATOM     13  H   UNL     1      35.150  11.741  46.102  1.00  0.00     0.211 HD
ENDBRANCH   3  12
BRANCH   5  14
ATOM     14  C   UNL     1      38.597  11.223  42.309  1.00  0.00     0.191 C 
BRANCH  14  15
ATOM     15  O   UNL     1      38.491  10.354  41.214  1.00  0.00    -0.394 OA
ATOM     16  H   UNL     1      37.641   9.858  41.339  1.00  0.00     0.210 HD
ENDBRANCH  14  15
ENDBRANCH   5  14
BRANCH   4  17
ATOM     17  O   UNL     1      37.031  12.502  44.467  1.00  0.00    -0.387 OA
ATOM     18  H   UNL     1      37.644  12.880  43.785  1.00  0.00     0.211 HD
ENDBRANCH   4  17
TORSDOF 7
ENDMDL
MODEL 3
REMARK VINA RESULT:    -4.696      1.834      3.750
REMARK INTER + INTRA:          -6.526
REMARK INTER:                  -6.255
REMARK INTRA:                  -0.272
REMARK UNBOUND:                -0.457
REMARK SMILES CCO[C@@H]1O[C@@H](CO)[C@H](O)[C@@H](O)[C@@H]1O
REMARK SMILES IDX 4 1 13 2 11 3 9 4 6 5 5 6 3 7 2 8 1 9 14 10 12 12 7 14 8 15
REMARK SMILES IDX 10 17
REMARK H PARENT 14 11 12 13 8 16 10 18
REMARK Flexibility Score: inf
ROOT
ATOM      1  C   UNL     1      37.281  11.587  44.100  1.00  0.00     0.281 C 
ATOM      2  C   UNL     1      37.717  10.650  42.962  1.00  0.00     0.202 C 
ATOM      3  C   UNL     1      38.236   9.320  43.531  1.00  0.00     0.179 C 
ATOM      4  C   UNL     1      37.205   8.731  44.512  1.00  0.00     0.177 C 
ATOM      5  C   UNL     1      36.807   9.801  45.558  1.00  0.00     0.178 C 
ATOM      6  O   UNL     1      36.299  10.962  44.916  1.00  0.00    -0.341 OA
ENDROOT
BRANCH   1   7
ATOM      7  O   UNL     1      38.408  11.997  44.862  1.00  0.00    -0.350 OA
BRANCH   7   8
ATOM      8  C   UNL     1      38.640  13.386  44.721  1.00  0.00     0.160 C 
ATOM      9  C   UNL     1      37.457  14.175  45.268  1.00  0.00     0.035 C 
ENDBRANCH   7   8
ENDBRANCH   1   7
BRANCH   2  10
ATOM     10  O   UNL     1      38.719  11.277  42.202  1.00  0.00    -0.385 OA
ATOM     11  H   UNL     1      39.058  12.038  42.743  1.00  0.00     0.211 HD
ENDBRANCH   2  10
BRANCH   3  12
ATOM     12  O   UNL     1      38.458   8.421  42.474  1.00  0.00    -0.387 OA
ATOM     13  H   UNL     1      37.675   8.489  41.867  1.00  0.00     0.211 HD
ENDBRANCH   3  12
BRANCH   5  14
ATOM     14  C   UNL     1      35.719   9.278  46.506  1.00  0.00     0.191 C 
BRANCH  14  15
ATOM     15  O   UNL     1      35.263   8.021  46.085  1.00  0.00    -0.394 OA
ATOM     16  H   UNL     1      35.937   7.365  46.400  1.00  0.00     0.210 HD
ENDBRANCH  14  15
ENDBRANCH   5  14
BRANCH   4  17
ATOM     17  O   UNL     1      37.762   7.616  45.161  1.00  0.00    -0.387 OA
ATOM     18  H   UNL     1      38.401   7.962  45.837  1.00  0.00     0.211 HD
ENDBRANCH   4  17
TORSDOF 7
ENDMDL
MODEL 4
REMARK VINA RESULT:    -4.601      6.395      8.284
REMARK INTER + INTRA:          -6.403
REMARK INTER:                  -5.999
REMARK INTRA:                  -0.404
REMARK UNBOUND:                -0.457
REMARK SMILES CCO[C@@H]1O[C@@H](CO)[C@H](O)[C@@H](O)[C@@H]1O
REMARK SMILES IDX 4 1 13 2 11 3 9 4 6 5 5 6 3 7 2 8 1 9 14 10 12 12 7 14 8 15
REMARK SMILES IDX 10 17
REMARK H PARENT 14 11 12 13 8 16 10 18
REMARK Flexibility Score: inf
ROOT
ATOM      1  C   UNL     1      36.868   1.596  44.767  1.00  0.00     0.281 C 
ATOM      2  C   UNL     1      37.933   2.139  45.734  1.00  0.00     0.202 C 
ATOM      3  C   UNL     1      37.804   1.462  47.108  1.00  0.00     0.179 C 
ATOM      4  C   UNL     1      37.783  -0.069  46.940  1.00  0.00     0.177 C 
ATOM      5  C   UNL     1      36.716  -0.466  45.891  1.00  0.00     0.178 C 
ATOM      6  O   UNL     1      36.967   0.183  44.653  1.00  0.00    -0.341 OA
ENDROOT
BRANCH   1   7
ATOM      7  O   UNL     1      35.571   1.996  45.186  1.00  0.00    -0.350 OA
BRANCH   7   8
ATOM      8  C   UNL     1      34.863   2.618  44.130  1.00  0.00     0.160 C 
ATOM      9  C   UNL     1      34.496   4.047  44.514  1.00  0.00     0.035 C 
ENDBRANCH   7   8
ENDBRANCH   1   7
BRANCH   2  10
ATOM     10  O   UNL     1      37.780   3.529  45.861  1.00  0.00    -0.385 OA
ATOM     11  H   UNL     1      38.688   3.927  45.789  1.00  0.00     0.211 HD
ENDBRANCH   2  10
BRANCH   3  12
ATOM     12  O   UNL     1      38.892   1.840  47.912  1.00  0.00    -0.387 OA
ATOM     13  H   UNL     1      39.472   1.040  48.009  1.00  0.00     0.211 HD
ENDBRANCH   3  12
BRANCH   5  14
ATOM     14  C   UNL     1      36.720  -1.980  45.634  1.00  0.00     0.191 C 
BRANCH  14  15
ATOM     15  O   UNL     1      35.794  -2.622  46.468  1.00  0.00    -0.394 OA
ATOM     16  H   UNL     1      36.205  -3.490  46.717  1.00  0.00     0.210 HD
ENDBRANCH  14  15
ENDBRANCH   5  14
BRANCH   4  17
ATOM     17  O   UNL     1      37.484  -0.670  48.174  1.00  0.00    -0.387 OA
ATOM     18  H   UNL     1      37.575   0.032  48.869  1.00  0.00     0.211 HD
ENDBRANCH   4  17
TORSDOF 7
ENDMDL
MODEL 5
REMARK VINA RESULT:    -4.531      1.876      4.943
REMARK INTER + INTRA:          -6.313
REMARK INTER:                  -5.951
REMARK INTRA:                  -0.362
REMARK UNBOUND:                -0.457
REMARK SMILES CCO[C@@H]1O[C@@H](CO)[C@H](O)[C@@H](O)[C@@H]1O
REMARK SMILES IDX 4 1 13 2 11 3 9 4 6 5 5 6 3 7 2 8 1 9 14 10 12 12 7 14 8 15
REMARK SMILES IDX 10 17
REMARK H PARENT 14 11 12 13 8 16 10 18
REMARK Flexibility Score: inf
ROOT
ATOM      1  C   UNL     1      36.350   9.109  45.727  1.00  0.00     0.281 C 
ATOM      2  C   UNL     1      37.789   9.575  46.002  1.00  0.00     0.202 C 
ATOM      3  C   UNL     1      38.248  10.566  44.920  1.00  0.00     0.179 C 
ATOM      4  C   UNL     1      37.208  11.691  44.763  1.00  0.00     0.177 C 
ATOM      5  C   UNL     1      35.801  11.079  44.562  1.00  0.00     0.178 C 
ATOM      6  O   UNL     1      35.469  10.222  45.644  1.00  0.00    -0.341 OA
ENDROOT
BRANCH   1   7
ATOM      7  O   UNL     1      36.303   8.320  44.547  1.00  0.00    -0.350 OA
BRANCH   7   8
ATOM      8  C   UNL     1      35.696   7.066  44.797  1.00  0.00     0.160 C 
ATOM      9  C   UNL     1      35.803   6.176  43.564  1.00  0.00     0.035 C 
ENDBRANCH   7   8
ENDBRANCH   1   7
BRANCH   2  10
ATOM     10  O   UNL     1      38.641   8.459  46.032  1.00  0.00    -0.385 OA
ATOM     11  H   UNL     1      38.360   7.861  45.290  1.00  0.00     0.211 HD
ENDBRANCH   2  10
BRANCH   3  12
ATOM     12  O   UNL     1      39.489  11.110  45.290  1.00  0.00    -0.387 OA
ATOM     13  H   UNL     1      39.729  11.781  44.598  1.00  0.00     0.211 HD
ENDBRANCH   3  12
BRANCH   5  14
ATOM     14  C   UNL     1      34.723  12.170  44.482  1.00  0.00     0.191 C 
BRANCH  14  15
ATOM     15  O   UNL     1      35.072  13.265  45.284  1.00  0.00    -0.394 OA
ATOM     16  H   UNL     1      34.644  13.108  46.165  1.00  0.00     0.210 HD
ENDBRANCH  14  15
ENDBRANCH   5  14
BRANCH   4  17
ATOM     17  O   UNL     1      37.544  12.486  43.654  1.00  0.00    -0.387 OA
ATOM     18  H   UNL     1      38.426  12.170  43.326  1.00  0.00     0.211 HD
ENDBRANCH   4  17
TORSDOF 7
ENDMDL
MODEL 6
REMARK VINA RESULT:    -4.529      1.991      2.590
REMARK INTER + INTRA:          -6.310
REMARK INTER:                  -6.015
REMARK INTRA:                  -0.294
REMARK UNBOUND:                -0.457
REMARK SMILES CCO[C@@H]1O[C@@H](CO)[C@H](O)[C@@H](O)[C@@H]1O
REMARK SMILES IDX 4 1 13 2 11 3 9 4 6 5 5 6 3 7 2 8 1 9 14 10 12 12 7 14 8 15
REMARK SMILES IDX 10 17
REMARK H PARENT 14 11 12 13 8 16 10 18
REMARK Flexibility Score: inf
ROOT
ATOM      1  C   UNL     1      37.561  10.501  44.568  1.00  0.00     0.281 C 
ATOM      2  C   UNL     1      37.845   9.178  45.297  1.00  0.00     0.202 C 
ATOM      3  C   UNL     1      37.711   7.992  44.328  1.00  0.00     0.179 C 
ATOM      4  C   UNL     1      38.557   8.246  43.066  1.00  0.00     0.177 C 
ATOM      5  C   UNL     1      38.217   9.637  42.479  1.00  0.00     0.178 C 
ATOM      6  O   UNL     1      38.424  10.654  43.449  1.00  0.00    -0.341 OA
ENDROOT
BRANCH   1   7
ATOM      7  O   UNL     1      36.195  10.570  44.184  1.00  0.00    -0.350 OA
BRANCH   7   8
ATOM      8  C   UNL     1      35.535  11.639  44.837  1.00  0.00     0.160 C 
ATOM      9  C   UNL     1      36.434  12.870  44.870  1.00  0.00     0.035 C 
ENDBRANCH   7   8
ENDBRANCH   1   7
BRANCH   2  10
ATOM     10  O   UNL     1      36.947   9.034  46.367  1.00  0.00    -0.385 OA
ATOM     11  H   UNL     1      37.117   9.789  46.990  1.00  0.00     0.211 HD
ENDBRANCH   2  10
BRANCH   3  12
ATOM     12  O   UNL     1      38.147   6.821  44.969  1.00  0.00    -0.387 OA
ATOM     13  H   UNL     1      39.139   6.822  44.930  1.00  0.00     0.211 HD
ENDBRANCH   3  12
BRANCH   5  14
ATOM     14  C   UNL     1      39.099   9.963  41.266  1.00  0.00     0.191 C 
BRANCH  14  15
ATOM     15  O   UNL     1      38.525   9.459  40.091  1.00  0.00    -0.394 OA
ATOM     16  H   UNL     1      39.269   9.359  39.442  1.00  0.00     0.210 HD
ENDBRANCH  14  15
ENDBRANCH   5  14
BRANCH   4  17
ATOM     17  O   UNL     1      38.287   7.249  42.114  1.00  0.00    -0.387 OA
ATOM     18  H   UNL     1      38.788   7.489  41.292  1.00  0.00     0.211 HD
ENDBRANCH   4  17
TORSDOF 7
ENDMDL
MODEL 7
REMARK VINA RESULT:    -4.379      2.105      3.045
REMARK INTER + INTRA:          -6.116
REMARK INTER:                  -5.717
REMARK INTRA:                  -0.399
REMARK UNBOUND:                -0.457
REMARK SMILES CCO[C@@H]1O[C@@H](CO)[C@H](O)[C@@H](O)[C@@H]1O
REMARK SMILES IDX 4 1 13 2 11 3 9 4 6 5 5 6 3 7 2 8 1 9 14 10 12 12 7 14 8 15
REMARK SMILES IDX 10 17
REMARK H PARENT 14 11 12 13 8 16 10 18
REMARK Flexibility Score: inf
ROOT
ATOM      1  C   UNL     1      38.210  11.270  44.051  1.00  0.00     0.281 C 
ATOM      2  C   UNL     1      36.981  11.621  44.905  1.00  0.00     0.202 C 
ATOM      3  C   UNL     1      36.112  10.374  45.134  1.00  0.00     0.179 C 
ATOM      4  C   UNL     1      36.981   9.219  45.668  1.00  0.00     0.177 C 
ATOM      5  C   UNL     1      38.213   9.023  44.752  1.00  0.00     0.178 C 
ATOM      6  O   UNL     1      38.962  10.226  44.656  1.00  0.00    -0.341 OA
ENDROOT
BRANCH   1   7
ATOM      7  O   UNL     1      37.812  10.927  42.731  1.00  0.00    -0.350 OA
BRANCH   7   8
ATOM      8  C   UNL     1      38.878  11.097  41.816  1.00  0.00     0.160 C 
ATOM      9  C   UNL     1      39.111   9.808  41.035  1.00  0.00     0.035 C 
ENDBRANCH   7   8
ENDBRANCH   1   7
BRANCH   2  10
ATOM     10  O   UNL     1      36.236  12.621  44.259  1.00  0.00    -0.385 OA
ATOM     11  H   UNL     1      36.860  13.370  44.070  1.00  0.00     0.211 HD
ENDBRANCH   2  10
BRANCH   3  12
ATOM     12  O   UNL     1      35.101  10.679  46.059  1.00  0.00    -0.387 OA
ATOM     13  H   UNL     1      34.900   9.844  46.556  1.00  0.00     0.211 HD
ENDBRANCH   3  12
BRANCH   5  14
ATOM     14  C   UNL     1      39.148   7.934  45.297  1.00  0.00     0.191 C 
BRANCH  14  15
ATOM     15  O   UNL     1      38.589   6.664  45.100  1.00  0.00    -0.394 OA
ATOM     16  H   UNL     1      37.750   6.648  45.630  1.00  0.00     0.210 HD
ENDBRANCH  14  15
ENDBRANCH   5  14
BRANCH   4  17
ATOM     17  O   UNL     1      36.220   8.039  45.701  1.00  0.00    -0.387 OA
ATOM     18  H   UNL     1      36.464   7.559  46.534  1.00  0.00     0.211 HD
ENDBRANCH   4  17
TORSDOF 7
ENDMDL
MODEL 8
REMARK VINA RESULT:    -4.273     14.433     15.589
REMARK INTER + INTRA:          -5.980
REMARK INTER:                  -5.498
REMARK INTRA:                  -0.481
REMARK UNBOUND:                -0.457
REMARK SMILES CCO[C@@H]1O[C@@H](CO)[C@H](O)[C@@H](O)[C@@H]1O
REMARK SMILES IDX 4 1 13 2 11 3 9 4 6 5 5 6 3 7 2 8 1 9 14 10 12 12 7 14 8 15
REMARK SMILES IDX 10 17
REMARK H PARENT 14 11 12 13 8 16 10 18
REMARK Flexibility Score: inf
ROOT
ATOM      1  C   UNL     1      23.056   4.447  40.965  1.00  0.00     0.281 C 
ATOM      2  C   UNL     1      22.904   4.762  42.462  1.00  0.00     0.202 C 
ATOM      3  C   UNL     1      21.519   4.324  42.965  1.00  0.00     0.179 C 
ATOM      4  C   UNL     1      21.255   2.859  42.568  1.00  0.00     0.177 C 
ATOM      5  C   UNL     1      21.511   2.673  41.053  1.00  0.00     0.178 C 
ATOM      6  O   UNL     1      22.834   3.064  40.718  1.00  0.00    -0.341 OA
ENDROOT
BRANCH   1   7
ATOM      7  O   UNL     1      22.179   5.260  40.198  1.00  0.00    -0.350 OA
BRANCH   7   8
ATOM      8  C   UNL     1      22.758   5.600  38.952  1.00  0.00     0.160 C 
ATOM      9  C   UNL     1      24.119   6.252  39.166  1.00  0.00     0.035 C 
ENDBRANCH   7   8
ENDBRANCH   1   7
BRANCH   2  10
ATOM     10  O   UNL     1      23.082   6.140  42.668  1.00  0.00    -0.385 OA
ATOM     11  H   UNL     1      22.183   6.558  42.617  1.00  0.00     0.211 HD
ENDBRANCH   2  10
BRANCH   3  12
ATOM     12  O   UNL     1      21.473   4.457  44.363  1.00  0.00    -0.387 OA
ATOM     13  H   UNL     1      22.378   4.739  44.657  1.00  0.00     0.211 HD
ENDBRANCH   3  12
BRANCH   5  14
ATOM     14  C   UNL     1      21.337   1.207  40.632  1.00  0.00     0.191 C 
BRANCH  14  15
ATOM     15  O   UNL     1      21.499   0.357  41.736  1.00  0.00    -0.394 OA
ATOM     16  H   UNL     1      20.669  -0.184  41.789  1.00  0.00     0.210 HD
ENDBRANCH  14  15
ENDBRANCH   5  14
BRANCH   4  17
ATOM     17  O   UNL     1      19.924   2.527  42.870  1.00  0.00    -0.387 OA
ATOM     18  H   UNL     1      19.695   1.726  42.330  1.00  0.00     0.211 HD
ENDBRANCH   4  17
TORSDOF 7
ENDMDL
MODEL 9
REMARK VINA RESULT:    -4.245     15.614     17.156
REMARK INTER + INTRA:          -5.942
REMARK INTER:                  -5.585
REMARK INTRA:                  -0.357
REMARK UNBOUND:                -0.457
REMARK SMILES CCO[C@@H]1O[C@@H](CO)[C@H](O)[C@@H](O)[C@@H]1O
REMARK SMILES IDX 4 1 13 2 11 3 9 4 6 5 5 6 3 7 2 8 1 9 14 10 12 12 7 14 8 15
REMARK SMILES IDX 10 17
REMARK H PARENT 14 11 12 13 8 16 10 18
REMARK Flexibility Score: inf
ROOT
ATOM      1  C   UNL     1      20.731   1.892  40.195  1.00  0.00     0.281 C 
ATOM      2  C   UNL     1      20.897   1.958  41.722  1.00  0.00     0.202 C 
ATOM      3  C   UNL     1      21.855   3.097  42.108  1.00  0.00     0.179 C 
ATOM      4  C   UNL     1      21.412   4.409  41.434  1.00  0.00     0.177 C 
ATOM      5  C   UNL     1      21.218   4.178  39.916  1.00  0.00     0.178 C 
ATOM      6  O   UNL     1      20.278   3.139  39.684  1.00  0.00    -0.341 OA
ENDROOT
BRANCH   1   7
ATOM      7  O   UNL     1      21.948   1.490  39.583  1.00  0.00    -0.350 OA
BRANCH   7   8
ATOM      8  C   UNL     1      21.796   0.256  38.908  1.00  0.00     0.160 C 
ATOM      9  C   UNL     1      22.845  -0.740  39.390  1.00  0.00     0.035 C 
ENDBRANCH   7   8
ENDBRANCH   1   7
BRANCH   2  10
ATOM     10  O   UNL     1      21.389   0.729  42.190  1.00  0.00    -0.385 OA
ATOM     11  H   UNL     1      21.852   0.293  41.426  1.00  0.00     0.211 HD
ENDBRANCH   2  10
BRANCH   3  12
ATOM     12  O   UNL     1      21.850   3.250  43.504  1.00  0.00    -0.387 OA
ATOM     13  H   UNL     1      22.288   2.445  43.886  1.00  0.00     0.211 HD
ENDBRANCH   3  12
BRANCH   5  14
ATOM     14  C   UNL     1      20.696   5.443  39.220  1.00  0.00     0.191 C 
BRANCH  14  15
ATOM     15  O   UNL     1      19.912   6.201  40.102  1.00  0.00    -0.394 OA
ATOM     16  H   UNL     1      19.150   6.542  39.567  1.00  0.00     0.210 HD
ENDBRANCH  14  15
ENDBRANCH   5  14
BRANCH   4  17
ATOM     17  O   UNL     1      22.390   5.395  41.645  1.00  0.00    -0.387 OA
ATOM     18  H   UNL     1      22.506   5.484  42.626  1.00  0.00     0.211 HD
ENDBRANCH   4  17
TORSDOF 7
ENDMDL
