MODEL 1
REMARK VINA RESULT:    73.414      0.000      0.000
REMARK INTER + INTRA:         104.844
REMARK INTER:                 105.602
REMARK INTRA:                  -0.758
REMARK UNBOUND:                -0.758
REMARK SMILES O=c1cc(-c2ccc(O)c(O)c2)oc2cc(O[C@@H]3O[C@@H](CO)[C@@H](O)[C@H](O)[C@H]3O)cc(O)c12
REMARK SMILES IDX 17 1 16 2 4 3 3 4 13 5 2 6 14 7 1 8 32 9 15 10 30 11 29 12
REMARK SMILES IDX 5 13 6 14 7 15 8 16 12 17 10 18 9 19 11 21 31 23 18 25 27 26
REMARK SMILES IDX 19 27 25 28 20 29 23 30 28 31 26 33 21 35 22 36 24 38
REMARK H PARENT 9 20 11 22 31 24 28 32 26 34 22 37 24 39
REMARK Flexibility Score: inf
ROOT
ATOM      1  O   UNL     1     -34.884  29.838 -18.701  1.00  0.00    -0.462 OA
ENDROOT
BRANCH   1   2
ATOM      2  C   UNL     1     -35.818  29.162 -19.505  1.00  0.00     0.130 A 
ATOM      3  C   UNL     1     -40.067  29.400 -21.649  1.00  0.00     0.138 A 
ATOM      4  C   UNL     1     -39.907  28.150 -22.262  1.00  0.00     0.100 A 
ATOM      5  O   UNL     1     -39.098  29.873 -20.872  1.00  0.00    -0.456 OA
ATOM      6  C   UNL     1     -38.748  27.410 -22.028  1.00  0.00     0.197 A 
ATOM      7  C   UNL     1     -37.979  29.206 -20.610  1.00  0.00     0.146 A 
ATOM      8  O   UNL     1     -38.603  26.321 -22.642  1.00  0.00    -0.289 OA
ATOM      9  C   UNL     1     -37.759  27.912 -21.147  1.00  0.00     0.107 A 
ATOM     10  C   UNL     1     -37.016  29.810 -19.799  1.00  0.00     0.094 A 
ATOM     11  C   UNL     1     -36.560  27.225 -20.798  1.00  0.00     0.134 A 
ATOM     12  C   UNL     1     -35.598  27.870 -20.009  1.00  0.00     0.093 A 
BRANCH   3  13
ATOM     13  C   UNL     1     -41.281  30.227 -21.861  1.00  0.00     0.021 A 
ATOM     14  C   UNL     1     -41.490  30.840 -23.109  1.00  0.00     0.016 A 
ATOM     15  C   UNL     1     -42.621  31.631 -23.332  1.00  0.00     0.051 A 
ATOM     16  C   UNL     1     -43.557  31.830 -22.309  1.00  0.00     0.157 A 
ATOM     17  C   UNL     1     -42.220  30.442 -20.833  1.00  0.00     0.062 A 
ATOM     18  C   UNL     1     -43.354  31.237 -21.057  1.00  0.00     0.158 A 
BRANCH  16  19
ATOM     19  O   UNL     1     -44.686  32.615 -22.527  1.00  0.00    -0.504 OA
ATOM     20  H   UNL     1     -45.014  32.823 -23.464  1.00  0.00     0.293 HD
ENDBRANCH  16  19
BRANCH  18  21
ATOM     21  O   UNL     1     -44.281  31.447 -20.037  1.00  0.00    -0.504 OA
ATOM     22  H   UNL     1     -44.449  32.370 -19.655  1.00  0.00     0.293 HD
ENDBRANCH  18  21
ENDBRANCH   3  13
BRANCH  11  23
ATOM     23  O   UNL     1     -36.277  25.909 -21.173  1.00  0.00    -0.507 OA
ATOM     24  H   UNL     1     -35.781  25.241 -20.602  1.00  0.00     0.293 HD
ENDBRANCH  11  23
ENDBRANCH   1   2
BRANCH   1  25
ATOM     25  C   UNL     1     -33.609  29.336 -18.291  1.00  0.00     0.339 C 
ATOM     26  C   UNL     1     -32.491  29.969 -19.174  1.00  0.00     0.214 C 
ATOM     27  O   UNL     1     -33.463  29.639 -16.912  1.00  0.00    -0.332 OA
ATOM     28  C   UNL     1     -31.537  30.840 -18.339  1.00  0.00     0.180 C 
ATOM     29  C   UNL     1     -32.180  29.322 -16.388  1.00  0.00     0.179 C 
ATOM     30  C   UNL     1     -31.012  30.045 -17.132  1.00  0.00     0.177 C 
BRANCH  26  31
ATOM     31  O   UNL     1     -31.769  28.945 -19.813  1.00  0.00    -0.384 OA
ATOM     32  H   UNL     1     -32.432  28.280 -20.135  1.00  0.00     0.211 HD
ENDBRANCH  26  31
BRANCH  28  33
ATOM     33  O   UNL     1     -32.207  31.989 -17.883  1.00  0.00    -0.387 OA
ATOM     34  H   UNL     1     -31.511  32.632 -17.587  1.00  0.00     0.211 HD
ENDBRANCH  28  33
BRANCH  29  35
ATOM     35  C   UNL     1     -31.996  27.804 -16.147  1.00  0.00     0.191 C 
BRANCH  35  36
ATOM     36  O   UNL     1     -30.728  27.508 -15.629  1.00  0.00    -0.394 OA
ATOM     37  H   UNL     1     -30.386  28.353 -15.237  1.00  0.00     0.210 HD
ENDBRANCH  35  36
ENDBRANCH  29  35
BRANCH  30  38
ATOM     38  O   UNL     1     -30.024  29.134 -17.546  1.00  0.00    -0.387 OA
ATOM     39  H   UNL     1     -29.228  29.666 -17.810  1.00  0.00     0.211 HD
ENDBRANCH  30  38
ENDBRANCH   1  25
TORSDOF 11
ENDMDL
MODEL 2
REMARK VINA RESULT:    74.824      3.536      6.342
REMARK INTER + INTRA:         106.872
REMARK INTER:                 107.577
REMARK INTRA:                  -0.705
REMARK UNBOUND:                -0.758
REMARK SMILES O=c1cc(-c2ccc(O)c(O)c2)oc2cc(O[C@@H]3O[C@@H](CO)[C@@H](O)[C@H](O)[C@H]3O)cc(O)c12
REMARK SMILES IDX 17 1 16 2 4 3 3 4 13 5 2 6 14 7 1 8 32 9 15 10 30 11 29 12
REMARK SMILES IDX 5 13 6 14 7 15 8 16 12 17 10 18 9 19 11 21 31 23 18 25 27 26
REMARK SMILES IDX 19 27 25 28 20 29 23 30 28 31 26 33 21 35 22 36 24 38
REMARK H PARENT 9 20 11 22 31 24 28 32 26 34 22 37 24 39
REMARK Flexibility Score: inf
ROOT
ATOM      1  O   UNL     1     -37.847  24.242 -21.503  1.00  0.00    -0.462 OA
ENDROOT
BRANCH   1   2
ATOM      2  C   UNL     1     -37.803  25.636 -21.333  1.00  0.00     0.130 A 
ATOM      3  C   UNL     1     -40.249  29.716 -21.611  1.00  0.00     0.138 A 
ATOM      4  C   UNL     1     -39.186  30.471 -21.097  1.00  0.00     0.100 A 
ATOM      5  O   UNL     1     -40.105  28.403 -21.756  1.00  0.00    -0.456 OA
ATOM      6  C   UNL     1     -37.986  29.839 -20.770  1.00  0.00     0.197 A 
ATOM      7  C   UNL     1     -38.982  27.754 -21.468  1.00  0.00     0.146 A 
ATOM      8  O   UNL     1     -37.072  30.531 -20.250  1.00  0.00    -0.289 OA
ATOM      9  C   UNL     1     -37.840  28.449 -20.992  1.00  0.00     0.107 A 
ATOM     10  C   UNL     1     -38.950  26.368 -21.635  1.00  0.00     0.094 A 
ATOM     11  C   UNL     1     -36.649  27.707 -20.739  1.00  0.00     0.134 A 
ATOM     12  C   UNL     1     -36.657  26.314 -20.885  1.00  0.00     0.093 A 
BRANCH   3  13
ATOM     13  C   UNL     1     -41.546  30.338 -21.978  1.00  0.00     0.021 A 
ATOM     14  C   UNL     1     -41.924  30.402 -23.331  1.00  0.00     0.016 A 
ATOM     15  C   UNL     1     -43.136  30.989 -23.704  1.00  0.00     0.051 A 
ATOM     16  C   UNL     1     -43.986  31.532 -22.732  1.00  0.00     0.157 A 
ATOM     17  C   UNL     1     -42.400  30.898 -21.008  1.00  0.00     0.062 A 
ATOM     18  C   UNL     1     -43.615  31.489 -21.383  1.00  0.00     0.158 A 
BRANCH  16  19
ATOM     19  O   UNL     1     -45.195  32.117 -23.099  1.00  0.00    -0.504 OA
ATOM     20  H   UNL     1     -45.236  33.053 -23.487  1.00  0.00     0.293 HD
ENDBRANCH  16  19
BRANCH  18  21
ATOM     21  O   UNL     1     -44.459  32.041 -20.419  1.00  0.00    -0.504 OA
ATOM     22  H   UNL     1     -44.811  31.489 -19.645  1.00  0.00     0.293 HD
ENDBRANCH  18  21
ENDBRANCH   3  13
BRANCH  11  23
ATOM     23  O   UNL     1     -35.432  28.288 -20.374  1.00  0.00    -0.507 OA
ATOM     24  H   UNL     1     -34.695  27.815 -19.873  1.00  0.00     0.293 HD
ENDBRANCH  11  23
ENDBRANCH   1   2
BRANCH   1  25
ATOM     25  C   UNL     1     -38.458  23.305 -20.611  1.00  0.00     0.339 C 
ATOM     26  C   UNL     1     -37.431  22.195 -20.238  1.00  0.00     0.214 C 
ATOM     27  O   UNL     1     -38.917  24.036 -19.485  1.00  0.00    -0.332 OA
ATOM     28  C   UNL     1     -37.101  22.212 -18.735  1.00  0.00     0.180 C 
ATOM     29  C   UNL     1     -39.430  23.218 -18.441  1.00  0.00     0.179 C 
ATOM     30  C   UNL     1     -38.397  22.175 -17.908  1.00  0.00     0.177 C 
BRANCH  26  31
ATOM     31  O   UNL     1     -37.950  20.939 -20.599  1.00  0.00    -0.384 OA
ATOM     32  H   UNL     1     -37.788  20.828 -21.573  1.00  0.00     0.211 HD
ENDBRANCH  26  31
BRANCH  28  33
ATOM     33  O   UNL     1     -36.376  23.373 -18.414  1.00  0.00    -0.387 OA
ATOM     34  H   UNL     1     -36.792  24.122 -18.916  1.00  0.00     0.211 HD
ENDBRANCH  28  33
BRANCH  29  35
ATOM     35  C   UNL     1     -40.845  22.674 -18.754  1.00  0.00     0.191 C 
BRANCH  35  36
ATOM     36  O   UNL     1     -41.808  23.191 -17.877  1.00  0.00    -0.394 OA
ATOM     37  H   UNL     1     -42.322  22.411 -17.541  1.00  0.00     0.210 HD
ENDBRANCH  35  36
ENDBRANCH  29  35
BRANCH  30  38
ATOM     38  O   UNL     1     -38.933  20.875 -17.906  1.00  0.00    -0.387 OA
ATOM     39  H   UNL     1     -39.554  20.816 -17.134  1.00  0.00     0.211 HD
ENDBRANCH  30  38
ENDBRANCH   1  25
TORSDOF 11
ENDMDL
