MODEL 1
REMARK VINA RESULT:    -4.660      0.000      0.000
REMARK INTER + INTRA:          -4.660
REMARK INTER:                  -4.660
REMARK INTRA:                   0.000
REMARK UNBOUND:                 0.000
REMARK SMILES CC(C)=C1CC[C@@H](C)CC1=O
REMARK SMILES IDX 8 1 7 2 6 3 5 4 4 5 2 6 1 7 3 8 10 9 11 10 9 11
REMARK H PARENT
REMARK Flexibility Score: inf
ROOT
ATOM      1  C   UNL     1      15.086 -21.759  25.509  1.00  0.00     0.008 C 
ATOM      2  C   UNL     1      16.206 -21.535  24.487  1.00  0.00    -0.006 C 
ATOM      3  C   UNL     1      17.569 -21.916  25.086  1.00  0.00     0.008 C 
ATOM      4  C   UNL     1      18.689 -21.796  24.044  1.00  0.00     0.039 C 
ATOM      5  C   UNL     1      18.710 -20.433  23.364  1.00  0.00    -0.006 C 
ATOM      6  C   UNL     1      19.878 -19.871  22.935  1.00  0.00    -0.070 C 
ATOM      7  C   UNL     1      19.918 -18.495  22.310  1.00  0.00     0.039 C 
ATOM      8  C   UNL     1      21.199 -20.587  23.103  1.00  0.00     0.039 C 
ATOM      9  C   UNL     1      17.377 -19.815  23.094  1.00  0.00     0.159 C 
ATOM     10  O   UNL     1      17.189 -19.079  22.089  1.00  0.00    -0.295 OA
ATOM     11  C   UNL     1      16.227 -20.071  24.024  1.00  0.00     0.084 C 
ENDROOT
TORSDOF 0
ENDMDL
MODEL 2
REMARK VINA RESULT:    -4.648      1.498      4.082
REMARK INTER + INTRA:          -4.648
REMARK INTER:                  -4.648
REMARK INTRA:                   0.000
REMARK UNBOUND:                 0.000
REMARK SMILES CC(C)=C1CC[C@@H](C)CC1=O
REMARK SMILES IDX 8 1 7 2 6 3 5 4 4 5 2 6 1 7 3 8 10 9 11 10 9 11
REMARK H PARENT
REMARK Flexibility Score: inf
ROOT
ATOM      1  C   UNL     1      22.771 -22.719  23.629  1.00  0.00     0.008 C 
ATOM      2  C   UNL     1      21.512 -21.908  23.957  1.00  0.00    -0.006 C 
ATOM      3  C   UNL     1      20.283 -22.827  24.042  1.00  0.00     0.008 C 
ATOM      4  C   UNL     1      19.032 -22.047  24.469  1.00  0.00     0.039 C 
ATOM      5  C   UNL     1      18.785 -20.819  23.603  1.00  0.00    -0.006 C 
ATOM      6  C   UNL     1      17.520 -20.372  23.350  1.00  0.00    -0.070 C 
ATOM      7  C   UNL     1      17.260 -19.188  22.445  1.00  0.00     0.039 C 
ATOM      8  C   UNL     1      16.312 -21.067  23.934  1.00  0.00     0.039 C 
ATOM      9  C   UNL     1      20.002 -20.079  23.152  1.00  0.00     0.159 C 
ATOM     10  O   UNL     1      19.984 -18.831  22.985  1.00  0.00    -0.295 OA
ATOM     11  C   UNL     1      21.282 -20.821  22.896  1.00  0.00     0.084 C 
ENDROOT
TORSDOF 0
ENDMDL
MODEL 3
REMARK VINA RESULT:    -4.617      1.668      2.535
REMARK INTER + INTRA:          -4.617
REMARK INTER:                  -4.617
REMARK INTRA:                   0.000
REMARK UNBOUND:                 0.000
REMARK SMILES CC(C)=C1CC[C@@H](C)CC1=O
REMARK SMILES IDX 8 1 7 2 6 3 5 4 4 5 2 6 1 7 3 8 10 9 11 10 9 11
REMARK H PARENT
REMARK Flexibility Score: inf
ROOT
ATOM      1  C   UNL     1      14.066 -21.481  23.269  1.00  0.00     0.008 C 
ATOM      2  C   UNL     1      15.431 -20.868  23.599  1.00  0.00    -0.006 C 
ATOM      3  C   UNL     1      15.864 -19.885  22.500  1.00  0.00     0.008 C 
ATOM      4  C   UNL     1      17.181 -19.186  22.864  1.00  0.00     0.039 C 
ATOM      5  C   UNL     1      18.282 -20.170  23.234  1.00  0.00    -0.006 C 
ATOM      6  C   UNL     1      19.594 -19.898  22.973  1.00  0.00    -0.070 C 
ATOM      7  C   UNL     1      20.690 -20.892  23.284  1.00  0.00     0.039 C 
ATOM      8  C   UNL     1      20.011 -18.600  22.321  1.00  0.00     0.039 C 
ATOM      9  C   UNL     1      17.851 -21.380  23.996  1.00  0.00     0.159 C 
ATOM     10  O   UNL     1      18.607 -21.924  24.844  1.00  0.00    -0.295 OA
ATOM     11  C   UNL     1      16.489 -21.969  23.764  1.00  0.00     0.084 C 
ENDROOT
TORSDOF 0
ENDMDL
MODEL 4
REMARK VINA RESULT:    -4.604      1.834      4.122
REMARK INTER + INTRA:          -4.604
REMARK INTER:                  -4.604
REMARK INTRA:                   0.000
REMARK UNBOUND:                 0.000
REMARK SMILES CC(C)=C1CC[C@@H](C)CC1=O
REMARK SMILES IDX 8 1 7 2 6 3 5 4 4 5 2 6 1 7 3 8 10 9 11 10 9 11
REMARK H PARENT
REMARK Flexibility Score: inf
ROOT
ATOM      1  C   UNL     1      20.244 -18.090  21.581  1.00  0.00     0.008 C 
ATOM      2  C   UNL     1      20.002 -19.124  22.685  1.00  0.00    -0.006 C 
ATOM      3  C   UNL     1      21.012 -20.278  22.578  1.00  0.00     0.008 C 
ATOM      4  C   UNL     1      20.849 -21.271  23.737  1.00  0.00     0.039 C 
ATOM      5  C   UNL     1      19.416 -21.761  23.889  1.00  0.00    -0.006 C 
ATOM      6  C   UNL     1      19.140 -23.018  24.346  1.00  0.00    -0.070 C 
ATOM      7  C   UNL     1      17.723 -23.536  24.447  1.00  0.00     0.039 C 
ATOM      8  C   UNL     1      20.248 -23.970  24.738  1.00  0.00     0.039 C 
ATOM      9  C   UNL     1      18.346 -20.754  23.621  1.00  0.00     0.159 C 
ATOM     10  O   UNL     1      17.249 -20.785  24.239  1.00  0.00    -0.295 OA
ATOM     11  C   UNL     1      18.569 -19.672  22.604  1.00  0.00     0.084 C 
ENDROOT
TORSDOF 0
ENDMDL
MODEL 5
REMARK VINA RESULT:    -4.566      1.774      2.985
REMARK INTER + INTRA:          -4.566
REMARK INTER:                  -4.566
REMARK INTRA:                   0.000
REMARK UNBOUND:                 0.000
REMARK SMILES CC(C)=C1CC[C@@H](C)CC1=O
REMARK SMILES IDX 8 1 7 2 6 3 5 4 4 5 2 6 1 7 3 8 10 9 11 10 9 11
REMARK H PARENT
REMARK Flexibility Score: inf
ROOT
ATOM      1  C   UNL     1      15.139 -18.715  22.303  1.00  0.00     0.008 C 
ATOM      2  C   UNL     1      16.424 -19.167  23.005  1.00  0.00    -0.006 C 
ATOM      3  C   UNL     1      17.647 -18.924  22.106  1.00  0.00     0.008 C 
ATOM      4  C   UNL     1      18.952 -19.277  22.833  1.00  0.00     0.039 C 
ATOM      5  C   UNL     1      18.930 -20.681  23.423  1.00  0.00    -0.006 C 
ATOM      6  C   UNL     1      20.070 -21.426  23.523  1.00  0.00    -0.070 C 
ATOM      7  C   UNL     1      20.052 -22.841  24.054  1.00  0.00     0.039 C 
ATOM      8  C   UNL     1      21.405 -20.882  23.068  1.00  0.00     0.039 C 
ATOM      9  C   UNL     1      17.623 -21.136  23.984  1.00  0.00     0.159 C 
ATOM     10  O   UNL     1      17.572 -21.919  24.969  1.00  0.00    -0.295 OA
ATOM     11  C   UNL     1      16.336 -20.655  23.380  1.00  0.00     0.084 C 
ENDROOT
TORSDOF 0
ENDMDL
MODEL 6
REMARK VINA RESULT:    -4.563      2.072      3.709
REMARK INTER + INTRA:          -4.563
REMARK INTER:                  -4.563
REMARK INTRA:                   0.000
REMARK UNBOUND:                 0.000
REMARK SMILES CC(C)=C1CC[C@@H](C)CC1=O
REMARK SMILES IDX 8 1 7 2 6 3 5 4 4 5 2 6 1 7 3 8 10 9 11 10 9 11
REMARK H PARENT
REMARK Flexibility Score: inf
ROOT
ATOM      1  C   UNL     1      21.675 -23.851  25.508  1.00  0.00     0.008 C 
ATOM      2  C   UNL     1      21.035 -22.993  24.412  1.00  0.00    -0.006 C 
ATOM      3  C   UNL     1      21.810 -21.677  24.233  1.00  0.00     0.008 C 
ATOM      4  C   UNL     1      21.245 -20.852  23.069  1.00  0.00     0.039 C 
ATOM      5  C   UNL     1      19.742 -20.634  23.184  1.00  0.00    -0.006 C 
ATOM      6  C   UNL     1      19.151 -19.497  22.711  1.00  0.00    -0.070 C 
ATOM      7  C   UNL     1      17.669 -19.244  22.870  1.00  0.00     0.039 C 
ATOM      8  C   UNL     1      19.963 -18.414  22.038  1.00  0.00     0.039 C 
ATOM      9  C   UNL     1      18.953 -21.777  23.732  1.00  0.00     0.159 C 
ATOM     10  O   UNL     1      17.773 -22.000  23.353  1.00  0.00    -0.295 OA
ATOM     11  C   UNL     1      19.567 -22.695  24.750  1.00  0.00     0.084 C 
ENDROOT
TORSDOF 0
ENDMDL
MODEL 7
REMARK VINA RESULT:    -4.562     11.070     11.463
REMARK INTER + INTRA:          -4.562
REMARK INTER:                  -4.562
REMARK INTRA:                   0.000
REMARK UNBOUND:                 0.000
REMARK SMILES CC(C)=C1CC[C@@H](C)CC1=O
REMARK SMILES IDX 8 1 7 2 6 3 5 4 4 5 2 6 1 7 3 8 10 9 11 10 9 11
REMARK H PARENT
REMARK Flexibility Score: inf
ROOT
ATOM      1  C   UNL     1       6.972 -20.874  21.668  1.00  0.00     0.008 C 
ATOM      2  C   UNL     1       6.743 -19.551  22.406  1.00  0.00    -0.006 C 
ATOM      3  C   UNL     1       7.429 -18.392  21.667  1.00  0.00     0.008 C 
ATOM      4  C   UNL     1       7.124 -17.045  22.336  1.00  0.00     0.039 C 
ATOM      5  C   UNL     1       7.434 -17.051  23.828  1.00  0.00    -0.006 C 
ATOM      6  C   UNL     1       7.854 -15.922  24.470  1.00  0.00    -0.070 C 
ATOM      7  C   UNL     1       8.219 -15.930  25.937  1.00  0.00     0.039 C 
ATOM      8  C   UNL     1       8.014 -14.613  23.731  1.00  0.00     0.039 C 
ATOM      9  C   UNL     1       7.139 -18.323  24.553  1.00  0.00     0.159 C 
ATOM     10  O   UNL     1       6.770 -18.319  25.758  1.00  0.00    -0.295 OA
ATOM     11  C   UNL     1       7.271 -19.641  23.846  1.00  0.00     0.084 C 
ENDROOT
TORSDOF 0
ENDMDL
MODEL 8
REMARK VINA RESULT:    -4.541      1.607      4.321
REMARK INTER + INTRA:          -4.541
REMARK INTER:                  -4.541
REMARK INTRA:                   0.000
REMARK UNBOUND:                 0.000
REMARK SMILES CC(C)=C1CC[C@@H](C)CC1=O
REMARK SMILES IDX 8 1 7 2 6 3 5 4 4 5 2 6 1 7 3 8 10 9 11 10 9 11
REMARK H PARENT
REMARK Flexibility Score: inf
ROOT
ATOM      1  C   UNL     1      21.387 -20.630  23.608  1.00  0.00     0.008 C 
ATOM      2  C   UNL     1      19.970 -20.521  23.034  1.00  0.00    -0.006 C 
ATOM      3  C   UNL     1      19.530 -19.050  22.954  1.00  0.00     0.008 C 
ATOM      4  C   UNL     1      18.155 -18.915  22.287  1.00  0.00     0.039 C 
ATOM      5  C   UNL     1      17.102 -19.806  22.933  1.00  0.00    -0.006 C 
ATOM      6  C   UNL     1      15.790 -19.433  22.982  1.00  0.00    -0.070 C 
ATOM      7  C   UNL     1      14.746 -20.283  23.672  1.00  0.00     0.039 C 
ATOM      8  C   UNL     1      15.323 -18.127  22.381  1.00  0.00     0.039 C 
ATOM      9  C   UNL     1      17.572 -21.146  23.398  1.00  0.00     0.159 C 
ATOM     10  O   UNL     1      16.811 -22.149  23.377  1.00  0.00    -0.295 OA
ATOM     11  C   UNL     1      18.978 -21.319  23.893  1.00  0.00     0.084 C 
ENDROOT
TORSDOF 0
ENDMDL
MODEL 9
REMARK VINA RESULT:    -4.446     10.630     11.107
REMARK INTER + INTRA:          -4.446
REMARK INTER:                  -4.446
REMARK INTRA:                   0.000
REMARK UNBOUND:                 0.000
REMARK SMILES CC(C)=C1CC[C@@H](C)CC1=O
REMARK SMILES IDX 8 1 7 2 6 3 5 4 4 5 2 6 1 7 3 8 10 9 11 10 9 11
REMARK H PARENT
REMARK Flexibility Score: inf
ROOT
ATOM      1  C   UNL     1       6.926 -16.730  24.004  1.00  0.00     0.008 C 
ATOM      2  C   UNL     1       6.757 -17.877  23.003  1.00  0.00    -0.006 C 
ATOM      3  C   UNL     1       7.212 -19.208  23.622  1.00  0.00     0.008 C 
ATOM      4  C   UNL     1       6.955 -20.384  22.669  1.00  0.00     0.039 C 
ATOM      5  C   UNL     1       7.545 -20.152  21.284  1.00  0.00    -0.006 C 
ATOM      6  C   UNL     1       8.006 -21.190  20.527  1.00  0.00    -0.070 C 
ATOM      7  C   UNL     1       8.646 -20.967  19.175  1.00  0.00     0.039 C 
ATOM      8  C   UNL     1       7.936 -22.616  21.025  1.00  0.00     0.039 C 
ATOM      9  C   UNL     1       7.478 -18.752  20.769  1.00  0.00     0.159 C 
ATOM     10  O   UNL     1       7.348 -18.513  19.539  1.00  0.00    -0.295 OA
ATOM     11  C   UNL     1       7.557 -17.595  21.722  1.00  0.00     0.084 C 
ENDROOT
TORSDOF 0
ENDMDL
