MODEL 1
REMARK VINA RESULT:    -4.021      0.000      0.000
REMARK INTER + INTRA:          -8.843
REMARK INTER:                  -7.077
REMARK INTRA:                  -1.765
REMARK UNBOUND:                -1.765
REMARK SMILES CCCCCCCCCCCCCCC(=O)[O-]
REMARK SMILES IDX 9 1 10 2 11 3 12 4 13 5 14 6 15 7 16 8 17 9 8 10 7 11 6 12
REMARK SMILES IDX 5 13 4 14 3 15 2 16 1 17
REMARK H PARENT
REMARK Flexibility Score: inf
ROOT
ATOM      1  C   UNL     1       4.377  75.696  67.670  1.00  0.00     0.000 C 
ENDROOT
BRANCH   1   2
ATOM      2  C   UNL     1       5.427  76.583  68.362  1.00  0.00     0.000 C 
BRANCH   2   3
ATOM      3  C   UNL     1       6.806  76.501  67.686  1.00  0.00     0.000 C 
BRANCH   3   4
ATOM      4  C   UNL     1       7.086  77.705  66.770  1.00  0.00     0.000 C 
BRANCH   4   5
ATOM      5  C   UNL     1       6.684  77.442  65.310  1.00  0.00     0.006 C 
BRANCH   5   6
ATOM      6  C   UNL     1       7.409  78.364  64.320  1.00  0.00     0.053 C 
BRANCH   6   7
ATOM      7  C   UNL     1       6.498  78.742  63.196  1.00  0.00     0.041 C 
ATOM      8  O   UNL     1       6.850  79.617  62.361  1.00  0.00    -0.550 OA
ATOM      9  O   UNL     1       5.238  78.164  63.098  1.00  0.00    -0.550 OA
ENDBRANCH   6   7
ENDBRANCH   5   6
ENDBRANCH   4   5
ENDBRANCH   3   4
ENDBRANCH   2   3
ENDBRANCH   1   2
BRANCH   1  10
ATOM     10  C   UNL     1       3.471  74.950  68.666  1.00  0.00     0.000 C 
BRANCH  10  11
ATOM     11  C   UNL     1       1.966  75.010  68.349  1.00  0.00    -0.000 C 
BRANCH  11  12
ATOM     12  C   UNL     1       1.445  76.445  68.179  1.00  0.00    -0.000 C 
BRANCH  12  13
ATOM     13  C   UNL     1       1.556  77.230  69.491  1.00  0.00    -0.000 C 
BRANCH  13  14
ATOM     14  C   UNL     1       2.423  78.485  69.311  1.00  0.00    -0.000 C 
BRANCH  14  15
ATOM     15  C   UNL     1       2.455  78.986  67.855  1.00  0.00    -0.000 C 
BRANCH  15  16
ATOM     16  C   UNL     1       3.796  79.599  67.412  1.00  0.00    -0.003 C 
ATOM     17  C   UNL     1       3.877  79.834  65.904  1.00  0.00     0.004 C 
ENDBRANCH  15  16
ENDBRANCH  14  15
ENDBRANCH  13  14
ENDBRANCH  12  13
ENDBRANCH  11  12
ENDBRANCH  10  11
ENDBRANCH   1  10
TORSDOF 13
ENDMDL
MODEL 2
REMARK VINA RESULT:    -3.965      2.740      5.401
REMARK INTER + INTRA:          -8.744
REMARK INTER:                  -7.070
REMARK INTRA:                  -1.673
REMARK UNBOUND:                -1.765
REMARK SMILES CCCCCCCCCCCCCCC(=O)[O-]
REMARK SMILES IDX 9 1 10 2 11 3 12 4 13 5 14 6 15 7 16 8 17 9 8 10 7 11 6 12
REMARK SMILES IDX 5 13 4 14 3 15 2 16 1 17
REMARK H PARENT
REMARK Flexibility Score: inf
ROOT
ATOM      1  C   UNL     1       6.771  77.612  64.543  1.00  0.00     0.000 C 
ENDROOT
BRANCH   1   2
ATOM      2  C   UNL     1       5.253  77.852  64.623  1.00  0.00     0.000 C 
BRANCH   2   3
ATOM      3  C   UNL     1       4.862  79.289  64.239  1.00  0.00     0.000 C 
BRANCH   3   4
ATOM      4  C   UNL     1       3.544  79.737  64.896  1.00  0.00     0.000 C 
BRANCH   4   5
ATOM      5  C   UNL     1       3.699  80.018  66.399  1.00  0.00     0.006 C 
BRANCH   5   6
ATOM      6  C   UNL     1       2.352  80.077  67.133  1.00  0.00     0.053 C 
BRANCH   6   7
ATOM      7  C   UNL     1       2.529  80.652  68.502  1.00  0.00     0.041 C 
ATOM      8  O   UNL     1       3.558  80.380  69.176  1.00  0.00    -0.550 OA
ATOM      9  O   UNL     1       1.534  81.448  69.056  1.00  0.00    -0.550 OA
ENDBRANCH   6   7
ENDBRANCH   5   6
ENDBRANCH   4   5
ENDBRANCH   3   4
ENDBRANCH   2   3
ENDBRANCH   1   2
BRANCH   1  10
ATOM     10  C   UNL     1       7.537  78.217  65.733  1.00  0.00     0.000 C 
BRANCH  10  11
ATOM     11  C   UNL     1       6.911  77.952  67.114  1.00  0.00    -0.000 C 
BRANCH  11  12
ATOM     12  C   UNL     1       7.021  76.483  67.551  1.00  0.00    -0.000 C 
BRANCH  12  13
ATOM     13  C   UNL     1       5.820  76.074  68.413  1.00  0.00    -0.000 C 
BRANCH  13  14
ATOM     14  C   UNL     1       4.706  77.129  68.340  1.00  0.00    -0.000 C 
BRANCH  14  15
ATOM     15  C   UNL     1       3.295  76.512  68.329  1.00  0.00    -0.000 C 
BRANCH  15  16
ATOM     16  C   UNL     1       3.259  74.986  68.129  1.00  0.00    -0.003 C 
ATOM     17  C   UNL     1       1.856  74.397  68.271  1.00  0.00     0.004 C 
ENDBRANCH  15  16
ENDBRANCH  14  15
ENDBRANCH  13  14
ENDBRANCH  12  13
ENDBRANCH  11  12
ENDBRANCH  10  11
ENDBRANCH   1  10
TORSDOF 13
ENDMDL
MODEL 3
REMARK VINA RESULT:    -3.962      8.907     11.162
REMARK INTER + INTRA:          -8.739
REMARK INTER:                  -6.702
REMARK INTRA:                  -2.037
REMARK UNBOUND:                -1.765
REMARK SMILES CCCCCCCCCCCCCCC(=O)[O-]
REMARK SMILES IDX 9 1 10 2 11 3 12 4 13 5 14 6 15 7 16 8 17 9 8 10 7 11 6 12
REMARK SMILES IDX 5 13 4 14 3 15 2 16 1 17
REMARK H PARENT
REMARK Flexibility Score: inf
ROOT
ATOM      1  C   UNL     1       4.896  84.804  63.020  1.00  0.00     0.000 C 
ENDROOT
BRANCH   1   2
ATOM      2  C   UNL     1       4.428  85.698  61.858  1.00  0.00     0.000 C 
BRANCH   2   3
ATOM      3  C   UNL     1       3.812  87.020  62.344  1.00  0.00     0.000 C 
BRANCH   3   4
ATOM      4  C   UNL     1       3.848  88.119  61.267  1.00  0.00     0.000 C 
BRANCH   4   5
ATOM      5  C   UNL     1       3.318  89.467  61.781  1.00  0.00     0.006 C 
BRANCH   5   6
ATOM      6  C   UNL     1       3.258  90.538  60.683  1.00  0.00     0.053 C 
BRANCH   6   7
ATOM      7  C   UNL     1       1.976  90.431  59.920  1.00  0.00     0.041 C 
ATOM      8  O   UNL     1       0.885  90.743  60.467  1.00  0.00    -0.550 OA
ATOM      9  O   UNL     1       1.979  89.939  58.621  1.00  0.00    -0.550 OA
ENDBRANCH   6   7
ENDBRANCH   5   6
ENDBRANCH   4   5
ENDBRANCH   3   4
ENDBRANCH   2   3
ENDBRANCH   1   2
BRANCH   1  10
ATOM     10  C   UNL     1       4.058  84.992  64.297  1.00  0.00     0.000 C 
BRANCH  10  11
ATOM     11  C   UNL     1       3.097  83.834  64.623  1.00  0.00    -0.000 C 
BRANCH  11  12
ATOM     12  C   UNL     1       1.618  84.236  64.524  1.00  0.00    -0.000 C 
BRANCH  12  13
ATOM     13  C   UNL     1       1.012  83.778  63.191  1.00  0.00    -0.000 C 
BRANCH  13  14
ATOM     14  C   UNL     1       0.684  84.981  62.294  1.00  0.00    -0.000 C 
BRANCH  14  15
ATOM     15  C   UNL     1       0.280  86.233  63.094  1.00  0.00    -0.000 C 
BRANCH  15  16
ATOM     16  C   UNL     1       0.044  87.494  62.245  1.00  0.00    -0.003 C 
ATOM     17  C   UNL     1       0.267  87.260  60.751  1.00  0.00     0.004 C 
ENDBRANCH  15  16
ENDBRANCH  14  15
ENDBRANCH  13  14
ENDBRANCH  12  13
ENDBRANCH  11  12
ENDBRANCH  10  11
ENDBRANCH   1  10
TORSDOF 13
ENDMDL
MODEL 4
REMARK VINA RESULT:    -3.912      1.966      3.396
REMARK INTER + INTRA:          -8.650
REMARK INTER:                  -6.874
REMARK INTRA:                  -1.776
REMARK UNBOUND:                -1.765
REMARK SMILES CCCCCCCCCCCCCCC(=O)[O-]
REMARK SMILES IDX 9 1 10 2 11 3 12 4 13 5 14 6 15 7 16 8 17 9 8 10 7 11 6 12
REMARK SMILES IDX 5 13 4 14 3 15 2 16 1 17
REMARK H PARENT
REMARK Flexibility Score: inf
ROOT
ATOM      1  C   UNL     1       1.117  75.965  68.336  1.00  0.00     0.000 C 
ENDROOT
BRANCH   1   2
ATOM      2  C   UNL     1       1.786  74.587  68.488  1.00  0.00     0.000 C 
BRANCH   2   3
ATOM      3  C   UNL     1       3.298  74.633  68.208  1.00  0.00     0.000 C 
BRANCH   3   4
ATOM      4  C   UNL     1       3.830  76.072  68.081  1.00  0.00     0.000 C 
BRANCH   4   5
ATOM      5  C   UNL     1       5.366  76.135  68.085  1.00  0.00     0.006 C 
BRANCH   5   6
ATOM      6  C   UNL     1       5.944  76.591  66.739  1.00  0.00     0.053 C 
BRANCH   6   7
ATOM      7  C   UNL     1       6.902  77.722  66.939  1.00  0.00     0.041 C 
ATOM      8  O   UNL     1       6.873  78.397  68.002  1.00  0.00    -0.550 OA
ATOM      9  O   UNL     1       7.793  78.065  65.930  1.00  0.00    -0.550 OA
ENDBRANCH   6   7
ENDBRANCH   5   6
ENDBRANCH   4   5
ENDBRANCH   3   4
ENDBRANCH   2   3
ENDBRANCH   1   2
BRANCH   1  10
ATOM     10  C   UNL     1       0.218  76.331  69.530  1.00  0.00     0.000 C 
BRANCH  10  11
ATOM     11  C   UNL     1       0.329  77.790  70.008  1.00  0.00    -0.000 C 
BRANCH  11  12
ATOM     12  C   UNL     1       1.774  78.310  70.015  1.00  0.00    -0.000 C 
BRANCH  12  13
ATOM     13  C   UNL     1       1.820  79.802  70.369  1.00  0.00    -0.000 C 
BRANCH  13  14
ATOM     14  C   UNL     1       2.711  80.574  69.385  1.00  0.00    -0.000 C 
BRANCH  14  15
ATOM     15  C   UNL     1       3.739  79.673  68.674  1.00  0.00    -0.000 C 
BRANCH  15  16
ATOM     16  C   UNL     1       3.687  79.724  67.136  1.00  0.00    -0.003 C 
ATOM     17  C   UNL     1       2.274  79.552  66.579  1.00  0.00     0.004 C 
ENDBRANCH  15  16
ENDBRANCH  14  15
ENDBRANCH  13  14
ENDBRANCH  12  13
ENDBRANCH  11  12
ENDBRANCH  10  11
ENDBRANCH   1  10
TORSDOF 13
ENDMDL
MODEL 5
REMARK VINA RESULT:    -3.885      3.023      5.439
REMARK INTER + INTRA:          -8.603
REMARK INTER:                  -6.779
REMARK INTRA:                  -1.824
REMARK UNBOUND:                -1.765
REMARK SMILES CCCCCCCCCCCCCCC(=O)[O-]
REMARK SMILES IDX 9 1 10 2 11 3 12 4 13 5 14 6 15 7 16 8 17 9 8 10 7 11 6 12
REMARK SMILES IDX 5 13 4 14 3 15 2 16 1 17
REMARK H PARENT
REMARK Flexibility Score: inf
ROOT
ATOM      1  C   UNL     1       6.504  76.791  67.822  1.00  0.00     0.000 C 
ENDROOT
BRANCH   1   2
ATOM      2  C   UNL     1       5.330  76.136  68.572  1.00  0.00     0.000 C 
BRANCH   2   3
ATOM      3  C   UNL     1       4.217  75.661  67.623  1.00  0.00     0.000 C 
BRANCH   3   4
ATOM      4  C   UNL     1       3.376  74.521  68.226  1.00  0.00     0.000 C 
BRANCH   4   5
ATOM      5  C   UNL     1       1.948  74.966  68.580  1.00  0.00     0.006 C 
BRANCH   5   6
ATOM      6  C   UNL     1       1.671  76.428  68.202  1.00  0.00     0.053 C 
BRANCH   6   7
ATOM      7  C   UNL     1       1.304  77.220  69.416  1.00  0.00     0.041 C 
ATOM      8  O   UNL     1       2.125  78.037  69.912  1.00  0.00    -0.550 OA
ATOM      9  O   UNL     1       0.075  77.020  70.031  1.00  0.00    -0.550 OA
ENDBRANCH   6   7
ENDBRANCH   5   6
ENDBRANCH   4   5
ENDBRANCH   3   4
ENDBRANCH   2   3
ENDBRANCH   1   2
BRANCH   1  10
ATOM     10  C   UNL     1       6.440  78.329  67.834  1.00  0.00     0.000 C 
BRANCH  10  11
ATOM     11  C   UNL     1       5.287  78.928  68.660  1.00  0.00    -0.000 C 
BRANCH  11  12
ATOM     12  C   UNL     1       4.373  79.848  67.836  1.00  0.00    -0.000 C 
BRANCH  12  13
ATOM     13  C   UNL     1       3.754  79.092  66.654  1.00  0.00    -0.000 C 
BRANCH  13  14
ATOM     14  C   UNL     1       3.669  79.990  65.411  1.00  0.00    -0.000 C 
BRANCH  14  15
ATOM     15  C   UNL     1       4.227  79.313  64.145  1.00  0.00    -0.000 C 
BRANCH  15  16
ATOM     16  C   UNL     1       5.627  78.694  64.306  1.00  0.00    -0.003 C 
ATOM     17  C   UNL     1       5.609  77.165  64.291  1.00  0.00     0.004 C 
ENDBRANCH  15  16
ENDBRANCH  14  15
ENDBRANCH  13  14
ENDBRANCH  12  13
ENDBRANCH  11  12
ENDBRANCH  10  11
ENDBRANCH   1  10
TORSDOF 13
ENDMDL
MODEL 6
REMARK VINA RESULT:    -3.836      9.078     12.375
REMARK INTER + INTRA:          -8.516
REMARK INTER:                  -6.891
REMARK INTRA:                  -1.625
REMARK UNBOUND:                -1.765
REMARK SMILES CCCCCCCCCCCCCCC(=O)[O-]
REMARK SMILES IDX 9 1 10 2 11 3 12 4 13 5 14 6 15 7 16 8 17 9 8 10 7 11 6 12
REMARK SMILES IDX 5 13 4 14 3 15 2 16 1 17
REMARK H PARENT
REMARK Flexibility Score: inf
ROOT
ATOM      1  C   UNL     1       2.936  88.337  61.973  1.00  0.00     0.000 C 
ENDROOT
BRANCH   1   2
ATOM      2  C   UNL     1       4.160  87.405  61.961  1.00  0.00     0.000 C 
BRANCH   2   3
ATOM      3  C   UNL     1       3.768  85.919  61.918  1.00  0.00     0.000 C 
BRANCH   3   4
ATOM      4  C   UNL     1       4.759  85.025  62.683  1.00  0.00     0.000 C 
BRANCH   4   5
ATOM      5  C   UNL     1       4.413  84.902  64.176  1.00  0.00     0.006 C 
BRANCH   5   6
ATOM      6  C   UNL     1       3.618  83.629  64.497  1.00  0.00     0.053 C 
BRANCH   6   7
ATOM      7  C   UNL     1       2.242  83.979  64.969  1.00  0.00     0.041 C 
ATOM      8  O   UNL     1       1.856  83.626  66.115  1.00  0.00    -0.550 OA
ATOM      9  O   UNL     1       1.367  84.651  64.125  1.00  0.00    -0.550 OA
ENDBRANCH   6   7
ENDBRANCH   5   6
ENDBRANCH   4   5
ENDBRANCH   3   4
ENDBRANCH   2   3
ENDBRANCH   1   2
BRANCH   1  10
ATOM     10  C   UNL     1       3.295  89.804  61.674  1.00  0.00     0.000 C 
BRANCH  10  11
ATOM     11  C   UNL     1       2.720  90.361  60.359  1.00  0.00    -0.000 C 
BRANCH  11  12
ATOM     12  C   UNL     1       3.779  90.506  59.255  1.00  0.00    -0.000 C 
BRANCH  12  13
ATOM     13  C   UNL     1       5.194  90.369  59.829  1.00  0.00    -0.000 C 
BRANCH  13  14
ATOM     14  C   UNL     1       6.000  89.312  59.059  1.00  0.00    -0.000 C 
BRANCH  14  15
ATOM     15  C   UNL     1       5.112  88.222  58.430  1.00  0.00    -0.000 C 
BRANCH  15  16
ATOM     16  C   UNL     1       5.566  86.778  58.710  1.00  0.00    -0.003 C 
ATOM     17  C   UNL     1       6.894  86.704  59.462  1.00  0.00     0.004 C 
ENDBRANCH  15  16
ENDBRANCH  14  15
ENDBRANCH  13  14
ENDBRANCH  12  13
ENDBRANCH  11  12
ENDBRANCH  10  11
ENDBRANCH   1  10
TORSDOF 13
ENDMDL
MODEL 7
REMARK VINA RESULT:    -3.826      1.790      3.042
REMARK INTER + INTRA:          -8.499
REMARK INTER:                  -6.844
REMARK INTRA:                  -1.655
REMARK UNBOUND:                -1.765
REMARK SMILES CCCCCCCCCCCCCCC(=O)[O-]
REMARK SMILES IDX 9 1 10 2 11 3 12 4 13 5 14 6 15 7 16 8 17 9 8 10 7 11 6 12
REMARK SMILES IDX 5 13 4 14 3 15 2 16 1 17
REMARK H PARENT
REMARK Flexibility Score: inf
ROOT
ATOM      1  C   UNL     1       7.407  77.661  66.845  1.00  0.00     0.000 C 
ENDROOT
BRANCH   1   2
ATOM      2  C   UNL     1       7.204  78.078  65.378  1.00  0.00     0.000 C 
BRANCH   2   3
ATOM      3  C   UNL     1       6.152  77.216  64.661  1.00  0.00     0.000 C 
BRANCH   3   4
ATOM      4  C   UNL     1       5.267  78.038  63.706  1.00  0.00     0.000 C 
BRANCH   4   5
ATOM      5  C   UNL     1       6.004  79.251  63.116  1.00  0.00     0.006 C 
BRANCH   5   6
ATOM      6  C   UNL     1       6.252  79.117  61.607  1.00  0.00     0.053 C 
BRANCH   6   7
ATOM      7  C   UNL     1       7.719  79.128  61.317  1.00  0.00     0.041 C 
ATOM      8  O   UNL     1       8.144  79.562  60.214  1.00  0.00    -0.550 OA
ATOM      9  O   UNL     1       8.615  78.611  62.245  1.00  0.00    -0.550 OA
ENDBRANCH   6   7
ENDBRANCH   5   6
ENDBRANCH   4   5
ENDBRANCH   3   4
ENDBRANCH   2   3
ENDBRANCH   1   2
BRANCH   1  10
ATOM     10  C   UNL     1       6.574  76.428  67.239  1.00  0.00     0.000 C 
BRANCH  10  11
ATOM     11  C   UNL     1       5.617  76.640  68.427  1.00  0.00    -0.000 C 
BRANCH  11  12
ATOM     12  C   UNL     1       4.172  76.924  67.990  1.00  0.00    -0.000 C 
BRANCH  12  13
ATOM     13  C   UNL     1       3.684  78.268  68.543  1.00  0.00    -0.000 C 
BRANCH  13  14
ATOM     14  C   UNL     1       4.439  79.438  67.894  1.00  0.00    -0.000 C 
BRANCH  14  15
ATOM     15  C   UNL     1       3.828  79.872  66.549  1.00  0.00    -0.000 C 
BRANCH  15  16
ATOM     16  C   UNL     1       2.487  80.620  66.659  1.00  0.00    -0.003 C 
ATOM     17  C   UNL     1       2.329  81.723  65.613  1.00  0.00     0.004 C 
ENDBRANCH  15  16
ENDBRANCH  14  15
ENDBRANCH  13  14
ENDBRANCH  12  13
ENDBRANCH  11  12
ENDBRANCH  10  11
ENDBRANCH   1  10
TORSDOF 13
ENDMDL
MODEL 8
REMARK VINA RESULT:    -3.824      1.846      4.182
REMARK INTER + INTRA:          -8.495
REMARK INTER:                  -6.946
REMARK INTRA:                  -1.549
REMARK UNBOUND:                -1.765
REMARK SMILES CCCCCCCCCCCCCCC(=O)[O-]
REMARK SMILES IDX 9 1 10 2 11 3 12 4 13 5 14 6 15 7 16 8 17 9 8 10 7 11 6 12
REMARK SMILES IDX 5 13 4 14 3 15 2 16 1 17
REMARK H PARENT
REMARK Flexibility Score: inf
ROOT
ATOM      1  C   UNL     1       7.207  78.167  64.635  1.00  0.00     0.000 C 
ENDROOT
BRANCH   1   2
ATOM      2  C   UNL     1       5.766  77.794  64.245  1.00  0.00     0.000 C 
BRANCH   2   3
ATOM      3  C   UNL     1       4.778  78.950  64.469  1.00  0.00     0.000 C 
BRANCH   3   4
ATOM      4  C   UNL     1       4.094  79.401  63.166  1.00  0.00     0.000 C 
BRANCH   4   5
ATOM      5  C   UNL     1       5.070  80.078  62.191  1.00  0.00     0.006 C 
BRANCH   5   6
ATOM      6  C   UNL     1       5.119  79.383  60.823  1.00  0.00     0.053 C 
BRANCH   6   7
ATOM      7  C   UNL     1       6.530  79.046  60.460  1.00  0.00     0.041 C 
ATOM      8  O   UNL     1       7.453  79.187  61.305  1.00  0.00    -0.550 OA
ATOM      9  O   UNL     1       6.834  78.625  59.171  1.00  0.00    -0.550 OA
ENDBRANCH   6   7
ENDBRANCH   5   6
ENDBRANCH   4   5
ENDBRANCH   3   4
ENDBRANCH   2   3
ENDBRANCH   1   2
BRANCH   1  10
ATOM     10  C   UNL     1       7.500  77.951  66.130  1.00  0.00     0.000 C 
BRANCH  10  11
ATOM     11  C   UNL     1       6.778  76.752  66.770  1.00  0.00    -0.000 C 
BRANCH  11  12
ATOM     12  C   UNL     1       6.062  77.112  68.081  1.00  0.00    -0.000 C 
BRANCH  12  13
ATOM     13  C   UNL     1       6.043  78.630  68.298  1.00  0.00    -0.000 C 
BRANCH  13  14
ATOM     14  C   UNL     1       4.603  79.148  68.430  1.00  0.00    -0.000 C 
BRANCH  14  15
ATOM     15  C   UNL     1       3.562  78.186  67.828  1.00  0.00    -0.000 C 
BRANCH  15  16
ATOM     16  C   UNL     1       2.568  77.593  68.842  1.00  0.00    -0.003 C 
ATOM     17  C   UNL     1       2.361  76.088  68.668  1.00  0.00     0.004 C 
ENDBRANCH  15  16
ENDBRANCH  14  15
ENDBRANCH  13  14
ENDBRANCH  12  13
ENDBRANCH  11  12
ENDBRANCH  10  11
ENDBRANCH   1  10
TORSDOF 13
ENDMDL
MODEL 9
REMARK VINA RESULT:    -3.796      8.469     11.397
REMARK INTER + INTRA:          -8.446
REMARK INTER:                  -6.518
REMARK INTRA:                  -1.928
REMARK UNBOUND:                -1.765
REMARK SMILES CCCCCCCCCCCCCCC(=O)[O-]
REMARK SMILES IDX 9 1 10 2 11 3 12 4 13 5 14 6 15 7 16 8 17 9 8 10 7 11 6 12
REMARK SMILES IDX 5 13 4 14 3 15 2 16 1 17
REMARK H PARENT
REMARK Flexibility Score: inf
ROOT
ATOM      1  C   UNL     1       4.665  88.261  60.042  1.00  0.00     0.000 C 
ENDROOT
BRANCH   1   2
ATOM      2  C   UNL     1       4.494  87.308  61.238  1.00  0.00     0.000 C 
BRANCH   2   3
ATOM      3  C   UNL     1       5.159  85.941  61.002  1.00  0.00     0.000 C 
BRANCH   3   4
ATOM      4  C   UNL     1       4.831  84.927  62.113  1.00  0.00     0.000 C 
BRANCH   4   5
ATOM      5  C   UNL     1       4.060  85.560  63.282  1.00  0.00     0.006 C 
BRANCH   5   6
ATOM      6  C   UNL     1       4.147  84.728  64.569  1.00  0.00     0.053 C 
BRANCH   6   7
ATOM      7  C   UNL     1       3.094  83.666  64.575  1.00  0.00     0.041 C 
ATOM      8  O   UNL     1       1.911  83.948  64.903  1.00  0.00    -0.550 OA
ATOM      9  O   UNL     1       3.429  82.353  64.268  1.00  0.00    -0.550 OA
ENDBRANCH   6   7
ENDBRANCH   5   6
ENDBRANCH   4   5
ENDBRANCH   3   4
ENDBRANCH   2   3
ENDBRANCH   1   2
BRANCH   1  10
ATOM     10  C   UNL     1       4.113  89.671  60.315  1.00  0.00     0.000 C 
BRANCH  10  11
ATOM     11  C   UNL     1       3.252  89.801  61.585  1.00  0.00    -0.000 C 
BRANCH  11  12
ATOM     12  C   UNL     1       1.745  89.725  61.299  1.00  0.00    -0.000 C 
BRANCH  12  13
ATOM     13  C   UNL     1       1.007  88.995  62.427  1.00  0.00    -0.000 C 
BRANCH  13  14
ATOM     14  C   UNL     1       0.162  87.838  61.874  1.00  0.00    -0.000 C 
BRANCH  14  15
ATOM     15  C   UNL     1       0.703  86.454  62.278  1.00  0.00    -0.000 C 
BRANCH  15  16
ATOM     16  C   UNL     1       1.150  85.566  61.103  1.00  0.00    -0.003 C 
ATOM     17  C   UNL     1       1.259  86.330  59.783  1.00  0.00     0.004 C 
ENDBRANCH  15  16
ENDBRANCH  14  15
ENDBRANCH  13  14
ENDBRANCH  12  13
ENDBRANCH  11  12
ENDBRANCH  10  11
ENDBRANCH   1  10
TORSDOF 13
ENDMDL
