MODEL 1
REMARK VINA RESULT:    -4.174      0.000      0.000
REMARK INTER + INTRA:          -7.215
REMARK INTER:                  -6.615
REMARK INTRA:                  -0.601
REMARK UNBOUND:                -0.601
REMARK SMILES CCCCCCCCCCCC(=O)[O-]
REMARK SMILES IDX 7 1 8 2 9 3 10 4 11 5 12 6 13 7 14 8 6 9 5 10 4 11 3 12 2 13
REMARK SMILES IDX 1 14
REMARK H PARENT
REMARK Flexibility Score: inf
ROOT
ATOM      1  C   UNL     1      46.134  26.471   5.075  1.00  0.00     0.000 C 
ENDROOT
BRANCH   1   2
ATOM      2  C   UNL     1      46.242  27.884   5.684  1.00  0.00     0.000 C 
BRANCH   2   3
ATOM      3  C   UNL     1      46.290  27.930   7.225  1.00  0.00     0.000 C 
BRANCH   3   4
ATOM      4  C   UNL     1      46.172  26.559   7.922  1.00  0.00     0.006 C 
BRANCH   4   5
ATOM      5  C   UNL     1      45.453  26.598   9.280  1.00  0.00     0.053 C 
BRANCH   5   6
ATOM      6  C   UNL     1      46.375  26.261  10.411  1.00  0.00     0.041 C 
ATOM      7  O   UNL     1      46.895  27.179  11.100  1.00  0.00    -0.550 OA
ATOM      8  O   UNL     1      46.636  24.934  10.724  1.00  0.00    -0.550 OA
ENDBRANCH   5   6
ENDBRANCH   4   5
ENDBRANCH   3   4
ENDBRANCH   2   3
ENDBRANCH   1   2
BRANCH   1   9
ATOM      9  C   UNL     1      45.263  26.373   3.810  1.00  0.00     0.000 C 
BRANCH   9  10
ATOM     10  C   UNL     1      45.795  27.230   2.651  1.00  0.00    -0.000 C 
BRANCH  10  11
ATOM     11  C   UNL     1      44.665  28.044   2.007  1.00  0.00    -0.000 C 
BRANCH  11  12
ATOM     12  C   UNL     1      43.364  27.228   1.949  1.00  0.00    -0.000 C 
BRANCH  12  13
ATOM     13  C   UNL     1      42.139  28.039   2.396  1.00  0.00    -0.003 C 
ATOM     14  C   UNL     1      42.445  29.526   2.567  1.00  0.00     0.004 C 
ENDBRANCH  12  13
ENDBRANCH  11  12
ENDBRANCH  10  11
ENDBRANCH   9  10
ENDBRANCH   1   9
TORSDOF 10
ENDMDL
MODEL 2
REMARK VINA RESULT:    -4.009      3.927      6.757
REMARK INTER + INTRA:          -6.954
REMARK INTER:                  -6.049
REMARK INTRA:                  -0.905
REMARK UNBOUND:                -0.601
REMARK SMILES CCCCCCCCCCCC(=O)[O-]
REMARK SMILES IDX 7 1 8 2 9 3 10 4 11 5 12 6 13 7 14 8 6 9 5 10 4 11 3 12 2 13
REMARK SMILES IDX 1 14
REMARK H PARENT
REMARK Flexibility Score: inf
ROOT
ATOM      1  C   UNL     1      46.292  26.369   5.350  1.00  0.00     0.000 C 
ENDROOT
BRANCH   1   2
ATOM      2  C   UNL     1      45.985  26.044   3.875  1.00  0.00     0.000 C 
BRANCH   2   3
ATOM      3  C   UNL     1      46.666  26.969   2.845  1.00  0.00     0.000 C 
BRANCH   3   4
ATOM      4  C   UNL     1      45.700  27.810   1.987  1.00  0.00     0.006 C 
BRANCH   4   5
ATOM      5  C   UNL     1      44.392  28.197   2.697  1.00  0.00     0.053 C 
BRANCH   5   6
ATOM      6  C   UNL     1      43.199  27.551   2.062  1.00  0.00     0.041 C 
ATOM      7  O   UNL     1      43.351  26.612   1.237  1.00  0.00    -0.550 OA
ATOM      8  O   UNL     1      41.919  27.965   2.406  1.00  0.00    -0.550 OA
ENDBRANCH   5   6
ENDBRANCH   4   5
ENDBRANCH   3   4
ENDBRANCH   2   3
ENDBRANCH   1   2
BRANCH   1   9
ATOM      9  C   UNL     1      47.021  27.705   5.584  1.00  0.00     0.000 C 
BRANCH   9  10
ATOM     10  C   UNL     1      46.145  28.745   6.299  1.00  0.00    -0.000 C 
BRANCH  10  11
ATOM     11  C   UNL     1      46.521  28.853   7.782  1.00  0.00    -0.000 C 
BRANCH  11  12
ATOM     12  C   UNL     1      45.265  28.885   8.666  1.00  0.00    -0.000 C 
BRANCH  12  13
ATOM     13  C   UNL     1      45.181  27.680   9.615  1.00  0.00    -0.003 C 
ATOM     14  C   UNL     1      45.716  26.394   8.987  1.00  0.00     0.004 C 
ENDBRANCH  12  13
ENDBRANCH  11  12
ENDBRANCH  10  11
ENDBRANCH   9  10
ENDBRANCH   1   9
TORSDOF 10
ENDMDL
MODEL 3
REMARK VINA RESULT:    -3.953      1.432      2.394
REMARK INTER + INTRA:          -6.865
REMARK INTER:                  -5.987
REMARK INTRA:                  -0.878
REMARK UNBOUND:                -0.601
REMARK SMILES CCCCCCCCCCCC(=O)[O-]
REMARK SMILES IDX 7 1 8 2 9 3 10 4 11 5 12 6 13 7 14 8 6 9 5 10 4 11 3 12 2 13
REMARK SMILES IDX 1 14
REMARK H PARENT
REMARK Flexibility Score: inf
ROOT
ATOM      1  C   UNL     1      44.733  26.591   3.579  1.00  0.00     0.000 C 
ENDROOT
BRANCH   1   2
ATOM      2  C   UNL     1      45.765  25.565   4.089  1.00  0.00     0.000 C 
BRANCH   2   3
ATOM      3  C   UNL     1      46.891  26.150   4.966  1.00  0.00     0.000 C 
BRANCH   3   4
ATOM      4  C   UNL     1      46.416  27.065   6.112  1.00  0.00     0.006 C 
BRANCH   4   5
ATOM      5  C   UNL     1      46.737  26.538   7.520  1.00  0.00     0.053 C 
BRANCH   5   6
ATOM      6  C   UNL     1      45.696  26.942   8.519  1.00  0.00     0.041 C 
ATOM      7  O   UNL     1      45.227  26.094   9.323  1.00  0.00    -0.550 OA
ATOM      8  O   UNL     1      45.268  28.262   8.581  1.00  0.00    -0.550 OA
ENDBRANCH   5   6
ENDBRANCH   4   5
ENDBRANCH   3   4
ENDBRANCH   2   3
ENDBRANCH   1   2
BRANCH   1   9
ATOM      9  C   UNL     1      45.196  27.438   2.381  1.00  0.00     0.000 C 
BRANCH   9  10
ATOM     10  C   UNL     1      45.724  28.820   2.796  1.00  0.00    -0.000 C 
BRANCH  10  11
ATOM     11  C   UNL     1      44.571  29.753   3.188  1.00  0.00    -0.000 C 
BRANCH  11  12
ATOM     12  C   UNL     1      43.486  29.772   2.100  1.00  0.00    -0.000 C 
BRANCH  12  13
ATOM     13  C   UNL     1      42.070  29.625   2.677  1.00  0.00    -0.003 C 
ATOM     14  C   UNL     1      41.541  28.194   2.589  1.00  0.00     0.004 C 
ENDBRANCH  12  13
ENDBRANCH  11  12
ENDBRANCH  10  11
ENDBRANCH   9  10
ENDBRANCH   1   9
TORSDOF 10
ENDMDL
MODEL 4
REMARK VINA RESULT:    -3.903      3.943      6.899
REMARK INTER + INTRA:          -6.785
REMARK INTER:                  -6.028
REMARK INTRA:                  -0.757
REMARK UNBOUND:                -0.601
REMARK SMILES CCCCCCCCCCCC(=O)[O-]
REMARK SMILES IDX 7 1 8 2 9 3 10 4 11 5 12 6 13 7 14 8 6 9 5 10 4 11 3 12 2 13
REMARK SMILES IDX 1 14
REMARK H PARENT
REMARK Flexibility Score: inf
ROOT
ATOM      1  C   UNL     1      46.009  26.472   5.013  1.00  0.00     0.000 C 
ENDROOT
BRANCH   1   2
ATOM      2  C   UNL     1      44.976  26.239   3.893  1.00  0.00     0.000 C 
BRANCH   2   3
ATOM      3  C   UNL     1      45.152  27.130   2.645  1.00  0.00     0.000 C 
BRANCH   3   4
ATOM      4  C   UNL     1      43.845  27.481   1.906  1.00  0.00     0.006 C 
BRANCH   4   5
ATOM      5  C   UNL     1      43.348  28.917   2.144  1.00  0.00     0.053 C 
BRANCH   5   6
ATOM      6  C   UNL     1      41.919  28.946   2.592  1.00  0.00     0.041 C 
ATOM      7  O   UNL     1      41.223  27.897   2.560  1.00  0.00    -0.550 OA
ATOM      8  O   UNL     1      41.366  30.125   3.074  1.00  0.00    -0.550 OA
ENDBRANCH   5   6
ENDBRANCH   4   5
ENDBRANCH   3   4
ENDBRANCH   2   3
ENDBRANCH   1   2
BRANCH   1   9
ATOM      9  C   UNL     1      46.689  27.853   4.995  1.00  0.00     0.000 C 
BRANCH   9  10
ATOM     10  C   UNL     1      46.097  28.823   6.028  1.00  0.00    -0.000 C 
BRANCH  10  11
ATOM     11  C   UNL     1      46.579  28.479   7.443  1.00  0.00    -0.000 C 
BRANCH  11  12
ATOM     12  C   UNL     1      45.466  28.718   8.475  1.00  0.00    -0.000 C 
BRANCH  12  13
ATOM     13  C   UNL     1      45.247  27.508   9.396  1.00  0.00    -0.003 C 
ATOM     14  C   UNL     1      46.056  26.284   8.968  1.00  0.00     0.004 C 
ENDBRANCH  12  13
ENDBRANCH  11  12
ENDBRANCH  10  11
ENDBRANCH   9  10
ENDBRANCH   1   9
TORSDOF 10
ENDMDL
MODEL 5
REMARK VINA RESULT:    -3.753      1.425      2.450
REMARK INTER + INTRA:          -6.548
REMARK INTER:                  -5.822
REMARK INTRA:                  -0.726
REMARK UNBOUND:                -0.601
REMARK SMILES CCCCCCCCCCCC(=O)[O-]
REMARK SMILES IDX 7 1 8 2 9 3 10 4 11 5 12 6 13 7 14 8 6 9 5 10 4 11 3 12 2 13
REMARK SMILES IDX 1 14
REMARK H PARENT
REMARK Flexibility Score: inf
ROOT
ATOM      1  C   UNL     1      45.173  26.136   4.095  1.00  0.00     0.000 C 
ENDROOT
BRANCH   1   2
ATOM      2  C   UNL     1      46.509  26.332   4.840  1.00  0.00     0.000 C 
BRANCH   2   3
ATOM      3  C   UNL     1      46.753  27.755   5.384  1.00  0.00     0.000 C 
BRANCH   3   4
ATOM      4  C   UNL     1      46.429  27.944   6.880  1.00  0.00     0.006 C 
BRANCH   4   5
ATOM      5  C   UNL     1      46.285  26.632   7.669  1.00  0.00     0.053 C 
BRANCH   5   6
ATOM      6  C   UNL     1      45.625  26.848   8.996  1.00  0.00     0.041 C 
ATOM      7  O   UNL     1      45.577  25.914   9.839  1.00  0.00    -0.550 OA
ATOM      8  O   UNL     1      45.093  28.091   9.314  1.00  0.00    -0.550 OA
ENDBRANCH   5   6
ENDBRANCH   4   5
ENDBRANCH   3   4
ENDBRANCH   2   3
ENDBRANCH   1   2
BRANCH   1   9
ATOM      9  C   UNL     1      45.050  26.907   2.768  1.00  0.00     0.000 C 
BRANCH   9  10
ATOM     10  C   UNL     1      43.591  27.133   2.344  1.00  0.00    -0.000 C 
BRANCH  10  11
ATOM     11  C   UNL     1      43.256  28.630   2.308  1.00  0.00    -0.000 C 
BRANCH  11  12
ATOM     12  C   UNL     1      44.536  29.478   2.259  1.00  0.00    -0.000 C 
BRANCH  12  13
ATOM     13  C   UNL     1      44.762  30.125   0.884  1.00  0.00    -0.003 C 
ATOM     14  C   UNL     1      45.844  29.417   0.069  1.00  0.00     0.004 C 
ENDBRANCH  12  13
ENDBRANCH  11  12
ENDBRANCH  10  11
ENDBRANCH   9  10
ENDBRANCH   1   9
TORSDOF 10
ENDMDL
MODEL 6
REMARK VINA RESULT:    -3.724      7.884     10.536
REMARK INTER + INTRA:          -6.502
REMARK INTER:                  -5.958
REMARK INTRA:                  -0.544
REMARK UNBOUND:                -0.601
REMARK SMILES CCCCCCCCCCCC(=O)[O-]
REMARK SMILES IDX 7 1 8 2 9 3 10 4 11 5 12 6 13 7 14 8 6 9 5 10 4 11 3 12 2 13
REMARK SMILES IDX 1 14
REMARK H PARENT
REMARK Flexibility Score: inf
ROOT
ATOM      1  C   UNL     1      46.081  28.436  -1.129  1.00  0.00     0.000 C 
ENDROOT
BRANCH   1   2
ATOM      2  C   UNL     1      45.924  28.639  -2.649  1.00  0.00     0.000 C 
BRANCH   2   3
ATOM      3  C   UNL     1      45.635  27.356  -3.455  1.00  0.00     0.000 C 
BRANCH   3   4
ATOM      4  C   UNL     1      44.874  27.574  -4.778  1.00  0.00     0.006 C 
BRANCH   4   5
ATOM      5  C   UNL     1      44.069  28.883  -4.838  1.00  0.00     0.053 C 
BRANCH   5   6
ATOM      6  C   UNL     1      42.842  28.745  -5.685  1.00  0.00     0.041 C 
ATOM      7  O   UNL     1      41.798  28.225  -5.209  1.00  0.00    -0.550 OA
ATOM      8  O   UNL     1      42.840  29.221  -6.990  1.00  0.00    -0.550 OA
ENDBRANCH   5   6
ENDBRANCH   4   5
ENDBRANCH   3   4
ENDBRANCH   2   3
ENDBRANCH   1   2
BRANCH   1   9
ATOM      9  C   UNL     1      45.654  29.636  -0.265  1.00  0.00     0.000 C 
BRANCH   9  10
ATOM     10  C   UNL     1      45.295  29.235   1.174  1.00  0.00    -0.000 C 
BRANCH  10  11
ATOM     11  C   UNL     1      45.076  27.721   1.285  1.00  0.00    -0.000 C 
BRANCH  11  12
ATOM     12  C   UNL     1      43.874  27.405   2.188  1.00  0.00    -0.000 C 
BRANCH  12  13
ATOM     13  C   UNL     1      42.858  28.556   2.243  1.00  0.00    -0.003 C 
ATOM     14  C   UNL     1      41.448  28.083   2.592  1.00  0.00     0.004 C 
ENDBRANCH  12  13
ENDBRANCH  11  12
ENDBRANCH  10  11
ENDBRANCH   9  10
ENDBRANCH   1   9
TORSDOF 10
ENDMDL
MODEL 7
REMARK VINA RESULT:    -3.664      1.947      2.223
REMARK INTER + INTRA:          -6.407
REMARK INTER:                  -5.837
REMARK INTRA:                  -0.569
REMARK UNBOUND:                -0.601
REMARK SMILES CCCCCCCCCCCC(=O)[O-]
REMARK SMILES IDX 7 1 8 2 9 3 10 4 11 5 12 6 13 7 14 8 6 9 5 10 4 11 3 12 2 13
REMARK SMILES IDX 1 14
REMARK H PARENT
REMARK Flexibility Score: inf
ROOT
ATOM      1  C   UNL     1      45.982  26.483   5.042  1.00  0.00     0.000 C 
ENDROOT
BRANCH   1   2
ATOM      2  C   UNL     1      46.959  27.203   5.992  1.00  0.00     0.000 C 
BRANCH   2   3
ATOM      3  C   UNL     1      47.078  26.585   7.401  1.00  0.00     0.000 C 
BRANCH   3   4
ATOM      4  C   UNL     1      45.787  26.629   8.243  1.00  0.00     0.006 C 
BRANCH   4   5
ATOM      5  C   UNL     1      45.838  27.602   9.432  1.00  0.00     0.053 C 
BRANCH   5   6
ATOM      6  C   UNL     1      45.171  28.905   9.118  1.00  0.00     0.041 C 
ATOM      7  O   UNL     1      44.383  29.430   9.948  1.00  0.00    -0.550 OA
ATOM      8  O   UNL     1      45.444  29.555   7.921  1.00  0.00    -0.550 OA
ENDBRANCH   5   6
ENDBRANCH   4   5
ENDBRANCH   3   4
ENDBRANCH   2   3
ENDBRANCH   1   2
BRANCH   1   9
ATOM      9  C   UNL     1      46.446  26.393   3.577  1.00  0.00     0.000 C 
BRANCH   9  10
ATOM     10  C   UNL     1      45.481  27.084   2.603  1.00  0.00    -0.000 C 
BRANCH  10  11
ATOM     11  C   UNL     1      45.177  28.518   3.055  1.00  0.00    -0.000 C 
BRANCH  11  12
ATOM     12  C   UNL     1      43.785  28.961   2.579  1.00  0.00    -0.000 C 
BRANCH  12  13
ATOM     13  C   UNL     1      42.881  27.773   2.217  1.00  0.00    -0.003 C 
ATOM     14  C   UNL     1      41.414  28.018   2.567  1.00  0.00     0.004 C 
ENDBRANCH  12  13
ENDBRANCH  11  12
ENDBRANCH  10  11
ENDBRANCH   9  10
ENDBRANCH   1   9
TORSDOF 10
ENDMDL
MODEL 8
REMARK VINA RESULT:    -3.639      3.976      6.817
REMARK INTER + INTRA:          -6.367
REMARK INTER:                  -5.663
REMARK INTRA:                  -0.704
REMARK UNBOUND:                -0.601
REMARK SMILES CCCCCCCCCCCC(=O)[O-]
REMARK SMILES IDX 7 1 8 2 9 3 10 4 11 5 12 6 13 7 14 8 6 9 5 10 4 11 3 12 2 13
REMARK SMILES IDX 1 14
REMARK H PARENT
REMARK Flexibility Score: inf
ROOT
ATOM      1  C   UNL     1      46.125  26.632   7.217  1.00  0.00     0.000 C 
ENDROOT
BRANCH   1   2
ATOM      2  C   UNL     1      46.846  26.674   5.855  1.00  0.00     0.000 C 
BRANCH   2   3
ATOM      3  C   UNL     1      46.289  27.706   4.852  1.00  0.00     0.000 C 
BRANCH   3   4
ATOM      4  C   UNL     1      45.963  27.146   3.454  1.00  0.00     0.006 C 
BRANCH   4   5
ATOM      5  C   UNL     1      44.557  26.537   3.326  1.00  0.00     0.053 C 
BRANCH   5   6
ATOM      6  C   UNL     1      43.782  27.151   2.201  1.00  0.00     0.041 C 
ATOM      7  O   UNL     1      44.162  26.995   1.011  1.00  0.00    -0.550 OA
ATOM      8  O   UNL     1      42.623  27.869   2.466  1.00  0.00    -0.550 OA
ENDBRANCH   5   6
ENDBRANCH   4   5
ENDBRANCH   3   4
ENDBRANCH   2   3
ENDBRANCH   1   2
BRANCH   1   9
ATOM      9  C   UNL     1      46.952  26.038   8.372  1.00  0.00     0.000 C 
BRANCH   9  10
ATOM     10  C   UNL     1      46.630  26.683   9.729  1.00  0.00    -0.000 C 
BRANCH  10  11
ATOM     11  C   UNL     1      45.232  27.314   9.719  1.00  0.00    -0.000 C 
BRANCH  11  12
ATOM     12  C   UNL     1      45.315  28.833   9.936  1.00  0.00    -0.000 C 
BRANCH  12  13
ATOM     13  C   UNL     1      45.229  29.622   8.621  1.00  0.00    -0.003 C 
ATOM     14  C   UNL     1      46.590  30.125   8.143  1.00  0.00     0.004 C 
ENDBRANCH  12  13
ENDBRANCH  11  12
ENDBRANCH  10  11
ENDBRANCH   9  10
ENDBRANCH   1   9
TORSDOF 10
ENDMDL
MODEL 9
REMARK VINA RESULT:    -3.626      4.705      7.414
REMARK INTER + INTRA:          -6.347
REMARK INTER:                  -5.770
REMARK INTRA:                  -0.577
REMARK UNBOUND:                -0.601
REMARK SMILES CCCCCCCCCCCC(=O)[O-]
REMARK SMILES IDX 7 1 8 2 9 3 10 4 11 5 12 6 13 7 14 8 6 9 5 10 4 11 3 12 2 13
REMARK SMILES IDX 1 14
REMARK H PARENT
REMARK Flexibility Score: inf
ROOT
ATOM      1  C   UNL     1      45.401  26.803   3.137  1.00  0.00     0.000 C 
ENDROOT
BRANCH   1   2
ATOM      2  C   UNL     1      43.952  27.068   2.682  1.00  0.00     0.000 C 
BRANCH   2   3
ATOM      3  C   UNL     1      43.654  28.523   2.263  1.00  0.00     0.000 C 
BRANCH   3   4
ATOM      4  C   UNL     1      44.899  29.405   2.043  1.00  0.00     0.006 C 
BRANCH   4   5
ATOM      5  C   UNL     1      45.011  30.003   0.631  1.00  0.00     0.053 C 
BRANCH   5   6
ATOM      6  C   UNL     1      45.977  29.241  -0.224  1.00  0.00     0.041 C 
ATOM      7  O   UNL     1      46.050  27.987  -0.133  1.00  0.00    -0.550 OA
ATOM      8  O   UNL     1      46.772  29.913  -1.143  1.00  0.00    -0.550 OA
ENDBRANCH   5   6
ENDBRANCH   4   5
ENDBRANCH   3   4
ENDBRANCH   2   3
ENDBRANCH   1   2
BRANCH   1   9
ATOM      9  C   UNL     1      45.535  26.047   4.472  1.00  0.00     0.000 C 
BRANCH   9  10
ATOM     10  C   UNL     1      46.740  26.515   5.303  1.00  0.00    -0.000 C 
BRANCH  10  11
ATOM     11  C   UNL     1      46.291  27.409   6.465  1.00  0.00    -0.000 C 
BRANCH  11  12
ATOM     12  C   UNL     1      46.068  26.582   7.741  1.00  0.00    -0.000 C 
BRANCH  12  13
ATOM     13  C   UNL     1      45.562  27.433   8.915  1.00  0.00    -0.003 C 
ATOM     14  C   UNL     1      45.339  28.896   8.532  1.00  0.00     0.004 C 
ENDBRANCH  12  13
ENDBRANCH  11  12
ENDBRANCH  10  11
ENDBRANCH   9  10
ENDBRANCH   1   9
TORSDOF 10
ENDMDL
