MODEL 1
REMARK VINA RESULT:    -4.375      0.000      0.000
REMARK INTER + INTRA:          -5.558
REMARK INTER:                  -5.398
REMARK INTRA:                  -0.160
REMARK UNBOUND:                -0.160
REMARK SMILES CCCCCC=O
REMARK SMILES IDX 4 1 3 2 2 3 1 4 5 5 6 6 7 7
REMARK H PARENT
REMARK Flexibility Score: inf
ROOT
ATOM      1  C   UNL     1      -8.439  -5.715  17.978  1.00  0.00     0.008 C 
ENDROOT
BRANCH   1   2
ATOM      2  C   UNL     1      -8.914  -5.371  16.551  1.00  0.00     0.000 C 
BRANCH   2   3
ATOM      3  C   UNL     1      -8.154  -6.089  15.420  1.00  0.00    -0.003 C 
ATOM      4  C   UNL     1      -7.003  -5.261  14.852  1.00  0.00     0.004 C 
ENDBRANCH   2   3
ENDBRANCH   1   2
BRANCH   1   5
ATOM      5  C   UNL     1      -7.614  -7.009  18.083  1.00  0.00     0.072 C 
BRANCH   5   6
ATOM      6  C   UNL     1      -6.142  -6.746  18.219  1.00  0.00     0.224 C 
ATOM      7  O   UNL     1      -5.722  -5.602  18.160  1.00  0.00    -0.303 OA
ENDBRANCH   5   6
ENDBRANCH   1   5
TORSDOF 4
ENDMDL
MODEL 2
REMARK VINA RESULT:    -4.347      1.340      2.970
REMARK INTER + INTRA:          -5.523
REMARK INTER:                  -5.309
REMARK INTRA:                  -0.214
REMARK UNBOUND:                -0.160
REMARK SMILES CCCCCC=O
REMARK SMILES IDX 4 1 3 2 2 3 1 4 5 5 6 6 7 7
REMARK H PARENT
REMARK Flexibility Score: inf
ROOT
ATOM      1  C   UNL     1      -8.570  -5.673  16.567  1.00  0.00     0.008 C 
ENDROOT
BRANCH   1   2
ATOM      2  C   UNL     1      -8.632  -6.994  17.359  1.00  0.00     0.000 C 
BRANCH   2   3
ATOM      3  C   UNL     1      -7.266  -7.632  17.674  1.00  0.00    -0.003 C 
ATOM      4  C   UNL     1      -6.299  -6.667  18.358  1.00  0.00     0.004 C 
ENDBRANCH   2   3
ENDBRANCH   1   2
BRANCH   1   5
ATOM      5  C   UNL     1      -7.954  -5.798  15.163  1.00  0.00     0.072 C 
BRANCH   5   6
ATOM      6  C   UNL     1      -6.728  -4.947  14.993  1.00  0.00     0.224 C 
ATOM      7  O   UNL     1      -5.621  -5.443  15.126  1.00  0.00    -0.303 OA
ENDBRANCH   5   6
ENDBRANCH   1   5
TORSDOF 4
ENDMDL
MODEL 3
REMARK VINA RESULT:    -4.313      2.003      2.593
REMARK INTER + INTRA:          -5.481
REMARK INTER:                  -5.344
REMARK INTRA:                  -0.137
REMARK UNBOUND:                -0.160
REMARK SMILES CCCCCC=O
REMARK SMILES IDX 4 1 3 2 2 3 1 4 5 5 6 6 7 7
REMARK H PARENT
REMARK Flexibility Score: inf
ROOT
ATOM      1  C   UNL     1      -6.328  -7.006  17.962  1.00  0.00     0.008 C 
ENDROOT
BRANCH   1   2
ATOM      2  C   UNL     1      -6.132  -5.478  18.046  1.00  0.00     0.000 C 
BRANCH   2   3
ATOM      3  C   UNL     1      -7.063  -4.650  17.141  1.00  0.00    -0.003 C 
ATOM      4  C   UNL     1      -6.456  -4.356  15.769  1.00  0.00     0.004 C 
ENDBRANCH   2   3
ENDBRANCH   1   2
BRANCH   1   5
ATOM      5  C   UNL     1      -7.742  -7.447  17.549  1.00  0.00     0.072 C 
BRANCH   5   6
ATOM      6  C   UNL     1      -7.818  -7.869  16.110  1.00  0.00     0.224 C 
ATOM      7  O   UNL     1      -6.813  -7.848  15.418  1.00  0.00    -0.303 OA
ENDBRANCH   5   6
ENDBRANCH   1   5
TORSDOF 4
ENDMDL
MODEL 4
REMARK VINA RESULT:    -4.298      1.834      2.863
REMARK INTER + INTRA:          -5.463
REMARK INTER:                  -5.260
REMARK INTRA:                  -0.203
REMARK UNBOUND:                -0.160
REMARK SMILES CCCCCC=O
REMARK SMILES IDX 4 1 3 2 2 3 1 4 5 5 6 6 7 7
REMARK H PARENT
REMARK Flexibility Score: inf
ROOT
ATOM      1  C   UNL     1      -6.153  -5.690  17.879  1.00  0.00     0.008 C 
ENDROOT
BRANCH   1   2
ATOM      2  C   UNL     1      -7.079  -6.809  18.398  1.00  0.00     0.000 C 
BRANCH   2   3
ATOM      3  C   UNL     1      -8.215  -7.212  17.440  1.00  0.00    -0.003 C 
ATOM      4  C   UNL     1      -7.728  -8.028  16.244  1.00  0.00     0.004 C 
ENDBRANCH   2   3
ENDBRANCH   1   2
BRANCH   1   5
ATOM      5  C   UNL     1      -6.868  -4.589  17.077  1.00  0.00     0.072 C 
BRANCH   5   6
ATOM      6  C   UNL     1      -6.390  -4.508  15.656  1.00  0.00     0.224 C 
ATOM      7  O   UNL     1      -5.656  -5.375  15.212  1.00  0.00    -0.303 OA
ENDBRANCH   5   6
ENDBRANCH   1   5
TORSDOF 4
ENDMDL
MODEL 5
REMARK VINA RESULT:    -4.231      1.631      2.959
REMARK INTER + INTRA:          -5.380
REMARK INTER:                  -5.196
REMARK INTRA:                  -0.183
REMARK UNBOUND:                -0.160
REMARK SMILES CCCCCC=O
REMARK SMILES IDX 4 1 3 2 2 3 1 4 5 5 6 6 7 7
REMARK H PARENT
REMARK Flexibility Score: inf
ROOT
ATOM      1  C   UNL     1      -5.996  -5.819  17.588  1.00  0.00     0.008 C 
ENDROOT
BRANCH   1   2
ATOM      2  C   UNL     1      -6.933  -6.811  18.307  1.00  0.00     0.000 C 
BRANCH   2   3
ATOM      3  C   UNL     1      -8.290  -7.043  17.617  1.00  0.00    -0.003 C 
ATOM      4  C   UNL     1      -9.029  -5.744  17.298  1.00  0.00     0.004 C 
ENDBRANCH   2   3
ENDBRANCH   1   2
BRANCH   1   5
ATOM      5  C   UNL     1      -5.617  -6.222  16.153  1.00  0.00     0.072 C 
BRANCH   5   6
ATOM      6  C   UNL     1      -5.974  -5.169  15.144  1.00  0.00     0.224 C 
ATOM      7  O   UNL     1      -6.313  -4.058  15.520  1.00  0.00    -0.303 OA
ENDBRANCH   5   6
ENDBRANCH   1   5
TORSDOF 4
ENDMDL
MODEL 6
REMARK VINA RESULT:    -4.014      1.958      3.407
REMARK INTER + INTRA:          -5.112
REMARK INTER:                  -4.943
REMARK INTRA:                  -0.169
REMARK UNBOUND:                -0.160
REMARK SMILES CCCCCC=O
REMARK SMILES IDX 4 1 3 2 2 3 1 4 5 5 6 6 7 7
REMARK H PARENT
REMARK Flexibility Score: inf
ROOT
ATOM      1  C   UNL     1      -7.028  -7.898  15.730  1.00  0.00     0.008 C 
ENDROOT
BRANCH   1   2
ATOM      2  C   UNL     1      -5.861  -7.227  16.481  1.00  0.00     0.000 C 
BRANCH   2   3
ATOM      3  C   UNL     1      -6.113  -6.961  17.977  1.00  0.00    -0.003 C 
ATOM      4  C   UNL     1      -6.073  -5.477  18.336  1.00  0.00     0.004 C 
ENDBRANCH   2   3
ENDBRANCH   1   2
BRANCH   1   5
ATOM      5  C   UNL     1      -8.415  -7.314  16.050  1.00  0.00     0.072 C 
BRANCH   5   6
ATOM      6  C   UNL     1      -8.554  -5.884  15.612  1.00  0.00     0.224 C 
ATOM      7  O   UNL     1      -8.965  -5.046  16.397  1.00  0.00    -0.303 OA
ENDBRANCH   5   6
ENDBRANCH   1   5
TORSDOF 4
ENDMDL
MODEL 7
REMARK VINA RESULT:    -3.903      1.828      2.397
REMARK INTER + INTRA:          -4.975
REMARK INTER:                  -4.772
REMARK INTRA:                  -0.203
REMARK UNBOUND:                -0.160
REMARK SMILES CCCCCC=O
REMARK SMILES IDX 4 1 3 2 2 3 1 4 5 5 6 6 7 7
REMARK H PARENT
REMARK Flexibility Score: inf
ROOT
ATOM      1  C   UNL     1      -7.006  -7.465  16.164  1.00  0.00     0.008 C 
ENDROOT
BRANCH   1   2
ATOM      2  C   UNL     1      -5.757  -6.570  16.040  1.00  0.00     0.000 C 
BRANCH   2   3
ATOM      3  C   UNL     1      -5.900  -5.381  15.072  1.00  0.00    -0.003 C 
ATOM      4  C   UNL     1      -6.372  -4.101  15.761  1.00  0.00     0.004 C 
ENDBRANCH   2   3
ENDBRANCH   1   2
BRANCH   1   5
ATOM      5  C   UNL     1      -7.487  -7.696  17.607  1.00  0.00     0.072 C 
BRANCH   5   6
ATOM      6  C   UNL     1      -7.750  -6.413  18.340  1.00  0.00     0.224 C 
ATOM      7  O   UNL     1      -8.621  -5.655  17.945  1.00  0.00    -0.303 OA
ENDBRANCH   5   6
ENDBRANCH   1   5
TORSDOF 4
ENDMDL
MODEL 8
REMARK VINA RESULT:    -3.735      2.119      2.967
REMARK INTER + INTRA:          -4.769
REMARK INTER:                  -4.660
REMARK INTRA:                  -0.108
REMARK UNBOUND:                -0.160
REMARK SMILES CCCCCC=O
REMARK SMILES IDX 4 1 3 2 2 3 1 4 5 5 6 6 7 7
REMARK H PARENT
REMARK Flexibility Score: inf
ROOT
ATOM      1  C   UNL     1      -6.029  -5.372  16.613  1.00  0.00     0.008 C 
ENDROOT
BRANCH   1   2
ATOM      2  C   UNL     1      -6.848  -4.852  17.811  1.00  0.00     0.000 C 
BRANCH   2   3
ATOM      3  C   UNL     1      -8.041  -5.737  18.219  1.00  0.00    -0.003 C 
ATOM      4  C   UNL     1      -9.202  -5.671  17.227  1.00  0.00     0.004 C 
ENDBRANCH   2   3
ENDBRANCH   1   2
BRANCH   1   5
ATOM      5  C   UNL     1      -5.775  -6.889  16.621  1.00  0.00     0.072 C 
BRANCH   5   6
ATOM      6  C   UNL     1      -6.590  -7.616  15.591  1.00  0.00     0.224 C 
ATOM      7  O   UNL     1      -7.476  -8.378  15.944  1.00  0.00    -0.303 OA
ENDBRANCH   5   6
ENDBRANCH   1   5
TORSDOF 4
ENDMDL
MODEL 9
REMARK VINA RESULT:    -3.414      9.693     10.549
REMARK INTER + INTRA:          -4.372
REMARK INTER:                  -4.289
REMARK INTRA:                  -0.082
REMARK UNBOUND:                -0.160
REMARK SMILES CCCCCC=O
REMARK SMILES IDX 4 1 3 2 2 3 1 4 5 5 6 6 7 7
REMARK H PARENT
REMARK Flexibility Score: inf
ROOT
ATOM      1  C   UNL     1     -14.335 -11.021  21.491  1.00  0.00     0.008 C 
ENDROOT
BRANCH   1   2
ATOM      2  C   UNL     1     -13.466 -12.138  22.103  1.00  0.00     0.000 C 
BRANCH   2   3
ATOM      3  C   UNL     1     -12.492 -11.677  23.203  1.00  0.00    -0.003 C 
ATOM      4  C   UNL     1     -11.031 -11.982  22.876  1.00  0.00     0.004 C 
ENDBRANCH   2   3
ENDBRANCH   1   2
BRANCH   1   5
ATOM      5  C   UNL     1     -15.773 -10.959  22.035  1.00  0.00     0.072 C 
BRANCH   5   6
ATOM      6  C   UNL     1     -16.111  -9.618  22.621  1.00  0.00     0.224 C 
ATOM      7  O   UNL     1     -15.730  -9.333  23.745  1.00  0.00    -0.303 OA
ENDBRANCH   5   6
ENDBRANCH   1   5
TORSDOF 4
ENDMDL
