MODEL 1
REMARK VINA RESULT:    -3.804      0.000      0.000
REMARK INTER + INTRA:          -4.863
REMARK INTER:                  -4.694
REMARK INTRA:                  -0.169
REMARK UNBOUND:                -0.169
REMARK SMILES CCCCCC(=O)[O-]
REMARK SMILES IDX 4 1 5 2 6 3 7 4 8 5 3 6 2 7 1 8
REMARK H PARENT
REMARK Flexibility Score: inf
ROOT
ATOM      1  C   UNL     1      49.053 -12.226  15.891  1.00  0.00     0.006 C 
ENDROOT
BRANCH   1   2
ATOM      2  C   UNL     1      47.996 -11.239  15.378  1.00  0.00     0.053 C 
BRANCH   2   3
ATOM      3  C   UNL     1      48.168 -10.950  13.918  1.00  0.00     0.041 C 
ATOM      4  O   UNL     1      47.875  -9.815  13.458  1.00  0.00    -0.550 OA
ATOM      5  O   UNL     1      48.617 -11.945  13.059  1.00  0.00    -0.550 OA
ENDBRANCH   2   3
ENDBRANCH   1   2
BRANCH   1   6
ATOM      6  C   UNL     1      49.778 -11.703  17.142  1.00  0.00     0.000 C 
BRANCH   6   7
ATOM      7  C   UNL     1      50.921 -10.757  16.757  1.00  0.00    -0.003 C 
ATOM      8  C   UNL     1      51.725 -11.311  15.585  1.00  0.00     0.004 C 
ENDBRANCH   6   7
ENDBRANCH   1   6
TORSDOF 4
ENDMDL
MODEL 2
REMARK VINA RESULT:    -3.609      8.631      9.469
REMARK INTER + INTRA:          -4.622
REMARK INTER:                  -4.513
REMARK INTRA:                  -0.109
REMARK UNBOUND:                -0.169
REMARK SMILES CCCCCC(=O)[O-]
REMARK SMILES IDX 4 1 5 2 6 3 7 4 8 5 3 6 2 7 1 8
REMARK H PARENT
REMARK Flexibility Score: inf
ROOT
ATOM      1  C   UNL     1      54.560  -3.145  12.800  1.00  0.00     0.006 C 
ENDROOT
BRANCH   1   2
ATOM      2  C   UNL     1      53.093  -2.973  13.212  1.00  0.00     0.053 C 
BRANCH   2   3
ATOM      3  C   UNL     1      52.182  -3.848  12.408  1.00  0.00     0.041 C 
ATOM      4  O   UNL     1      50.958  -3.920  12.692  1.00  0.00    -0.550 OA
ATOM      5  O   UNL     1      52.691  -4.613  11.366  1.00  0.00    -0.550 OA
ENDBRANCH   2   3
ENDBRANCH   1   2
BRANCH   1   6
ATOM      6  C   UNL     1      55.363  -3.954  13.831  1.00  0.00     0.000 C 
BRANCH   6   7
ATOM      7  C   UNL     1      56.852  -3.596  13.770  1.00  0.00    -0.003 C 
ATOM      8  C   UNL     1      57.143  -2.314  14.543  1.00  0.00     0.004 C 
ENDBRANCH   6   7
ENDBRANCH   1   6
TORSDOF 4
ENDMDL
MODEL 3
REMARK VINA RESULT:    -3.544      8.782      9.703
REMARK INTER + INTRA:          -4.541
REMARK INTER:                  -4.414
REMARK INTRA:                  -0.127
REMARK UNBOUND:                -0.169
REMARK SMILES CCCCCC(=O)[O-]
REMARK SMILES IDX 4 1 5 2 6 3 7 4 8 5 3 6 2 7 1 8
REMARK H PARENT
REMARK Flexibility Score: inf
ROOT
ATOM      1  C   UNL     1      54.527  -2.757  13.229  1.00  0.00     0.006 C 
ENDROOT
BRANCH   1   2
ATOM      2  C   UNL     1      53.945  -3.113  11.855  1.00  0.00     0.053 C 
BRANCH   2   3
ATOM      3  C   UNL     1      52.757  -4.018  11.970  1.00  0.00     0.041 C 
ATOM      4  O   UNL     1      52.582  -4.944  11.136  1.00  0.00    -0.550 OA
ATOM      5  O   UNL     1      51.823  -3.815  12.979  1.00  0.00    -0.550 OA
ENDBRANCH   2   3
ENDBRANCH   1   2
BRANCH   1   6
ATOM      6  C   UNL     1      55.385  -3.893  13.809  1.00  0.00     0.000 C 
BRANCH   6   7
ATOM      7  C   UNL     1      56.872  -3.518  13.796  1.00  0.00    -0.003 C 
ATOM      8  C   UNL     1      57.132  -2.267  14.629  1.00  0.00     0.004 C 
ENDBRANCH   6   7
ENDBRANCH   1   6
TORSDOF 4
ENDMDL
MODEL 4
REMARK VINA RESULT:    -3.419      9.588     10.615
REMARK INTER + INTRA:          -4.388
REMARK INTER:                  -4.283
REMARK INTRA:                  -0.104
REMARK UNBOUND:                -0.169
REMARK SMILES CCCCCC(=O)[O-]
REMARK SMILES IDX 4 1 5 2 6 3 7 4 8 5 3 6 2 7 1 8
REMARK H PARENT
REMARK Flexibility Score: inf
ROOT
ATOM      1  C   UNL     1      54.067  -2.708  12.769  1.00  0.00     0.006 C 
ENDROOT
BRANCH   1   2
ATOM      2  C   UNL     1      54.879  -3.711  13.598  1.00  0.00     0.053 C 
BRANCH   2   3
ATOM      3  C   UNL     1      56.218  -3.161  13.982  1.00  0.00     0.041 C 
ATOM      4  O   UNL     1      57.270  -3.664  13.508  1.00  0.00    -0.550 OA
ATOM      5  O   UNL     1      56.306  -2.114  14.891  1.00  0.00    -0.550 OA
ENDBRANCH   2   3
ENDBRANCH   1   2
BRANCH   1   6
ATOM      6  C   UNL     1      53.555  -3.318  11.455  1.00  0.00     0.000 C 
BRANCH   6   7
ATOM      7  C   UNL     1      52.345  -4.225  11.706  1.00  0.00    -0.003 C 
ATOM      8  C   UNL     1      51.259  -3.492  12.487  1.00  0.00     0.004 C 
ENDBRANCH   6   7
ENDBRANCH   1   6
TORSDOF 4
ENDMDL
MODEL 5
REMARK VINA RESULT:    -3.408     14.516     15.902
REMARK INTER + INTRA:          -4.374
REMARK INTER:                  -4.327
REMARK INTRA:                  -0.047
REMARK UNBOUND:                -0.169
REMARK SMILES CCCCCC(=O)[O-]
REMARK SMILES IDX 4 1 5 2 6 3 7 4 8 5 3 6 2 7 1 8
REMARK H PARENT
REMARK Flexibility Score: inf
ROOT
ATOM      1  C   UNL     1      60.980  -3.898  21.204  1.00  0.00     0.006 C 
ENDROOT
BRANCH   1   2
ATOM      2  C   UNL     1      62.318  -4.312  20.578  1.00  0.00     0.053 C 
BRANCH   2   3
ATOM      3  C   UNL     1      63.480  -3.932  21.444  1.00  0.00     0.041 C 
ATOM      4  O   UNL     1      64.591  -3.649  20.926  1.00  0.00    -0.550 OA
ATOM      5  O   UNL     1      63.344  -3.926  22.827  1.00  0.00    -0.550 OA
ENDBRANCH   2   3
ENDBRANCH   1   2
BRANCH   1   6
ATOM      6  C   UNL     1      59.806  -4.054  20.224  1.00  0.00     0.000 C 
BRANCH   6   7
ATOM      7  C   UNL     1      58.505  -4.362  20.972  1.00  0.00    -0.003 C 
ATOM      8  C   UNL     1      57.537  -3.184  20.903  1.00  0.00     0.004 C 
ENDBRANCH   6   7
ENDBRANCH   1   6
TORSDOF 4
ENDMDL
MODEL 6
REMARK VINA RESULT:    -3.359      9.676     10.655
REMARK INTER + INTRA:          -4.313
REMARK INTER:                  -4.205
REMARK INTRA:                  -0.107
REMARK UNBOUND:                -0.169
REMARK SMILES CCCCCC(=O)[O-]
REMARK SMILES IDX 4 1 5 2 6 3 7 4 8 5 3 6 2 7 1 8
REMARK H PARENT
REMARK Flexibility Score: inf
ROOT
ATOM      1  C   UNL     1      55.954  -3.513  13.631  1.00  0.00     0.006 C 
ENDROOT
BRANCH   1   2
ATOM      2  C   UNL     1      54.704  -2.625  13.591  1.00  0.00     0.053 C 
BRANCH   2   3
ATOM      3  C   UNL     1      53.618  -3.228  12.754  1.00  0.00     0.041 C 
ATOM      4  O   UNL     1      53.777  -3.367  11.513  1.00  0.00    -0.550 OA
ATOM      5  O   UNL     1      52.417  -3.606  13.340  1.00  0.00    -0.550 OA
ENDBRANCH   2   3
ENDBRANCH   1   2
BRANCH   1   6
ATOM      6  C   UNL     1      57.171  -2.780  14.218  1.00  0.00     0.000 C 
BRANCH   6   7
ATOM      7  C   UNL     1      56.745  -1.486  14.920  1.00  0.00    -0.003 C 
ATOM      8  C   UNL     1      57.582  -1.236  16.171  1.00  0.00     0.004 C 
ENDBRANCH   6   7
ENDBRANCH   1   6
TORSDOF 4
ENDMDL
MODEL 7
REMARK VINA RESULT:    -3.315     10.658     11.760
REMARK INTER + INTRA:          -4.258
REMARK INTER:                  -4.139
REMARK INTRA:                  -0.119
REMARK UNBOUND:                -0.169
REMARK SMILES CCCCCC(=O)[O-]
REMARK SMILES IDX 4 1 5 2 6 3 7 4 8 5 3 6 2 7 1 8
REMARK H PARENT
REMARK Flexibility Score: inf
ROOT
ATOM      1  C   UNL     1      57.344  -1.604  15.153  1.00  0.00     0.006 C 
ENDROOT
BRANCH   1   2
ATOM      2  C   UNL     1      55.980  -2.098  14.653  1.00  0.00     0.053 C 
BRANCH   2   3
ATOM      3  C   UNL     1      56.094  -3.399  13.920  1.00  0.00     0.041 C 
ATOM      4  O   UNL     1      55.079  -4.125  13.756  1.00  0.00    -0.550 OA
ATOM      5  O   UNL     1      57.328  -3.828  13.450  1.00  0.00    -0.550 OA
ENDBRANCH   2   3
ENDBRANCH   1   2
BRANCH   1   6
ATOM      6  C   UNL     1      57.236  -0.857  16.492  1.00  0.00     0.000 C 
BRANCH   6   7
ATOM      7  C   UNL     1      55.793  -0.858  17.007  1.00  0.00    -0.003 C 
ATOM      8  C   UNL     1      55.751  -0.829  18.532  1.00  0.00     0.004 C 
ENDBRANCH   6   7
ENDBRANCH   1   6
TORSDOF 4
ENDMDL
MODEL 8
REMARK VINA RESULT:    -3.282     14.456     15.833
REMARK INTER + INTRA:          -4.219
REMARK INTER:                  -4.029
REMARK INTRA:                  -0.189
REMARK UNBOUND:                -0.169
REMARK SMILES CCCCCC(=O)[O-]
REMARK SMILES IDX 4 1 5 2 6 3 7 4 8 5 3 6 2 7 1 8
REMARK H PARENT
REMARK Flexibility Score: inf
ROOT
ATOM      1  C   UNL     1      60.975  -3.316  22.156  1.00  0.00     0.006 C 
ENDROOT
BRANCH   1   2
ATOM      2  C   UNL     1      62.340  -3.977  22.386  1.00  0.00     0.053 C 
BRANCH   2   3
ATOM      3  C   UNL     1      63.131  -4.078  21.118  1.00  0.00     0.041 C 
ATOM      4  O   UNL     1      62.734  -4.820  20.181  1.00  0.00    -0.550 OA
ATOM      5  O   UNL     1      64.324  -3.381  20.983  1.00  0.00    -0.550 OA
ENDBRANCH   2   3
ENDBRANCH   1   2
BRANCH   1   6
ATOM      6  C   UNL     1      59.809  -4.282  22.421  1.00  0.00     0.000 C 
BRANCH   6   7
ATOM      7  C   UNL     1      58.733  -4.153  21.338  1.00  0.00    -0.003 C 
ATOM      8  C   UNL     1      59.359  -3.982  19.957  1.00  0.00     0.004 C 
ENDBRANCH   6   7
ENDBRANCH   1   6
TORSDOF 4
ENDMDL
MODEL 9
REMARK VINA RESULT:    -3.247      9.272     10.155
REMARK INTER + INTRA:          -4.175
REMARK INTER:                  -4.075
REMARK INTRA:                  -0.100
REMARK UNBOUND:                -0.169
REMARK SMILES CCCCCC(=O)[O-]
REMARK SMILES IDX 4 1 5 2 6 3 7 4 8 5 3 6 2 7 1 8
REMARK H PARENT
REMARK Flexibility Score: inf
ROOT
ATOM      1  C   UNL     1      52.085  -3.838   9.737  1.00  0.00     0.006 C 
ENDROOT
BRANCH   1   2
ATOM      2  C   UNL     1      52.534  -4.468  11.062  1.00  0.00     0.053 C 
BRANCH   2   3
ATOM      3  C   UNL     1      52.070  -3.670  12.242  1.00  0.00     0.041 C 
ATOM      4  O   UNL     1      52.728  -3.686  13.315  1.00  0.00    -0.550 OA
ATOM      5  O   UNL     1      50.893  -2.936  12.168  1.00  0.00    -0.550 OA
ENDBRANCH   2   3
ENDBRANCH   1   2
BRANCH   1   6
ATOM      6  C   UNL     1      53.242  -3.143   9.002  1.00  0.00     0.000 C 
BRANCH   6   7
ATOM      7  C   UNL     1      54.295  -4.161   8.550  1.00  0.00    -0.003 C 
ATOM      8  C   UNL     1      54.327  -4.282   7.029  1.00  0.00     0.004 C 
ENDBRANCH   6   7
ENDBRANCH   1   6
TORSDOF 4
ENDMDL
