MODEL 1
REMARK VINA RESULT:    -6.026      0.000      0.000
REMARK INTER + INTRA:         -10.097
REMARK INTER:                  -9.373
REMARK INTRA:                  -0.724
REMARK UNBOUND:                -0.724
REMARK SMILES COc1cc(CNC(=O)CCCCC=CC(C)C)ccc1O
REMARK SMILES IDX 11 1 12 2 13 3 14 4 15 5 16 6 17 7 18 8 10 9 8 10 9 11 7 12
REMARK SMILES IDX 6 14 5 15 4 16 19 17 3 18 20 19 21 20 2 21 1 22 22 23
REMARK H PARENT 7 13 22 24
REMARK Flexibility Score: inf
ROOT
ATOM      1  C   UNL     1      -3.549  17.181  31.581  1.00  0.00     0.010 C 
ENDROOT
BRANCH   1   2
ATOM      2  C   UNL     1      -3.258  16.736  30.143  1.00  0.00     0.005 C 
BRANCH   2   3
ATOM      3  C   UNL     1      -3.769  15.313  29.892  1.00  0.00     0.027 C 
BRANCH   3   4
ATOM      4  C   UNL     1      -2.747  14.498  29.148  1.00  0.00    -0.031 C 
ATOM      5  C   UNL     1      -1.687  15.071  28.557  1.00  0.00    -0.028 C 
BRANCH   5   6
ATOM      6  C   UNL     1      -0.657  14.245  27.823  1.00  0.00     0.005 C 
ATOM      7  C   UNL     1      -0.141  15.001  26.591  1.00  0.00     0.012 C 
ATOM      8  C   UNL     1       0.506  13.887  28.755  1.00  0.00     0.012 C 
ENDBRANCH   5   6
ENDBRANCH   3   4
ENDBRANCH   2   3
ENDBRANCH   1   2
BRANCH   1   9
ATOM      9  C   UNL     1      -4.810  16.499  32.124  1.00  0.00     0.100 C 
BRANCH   9  10
ATOM     10  C   UNL     1      -4.914  16.687  33.609  1.00  0.00     0.220 C 
ATOM     11  O   UNL     1      -4.879  15.676  34.362  1.00  0.00    -0.275 OA
ATOM     12  N   UNL     1      -5.029  18.004  34.167  1.00  0.00    -0.352 N 
ATOM     13  H   UNL     1      -5.025  18.830  33.528  1.00  0.00     0.163 HD
BRANCH  12  14
ATOM     14  C   UNL     1      -5.110  18.244  35.607  1.00  0.00     0.151 C 
BRANCH  14  15
ATOM     15  C   UNL     1      -4.284  19.441  35.991  1.00  0.00    -0.025 A 
ATOM     16  C   UNL     1      -2.941  19.525  35.592  1.00  0.00     0.056 A 
ATOM     17  C   UNL     1      -4.852  20.491  36.727  1.00  0.00     0.009 A 
ATOM     18  C   UNL     1      -2.168  20.655  35.924  1.00  0.00     0.160 A 
ATOM     19  C   UNL     1      -4.089  21.612  37.059  1.00  0.00     0.050 A 
ATOM     20  C   UNL     1      -2.751  21.698  36.659  1.00  0.00     0.157 A 
BRANCH  18  21
ATOM     21  O   UNL     1      -0.823  20.779  35.542  1.00  0.00    -0.493 OA
ATOM     22  C   UNL     1      -0.359  20.739  34.196  1.00  0.00     0.278 C 
ENDBRANCH  18  21
BRANCH  20  23
ATOM     23  O   UNL     1      -1.990  22.819  36.987  1.00  0.00    -0.504 OA
ATOM     24  H   UNL     1      -1.718  23.015  37.943  1.00  0.00     0.293 HD
ENDBRANCH  20  23
ENDBRANCH  14  15
ENDBRANCH  12  14
ENDBRANCH   9  10
ENDBRANCH   1   9
TORSDOF 10
ENDMDL
MODEL 2
REMARK VINA RESULT:    -5.865      1.215      1.350
REMARK INTER + INTRA:          -9.846
REMARK INTER:                  -9.240
REMARK INTRA:                  -0.606
REMARK UNBOUND:                -0.724
REMARK SMILES COc1cc(CNC(=O)CCCCC=CC(C)C)ccc1O
REMARK SMILES IDX 11 1 12 2 13 3 14 4 15 5 16 6 17 7 18 8 10 9 8 10 9 11 7 12
REMARK SMILES IDX 6 14 5 15 4 16 19 17 3 18 20 19 21 20 2 21 1 22 22 23
REMARK H PARENT 7 13 22 24
REMARK Flexibility Score: inf
ROOT
ATOM      1  C   UNL     1      -2.802  15.360  31.877  1.00  0.00     0.010 C 
ENDROOT
BRANCH   1   2
ATOM      2  C   UNL     1      -4.048  14.958  31.078  1.00  0.00     0.005 C 
BRANCH   2   3
ATOM      3  C   UNL     1      -3.901  15.339  29.601  1.00  0.00     0.027 C 
BRANCH   3   4
ATOM      4  C   UNL     1      -2.827  14.519  28.939  1.00  0.00    -0.031 C 
ATOM      5  C   UNL     1      -1.734  15.089  28.410  1.00  0.00    -0.028 C 
BRANCH   5   6
ATOM      6  C   UNL     1      -0.653  14.258  27.759  1.00  0.00     0.005 C 
ATOM      7  C   UNL     1      -0.062  14.997  26.551  1.00  0.00     0.012 C 
ATOM      8  C   UNL     1       0.449  13.924  28.771  1.00  0.00     0.012 C 
ENDBRANCH   5   6
ENDBRANCH   3   4
ENDBRANCH   2   3
ENDBRANCH   1   2
BRANCH   1   9
ATOM      9  C   UNL     1      -2.863  16.835  32.288  1.00  0.00     0.100 C 
BRANCH   9  10
ATOM     10  C   UNL     1      -3.265  16.966  33.728  1.00  0.00     0.220 C 
ATOM     11  O   UNL     1      -3.563  15.931  34.382  1.00  0.00    -0.275 OA
ATOM     12  N   UNL     1      -3.288  18.255  34.360  1.00  0.00    -0.352 N 
ATOM     13  H   UNL     1      -3.007  19.097  33.809  1.00  0.00     0.163 HD
BRANCH  12  14
ATOM     14  C   UNL     1      -3.648  18.435  35.765  1.00  0.00     0.151 C 
BRANCH  14  15
ATOM     15  C   UNL     1      -3.429  19.862  36.189  1.00  0.00    -0.025 A 
ATOM     16  C   UNL     1      -2.131  20.397  36.209  1.00  0.00     0.056 A 
ATOM     17  C   UNL     1      -4.516  20.675  36.542  1.00  0.00     0.009 A 
ATOM     18  C   UNL     1      -1.920  21.740  36.578  1.00  0.00     0.160 A 
ATOM     19  C   UNL     1      -4.310  22.006  36.909  1.00  0.00     0.050 A 
ATOM     20  C   UNL     1      -3.018  22.541  36.927  1.00  0.00     0.157 A 
BRANCH  18  21
ATOM     21  O   UNL     1      -0.640  22.314  36.608  1.00  0.00    -0.493 OA
ATOM     22  C   UNL     1       0.021  22.874  35.477  1.00  0.00     0.278 C 
ENDBRANCH  18  21
BRANCH  20  23
ATOM     23  O   UNL     1      -2.812  23.871  37.290  1.00  0.00    -0.504 OA
ATOM     24  H   UNL     1      -2.972  24.630  36.639  1.00  0.00     0.293 HD
ENDBRANCH  20  23
ENDBRANCH  14  15
ENDBRANCH  12  14
ENDBRANCH   9  10
ENDBRANCH   1   9
TORSDOF 10
ENDMDL
MODEL 3
REMARK VINA RESULT:    -5.810      3.111      8.686
REMARK INTER + INTRA:          -9.761
REMARK INTER:                  -9.103
REMARK INTRA:                  -0.658
REMARK UNBOUND:                -0.724
REMARK SMILES COc1cc(CNC(=O)CCCCC=CC(C)C)ccc1O
REMARK SMILES IDX 11 1 12 2 13 3 14 4 15 5 16 6 17 7 18 8 10 9 8 10 9 11 7 12
REMARK SMILES IDX 6 14 5 15 4 16 19 17 3 18 20 19 21 20 2 21 1 22 22 23
REMARK H PARENT 7 13 22 24
REMARK Flexibility Score: inf
ROOT
ATOM      1  C   UNL     1      -3.338  16.753  34.239  1.00  0.00     0.010 C 
ENDROOT
BRANCH   1   2
ATOM      2  C   UNL     1      -3.363  18.275  34.429  1.00  0.00     0.005 C 
BRANCH   2   3
ATOM      3  C   UNL     1      -4.441  18.686  35.437  1.00  0.00     0.027 C 
BRANCH   3   4
ATOM      4  C   UNL     1      -4.003  19.884  36.234  1.00  0.00    -0.031 C 
ATOM      5  C   UNL     1      -2.728  20.301  36.231  1.00  0.00    -0.028 C 
BRANCH   5   6
ATOM      6  C   UNL     1      -2.297  21.513  37.024  1.00  0.00     0.005 C 
ATOM      7  C   UNL     1      -0.974  22.068  36.479  1.00  0.00     0.012 C 
ATOM      8  C   UNL     1      -3.384  22.593  36.985  1.00  0.00     0.012 C 
ENDBRANCH   5   6
ENDBRANCH   3   4
ENDBRANCH   2   3
ENDBRANCH   1   2
BRANCH   1   9
ATOM      9  C   UNL     1      -4.723  16.223  33.858  1.00  0.00     0.100 C 
BRANCH   9  10
ATOM     10  C   UNL     1      -4.682  15.556  32.514  1.00  0.00     0.220 C 
ATOM     11  O   UNL     1      -5.125  14.382  32.394  1.00  0.00    -0.275 OA
ATOM     12  N   UNL     1      -4.163  16.256  31.373  1.00  0.00    -0.352 N 
ATOM     13  H   UNL     1      -3.830  17.239  31.486  1.00  0.00     0.163 HD
BRANCH  12  14
ATOM     14  C   UNL     1      -4.122  15.661  30.037  1.00  0.00     0.151 C 
BRANCH  14  15
ATOM     15  C   UNL     1      -2.738  15.161  29.724  1.00  0.00    -0.025 A 
ATOM     16  C   UNL     1      -2.369  14.899  28.396  1.00  0.00     0.056 A 
ATOM     17  C   UNL     1      -1.800  14.976  30.750  1.00  0.00     0.009 A 
ATOM     18  C   UNL     1      -1.067  14.456  28.091  1.00  0.00     0.160 A 
ATOM     19  C   UNL     1      -0.509  14.537  30.452  1.00  0.00     0.050 A 
ATOM     20  C   UNL     1      -0.139  14.278  29.128  1.00  0.00     0.157 A 
BRANCH  18  21
ATOM     21  O   UNL     1      -0.658  14.186  26.776  1.00  0.00    -0.493 OA
ATOM     22  C   UNL     1       0.069  15.094  25.954  1.00  0.00     0.278 C 
ENDBRANCH  18  21
BRANCH  20  23
ATOM     23  O   UNL     1       1.151  13.843  28.830  1.00  0.00    -0.504 OA
ATOM     24  H   UNL     1       1.391  12.858  28.820  1.00  0.00     0.293 HD
ENDBRANCH  20  23
ENDBRANCH  14  15
ENDBRANCH  12  14
ENDBRANCH   9  10
ENDBRANCH   1   9
TORSDOF 10
ENDMDL
MODEL 4
REMARK VINA RESULT:    -5.797      3.133      9.007
REMARK INTER + INTRA:          -9.741
REMARK INTER:                  -9.248
REMARK INTRA:                  -0.493
REMARK UNBOUND:                -0.724
REMARK SMILES COc1cc(CNC(=O)CCCCC=CC(C)C)ccc1O
REMARK SMILES IDX 11 1 12 2 13 3 14 4 15 5 16 6 17 7 18 8 10 9 8 10 9 11 7 12
REMARK SMILES IDX 6 14 5 15 4 16 19 17 3 18 20 19 21 20 2 21 1 22 22 23
REMARK H PARENT 7 13 22 24
REMARK Flexibility Score: inf
ROOT
ATOM      1  C   UNL     1      -3.635  19.134  35.772  1.00  0.00     0.010 C 
ENDROOT
BRANCH   1   2
ATOM      2  C   UNL     1      -3.086  20.421  36.400  1.00  0.00     0.005 C 
BRANCH   2   3
ATOM      3  C   UNL     1      -1.685  20.739  35.866  1.00  0.00     0.027 C 
BRANCH   3   4
ATOM      4  C   UNL     1      -1.102  21.936  36.567  1.00  0.00    -0.031 C 
ATOM      5  C   UNL     1      -0.135  22.677  36.004  1.00  0.00    -0.028 C 
BRANCH   5   6
ATOM      6  C   UNL     1       0.437  23.886  36.708  1.00  0.00     0.005 C 
ATOM      7  C   UNL     1       1.651  24.428  35.943  1.00  0.00     0.012 C 
ATOM      8  C   UNL     1      -0.631  24.976  36.854  1.00  0.00     0.012 C 
ENDBRANCH   5   6
ENDBRANCH   3   4
ENDBRANCH   2   3
ENDBRANCH   1   2
BRANCH   1   9
ATOM      9  C   UNL     1      -2.873  18.777  34.492  1.00  0.00     0.100 C 
BRANCH   9  10
ATOM     10  C   UNL     1      -3.004  17.312  34.190  1.00  0.00     0.220 C 
ATOM     11  O   UNL     1      -3.517  16.549  35.052  1.00  0.00    -0.275 OA
ATOM     12  N   UNL     1      -2.570  16.791  32.925  1.00  0.00    -0.352 N 
ATOM     13  H   UNL     1      -2.176  17.445  32.212  1.00  0.00     0.163 HD
BRANCH  12  14
ATOM     14  C   UNL     1      -2.697  15.378  32.572  1.00  0.00     0.151 C 
BRANCH  14  15
ATOM     15  C   UNL     1      -2.643  15.199  31.079  1.00  0.00    -0.025 A 
ATOM     16  C   UNL     1      -1.518  14.611  30.481  1.00  0.00     0.056 A 
ATOM     17  C   UNL     1      -3.723  15.594  30.275  1.00  0.00     0.009 A 
ATOM     18  C   UNL     1      -1.470  14.416  29.087  1.00  0.00     0.160 A 
ATOM     19  C   UNL     1      -3.680  15.403  28.894  1.00  0.00     0.050 A 
ATOM     20  C   UNL     1      -2.559  14.815  28.297  1.00  0.00     0.157 A 
BRANCH  18  21
ATOM     21  O   UNL     1      -0.365  13.829  28.452  1.00  0.00    -0.493 OA
ATOM     22  C   UNL     1       0.994  14.124  28.760  1.00  0.00     0.278 C 
ENDBRANCH  18  21
BRANCH  20  23
ATOM     23  O   UNL     1      -2.517  14.621  26.918  1.00  0.00    -0.504 OA
ATOM     24  H   UNL     1      -2.976  15.257  26.277  1.00  0.00     0.293 HD
ENDBRANCH  20  23
ENDBRANCH  14  15
ENDBRANCH  12  14
ENDBRANCH   9  10
ENDBRANCH   1   9
TORSDOF 10
ENDMDL
MODEL 5
REMARK VINA RESULT:    -5.489      1.589      2.528
REMARK INTER + INTRA:          -9.262
REMARK INTER:                  -8.559
REMARK INTRA:                  -0.702
REMARK UNBOUND:                -0.724
REMARK SMILES COc1cc(CNC(=O)CCCCC=CC(C)C)ccc1O
REMARK SMILES IDX 11 1 12 2 13 3 14 4 15 5 16 6 17 7 18 8 10 9 8 10 9 11 7 12
REMARK SMILES IDX 6 14 5 15 4 16 19 17 3 18 20 19 21 20 2 21 1 22 22 23
REMARK H PARENT 7 13 22 24
REMARK Flexibility Score: inf
ROOT
ATOM      1  C   UNL     1      -4.977  14.750  31.943  1.00  0.00     0.010 C 
ENDROOT
BRANCH   1   2
ATOM      2  C   UNL     1      -4.414  13.998  30.731  1.00  0.00     0.005 C 
BRANCH   2   3
ATOM      3  C   UNL     1      -3.709  14.958  29.767  1.00  0.00     0.027 C 
BRANCH   3   4
ATOM      4  C   UNL     1      -2.584  14.267  29.047  1.00  0.00    -0.031 C 
ATOM      5  C   UNL     1      -1.657  14.957  28.365  1.00  0.00    -0.028 C 
BRANCH   5   6
ATOM      6  C   UNL     1      -0.522  14.258  27.655  1.00  0.00     0.005 C 
ATOM      7  C   UNL     1       0.001  15.121  26.499  1.00  0.00     0.012 C 
ATOM      8  C   UNL     1       0.610  13.940  28.638  1.00  0.00     0.012 C 
ENDBRANCH   5   6
ENDBRANCH   3   4
ENDBRANCH   2   3
ENDBRANCH   1   2
BRANCH   1   9
ATOM      9  C   UNL     1      -4.455  14.153  33.254  1.00  0.00     0.100 C 
BRANCH   9  10
ATOM     10  C   UNL     1      -4.269  15.226  34.287  1.00  0.00     0.220 C 
ATOM     11  O   UNL     1      -3.949  14.903  35.462  1.00  0.00    -0.275 OA
ATOM     12  N   UNL     1      -4.434  16.608  33.934  1.00  0.00    -0.352 N 
ATOM     13  H   UNL     1      -4.670  16.857  32.947  1.00  0.00     0.163 HD
BRANCH  12  14
ATOM     14  C   UNL     1      -4.242  17.693  34.895  1.00  0.00     0.151 C 
BRANCH  14  15
ATOM     15  C   UNL     1      -3.042  18.522  34.524  1.00  0.00    -0.025 A 
ATOM     16  C   UNL     1      -2.566  19.503  35.407  1.00  0.00     0.056 A 
ATOM     17  C   UNL     1      -2.377  18.305  33.309  1.00  0.00     0.009 A 
ATOM     18  C   UNL     1      -1.427  20.265  35.079  1.00  0.00     0.160 A 
ATOM     19  C   UNL     1      -1.249  19.058  32.980  1.00  0.00     0.050 A 
ATOM     20  C   UNL     1      -0.771  20.036  33.860  1.00  0.00     0.157 A 
BRANCH  18  21
ATOM     21  O   UNL     1      -0.918  21.254  35.935  1.00  0.00    -0.493 OA
ATOM     22  C   UNL     1      -0.682  21.073  37.327  1.00  0.00     0.278 C 
ENDBRANCH  18  21
BRANCH  20  23
ATOM     23  O   UNL     1       0.357  20.785  33.534  1.00  0.00    -0.504 OA
ATOM     24  H   UNL     1       0.558  21.668  33.987  1.00  0.00     0.293 HD
ENDBRANCH  20  23
ENDBRANCH  14  15
ENDBRANCH  12  14
ENDBRANCH   9  10
ENDBRANCH   1   9
TORSDOF 10
ENDMDL
MODEL 6
REMARK VINA RESULT:    -5.449      3.100      8.273
REMARK INTER + INTRA:          -9.199
REMARK INTER:                  -8.508
REMARK INTRA:                  -0.691
REMARK UNBOUND:                -0.724
REMARK SMILES COc1cc(CNC(=O)CCCCC=CC(C)C)ccc1O
REMARK SMILES IDX 11 1 12 2 13 3 14 4 15 5 16 6 17 7 18 8 10 9 8 10 9 11 7 12
REMARK SMILES IDX 6 14 5 15 4 16 19 17 3 18 20 19 21 20 2 21 1 22 22 23
REMARK H PARENT 7 13 22 24
REMARK Flexibility Score: inf
ROOT
ATOM      1  C   UNL     1      -4.722  20.139  36.672  1.00  0.00     0.010 C 
ENDROOT
BRANCH   1   2
ATOM      2  C   UNL     1      -3.915  21.443  36.688  1.00  0.00     0.005 C 
BRANCH   2   3
ATOM      3  C   UNL     1      -2.410  21.160  36.637  1.00  0.00     0.027 C 
BRANCH   3   4
ATOM      4  C   UNL     1      -1.620  22.438  36.702  1.00  0.00    -0.031 C 
ATOM      5  C   UNL     1      -0.348  22.500  36.281  1.00  0.00    -0.028 C 
BRANCH   5   6
ATOM      6  C   UNL     1       0.436  23.790  36.337  1.00  0.00     0.005 C 
ATOM      7  C   UNL     1      -0.442  24.929  36.872  1.00  0.00     0.012 C 
ATOM      8  C   UNL     1       1.683  23.621  37.212  1.00  0.00     0.012 C 
ENDBRANCH   5   6
ENDBRANCH   3   4
ENDBRANCH   2   3
ENDBRANCH   1   2
BRANCH   1   9
ATOM      9  C   UNL     1      -4.254  19.188  37.779  1.00  0.00     0.100 C 
BRANCH   9  10
ATOM     10  C   UNL     1      -3.842  17.866  37.200  1.00  0.00     0.220 C 
ATOM     11  O   UNL     1      -3.427  16.958  37.969  1.00  0.00    -0.275 OA
ATOM     12  N   UNL     1      -3.940  17.631  35.787  1.00  0.00    -0.352 N 
ATOM     13  H   UNL     1      -4.315  18.386  35.170  1.00  0.00     0.163 HD
BRANCH  12  14
ATOM     14  C   UNL     1      -3.574  16.355  35.175  1.00  0.00     0.151 C 
BRANCH  14  15
ATOM     15  C   UNL     1      -3.454  16.499  33.682  1.00  0.00    -0.025 A 
ATOM     16  C   UNL     1      -3.931  15.485  32.837  1.00  0.00     0.056 A 
ATOM     17  C   UNL     1      -2.891  17.655  33.122  1.00  0.00     0.009 A 
ATOM     18  C   UNL     1      -3.847  15.624  31.438  1.00  0.00     0.160 A 
ATOM     19  C   UNL     1      -2.806  17.796  31.736  1.00  0.00     0.050 A 
ATOM     20  C   UNL     1      -3.282  16.787  30.893  1.00  0.00     0.157 A 
BRANCH  18  21
ATOM     21  O   UNL     1      -4.314  14.634  30.559  1.00  0.00    -0.493 OA
ATOM     22  C   UNL     1      -4.707  13.324  30.955  1.00  0.00     0.278 C 
ENDBRANCH  18  21
BRANCH  20  23
ATOM     23  O   UNL     1      -3.201  16.929  29.509  1.00  0.00    -0.504 OA
ATOM     24  H   UNL     1      -3.261  17.837  29.064  1.00  0.00     0.293 HD
ENDBRANCH  20  23
ENDBRANCH  14  15
ENDBRANCH  12  14
ENDBRANCH   9  10
ENDBRANCH   1   9
TORSDOF 10
ENDMDL
MODEL 7
REMARK VINA RESULT:    -5.430      2.888      8.531
REMARK INTER + INTRA:          -9.169
REMARK INTER:                  -8.690
REMARK INTRA:                  -0.479
REMARK UNBOUND:                -0.724
REMARK SMILES COc1cc(CNC(=O)CCCCC=CC(C)C)ccc1O
REMARK SMILES IDX 11 1 12 2 13 3 14 4 15 5 16 6 17 7 18 8 10 9 8 10 9 11 7 12
REMARK SMILES IDX 6 14 5 15 4 16 19 17 3 18 20 19 21 20 2 21 1 22 22 23
REMARK H PARENT 7 13 22 24
REMARK Flexibility Score: inf
ROOT
ATOM      1  C   UNL     1      -3.453  19.546  35.885  1.00  0.00     0.010 C 
ENDROOT
BRANCH   1   2
ATOM      2  C   UNL     1      -2.855  20.819  36.497  1.00  0.00     0.005 C 
BRANCH   2   3
ATOM      3  C   UNL     1      -1.409  21.026  36.034  1.00  0.00     0.027 C 
BRANCH   3   4
ATOM      4  C   UNL     1      -0.830  22.282  36.624  1.00  0.00    -0.031 C 
ATOM      5  C   UNL     1       0.290  22.836  36.136  1.00  0.00    -0.028 C 
BRANCH   5   6
ATOM      6  C   UNL     1       0.859  24.105  36.725  1.00  0.00     0.005 C 
ATOM      7  C   UNL     1       1.923  24.700  35.794  1.00  0.00     0.012 C 
ATOM      8  C   UNL     1      -0.257  25.125  36.979  1.00  0.00     0.012 C 
ENDBRANCH   5   6
ENDBRANCH   3   4
ENDBRANCH   2   3
ENDBRANCH   1   2
BRANCH   1   9
ATOM      9  C   UNL     1      -4.340  18.812  36.896  1.00  0.00     0.100 C 
BRANCH   9  10
ATOM     10  C   UNL     1      -4.078  17.335  36.854  1.00  0.00     0.220 C 
ATOM     11  O   UNL     1      -3.372  16.808  37.755  1.00  0.00    -0.275 OA
ATOM     12  N   UNL     1      -4.644  16.528  35.810  1.00  0.00    -0.352 N 
ATOM     13  H   UNL     1      -5.251  16.978  35.090  1.00  0.00     0.163 HD
BRANCH  12  14
ATOM     14  C   UNL     1      -4.439  15.082  35.737  1.00  0.00     0.151 C 
BRANCH  14  15
ATOM     15  C   UNL     1      -4.360  14.632  34.303  1.00  0.00    -0.025 A 
ATOM     16  C   UNL     1      -4.202  15.576  33.277  1.00  0.00     0.056 A 
ATOM     17  C   UNL     1      -4.417  13.268  33.981  1.00  0.00     0.009 A 
ATOM     18  C   UNL     1      -4.100  15.161  31.935  1.00  0.00     0.160 A 
ATOM     19  C   UNL     1      -4.316  12.852  32.653  1.00  0.00     0.050 A 
ATOM     20  C   UNL     1      -4.157  13.794  31.629  1.00  0.00     0.157 A 
BRANCH  18  21
ATOM     21  O   UNL     1      -3.940  16.074  30.881  1.00  0.00    -0.493 OA
ATOM     22  C   UNL     1      -2.690  16.410  30.287  1.00  0.00     0.278 C 
ENDBRANCH  18  21
BRANCH  20  23
ATOM     23  O   UNL     1      -4.054  13.379  30.303  1.00  0.00    -0.504 OA
ATOM     24  H   UNL     1      -3.337  12.729  30.004  1.00  0.00     0.293 HD
ENDBRANCH  20  23
ENDBRANCH  14  15
ENDBRANCH  12  14
ENDBRANCH   9  10
ENDBRANCH   1   9
TORSDOF 10
ENDMDL
MODEL 8
REMARK VINA RESULT:    -5.311      2.960      8.926
REMARK INTER + INTRA:          -8.985
REMARK INTER:                  -8.365
REMARK INTRA:                  -0.620
REMARK UNBOUND:                -0.724
REMARK SMILES COc1cc(CNC(=O)CCCCC=CC(C)C)ccc1O
REMARK SMILES IDX 11 1 12 2 13 3 14 4 15 5 16 6 17 7 18 8 10 9 8 10 9 11 7 12
REMARK SMILES IDX 6 14 5 15 4 16 19 17 3 18 20 19 21 20 2 21 1 22 22 23
REMARK H PARENT 7 13 22 24
REMARK Flexibility Score: inf
ROOT
ATOM      1  C   UNL     1      -1.106  19.684  33.927  1.00  0.00     0.010 C 
ENDROOT
BRANCH   1   2
ATOM      2  C   UNL     1      -0.352  20.963  34.313  1.00  0.00     0.005 C 
BRANCH   2   3
ATOM      3  C   UNL     1      -0.611  21.335  35.776  1.00  0.00     0.027 C 
BRANCH   3   4
ATOM      4  C   UNL     1      -1.989  20.909  36.203  1.00  0.00    -0.031 C 
ATOM      5  C   UNL     1      -2.795  21.729  36.895  1.00  0.00    -0.028 C 
BRANCH   5   6
ATOM      6  C   UNL     1      -4.183  21.299  37.309  1.00  0.00     0.005 C 
ATOM      7  C   UNL     1      -5.125  22.510  37.367  1.00  0.00     0.012 C 
ATOM      8  C   UNL     1      -4.729  20.245  36.339  1.00  0.00     0.012 C 
ENDBRANCH   5   6
ENDBRANCH   3   4
ENDBRANCH   2   3
ENDBRANCH   1   2
BRANCH   1   9
ATOM      9  C   UNL     1      -0.975  19.398  32.428  1.00  0.00     0.100 C 
BRANCH   9  10
ATOM     10  C   UNL     1      -1.999  18.392  31.991  1.00  0.00     0.220 C 
ATOM     11  O   UNL     1      -2.874  18.728  31.147  1.00  0.00    -0.275 OA
ATOM     12  N   UNL     1      -1.970  17.054  32.512  1.00  0.00    -0.352 N 
ATOM     13  H   UNL     1      -1.219  16.787  33.186  1.00  0.00     0.163 HD
BRANCH  12  14
ATOM     14  C   UNL     1      -2.929  16.030  32.101  1.00  0.00     0.151 C 
BRANCH  14  15
ATOM     15  C   UNL     1      -2.666  15.597  30.684  1.00  0.00    -0.025 A 
ATOM     16  C   UNL     1      -1.430  15.031  30.340  1.00  0.00     0.056 A 
ATOM     17  C   UNL     1      -3.660  15.733  29.703  1.00  0.00     0.009 A 
ATOM     18  C   UNL     1      -1.185  14.599  29.022  1.00  0.00     0.160 A 
ATOM     19  C   UNL     1      -3.421  15.307  28.396  1.00  0.00     0.050 A 
ATOM     20  C   UNL     1      -2.189  14.740  28.052  1.00  0.00     0.157 A 
BRANCH  18  21
ATOM     21  O   UNL     1       0.036  14.025  28.638  1.00  0.00    -0.493 OA
ATOM     22  C   UNL     1       1.244  14.119  29.388  1.00  0.00     0.278 C 
ENDBRANCH  18  21
BRANCH  20  23
ATOM     23  O   UNL     1      -1.952  14.311  26.748  1.00  0.00    -0.504 OA
ATOM     24  H   UNL     1      -2.685  14.307  26.048  1.00  0.00     0.293 HD
ENDBRANCH  20  23
ENDBRANCH  14  15
ENDBRANCH  12  14
ENDBRANCH   9  10
ENDBRANCH   1   9
TORSDOF 10
ENDMDL
MODEL 9
REMARK VINA RESULT:    -5.269      1.922      3.072
REMARK INTER + INTRA:          -8.920
REMARK INTER:                  -8.294
REMARK INTRA:                  -0.626
REMARK UNBOUND:                -0.724
REMARK SMILES COc1cc(CNC(=O)CCCCC=CC(C)C)ccc1O
REMARK SMILES IDX 11 1 12 2 13 3 14 4 15 5 16 6 17 7 18 8 10 9 8 10 9 11 7 12
REMARK SMILES IDX 6 14 5 15 4 16 19 17 3 18 20 19 21 20 2 21 1 22 22 23
REMARK H PARENT 7 13 22 24
REMARK Flexibility Score: inf
ROOT
ATOM      1  C   UNL     1      -1.697  16.113  30.953  1.00  0.00     0.010 C 
ENDROOT
BRANCH   1   2
ATOM      2  C   UNL     1      -2.153  15.392  29.678  1.00  0.00     0.005 C 
BRANCH   2   3
ATOM      3  C   UNL     1      -3.628  15.683  29.380  1.00  0.00     0.027 C 
BRANCH   3   4
ATOM      4  C   UNL     1      -4.526  14.777  30.177  1.00  0.00    -0.031 C 
ATOM      5  C   UNL     1      -4.029  13.869  31.032  1.00  0.00    -0.028 C 
BRANCH   5   6
ATOM      6  C   UNL     1      -4.937  12.972  31.839  1.00  0.00     0.005 C 
ATOM      7  C   UNL     1      -5.125  11.623  31.132  1.00  0.00     0.012 C 
ATOM      8  C   UNL     1      -4.368  12.761  33.247  1.00  0.00     0.012 C 
ENDBRANCH   5   6
ENDBRANCH   3   4
ENDBRANCH   2   3
ENDBRANCH   1   2
BRANCH   1   9
ATOM      9  C   UNL     1      -2.286  17.525  31.028  1.00  0.00     0.100 C 
BRANCH   9  10
ATOM     10  C   UNL     1      -3.239  17.638  32.182  1.00  0.00     0.220 C 
ATOM     11  O   UNL     1      -4.447  17.920  31.959  1.00  0.00    -0.275 OA
ATOM     12  N   UNL     1      -2.783  17.407  33.524  1.00  0.00    -0.352 N 
ATOM     13  H   UNL     1      -1.785  17.145  33.685  1.00  0.00     0.163 HD
BRANCH  12  14
ATOM     14  C   UNL     1      -3.675  17.482  34.681  1.00  0.00     0.151 C 
BRANCH  14  15
ATOM     15  C   UNL     1      -3.513  18.800  35.389  1.00  0.00    -0.025 A 
ATOM     16  C   UNL     1      -2.273  19.458  35.374  1.00  0.00     0.056 A 
ATOM     17  C   UNL     1      -4.600  19.392  36.046  1.00  0.00     0.009 A 
ATOM     18  C   UNL     1      -2.120  20.704  36.012  1.00  0.00     0.160 A 
ATOM     19  C   UNL     1      -4.453  20.627  36.680  1.00  0.00     0.050 A 
ATOM     20  C   UNL     1      -3.218  21.285  36.664  1.00  0.00     0.157 A 
BRANCH  18  21
ATOM     21  O   UNL     1      -0.899  21.395  36.018  1.00  0.00    -0.493 OA
ATOM     22  C   UNL     1      -0.199  21.808  34.848  1.00  0.00     0.278 C 
ENDBRANCH  18  21
BRANCH  20  23
ATOM     23  O   UNL     1      -3.071  22.520  37.293  1.00  0.00    -0.504 OA
ATOM     24  H   UNL     1      -2.244  22.745  37.834  1.00  0.00     0.293 HD
ENDBRANCH  20  23
ENDBRANCH  14  15
ENDBRANCH  12  14
ENDBRANCH   9  10
ENDBRANCH   1   9
TORSDOF 10
ENDMDL
