MODEL 1
REMARK VINA RESULT:    -4.348      0.000      0.000
REMARK INTER + INTRA:          -5.400
REMARK INTER:                  -5.111
REMARK INTRA:                  -0.289
REMARK UNBOUND:                -0.289
REMARK SMILES O=c1c(O)c(-c2ccc(O)cc2)oc2cc(O)cc(O)c12
REMARK SMILES IDX 5 1 3 2 2 3 1 4 21 5 19 6 18 7 16 8 15 9 14 10 13 11 6 12
REMARK SMILES IDX 7 13 8 14 9 15 12 16 11 17 10 18 4 20 20 22 17 24
REMARK H PARENT 10 19 4 21 20 23 17 25
REMARK Flexibility Score: inf
ROOT
ATOM      1  C   UNL     1       3.030  -4.230  -7.533  1.00  0.00     0.180 A 
ATOM      2  C   UNL     1       3.030  -2.983  -8.183  1.00  0.00     0.208 A 
ATOM      3  C   UNL     1       1.880  -2.577  -8.877  1.00  0.00     0.238 A 
ATOM      4  O   UNL     1       1.914  -1.493  -9.517  1.00  0.00    -0.285 OA
ATOM      5  C   UNL     1       0.724  -3.394  -8.868  1.00  0.00     0.111 A 
ATOM      6  C   UNL     1      -0.512  -3.062  -9.500  1.00  0.00     0.134 A 
ATOM      7  C   UNL     1      -1.554  -3.998  -9.514  1.00  0.00     0.093 A 
ATOM      8  C   UNL     1      -1.429  -5.226  -8.868  1.00  0.00     0.123 A 
ATOM      9  C   UNL     1      -0.244  -5.539  -8.199  1.00  0.00     0.094 A 
ATOM     10  C   UNL     1       0.827  -4.643  -8.200  1.00  0.00     0.146 A 
ATOM     11  O   UNL     1       1.943  -4.991  -7.570  1.00  0.00    -0.452 OA
ENDROOT
BRANCH   1  12
ATOM     12  C   UNL     1       4.209  -4.734  -6.794  1.00  0.00     0.021 A 
ATOM     13  C   UNL     1       4.410  -4.428  -5.435  1.00  0.00     0.016 A 
ATOM     14  C   UNL     1       5.543  -4.897  -4.765  1.00  0.00     0.047 A 
ATOM     15  C   UNL     1       6.497  -5.661  -5.443  1.00  0.00     0.115 A 
ATOM     16  C   UNL     1       5.182  -5.486  -7.475  1.00  0.00     0.016 A 
ATOM     17  C   UNL     1       6.314  -5.953  -6.801  1.00  0.00     0.047 A 
BRANCH  15  18
ATOM     18  O   UNL     1       7.621  -6.123  -4.762  1.00  0.00    -0.508 OA
ATOM     19  H   UNL     1       8.527  -5.683  -4.876  1.00  0.00     0.293 HD
ENDBRANCH  15  18
ENDBRANCH   1  12
BRANCH   2  20
ATOM     20  O   UNL     1       4.155  -2.155  -8.115  1.00  0.00    -0.502 OA
ATOM     21  H   UNL     1       5.028  -2.457  -7.698  1.00  0.00     0.293 HD
ENDBRANCH   2  20
BRANCH   6  22
ATOM     22  O   UNL     1      -0.777  -1.828 -10.101  1.00  0.00    -0.507 OA
ATOM     23  H   UNL     1      -0.134  -1.322 -10.690  1.00  0.00     0.293 HD
ENDBRANCH   6  22
BRANCH   8  24
ATOM     24  O   UNL     1      -2.493  -6.125  -8.888  1.00  0.00    -0.508 OA
ATOM     25  H   UNL     1      -3.440  -5.830  -8.684  1.00  0.00     0.293 HD
ENDBRANCH   8  24
TORSDOF 5
ENDMDL
MODEL 2
REMARK VINA RESULT:    -4.294      1.583      2.290
REMARK INTER + INTRA:          -5.337
REMARK INTER:                  -5.068
REMARK INTRA:                  -0.269
REMARK UNBOUND:                -0.289
REMARK SMILES O=c1c(O)c(-c2ccc(O)cc2)oc2cc(O)cc(O)c12
REMARK SMILES IDX 5 1 3 2 2 3 1 4 21 5 19 6 18 7 16 8 15 9 14 10 13 11 6 12
REMARK SMILES IDX 7 13 8 14 9 15 12 16 11 17 10 18 4 20 20 22 17 24
REMARK H PARENT 10 19 4 21 20 23 17 25
REMARK Flexibility Score: inf
ROOT
ATOM      1  C   UNL     1       4.315  -4.008  -6.403  1.00  0.00     0.180 A 
ATOM      2  C   UNL     1       4.331  -2.660  -6.800  1.00  0.00     0.208 A 
ATOM      3  C   UNL     1       3.449  -2.235  -7.807  1.00  0.00     0.238 A 
ATOM      4  O   UNL     1       3.522  -1.045  -8.209  1.00  0.00    -0.285 OA
ATOM      5  C   UNL     1       2.523  -3.149  -8.365  1.00  0.00     0.111 A 
ATOM      6  C   UNL     1       1.553  -2.818  -9.359  1.00  0.00     0.134 A 
ATOM      7  C   UNL     1       0.760  -3.830  -9.914  1.00  0.00     0.093 A 
ATOM      8  C   UNL     1       0.855  -5.148  -9.468  1.00  0.00     0.123 A 
ATOM      9  C   UNL     1       1.762  -5.472  -8.458  1.00  0.00     0.094 A 
ATOM     10  C   UNL     1       2.594  -4.492  -7.912  1.00  0.00     0.146 A 
ATOM     11  O   UNL     1       3.457  -4.850  -6.968  1.00  0.00    -0.452 OA
ENDROOT
BRANCH   1  12
ATOM     12  C   UNL     1       5.224  -4.534  -5.360  1.00  0.00     0.021 A 
ATOM     13  C   UNL     1       6.567  -4.842  -5.644  1.00  0.00     0.016 A 
ATOM     14  C   UNL     1       7.399  -5.361  -4.648  1.00  0.00     0.047 A 
ATOM     15  C   UNL     1       6.899  -5.593  -3.363  1.00  0.00     0.115 A 
ATOM     16  C   UNL     1       4.723  -4.789  -4.072  1.00  0.00     0.016 A 
ATOM     17  C   UNL     1       5.558  -5.307  -3.078  1.00  0.00     0.047 A 
BRANCH  15  18
ATOM     18  O   UNL     1       7.741  -6.109  -2.379  1.00  0.00    -0.508 OA
ATOM     19  H   UNL     1       8.412  -6.839  -2.587  1.00  0.00     0.293 HD
ENDBRANCH  15  18
ENDBRANCH   1  12
BRANCH   2  20
ATOM     20  O   UNL     1       5.200  -1.755  -6.183  1.00  0.00    -0.502 OA
ATOM     21  H   UNL     1       5.072  -1.445  -5.227  1.00  0.00     0.293 HD
ENDBRANCH   2  20
BRANCH   6  22
ATOM     22  O   UNL     1       1.311  -1.519  -9.814  1.00  0.00    -0.507 OA
ATOM     23  H   UNL     1       0.839  -0.800  -9.288  1.00  0.00     0.293 HD
ENDBRANCH   6  22
BRANCH   8  24
ATOM     24  O   UNL     1       0.038  -6.125 -10.031  1.00  0.00    -0.508 OA
ATOM     25  H   UNL     1      -0.965  -6.124  -9.888  1.00  0.00     0.293 HD
ENDBRANCH   8  24
TORSDOF 5
ENDMDL
MODEL 3
REMARK VINA RESULT:    -4.211      5.777      8.458
REMARK INTER + INTRA:          -5.238
REMARK INTER:                  -4.956
REMARK INTRA:                  -0.282
REMARK UNBOUND:                -0.289
REMARK SMILES O=c1c(O)c(-c2ccc(O)cc2)oc2cc(O)cc(O)c12
REMARK SMILES IDX 5 1 3 2 2 3 1 4 21 5 19 6 18 7 16 8 15 9 14 10 13 11 6 12
REMARK SMILES IDX 7 13 8 14 9 15 12 16 11 17 10 18 4 20 20 22 17 24
REMARK H PARENT 10 19 4 21 20 23 17 25
REMARK Flexibility Score: inf
ROOT
ATOM      1  C   UNL     1       2.811   1.577  -9.015  1.00  0.00     0.180 A 
ATOM      2  C   UNL     1       4.182   1.740  -8.751  1.00  0.00     0.208 A 
ATOM      3  C   UNL     1       4.735   3.030  -8.793  1.00  0.00     0.238 A 
ATOM      4  O   UNL     1       5.977   3.158  -8.629  1.00  0.00    -0.285 OA
ATOM      5  C   UNL     1       3.903   4.147  -9.044  1.00  0.00     0.111 A 
ATOM      6  C   UNL     1       4.349   5.504  -9.067  1.00  0.00     0.134 A 
ATOM      7  C   UNL     1       3.454   6.518  -9.431  1.00  0.00     0.093 A 
ATOM      8  C   UNL     1       2.119   6.235  -9.712  1.00  0.00     0.123 A 
ATOM      9  C   UNL     1       1.659   4.919  -9.640  1.00  0.00     0.094 A 
ATOM     10  C   UNL     1       2.536   3.880  -9.317  1.00  0.00     0.146 A 
ATOM     11  O   UNL     1       2.061   2.641  -9.280  1.00  0.00    -0.452 OA
ENDROOT
BRANCH   1  12
ATOM     12  C   UNL     1       2.157   0.249  -9.004  1.00  0.00     0.021 A 
ATOM     13  C   UNL     1       2.221  -0.610 -10.117  1.00  0.00     0.016 A 
ATOM     14  C   UNL     1       1.575  -1.849 -10.090  1.00  0.00     0.047 A 
ATOM     15  C   UNL     1       0.847  -2.240  -8.963  1.00  0.00     0.115 A 
ATOM     16  C   UNL     1       1.407  -0.142  -7.882  1.00  0.00     0.016 A 
ATOM     17  C   UNL     1       0.763  -1.382  -7.859  1.00  0.00     0.047 A 
BRANCH  15  18
ATOM     18  O   UNL     1       0.210  -3.479  -8.950  1.00  0.00    -0.508 OA
ATOM     19  H   UNL     1      -0.600  -3.652  -8.366  1.00  0.00     0.293 HD
ENDBRANCH  15  18
ENDBRANCH   1  12
BRANCH   2  20
ATOM     20  O   UNL     1       4.972   0.632  -8.429  1.00  0.00    -0.502 OA
ATOM     21  H   UNL     1       4.690  -0.317  -8.642  1.00  0.00     0.293 HD
ENDBRANCH   2  20
BRANCH   6  22
ATOM     22  O   UNL     1       5.640   5.909  -8.718  1.00  0.00    -0.507 OA
ATOM     23  H   UNL     1       6.377   5.293  -8.413  1.00  0.00     0.293 HD
ENDBRANCH   6  22
BRANCH   8  24
ATOM     24  O   UNL     1       1.253   7.272 -10.054  1.00  0.00    -0.508 OA
ATOM     25  H   UNL     1       1.601   8.181 -10.337  1.00  0.00     0.293 HD
ENDBRANCH   8  24
TORSDOF 5
ENDMDL
MODEL 4
REMARK VINA RESULT:    -4.165      2.884      7.009
REMARK INTER + INTRA:          -5.184
REMARK INTER:                  -4.909
REMARK INTRA:                  -0.275
REMARK UNBOUND:                -0.289
REMARK SMILES O=c1c(O)c(-c2ccc(O)cc2)oc2cc(O)cc(O)c12
REMARK SMILES IDX 5 1 3 2 2 3 1 4 21 5 19 6 18 7 16 8 15 9 14 10 13 11 6 12
REMARK SMILES IDX 7 13 8 14 9 15 12 16 11 17 10 18 4 20 20 22 17 24
REMARK H PARENT 10 19 4 21 20 23 17 25
REMARK Flexibility Score: inf
ROOT
ATOM      1  C   UNL     1       2.606  -1.351  -8.112  1.00  0.00     0.180 A 
ATOM      2  C   UNL     1       3.139  -0.271  -8.838  1.00  0.00     0.208 A 
ATOM      3  C   UNL     1       4.388   0.250  -8.466  1.00  0.00     0.238 A 
ATOM      4  O   UNL     1       4.823   1.263  -9.074  1.00  0.00    -0.285 OA
ATOM      5  C   UNL     1       5.116  -0.349  -7.410  1.00  0.00     0.111 A 
ATOM      6  C   UNL     1       6.411   0.068  -6.977  1.00  0.00     0.134 A 
ATOM      7  C   UNL     1       6.989  -0.531  -5.851  1.00  0.00     0.093 A 
ATOM      8  C   UNL     1       6.350  -1.573  -5.180  1.00  0.00     0.123 A 
ATOM      9  C   UNL     1       5.108  -2.025  -5.628  1.00  0.00     0.094 A 
ATOM     10  C   UNL     1       4.488  -1.422  -6.725  1.00  0.00     0.146 A 
ATOM     11  O   UNL     1       3.297  -1.870  -7.104  1.00  0.00    -0.452 OA
ENDROOT
BRANCH   1  12
ATOM     12  C   UNL     1       1.289  -1.945  -8.434  1.00  0.00     0.021 A 
ATOM     13  C   UNL     1       0.090  -1.349  -8.004  1.00  0.00     0.016 A 
ATOM     14  C   UNL     1      -1.140  -1.942  -8.300  1.00  0.00     0.047 A 
ATOM     15  C   UNL     1      -1.190  -3.143  -9.014  1.00  0.00     0.115 A 
ATOM     16  C   UNL     1       1.234  -3.163  -9.133  1.00  0.00     0.016 A 
ATOM     17  C   UNL     1       0.001  -3.753  -9.428  1.00  0.00     0.047 A 
BRANCH  15  18
ATOM     18  O   UNL     1      -2.423  -3.722  -9.303  1.00  0.00    -0.508 OA
ATOM     19  H   UNL     1      -2.491  -4.629  -9.752  1.00  0.00     0.293 HD
ENDBRANCH  15  18
ENDBRANCH   1  12
BRANCH   2  20
ATOM     20  O   UNL     1       2.439   0.256  -9.928  1.00  0.00    -0.502 OA
ATOM     21  H   UNL     1       1.920   1.124  -9.872  1.00  0.00     0.293 HD
ENDBRANCH   2  20
BRANCH   6  22
ATOM     22  O   UNL     1       7.179   1.040  -7.626  1.00  0.00    -0.507 OA
ATOM     23  H   UNL     1       8.108   0.896  -7.989  1.00  0.00     0.293 HD
ENDBRANCH   6  22
BRANCH   8  24
ATOM     24  O   UNL     1       6.962  -2.157  -4.074  1.00  0.00    -0.508 OA
ATOM     25  H   UNL     1       7.014  -1.679  -3.182  1.00  0.00     0.293 HD
ENDBRANCH   8  24
TORSDOF 5
ENDMDL
MODEL 5
REMARK VINA RESULT:    -4.056      2.922      4.143
REMARK INTER + INTRA:          -5.057
REMARK INTER:                  -4.825
REMARK INTRA:                  -0.232
REMARK UNBOUND:                -0.289
REMARK SMILES O=c1c(O)c(-c2ccc(O)cc2)oc2cc(O)cc(O)c12
REMARK SMILES IDX 5 1 3 2 2 3 1 4 21 5 19 6 18 7 16 8 15 9 14 10 13 11 6 12
REMARK SMILES IDX 7 13 8 14 9 15 12 16 11 17 10 18 4 20 20 22 17 24
REMARK H PARENT 10 19 4 21 20 23 17 25
REMARK Flexibility Score: inf
ROOT
ATOM      1  C   UNL     1       3.656  -1.838  -7.631  1.00  0.00     0.180 A 
ATOM      2  C   UNL     1       3.953  -3.188  -7.889  1.00  0.00     0.208 A 
ATOM      3  C   UNL     1       2.929  -4.038  -8.334  1.00  0.00     0.238 A 
ATOM      4  O   UNL     1       3.186  -5.260  -8.491  1.00  0.00    -0.285 OA
ATOM      5  C   UNL     1       1.633  -3.518  -8.570  1.00  0.00     0.111 A 
ATOM      6  C   UNL     1       0.530  -4.279  -9.064  1.00  0.00     0.134 A 
ATOM      7  C   UNL     1      -0.734  -3.682  -9.157  1.00  0.00     0.093 A 
ATOM      8  C   UNL     1      -0.923  -2.339  -8.835  1.00  0.00     0.123 A 
ATOM      9  C   UNL     1       0.161  -1.572  -8.404  1.00  0.00     0.094 A 
ATOM     10  C   UNL     1       1.425  -2.148  -8.264  1.00  0.00     0.146 A 
ATOM     11  O   UNL     1       2.423  -1.387  -7.830  1.00  0.00    -0.452 OA
ENDROOT
BRANCH   1  12
ATOM     12  C   UNL     1       4.678  -0.883  -7.146  1.00  0.00     0.021 A 
ATOM     13  C   UNL     1       5.150  -0.924  -5.821  1.00  0.00     0.016 A 
ATOM     14  C   UNL     1       6.098   0.003  -5.380  1.00  0.00     0.047 A 
ATOM     15  C   UNL     1       6.574   0.991  -6.247  1.00  0.00     0.115 A 
ATOM     16  C   UNL     1       5.145   0.124  -8.006  1.00  0.00     0.016 A 
ATOM     17  C   UNL     1       6.094   1.050  -7.562  1.00  0.00     0.047 A 
BRANCH  15  18
ATOM     18  O   UNL     1       7.520   1.908  -5.794  1.00  0.00    -0.508 OA
ATOM     19  H   UNL     1       8.264   2.243  -6.396  1.00  0.00     0.293 HD
ENDBRANCH  15  18
ENDBRANCH   1  12
BRANCH   2  20
ATOM     20  O   UNL     1       5.257  -3.664  -7.724  1.00  0.00    -0.502 OA
ATOM     21  H   UNL     1       6.018  -3.070  -7.414  1.00  0.00     0.293 HD
ENDBRANCH   2  20
BRANCH   6  22
ATOM     22  O   UNL     1       0.625  -5.605  -9.497  1.00  0.00    -0.507 OA
ATOM     23  H   UNL     1       0.937  -6.378  -8.930  1.00  0.00     0.293 HD
ENDBRANCH   6  22
BRANCH   8  24
ATOM     24  O   UNL     1      -2.190  -1.774  -8.957  1.00  0.00    -0.508 OA
ATOM     25  H   UNL     1      -2.578  -1.533  -9.861  1.00  0.00     0.293 HD
ENDBRANCH   8  24
TORSDOF 5
ENDMDL
MODEL 6
REMARK VINA RESULT:    -4.041     16.011     17.508
REMARK INTER + INTRA:          -5.039
REMARK INTER:                  -5.480
REMARK INTRA:                   0.441
REMARK UNBOUND:                -0.289
REMARK SMILES O=c1c(O)c(-c2ccc(O)cc2)oc2cc(O)cc(O)c12
REMARK SMILES IDX 5 1 3 2 2 3 1 4 21 5 19 6 18 7 16 8 15 9 14 10 13 11 6 12
REMARK SMILES IDX 7 13 8 14 9 15 12 16 11 17 10 18 4 20 20 22 17 24
REMARK H PARENT 10 19 4 21 20 23 17 25
REMARK Flexibility Score: inf
ROOT
ATOM      1  C   UNL     1     -11.766   4.264  -5.311  1.00  0.00     0.180 A 
ATOM      2  C   UNL     1     -11.777   3.594  -6.547  1.00  0.00     0.208 A 
ATOM      3  C   UNL     1     -11.820   4.348  -7.730  1.00  0.00     0.238 A 
ATOM      4  O   UNL     1     -11.905   3.740  -8.829  1.00  0.00    -0.285 OA
ATOM      5  C   UNL     1     -11.793   5.762  -7.667  1.00  0.00     0.111 A 
ATOM      6  C   UNL     1     -11.788   6.626  -8.804  1.00  0.00     0.134 A 
ATOM      7  C   UNL     1     -11.869   8.012  -8.618  1.00  0.00     0.093 A 
ATOM      8  C   UNL     1     -11.891   8.568  -7.341  1.00  0.00     0.123 A 
ATOM      9  C   UNL     1     -11.842   7.735  -6.222  1.00  0.00     0.094 A 
ATOM     10  C   UNL     1     -11.799   6.347  -6.374  1.00  0.00     0.146 A 
ATOM     11  O   UNL     1     -11.775   5.592  -5.282  1.00  0.00    -0.452 OA
ENDROOT
BRANCH   1  12
ATOM     12  C   UNL     1     -11.736   3.540  -4.020  1.00  0.00     0.021 A 
ATOM     13  C   UNL     1     -11.385   2.179  -3.950  1.00  0.00     0.016 A 
ATOM     14  C   UNL     1     -11.388   1.510  -2.723  1.00  0.00     0.047 A 
ATOM     15  C   UNL     1     -11.755   2.185  -1.554  1.00  0.00     0.115 A 
ATOM     16  C   UNL     1     -12.123   4.206  -2.845  1.00  0.00     0.016 A 
ATOM     17  C   UNL     1     -12.125   3.534  -1.619  1.00  0.00     0.047 A 
BRANCH  15  18
ATOM     18  O   UNL     1     -11.752   1.506  -0.338  1.00  0.00    -0.508 OA
ATOM     19  H   UNL     1     -11.420   0.551  -0.265  1.00  0.00     0.293 HD
ENDBRANCH  15  18
ENDBRANCH   1  12
BRANCH   2  20
ATOM     20  O   UNL     1     -11.725   2.197  -6.589  1.00  0.00    -0.502 OA
ATOM     21  H   UNL     1     -12.143   1.616  -5.873  1.00  0.00     0.293 HD
ENDBRANCH   2  20
BRANCH   6  22
ATOM     22  O   UNL     1     -11.679   6.181 -10.125  1.00  0.00    -0.507 OA
ATOM     23  H   UNL     1     -10.826   5.867 -10.561  1.00  0.00     0.293 HD
ENDBRANCH   6  22
BRANCH   8  24
ATOM     24  O   UNL     1     -11.954   9.952  -7.194  1.00  0.00    -0.508 OA
ATOM     25  H   UNL     1     -12.307  10.548  -7.934  1.00  0.00     0.293 HD
ENDBRANCH   8  24
TORSDOF 5
ENDMDL
MODEL 7
REMARK VINA RESULT:    -3.968      5.311      7.798
REMARK INTER + INTRA:          -4.953
REMARK INTER:                  -4.661
REMARK INTRA:                  -0.292
REMARK UNBOUND:                -0.289
REMARK SMILES O=c1c(O)c(-c2ccc(O)cc2)oc2cc(O)cc(O)c12
REMARK SMILES IDX 5 1 3 2 2 3 1 4 21 5 19 6 18 7 16 8 15 9 14 10 13 11 6 12
REMARK SMILES IDX 7 13 8 14 9 15 12 16 11 17 10 18 4 20 20 22 17 24
REMARK H PARENT 10 19 4 21 20 23 17 25
REMARK Flexibility Score: inf
ROOT
ATOM      1  C   UNL     1       6.600   0.559  -6.271  1.00  0.00     0.180 A 
ATOM      2  C   UNL     1       7.204   0.159  -5.067  1.00  0.00     0.208 A 
ATOM      3  C   UNL     1       6.886  -1.099  -4.531  1.00  0.00     0.238 A 
ATOM      4  O   UNL     1       7.374  -1.419  -3.415  1.00  0.00    -0.285 OA
ATOM      5  C   UNL     1       6.012  -1.964  -5.232  1.00  0.00     0.111 A 
ATOM      6  C   UNL     1       5.654  -3.279  -4.804  1.00  0.00     0.134 A 
ATOM      7  C   UNL     1       4.696  -4.003  -5.525  1.00  0.00     0.093 A 
ATOM      8  C   UNL     1       4.130  -3.489  -6.690  1.00  0.00     0.123 A 
ATOM      9  C   UNL     1       4.513  -2.227  -7.147  1.00  0.00     0.094 A 
ATOM     10  C   UNL     1       5.438  -1.464  -6.429  1.00  0.00     0.146 A 
ATOM     11  O   UNL     1       5.757  -0.260  -6.889  1.00  0.00    -0.452 OA
ENDROOT
BRANCH   1  12
ATOM     12  C   UNL     1       6.872   1.876  -6.892  1.00  0.00     0.021 A 
ATOM     13  C   UNL     1       6.171   3.031  -6.500  1.00  0.00     0.016 A 
ATOM     14  C   UNL     1       6.430   4.258  -7.118  1.00  0.00     0.047 A 
ATOM     15  C   UNL     1       7.378   4.345  -8.142  1.00  0.00     0.115 A 
ATOM     16  C   UNL     1       7.809   1.966  -7.935  1.00  0.00     0.016 A 
ATOM     17  C   UNL     1       8.065   3.195  -8.551  1.00  0.00     0.047 A 
BRANCH  15  18
ATOM     18  O   UNL     1       7.627   5.575  -8.747  1.00  0.00    -0.508 OA
ATOM     19  H   UNL     1       7.017   6.371  -8.600  1.00  0.00     0.293 HD
ENDBRANCH  15  18
ENDBRANCH   1  12
BRANCH   2  20
ATOM     20  O   UNL     1       8.125   0.997  -4.430  1.00  0.00    -0.502 OA
ATOM     21  H   UNL     1       8.213   1.040  -3.422  1.00  0.00     0.293 HD
ENDBRANCH   2  20
BRANCH   6  22
ATOM     22  O   UNL     1       6.223  -3.926  -3.703  1.00  0.00    -0.507 OA
ATOM     23  H   UNL     1       6.365  -4.921  -3.626  1.00  0.00     0.293 HD
ENDBRANCH   6  22
BRANCH   8  24
ATOM     24  O   UNL     1       3.193  -4.244  -7.391  1.00  0.00    -0.508 OA
ATOM     25  H   UNL     1       3.143  -4.220  -8.403  1.00  0.00     0.293 HD
ENDBRANCH   8  24
TORSDOF 5
ENDMDL
MODEL 8
REMARK VINA RESULT:    -3.960      2.534      3.607
REMARK INTER + INTRA:          -4.944
REMARK INTER:                  -5.226
REMARK INTRA:                   0.282
REMARK UNBOUND:                -0.289
REMARK SMILES O=c1c(O)c(-c2ccc(O)cc2)oc2cc(O)cc(O)c12
REMARK SMILES IDX 5 1 3 2 2 3 1 4 21 5 19 6 18 7 16 8 15 9 14 10 13 11 6 12
REMARK SMILES IDX 7 13 8 14 9 15 12 16 11 17 10 18 4 20 20 22 17 24
REMARK H PARENT 10 19 4 21 20 23 17 25
REMARK Flexibility Score: inf
ROOT
ATOM      1  C   UNL     1       5.078  -2.716  -5.996  1.00  0.00     0.180 A 
ATOM      2  C   UNL     1       5.518  -1.397  -6.204  1.00  0.00     0.208 A 
ATOM      3  C   UNL     1       4.854  -0.599  -7.149  1.00  0.00     0.238 A 
ATOM      4  O   UNL     1       5.300   0.555  -7.384  1.00  0.00    -0.285 OA
ATOM      5  C   UNL     1       3.724  -1.108  -7.834  1.00  0.00     0.111 A 
ATOM      6  C   UNL     1       2.947  -0.372  -8.780  1.00  0.00     0.134 A 
ATOM      7  C   UNL     1       1.915  -1.015  -9.474  1.00  0.00     0.093 A 
ATOM      8  C   UNL     1       1.589  -2.345  -9.213  1.00  0.00     0.123 A 
ATOM      9  C   UNL     1       2.306  -3.057  -8.250  1.00  0.00     0.094 A 
ATOM     10  C   UNL     1       3.367  -2.456  -7.569  1.00  0.00     0.146 A 
ATOM     11  O   UNL     1       4.036  -3.177  -6.677  1.00  0.00    -0.452 OA
ENDROOT
BRANCH   1  12
ATOM     12  C   UNL     1       5.735  -3.623  -5.028  1.00  0.00     0.021 A 
ATOM     13  C   UNL     1       4.992  -4.533  -4.254  1.00  0.00     0.016 A 
ATOM     14  C   UNL     1       5.633  -5.363  -3.330  1.00  0.00     0.047 A 
ATOM     15  C   UNL     1       7.018  -5.285  -3.155  1.00  0.00     0.115 A 
ATOM     16  C   UNL     1       7.124  -3.536  -4.834  1.00  0.00     0.016 A 
ATOM     17  C   UNL     1       7.762  -4.368  -3.909  1.00  0.00     0.047 A 
BRANCH  15  18
ATOM     18  O   UNL     1       7.644  -6.120  -2.232  1.00  0.00    -0.508 OA
ATOM     19  H   UNL     1       7.113  -6.757  -1.649  1.00  0.00     0.293 HD
ENDBRANCH  15  18
ENDBRANCH   1  12
BRANCH   2  20
ATOM     20  O   UNL     1       6.588  -0.887  -5.462  1.00  0.00    -0.502 OA
ATOM     21  H   UNL     1       6.492  -0.605  -4.494  1.00  0.00     0.293 HD
ENDBRANCH   2  20
BRANCH   6  22
ATOM     22  O   UNL     1       3.129   0.986  -9.055  1.00  0.00    -0.507 OA
ATOM     23  H   UNL     1       4.014   1.469  -9.026  1.00  0.00     0.293 HD
ENDBRANCH   6  22
BRANCH   8  24
ATOM     24  O   UNL     1       0.544  -2.947  -9.910  1.00  0.00    -0.508 OA
ATOM     25  H   UNL     1       0.685  -3.790 -10.453  1.00  0.00     0.293 HD
ENDBRANCH   8  24
TORSDOF 5
ENDMDL
MODEL 9
REMARK VINA RESULT:    -3.927      5.616      8.070
REMARK INTER + INTRA:          -4.905
REMARK INTER:                  -4.616
REMARK INTRA:                  -0.289
REMARK UNBOUND:                -0.289
REMARK SMILES O=c1c(O)c(-c2ccc(O)cc2)oc2cc(O)cc(O)c12
REMARK SMILES IDX 5 1 3 2 2 3 1 4 21 5 19 6 18 7 16 8 15 9 14 10 13 11 6 12
REMARK SMILES IDX 7 13 8 14 9 15 12 16 11 17 10 18 4 20 20 22 17 24
REMARK H PARENT 10 19 4 21 20 23 17 25
REMARK Flexibility Score: inf
ROOT
ATOM      1  C   UNL     1       3.876   1.129  -8.858  1.00  0.00     0.180 A 
ATOM      2  C   UNL     1       2.716   1.790  -9.297  1.00  0.00     0.208 A 
ATOM      3  C   UNL     1       2.676   3.192  -9.261  1.00  0.00     0.238 A 
ATOM      4  O   UNL     1       1.607   3.773  -9.584  1.00  0.00    -0.285 OA
ATOM      5  C   UNL     1       3.816   3.920  -8.841  1.00  0.00     0.111 A 
ATOM      6  C   UNL     1       3.903   5.345  -8.806  1.00  0.00     0.134 A 
ATOM      7  C   UNL     1       5.045   5.954  -8.271  1.00  0.00     0.093 A 
ATOM      8  C   UNL     1       6.127   5.194  -7.827  1.00  0.00     0.123 A 
ATOM      9  C   UNL     1       6.074   3.802  -7.907  1.00  0.00     0.094 A 
ATOM     10  C   UNL     1       4.934   3.164  -8.401  1.00  0.00     0.146 A 
ATOM     11  O   UNL     1       4.918   1.837  -8.438  1.00  0.00    -0.452 OA
ENDROOT
BRANCH   1  12
ATOM     12  C   UNL     1       3.989  -0.348  -8.852  1.00  0.00     0.021 A 
ATOM     13  C   UNL     1       4.471  -1.052  -9.971  1.00  0.00     0.016 A 
ATOM     14  C   UNL     1       4.545  -2.447  -9.949  1.00  0.00     0.047 A 
ATOM     15  C   UNL     1       4.126  -3.158  -8.820  1.00  0.00     0.115 A 
ATOM     16  C   UNL     1       3.551  -1.069  -7.729  1.00  0.00     0.016 A 
ATOM     17  C   UNL     1       3.627  -2.464  -7.710  1.00  0.00     0.047 A 
BRANCH  15  18
ATOM     18  O   UNL     1       4.208  -4.549  -8.812  1.00  0.00    -0.508 OA
ATOM     19  H   UNL     1       4.222  -5.073  -7.945  1.00  0.00     0.293 HD
ENDBRANCH  15  18
ENDBRANCH   1  12
BRANCH   2  20
ATOM     20  O   UNL     1       1.629   1.055  -9.781  1.00  0.00    -0.502 OA
ATOM     21  H   UNL     1       1.709   0.418 -10.564  1.00  0.00     0.293 HD
ENDBRANCH   2  20
BRANCH   6  22
ATOM     22  O   UNL     1       2.918   6.202  -9.305  1.00  0.00    -0.507 OA
ATOM     23  H   UNL     1       2.262   6.719  -8.740  1.00  0.00     0.293 HD
ENDBRANCH   6  22
BRANCH   8  24
ATOM     24  O   UNL     1       7.254   5.835  -7.317  1.00  0.00    -0.508 OA
ATOM     25  H   UNL     1       7.674   5.550  -6.440  1.00  0.00     0.293 HD
ENDBRANCH   8  24
TORSDOF 5
ENDMDL
