MODEL 1
REMARK VINA RESULT:    -2.711      0.000      0.000
REMARK INTER + INTRA:          -3.584
REMARK INTER:                  -3.504
REMARK INTRA:                  -0.080
REMARK UNBOUND:                -0.080
REMARK SMILES CCCCCCC(=O)[O-]
REMARK SMILES IDX 5 1 6 2 7 3 8 4 9 5 4 6 3 7 2 8 1 9
REMARK H PARENT
REMARK Flexibility Score: inf
ROOT
ATOM      1  C   UNL     1       4.592  16.870   7.198  1.00  0.00     0.006 C 
ENDROOT
BRANCH   1   2
ATOM      2  C   UNL     1       4.059  15.500   7.649  1.00  0.00     0.053 C 
BRANCH   2   3
ATOM      3  C   UNL     1       4.450  14.407   6.703  1.00  0.00     0.041 C 
ATOM      4  O   UNL     1       5.507  14.501   6.026  1.00  0.00    -0.550 OA
ATOM      5  O   UNL     1       3.628  13.298   6.545  1.00  0.00    -0.550 OA
ENDBRANCH   2   3
ENDBRANCH   1   2
BRANCH   1   6
ATOM      6  C   UNL     1       3.658  18.053   7.519  1.00  0.00     0.000 C 
BRANCH   6   7
ATOM      7  C   UNL     1       3.427  18.972   6.307  1.00  0.00    -0.000 C 
BRANCH   7   8
ATOM      8  C   UNL     1       2.101  19.744   6.401  1.00  0.00    -0.003 C 
ATOM      9  C   UNL     1       1.925  20.761   5.274  1.00  0.00     0.004 C 
ENDBRANCH   7   8
ENDBRANCH   6   7
ENDBRANCH   1   6
TORSDOF 5
ENDMDL
MODEL 2
REMARK VINA RESULT:    -2.703      1.232      1.717
REMARK INTER + INTRA:          -3.573
REMARK INTER:                  -3.464
REMARK INTRA:                  -0.109
REMARK UNBOUND:                -0.080
REMARK SMILES CCCCCCC(=O)[O-]
REMARK SMILES IDX 5 1 6 2 7 3 8 4 9 5 4 6 3 7 2 8 1 9
REMARK H PARENT
REMARK Flexibility Score: inf
ROOT
ATOM      1  C   UNL     1       3.783  17.740   7.441  1.00  0.00     0.006 C 
ENDROOT
BRANCH   1   2
ATOM      2  C   UNL     1       4.433  16.479   6.849  1.00  0.00     0.053 C 
BRANCH   2   3
ATOM      3  C   UNL     1       4.088  15.250   7.632  1.00  0.00     0.041 C 
ATOM      4  O   UNL     1       3.669  14.220   7.043  1.00  0.00    -0.550 OA
ATOM      5  O   UNL     1       4.201  15.254   9.016  1.00  0.00    -0.550 OA
ENDBRANCH   2   3
ENDBRANCH   1   2
BRANCH   1   6
ATOM      6  C   UNL     1       3.533  18.866   6.419  1.00  0.00     0.000 C 
BRANCH   6   7
ATOM      7  C   UNL     1       2.253  19.665   6.717  1.00  0.00    -0.000 C 
BRANCH   7   8
ATOM      8  C   UNL     1       1.791  20.505   5.515  1.00  0.00    -0.003 C 
ATOM      9  C   UNL     1       2.949  20.945   4.620  1.00  0.00     0.004 C 
ENDBRANCH   7   8
ENDBRANCH   6   7
ENDBRANCH   1   6
TORSDOF 5
ENDMDL
MODEL 3
REMARK VINA RESULT:    -2.694      1.275      1.489
REMARK INTER + INTRA:          -3.562
REMARK INTER:                  -3.427
REMARK INTRA:                  -0.134
REMARK UNBOUND:                -0.080
REMARK SMILES CCCCCCC(=O)[O-]
REMARK SMILES IDX 5 1 6 2 7 3 8 4 9 5 4 6 3 7 2 8 1 9
REMARK H PARENT
REMARK Flexibility Score: inf
ROOT
ATOM      1  C   UNL     1       4.130  17.702   8.524  1.00  0.00     0.006 C 
ENDROOT
BRANCH   1   2
ATOM      2  C   UNL     1       4.273  16.664   7.399  1.00  0.00     0.053 C 
BRANCH   2   3
ATOM      3  C   UNL     1       4.134  15.262   7.907  1.00  0.00     0.041 C 
ATOM      4  O   UNL     1       4.491  14.974   9.079  1.00  0.00    -0.550 OA
ATOM      5  O   UNL     1       3.639  14.267   7.074  1.00  0.00    -0.550 OA
ENDBRANCH   2   3
ENDBRANCH   1   2
BRANCH   1   6
ATOM      6  C   UNL     1       3.463  19.021   8.091  1.00  0.00     0.000 C 
BRANCH   6   7
ATOM      7  C   UNL     1       2.983  18.993   6.630  1.00  0.00    -0.000 C 
BRANCH   7   8
ATOM      8  C   UNL     1       1.815  19.960   6.377  1.00  0.00    -0.003 C 
ATOM      9  C   UNL     1       2.020  20.828   5.136  1.00  0.00     0.004 C 
ENDBRANCH   7   8
ENDBRANCH   6   7
ENDBRANCH   1   6
TORSDOF 5
ENDMDL
MODEL 4
REMARK VINA RESULT:    -2.568      2.156      3.015
REMARK INTER + INTRA:          -3.399
REMARK INTER:                  -3.244
REMARK INTRA:                  -0.155
REMARK UNBOUND:                -0.080
REMARK SMILES CCCCCCC(=O)[O-]
REMARK SMILES IDX 5 1 6 2 7 3 8 4 9 5 4 6 3 7 2 8 1 9
REMARK H PARENT
REMARK Flexibility Score: inf
ROOT
ATOM      1  C   UNL     1       2.870  19.105   6.668  1.00  0.00     0.006 C 
ENDROOT
BRANCH   1   2
ATOM      2  C   UNL     1       4.067  18.144   6.603  1.00  0.00     0.053 C 
BRANCH   2   3
ATOM      3  C   UNL     1       4.076  17.180   7.750  1.00  0.00     0.041 C 
ATOM      4  O   UNL     1       4.185  17.601   8.930  1.00  0.00    -0.550 OA
ATOM      5  O   UNL     1       3.997  15.814   7.510  1.00  0.00    -0.550 OA
ENDBRANCH   2   3
ENDBRANCH   1   2
BRANCH   1   6
ATOM      6  C   UNL     1       2.837  20.159   5.544  1.00  0.00     0.000 C 
BRANCH   6   7
ATOM      7  C   UNL     1       1.477  20.868   5.434  1.00  0.00    -0.000 C 
BRANCH   7   8
ATOM      8  C   UNL     1       0.509  20.458   6.555  1.00  0.00    -0.003 C 
ATOM      9  C   UNL     1      -0.958  20.651   6.173  1.00  0.00     0.004 C 
ENDBRANCH   7   8
ENDBRANCH   6   7
ENDBRANCH   1   6
TORSDOF 5
ENDMDL
MODEL 5
REMARK VINA RESULT:    -2.493      4.041      4.578
REMARK INTER + INTRA:          -3.302
REMARK INTER:                  -3.090
REMARK INTRA:                  -0.212
REMARK UNBOUND:                -0.080
REMARK SMILES CCCCCCC(=O)[O-]
REMARK SMILES IDX 5 1 6 2 7 3 8 4 9 5 4 6 3 7 2 8 1 9
REMARK H PARENT
REMARK Flexibility Score: inf
ROOT
ATOM      1  C   UNL     1       4.028  18.945   8.813  1.00  0.00     0.006 C 
ENDROOT
BRANCH   1   2
ATOM      2  C   UNL     1       3.554  18.334  10.141  1.00  0.00     0.053 C 
BRANCH   2   3
ATOM      3  C   UNL     1       2.422  19.107  10.743  1.00  0.00     0.041 C 
ATOM      4  O   UNL     1       1.784  19.941  10.050  1.00  0.00    -0.550 OA
ATOM      5  O   UNL     1       2.093  18.929  12.081  1.00  0.00    -0.550 OA
ENDBRANCH   2   3
ENDBRANCH   1   2
BRANCH   1   6
ATOM      6  C   UNL     1       3.700  18.097   7.569  1.00  0.00     0.000 C 
BRANCH   6   7
ATOM      7  C   UNL     1       3.431  18.954   6.320  1.00  0.00    -0.000 C 
BRANCH   7   8
ATOM      8  C   UNL     1       2.107  19.730   6.415  1.00  0.00    -0.003 C 
ATOM      9  C   UNL     1       1.934  20.749   5.289  1.00  0.00     0.004 C 
ENDBRANCH   7   8
ENDBRANCH   6   7
ENDBRANCH   1   6
TORSDOF 5
ENDMDL
MODEL 6
REMARK VINA RESULT:    -2.462      9.424     11.558
REMARK INTER + INTRA:          -3.262
REMARK INTER:                  -3.068
REMARK INTRA:                  -0.194
REMARK UNBOUND:                -0.080
REMARK SMILES CCCCCCC(=O)[O-]
REMARK SMILES IDX 5 1 6 2 7 3 8 4 9 5 4 6 3 7 2 8 1 9
REMARK H PARENT
REMARK Flexibility Score: inf
ROOT
ATOM      1  C   UNL     1      -4.003   9.405   9.405  1.00  0.00     0.006 C 
ENDROOT
BRANCH   1   2
ATOM      2  C   UNL     1      -3.709  10.341   8.222  1.00  0.00     0.053 C 
BRANCH   2   3
ATOM      3  C   UNL     1      -3.502  11.757   8.663  1.00  0.00     0.041 C 
ATOM      4  O   UNL     1      -2.745  12.014   9.634  1.00  0.00    -0.550 OA
ATOM      5  O   UNL     1      -4.174  12.790   8.022  1.00  0.00    -0.550 OA
ENDBRANCH   2   3
ENDBRANCH   1   2
BRANCH   1   6
ATOM      6  C   UNL     1      -3.382   8.001   9.276  1.00  0.00     0.000 C 
BRANCH   6   7
ATOM      7  C   UNL     1      -2.631   7.804   7.949  1.00  0.00    -0.000 C 
BRANCH   7   8
ATOM      8  C   UNL     1      -1.679   6.596   7.987  1.00  0.00    -0.003 C 
ATOM      9  C   UNL     1      -1.589   5.955   9.371  1.00  0.00     0.004 C 
ENDBRANCH   7   8
ENDBRANCH   6   7
ENDBRANCH   1   6
TORSDOF 5
ENDMDL
MODEL 7
REMARK VINA RESULT:    -2.421      7.430      8.023
REMARK INTER + INTRA:          -3.209
REMARK INTER:                  -3.084
REMARK INTRA:                  -0.125
REMARK UNBOUND:                -0.080
REMARK SMILES CCCCCCC(=O)[O-]
REMARK SMILES IDX 5 1 6 2 7 3 8 4 9 5 4 6 3 7 2 8 1 9
REMARK H PARENT
REMARK Flexibility Score: inf
ROOT
ATOM      1  C   UNL     1      -2.998  14.561   9.085  1.00  0.00     0.006 C 
ENDROOT
BRANCH   1   2
ATOM      2  C   UNL     1      -3.269  14.017  10.497  1.00  0.00     0.053 C 
BRANCH   2   3
ATOM      3  C   UNL     1      -3.037  12.540  10.584  1.00  0.00     0.041 C 
ATOM      4  O   UNL     1      -2.996  11.970  11.705  1.00  0.00    -0.550 OA
ATOM      5  O   UNL     1      -2.836  11.799   9.427  1.00  0.00    -0.550 OA
ENDBRANCH   2   3
ENDBRANCH   1   2
BRANCH   1   6
ATOM      6  C   UNL     1      -4.254  15.054   8.342  1.00  0.00     0.000 C 
BRANCH   6   7
ATOM      7  C   UNL     1      -4.091  16.476   7.779  1.00  0.00    -0.000 C 
BRANCH   7   8
ATOM      8  C   UNL     1      -3.268  16.503   6.481  1.00  0.00    -0.003 C 
ATOM      9  C   UNL     1      -3.157  17.902   5.876  1.00  0.00     0.004 C 
ENDBRANCH   7   8
ENDBRANCH   6   7
ENDBRANCH   1   6
TORSDOF 5
ENDMDL
MODEL 8
REMARK VINA RESULT:    -2.389      2.509      3.172
REMARK INTER + INTRA:          -3.168
REMARK INTER:                  -2.977
REMARK INTRA:                  -0.191
REMARK UNBOUND:                -0.080
REMARK SMILES CCCCCCC(=O)[O-]
REMARK SMILES IDX 5 1 6 2 7 3 8 4 9 5 4 6 3 7 2 8 1 9
REMARK H PARENT
REMARK Flexibility Score: inf
ROOT
ATOM      1  C   UNL     1       4.043  17.433   8.163  1.00  0.00     0.006 C 
ENDROOT
BRANCH   1   2
ATOM      2  C   UNL     1       4.592  16.224   8.937  1.00  0.00     0.053 C 
BRANCH   2   3
ATOM      3  C   UNL     1       4.464  14.953   8.155  1.00  0.00     0.041 C 
ATOM      4  O   UNL     1       3.487  14.780   7.381  1.00  0.00    -0.550 OA
ATOM      5  O   UNL     1       5.409  13.946   8.308  1.00  0.00    -0.550 OA
ENDBRANCH   2   3
ENDBRANCH   1   2
BRANCH   1   6
ATOM      6  C   UNL     1       3.627  18.622   9.052  1.00  0.00     0.000 C 
BRANCH   6   7
ATOM      7  C   UNL     1       3.493  18.236  10.535  1.00  0.00    -0.000 C 
BRANCH   7   8
ATOM      8  C   UNL     1       2.363  19.003  11.241  1.00  0.00    -0.003 C 
ATOM      9  C   UNL     1       1.722  20.068  10.352  1.00  0.00     0.004 C 
ENDBRANCH   7   8
ENDBRANCH   6   7
ENDBRANCH   1   6
TORSDOF 5
ENDMDL
MODEL 9
REMARK VINA RESULT:    -2.351      1.527      2.289
REMARK INTER + INTRA:          -3.118
REMARK INTER:                  -2.734
REMARK INTRA:                  -0.384
REMARK UNBOUND:                -0.080
REMARK SMILES CCCCCCC(=O)[O-]
REMARK SMILES IDX 5 1 6 2 7 3 8 4 9 5 4 6 3 7 2 8 1 9
REMARK H PARENT
REMARK Flexibility Score: inf
ROOT
ATOM      1  C   UNL     1       4.597  16.567   7.822  1.00  0.00     0.006 C 
ENDROOT
BRANCH   1   2
ATOM      2  C   UNL     1       3.896  15.200   7.756  1.00  0.00     0.053 C 
BRANCH   2   3
ATOM      3  C   UNL     1       4.533  14.291   6.750  1.00  0.00     0.041 C 
ATOM      4  O   UNL     1       5.775  14.330   6.556  1.00  0.00    -0.550 OA
ATOM      5  O   UNL     1       3.746  13.424   6.002  1.00  0.00    -0.550 OA
ENDBRANCH   2   3
ENDBRANCH   1   2
BRANCH   1   6
ATOM      6  C   UNL     1       3.733  17.748   7.340  1.00  0.00     0.000 C 
BRANCH   6   7
ATOM      7  C   UNL     1       4.261  18.378   6.040  1.00  0.00    -0.000 C 
BRANCH   7   8
ATOM      8  C   UNL     1       5.608  17.780   5.602  1.00  0.00    -0.003 C 
ATOM      9  C   UNL     1       5.527  17.052   4.261  1.00  0.00     0.004 C 
ENDBRANCH   7   8
ENDBRANCH   6   7
ENDBRANCH   1   6
TORSDOF 5
ENDMDL
