MODEL 1
REMARK VINA RESULT:    -4.069      0.000      0.000
REMARK INTER + INTRA:          -6.619
REMARK INTER:                  -5.853
REMARK INTRA:                  -0.766
REMARK UNBOUND:                -0.766
REMARK SMILES O=C(CO)[C@@H](O)[C@@H](O)[C@H](O)CO
REMARK SMILES IDX 7 1 9 2 11 3 12 4 10 6 5 8 2 9 1 10 3 11 4 12 6 14 8 16
REMARK H PARENT 12 5 10 7 4 13 6 15 8 17
REMARK Flexibility Score: inf
ROOT
ATOM      1  C   UNL     1      22.063   8.760  -7.881  1.00  0.00     0.181 C 
ENDROOT
BRANCH   1   2
ATOM      2  C   UNL     1      22.199  10.261  -7.513  1.00  0.00     0.171 C 
BRANCH   2   3
ATOM      3  C   UNL     1      22.072  11.178  -8.744  1.00  0.00     0.190 C 
BRANCH   3   4
ATOM      4  O   UNL     1      21.381  12.357  -8.423  1.00  0.00    -0.394 OA
ATOM      5  H   UNL     1      20.530  12.079  -7.995  1.00  0.00     0.210 HD
ENDBRANCH   3   4
ENDBRANCH   2   3
BRANCH   2   6
ATOM      6  O   UNL     1      21.261  10.632  -6.531  1.00  0.00    -0.388 OA
ATOM      7  H   UNL     1      20.998   9.811  -6.038  1.00  0.00     0.211 HD
ENDBRANCH   2   6
ENDBRANCH   1   2
BRANCH   1   8
ATOM      8  C   UNL     1      21.429   7.948  -6.727  1.00  0.00     0.214 C 
BRANCH   8   9
ATOM      9  C   UNL     1      21.170   6.519  -7.150  1.00  0.00     0.189 C 
ATOM     10  O   UNL     1      20.084   6.221  -7.625  1.00  0.00    -0.294 OA
BRANCH   9  11
ATOM     11  C   UNL     1      22.227   5.455  -7.014  1.00  0.00     0.234 C 
BRANCH  11  12
ATOM     12  O   UNL     1      22.163   4.870  -5.741  1.00  0.00    -0.388 OA
ATOM     13  H   UNL     1      21.202   4.796  -5.509  1.00  0.00     0.211 HD
ENDBRANCH  11  12
ENDBRANCH   9  11
ENDBRANCH   8   9
BRANCH   8  14
ATOM     14  O   UNL     1      22.279   7.960  -5.609  1.00  0.00    -0.382 OA
ATOM     15  H   UNL     1      22.447   8.913  -5.385  1.00  0.00     0.211 HD
ENDBRANCH   8  14
ENDBRANCH   1   8
BRANCH   1  16
ATOM     16  O   UNL     1      21.280   8.630  -9.042  1.00  0.00    -0.387 OA
ATOM     17  H   UNL     1      20.922   7.705  -9.053  1.00  0.00     0.211 HD
ENDBRANCH   1  16
TORSDOF 10
ENDMDL
MODEL 2
REMARK VINA RESULT:    -4.068      1.455      5.222
REMARK INTER + INTRA:          -6.617
REMARK INTER:                  -5.750
REMARK INTRA:                  -0.868
REMARK UNBOUND:                -0.766
REMARK SMILES O=C(CO)[C@@H](O)[C@@H](O)[C@H](O)CO
REMARK SMILES IDX 7 1 9 2 11 3 12 4 10 6 5 8 2 9 1 10 3 11 4 12 6 14 8 16
REMARK H PARENT 12 5 10 7 4 13 6 15 8 17
REMARK Flexibility Score: inf
ROOT
ATOM      1  C   UNL     1      22.940   7.103  -6.314  1.00  0.00     0.181 C 
ENDROOT
BRANCH   1   2
ATOM      2  C   UNL     1      22.291   5.730  -6.633  1.00  0.00     0.171 C 
BRANCH   2   3
ATOM      3  C   UNL     1      23.269   4.558  -6.419  1.00  0.00     0.190 C 
BRANCH   3   4
ATOM      4  O   UNL     1      23.109   3.999  -5.142  1.00  0.00    -0.394 OA
ATOM      5  H   UNL     1      22.313   3.409  -5.188  1.00  0.00     0.210 HD
ENDBRANCH   3   4
ENDBRANCH   2   3
BRANCH   2   6
ATOM      6  O   UNL     1      21.121   5.532  -5.876  1.00  0.00    -0.388 OA
ATOM      7  H   UNL     1      21.033   6.295  -5.248  1.00  0.00     0.211 HD
ENDBRANCH   2   6
ENDBRANCH   1   2
BRANCH   1   8
ATOM      8  C   UNL     1      21.875   8.217  -6.184  1.00  0.00     0.214 C 
BRANCH   8   9
ATOM      9  C   UNL     1      22.496   9.584  -6.367  1.00  0.00     0.189 C 
ATOM     10  O   UNL     1      23.411   9.930  -5.634  1.00  0.00    -0.294 OA
BRANCH   9  11
ATOM     11  C   UNL     1      22.024  10.524  -7.444  1.00  0.00     0.234 C 
BRANCH  11  12
ATOM     12  O   UNL     1      20.928  11.271  -6.987  1.00  0.00    -0.388 OA
ATOM     13  H   UNL     1      21.157  12.226  -7.123  1.00  0.00     0.211 HD
ENDBRANCH  11  12
ENDBRANCH   9  11
ENDBRANCH   8   9
BRANCH   8  14
ATOM     14  O   UNL     1      20.864   8.029  -7.142  1.00  0.00    -0.382 OA
ATOM     15  H   UNL     1      20.709   7.049  -7.207  1.00  0.00     0.211 HD
ENDBRANCH   8  14
ENDBRANCH   1   8
BRANCH   1  16
ATOM     16  O   UNL     1      23.678   7.007  -5.121  1.00  0.00    -0.387 OA
ATOM     17  H   UNL     1      24.170   7.862  -5.010  1.00  0.00     0.211 HD
ENDBRANCH   1  16
TORSDOF 10
ENDMDL
MODEL 3
REMARK VINA RESULT:    -3.994      1.419      4.600
REMARK INTER + INTRA:          -6.511
REMARK INTER:                  -5.503
REMARK INTRA:                  -1.008
REMARK UNBOUND:                -0.766
REMARK SMILES O=C(CO)[C@@H](O)[C@@H](O)[C@H](O)CO
REMARK SMILES IDX 7 1 9 2 11 3 12 4 10 6 5 8 2 9 1 10 3 11 4 12 6 14 8 16
REMARK H PARENT 12 5 10 7 4 13 6 15 8 17
REMARK Flexibility Score: inf
ROOT
ATOM      1  C   UNL     1      22.104   8.606  -5.992  1.00  0.00     0.181 C 
ENDROOT
BRANCH   1   2
ATOM      2  C   UNL     1      22.804   7.327  -5.462  1.00  0.00     0.171 C 
BRANCH   2   3
ATOM      3  C   UNL     1      22.580   6.113  -6.385  1.00  0.00     0.190 C 
BRANCH   3   4
ATOM      4  O   UNL     1      21.472   5.361  -5.964  1.00  0.00    -0.394 OA
ATOM      5  H   UNL     1      21.306   5.606  -5.017  1.00  0.00     0.210 HD
ENDBRANCH   3   4
ENDBRANCH   2   3
BRANCH   2   6
ATOM      6  O   UNL     1      24.181   7.543  -5.268  1.00  0.00    -0.388 OA
ATOM      7  H   UNL     1      24.437   7.113  -4.411  1.00  0.00     0.211 HD
ENDBRANCH   2   6
ENDBRANCH   1   2
BRANCH   1   8
ATOM      8  C   UNL     1      23.009   9.380  -6.978  1.00  0.00     0.214 C 
BRANCH   8   9
ATOM      9  C   UNL     1      22.232   9.810  -8.204  1.00  0.00     0.189 C 
ATOM     10  O   UNL     1      21.931   8.977  -9.046  1.00  0.00    -0.294 OA
BRANCH   9  11
ATOM     11  C   UNL     1      21.806  11.241  -8.402  1.00  0.00     0.234 C 
BRANCH  11  12
ATOM     12  O   UNL     1      20.968  11.644  -7.353  1.00  0.00    -0.388 OA
ATOM     13  H   UNL     1      21.553  11.830  -6.574  1.00  0.00     0.211 HD
ENDBRANCH  11  12
ENDBRANCH   9  11
ENDBRANCH   8   9
BRANCH   8  14
ATOM     14  O   UNL     1      23.551  10.512  -6.346  1.00  0.00    -0.382 OA
ATOM     15  H   UNL     1      22.843  11.209  -6.349  1.00  0.00     0.211 HD
ENDBRANCH   8  14
ENDBRANCH   1   8
BRANCH   1  16
ATOM     16  O   UNL     1      20.899   8.253  -6.628  1.00  0.00    -0.387 OA
ATOM     17  H   UNL     1      20.893   8.699  -7.514  1.00  0.00     0.211 HD
ENDBRANCH   1  16
TORSDOF 10
ENDMDL
MODEL 4
REMARK VINA RESULT:    -3.955      1.425      1.574
REMARK INTER + INTRA:          -6.455
REMARK INTER:                  -5.700
REMARK INTRA:                  -0.754
REMARK UNBOUND:                -0.766
REMARK SMILES O=C(CO)[C@@H](O)[C@@H](O)[C@H](O)CO
REMARK SMILES IDX 7 1 9 2 11 3 12 4 10 6 5 8 2 9 1 10 3 11 4 12 6 14 8 16
REMARK H PARENT 12 5 10 7 4 13 6 15 8 17
REMARK Flexibility Score: inf
ROOT
ATOM      1  C   UNL     1      22.235   8.304  -7.095  1.00  0.00     0.181 C 
ENDROOT
BRANCH   1   2
ATOM      2  C   UNL     1      22.795   9.750  -7.052  1.00  0.00     0.171 C 
BRANCH   2   3
ATOM      3  C   UNL     1      21.981  10.718  -7.933  1.00  0.00     0.190 C 
BRANCH   3   4
ATOM      4  O   UNL     1      21.022  11.403  -7.172  1.00  0.00    -0.394 OA
ATOM      5  H   UNL     1      21.520  12.034  -6.590  1.00  0.00     0.210 HD
ENDBRANCH   3   4
ENDBRANCH   2   3
BRANCH   2   6
ATOM      6  O   UNL     1      22.861  10.232  -5.732  1.00  0.00    -0.388 OA
ATOM      7  H   UNL     1      21.938  10.460  -5.446  1.00  0.00     0.211 HD
ENDBRANCH   2   6
ENDBRANCH   1   2
BRANCH   1   8
ATOM      8  C   UNL     1      22.708   7.476  -5.878  1.00  0.00     0.214 C 
BRANCH   8   9
ATOM      9  C   UNL     1      22.351   6.015  -6.045  1.00  0.00     0.189 C 
ATOM     10  O   UNL     1      21.178   5.694  -6.164  1.00  0.00    -0.294 OA
BRANCH   9  11
ATOM     11  C   UNL     1      23.412   4.947  -6.084  1.00  0.00     0.234 C 
BRANCH  11  12
ATOM     12  O   UNL     1      23.167   3.987  -5.092  1.00  0.00    -0.388 OA
ATOM     13  H   UNL     1      22.660   4.443  -4.372  1.00  0.00     0.211 HD
ENDBRANCH  11  12
ENDBRANCH   9  11
ENDBRANCH   8   9
BRANCH   8  14
ATOM     14  O   UNL     1      24.098   7.605  -5.721  1.00  0.00    -0.382 OA
ATOM     15  H   UNL     1      24.519   6.979  -6.367  1.00  0.00     0.211 HD
ENDBRANCH   8  14
ENDBRANCH   1   8
BRANCH   1  16
ATOM     16  O   UNL     1      20.829   8.346  -7.126  1.00  0.00    -0.387 OA
ATOM     17  H   UNL     1      20.517   8.437  -6.187  1.00  0.00     0.211 HD
ENDBRANCH   1  16
TORSDOF 10
ENDMDL
MODEL 5
REMARK VINA RESULT:    -3.831      1.461      2.135
REMARK INTER + INTRA:          -6.277
REMARK INTER:                  -5.103
REMARK INTRA:                  -1.173
REMARK UNBOUND:                -0.766
REMARK SMILES O=C(CO)[C@@H](O)[C@@H](O)[C@H](O)CO
REMARK SMILES IDX 7 1 9 2 11 3 12 4 10 6 5 8 2 9 1 10 3 11 4 12 6 14 8 16
REMARK H PARENT 12 5 10 7 4 13 6 15 8 17
REMARK Flexibility Score: inf
ROOT
ATOM      1  C   UNL     1      22.001   8.747  -7.675  1.00  0.00     0.181 C 
ENDROOT
BRANCH   1   2
ATOM      2  C   UNL     1      22.725  10.119  -7.698  1.00  0.00     0.171 C 
BRANCH   2   3
ATOM      3  C   UNL     1      21.817  11.250  -8.220  1.00  0.00     0.190 C 
BRANCH   3   4
ATOM      4  O   UNL     1      20.875  11.625  -7.250  1.00  0.00    -0.394 OA
ATOM      5  H   UNL     1      20.612  12.559  -7.456  1.00  0.00     0.210 HD
ENDBRANCH   3   4
ENDBRANCH   2   3
BRANCH   2   6
ATOM      6  O   UNL     1      23.232  10.449  -6.428  1.00  0.00    -0.388 OA
ATOM      7  H   UNL     1      22.993   9.713  -5.806  1.00  0.00     0.211 HD
ENDBRANCH   2   6
ENDBRANCH   1   2
BRANCH   1   8
ATOM      8  C   UNL     1      23.006   7.574  -7.749  1.00  0.00     0.214 C 
BRANCH   8   9
ATOM      9  C   UNL     1      23.189   6.932  -6.391  1.00  0.00     0.189 C 
ATOM     10  O   UNL     1      23.695   7.577  -5.485  1.00  0.00    -0.294 OA
BRANCH   9  11
ATOM     11  C   UNL     1      22.745   5.518  -6.125  1.00  0.00     0.234 C 
BRANCH  11  12
ATOM     12  O   UNL     1      21.345   5.443  -6.125  1.00  0.00    -0.388 OA
ATOM     13  H   UNL     1      21.046   5.679  -7.041  1.00  0.00     0.211 HD
ENDBRANCH  11  12
ENDBRANCH   9  11
ENDBRANCH   8   9
BRANCH   8  14
ATOM     14  O   UNL     1      22.553   6.611  -8.666  1.00  0.00    -0.382 OA
ATOM     15  H   UNL     1      21.562   6.674  -8.683  1.00  0.00     0.211 HD
ENDBRANCH   8  14
ENDBRANCH   1   8
BRANCH   1  16
ATOM     16  O   UNL     1      21.231   8.642  -6.502  1.00  0.00    -0.387 OA
ATOM     17  H   UNL     1      20.808   7.744  -6.507  1.00  0.00     0.211 HD
ENDBRANCH   1  16
TORSDOF 10
ENDMDL
MODEL 6
REMARK VINA RESULT:    -3.756      1.726      2.921
REMARK INTER + INTRA:          -6.169
REMARK INTER:                  -5.416
REMARK INTRA:                  -0.753
REMARK UNBOUND:                -0.766
REMARK SMILES O=C(CO)[C@@H](O)[C@@H](O)[C@H](O)CO
REMARK SMILES IDX 7 1 9 2 11 3 12 4 10 6 5 8 2 9 1 10 3 11 4 12 6 14 8 16
REMARK H PARENT 12 5 10 7 4 13 6 15 8 17
REMARK Flexibility Score: inf
ROOT
ATOM      1  C   UNL     1      22.603   7.508  -5.651  1.00  0.00     0.181 C 
ENDROOT
BRANCH   1   2
ATOM      2  C   UNL     1      21.550   8.530  -6.155  1.00  0.00     0.171 C 
BRANCH   2   3
ATOM      3  C   UNL     1      22.179   9.893  -6.505  1.00  0.00     0.190 C 
BRANCH   3   4
ATOM      4  O   UNL     1      21.187  10.851  -6.765  1.00  0.00    -0.394 OA
ATOM      5  H   UNL     1      21.046  11.350  -5.918  1.00  0.00     0.210 HD
ENDBRANCH   3   4
ENDBRANCH   2   3
BRANCH   2   6
ATOM      6  O   UNL     1      20.837   8.025  -7.258  1.00  0.00    -0.388 OA
ATOM      7  H   UNL     1      21.358   7.268  -7.634  1.00  0.00     0.211 HD
ENDBRANCH   2   6
ENDBRANCH   1   2
BRANCH   1   8
ATOM      8  C   UNL     1      22.502   6.167  -6.414  1.00  0.00     0.214 C 
BRANCH   8   9
ATOM      9  C   UNL     1      23.782   5.371  -6.282  1.00  0.00     0.189 C 
ATOM     10  O   UNL     1      24.583   5.366  -7.205  1.00  0.00    -0.294 OA
BRANCH   9  11
ATOM     11  C   UNL     1      24.100   4.596  -5.031  1.00  0.00     0.234 C 
BRANCH  11  12
ATOM     12  O   UNL     1      23.159   3.574  -4.843  1.00  0.00    -0.388 OA
ATOM     13  H   UNL     1      22.381   3.793  -5.419  1.00  0.00     0.211 HD
ENDBRANCH  11  12
ENDBRANCH   9  11
ENDBRANCH   8   9
BRANCH   8  14
ATOM     14  O   UNL     1      21.427   5.412  -5.916  1.00  0.00    -0.382 OA
ATOM     15  H   UNL     1      21.211   4.730  -6.606  1.00  0.00     0.211 HD
ENDBRANCH   8  14
ENDBRANCH   1   8
BRANCH   1  16
ATOM     16  O   UNL     1      23.893   8.049  -5.807  1.00  0.00    -0.387 OA
ATOM     17  H   UNL     1      24.286   7.642  -6.623  1.00  0.00     0.211 HD
ENDBRANCH   1  16
TORSDOF 10
ENDMDL
MODEL 7
REMARK VINA RESULT:    -3.668      1.359      4.983
REMARK INTER + INTRA:          -6.042
REMARK INTER:                  -5.160
REMARK INTRA:                  -0.882
REMARK UNBOUND:                -0.766
REMARK SMILES O=C(CO)[C@@H](O)[C@@H](O)[C@H](O)CO
REMARK SMILES IDX 7 1 9 2 11 3 12 4 10 6 5 8 2 9 1 10 3 11 4 12 6 14 8 16
REMARK H PARENT 12 5 10 7 4 13 6 15 8 17
REMARK Flexibility Score: inf
ROOT
ATOM      1  C   UNL     1      22.054   6.275  -7.018  1.00  0.00     0.181 C 
ENDROOT
BRANCH   1   2
ATOM      2  C   UNL     1      21.924   5.691  -8.449  1.00  0.00     0.171 C 
BRANCH   2   3
ATOM      3  C   UNL     1      22.894   4.518  -8.692  1.00  0.00     0.190 C 
BRANCH   3   4
ATOM      4  O   UNL     1      22.473   3.369  -8.006  1.00  0.00    -0.394 OA
ATOM      5  H   UNL     1      21.741   3.653  -7.399  1.00  0.00     0.210 HD
ENDBRANCH   3   4
ENDBRANCH   2   3
BRANCH   2   6
ATOM      6  O   UNL     1      20.601   5.292  -8.718  1.00  0.00    -0.388 OA
ATOM      7  H   UNL     1      20.189   5.011  -7.861  1.00  0.00     0.211 HD
ENDBRANCH   2   6
ENDBRANCH   1   2
BRANCH   1   8
ATOM      8  C   UNL     1      21.318   7.628  -6.888  1.00  0.00     0.214 C 
BRANCH   8   9
ATOM      9  C   UNL     1      22.122   8.605  -6.058  1.00  0.00     0.189 C 
ATOM     10  O   UNL     1      22.528   8.264  -4.957  1.00  0.00    -0.294 OA
BRANCH   9  11
ATOM     11  C   UNL     1      22.448   9.985  -6.566  1.00  0.00     0.234 C 
BRANCH  11  12
ATOM     12  O   UNL     1      21.273  10.734  -6.718  1.00  0.00    -0.388 OA
ATOM     13  H   UNL     1      20.516  10.116  -6.547  1.00  0.00     0.211 HD
ENDBRANCH  11  12
ENDBRANCH   9  11
ENDBRANCH   8   9
BRANCH   8  14
ATOM     14  O   UNL     1      21.088   8.173  -8.163  1.00  0.00    -0.382 OA
ATOM     15  H   UNL     1      20.221   7.805  -8.480  1.00  0.00     0.211 HD
ENDBRANCH   8  14
ENDBRANCH   1   8
BRANCH   1  16
ATOM     16  O   UNL     1      21.532   5.357  -6.087  1.00  0.00    -0.387 OA
ATOM     17  H   UNL     1      22.217   5.235  -5.379  1.00  0.00     0.211 HD
ENDBRANCH   1  16
TORSDOF 10
ENDMDL
MODEL 8
REMARK VINA RESULT:    -3.617     21.170     22.418
REMARK INTER + INTRA:          -5.968
REMARK INTER:                  -4.813
REMARK INTRA:                  -1.156
REMARK UNBOUND:                -0.766
REMARK SMILES O=C(CO)[C@@H](O)[C@@H](O)[C@H](O)CO
REMARK SMILES IDX 7 1 9 2 11 3 12 4 10 6 5 8 2 9 1 10 3 11 4 12 6 14 8 16
REMARK H PARENT 12 5 10 7 4 13 6 15 8 17
REMARK Flexibility Score: inf
ROOT
ATOM      1  C   UNL     1       9.337  19.659   6.483  1.00  0.00     0.181 C 
ENDROOT
BRANCH   1   2
ATOM      2  C   UNL     1       7.815  19.358   6.474  1.00  0.00     0.171 C 
BRANCH   2   3
ATOM      3  C   UNL     1       7.377  18.601   5.205  1.00  0.00     0.190 C 
BRANCH   3   4
ATOM      4  O   UNL     1       8.089  17.398   5.068  1.00  0.00    -0.394 OA
ATOM      5  H   UNL     1       8.662  17.499   4.264  1.00  0.00     0.210 HD
ENDBRANCH   3   4
ENDBRANCH   2   3
BRANCH   2   6
ATOM      6  O   UNL     1       7.430  18.644   7.624  1.00  0.00    -0.388 OA
ATOM      7  H   UNL     1       6.458  18.454   7.551  1.00  0.00     0.211 HD
ENDBRANCH   2   6
ENDBRANCH   1   2
BRANCH   1   8
ATOM      8  C   UNL     1       9.669  20.875   7.379  1.00  0.00     0.214 C 
BRANCH   8   9
ATOM      9  C   UNL     1      10.147  20.428   8.743  1.00  0.00     0.189 C 
ATOM     10  O   UNL     1       9.383  19.817   9.476  1.00  0.00    -0.294 OA
BRANCH   9  11
ATOM     11  C   UNL     1      11.550  20.705   9.213  1.00  0.00     0.234 C 
BRANCH  11  12
ATOM     12  O   UNL     1      12.453  19.841   8.576  1.00  0.00    -0.388 OA
ATOM     13  H   UNL     1      13.119  19.570   9.259  1.00  0.00     0.211 HD
ENDBRANCH  11  12
ENDBRANCH   9  11
ENDBRANCH   8   9
BRANCH   8  14
ATOM     14  O   UNL     1      10.660  21.664   6.770  1.00  0.00    -0.382 OA
ATOM     15  H   UNL     1      10.231  22.116   5.995  1.00  0.00     0.211 HD
ENDBRANCH   8  14
ENDBRANCH   1   8
BRANCH   1  16
ATOM     16  O   UNL     1      10.037  18.526   6.938  1.00  0.00    -0.387 OA
ATOM     17  H   UNL     1      10.585  18.813   7.714  1.00  0.00     0.211 HD
ENDBRANCH   1  16
TORSDOF 10
ENDMDL
MODEL 9
REMARK VINA RESULT:    -3.565      1.488      2.463
REMARK INTER + INTRA:          -5.894
REMARK INTER:                  -4.719
REMARK INTRA:                  -1.174
REMARK UNBOUND:                -0.766
REMARK SMILES O=C(CO)[C@@H](O)[C@@H](O)[C@H](O)CO
REMARK SMILES IDX 7 1 9 2 11 3 12 4 10 6 5 8 2 9 1 10 3 11 4 12 6 14 8 16
REMARK H PARENT 12 5 10 7 4 13 6 15 8 17
REMARK Flexibility Score: inf
ROOT
ATOM      1  C   UNL     1      21.637   8.682  -6.101  1.00  0.00     0.181 C 
ENDROOT
BRANCH   1   2
ATOM      2  C   UNL     1      22.274   9.995  -6.628  1.00  0.00     0.171 C 
BRANCH   2   3
ATOM      3  C   UNL     1      23.388   9.730  -7.659  1.00  0.00     0.190 C 
BRANCH   3   4
ATOM      4  O   UNL     1      24.545   9.241  -7.033  1.00  0.00    -0.394 OA
ATOM      5  H   UNL     1      24.960   8.599  -7.666  1.00  0.00     0.210 HD
ENDBRANCH   3   4
ENDBRANCH   2   3
BRANCH   2   6
ATOM      6  O   UNL     1      21.299  10.850  -7.173  1.00  0.00    -0.388 OA
ATOM      7  H   UNL     1      20.746  10.318  -7.802  1.00  0.00     0.211 HD
ENDBRANCH   2   6
ENDBRANCH   1   2
BRANCH   1   8
ATOM      8  C   UNL     1      21.494   7.629  -7.225  1.00  0.00     0.214 C 
BRANCH   8   9
ATOM      9  C   UNL     1      22.047   6.291  -6.786  1.00  0.00     0.189 C 
ATOM     10  O   UNL     1      21.391   5.588  -6.032  1.00  0.00    -0.294 OA
BRANCH   9  11
ATOM     11  C   UNL     1      23.384   5.796  -7.272  1.00  0.00     0.234 C 
BRANCH  11  12
ATOM     12  O   UNL     1      24.416   6.370  -6.515  1.00  0.00    -0.388 OA
ATOM     13  H   UNL     1      24.976   5.622  -6.182  1.00  0.00     0.211 HD
ENDBRANCH  11  12
ENDBRANCH   9  11
ENDBRANCH   8   9
BRANCH   8  14
ATOM     14  O   UNL     1      20.143   7.485  -7.579  1.00  0.00    -0.382 OA
ATOM     15  H   UNL     1      19.990   8.064  -8.372  1.00  0.00     0.211 HD
ENDBRANCH   8  14
ENDBRANCH   1   8
BRANCH   1  16
ATOM     16  O   UNL     1      22.428   8.162  -5.059  1.00  0.00    -0.387 OA
ATOM     17  H   UNL     1      23.078   7.534  -5.469  1.00  0.00     0.211 HD
ENDBRANCH   1  16
TORSDOF 10
ENDMDL
