MODEL 1
REMARK VINA RESULT:    -2.602      0.000      0.000
REMARK INTER + INTRA:          -3.878
REMARK INTER:                  -3.591
REMARK INTRA:                  -0.287
REMARK UNBOUND:                -0.287
REMARK SMILES CCCCCCCCO
REMARK SMILES IDX 5 1 4 2 3 3 2 4 1 5 6 6 7 7 8 8 9 9
REMARK H PARENT 9 10
REMARK Flexibility Score: inf
ROOT
ATOM      1  C   UNL     1     140.662 136.326 144.125  1.00  0.00     0.000 C 
ENDROOT
BRANCH   1   2
ATOM      2  C   UNL     1     142.162 136.455 143.817  1.00  0.00    -0.000 C 
BRANCH   2   3
ATOM      3  C   UNL     1     142.491 136.166 142.345  1.00  0.00    -0.000 C 
BRANCH   3   4
ATOM      4  C   UNL     1     142.914 137.446 141.616  1.00  0.00    -0.003 C 
ATOM      5  C   UNL     1     143.631 138.408 142.560  1.00  0.00     0.004 C 
ENDBRANCH   3   4
ENDBRANCH   2   3
ENDBRANCH   1   2
BRANCH   1   6
ATOM      6  C   UNL     1     139.923 137.671 144.047  1.00  0.00     0.002 C 
BRANCH   6   7
ATOM      7  C   UNL     1     138.424 137.459 143.801  1.00  0.00     0.028 C 
BRANCH   7   8
ATOM      8  C   UNL     1     137.820 138.589 142.960  1.00  0.00     0.156 C 
BRANCH   8   9
ATOM      9  O   UNL     1     136.423 138.484 142.907  1.00  0.00    -0.396 OA
ATOM     10  H   UNL     1     136.061 139.265 143.402  1.00  0.00     0.210 HD
ENDBRANCH   8   9
ENDBRANCH   7   8
ENDBRANCH   6   7
ENDBRANCH   1   6
TORSDOF 7
ENDMDL
MODEL 2
REMARK VINA RESULT:    -2.594      4.905      6.401
REMARK INTER + INTRA:          -3.866
REMARK INTER:                  -3.625
REMARK INTRA:                  -0.241
REMARK UNBOUND:                -0.287
REMARK SMILES CCCCCCCCO
REMARK SMILES IDX 5 1 4 2 3 3 2 4 1 5 6 6 7 7 8 8 9 9
REMARK H PARENT 9 10
REMARK Flexibility Score: inf
ROOT
ATOM      1  C   UNL     1     137.616 141.802 142.678  1.00  0.00     0.000 C 
ENDROOT
BRANCH   1   2
ATOM      2  C   UNL     1     138.051 143.264 142.495  1.00  0.00    -0.000 C 
BRANCH   2   3
ATOM      3  C   UNL     1     138.444 143.936 143.819  1.00  0.00    -0.000 C 
BRANCH   3   4
ATOM      4  C   UNL     1     139.483 145.040 143.587  1.00  0.00    -0.003 C 
ATOM      5  C   UNL     1     139.330 145.659 142.200  1.00  0.00     0.004 C 
ENDBRANCH   3   4
ENDBRANCH   2   3
ENDBRANCH   1   2
BRANCH   1   6
ATOM      6  C   UNL     1     137.004 141.535 144.061  1.00  0.00     0.002 C 
BRANCH   6   7
ATOM      7  C   UNL     1     136.147 140.262 144.045  1.00  0.00     0.028 C 
BRANCH   7   8
ATOM      8  C   UNL     1     136.757 139.177 143.152  1.00  0.00     0.156 C 
BRANCH   8   9
ATOM      9  O   UNL     1     135.806 138.674 142.253  1.00  0.00    -0.396 OA
ATOM     10  H   UNL     1     136.273 138.001 141.692  1.00  0.00     0.210 HD
ENDBRANCH   8   9
ENDBRANCH   7   8
ENDBRANCH   6   7
ENDBRANCH   1   6
TORSDOF 7
ENDMDL
MODEL 3
REMARK VINA RESULT:    -2.566      7.169      8.682
REMARK INTER + INTRA:          -3.828
REMARK INTER:                  -3.635
REMARK INTRA:                  -0.192
REMARK UNBOUND:                -0.287
REMARK SMILES CCCCCCCCO
REMARK SMILES IDX 5 1 4 2 3 3 2 4 1 5 6 6 7 7 8 8 9 9
REMARK H PARENT 9 10
REMARK Flexibility Score: inf
ROOT
ATOM      1  C   UNL     1     141.499 144.139 143.457  1.00  0.00     0.000 C 
ENDROOT
BRANCH   1   2
ATOM      2  C   UNL     1     140.578 145.336 143.738  1.00  0.00    -0.000 C 
BRANCH   2   3
ATOM      3  C   UNL     1     139.525 145.544 142.639  1.00  0.00    -0.000 C 
BRANCH   3   4
ATOM      4  C   UNL     1     140.161 145.455 141.247  1.00  0.00    -0.003 C 
ATOM      5  C   UNL     1     139.972 146.756 140.470  1.00  0.00     0.004 C 
ENDBRANCH   3   4
ENDBRANCH   2   3
ENDBRANCH   1   2
BRANCH   1   6
ATOM      6  C   UNL     1     142.954 144.398 143.875  1.00  0.00     0.002 C 
BRANCH   6   7
ATOM      7  C   UNL     1     143.750 143.088 143.934  1.00  0.00     0.028 C 
BRANCH   7   8
ATOM      8  C   UNL     1     144.270 142.676 142.552  1.00  0.00     0.156 C 
BRANCH   8   9
ATOM      9  O   UNL     1     145.600 143.081 142.375  1.00  0.00    -0.396 OA
ATOM     10  H   UNL     1     145.790 143.751 143.084  1.00  0.00     0.210 HD
ENDBRANCH   8   9
ENDBRANCH   7   8
ENDBRANCH   6   7
ENDBRANCH   1   6
TORSDOF 7
ENDMDL
MODEL 4
REMARK VINA RESULT:    -2.562      5.580      6.930
REMARK INTER + INTRA:          -3.822
REMARK INTER:                  -3.626
REMARK INTRA:                  -0.196
REMARK UNBOUND:                -0.287
REMARK SMILES CCCCCCCCO
REMARK SMILES IDX 5 1 4 2 3 3 2 4 1 5 6 6 7 7 8 8 9 9
REMARK H PARENT 9 10
REMARK Flexibility Score: inf
ROOT
ATOM      1  C   UNL     1     137.987 141.825 144.066  1.00  0.00     0.000 C 
ENDROOT
BRANCH   1   2
ATOM      2  C   UNL     1     136.644 141.086 143.961  1.00  0.00    -0.000 C 
BRANCH   2   3
ATOM      3  C   UNL     1     136.803 139.559 143.994  1.00  0.00    -0.000 C 
BRANCH   3   4
ATOM      4  C   UNL     1     136.667 138.963 142.588  1.00  0.00    -0.003 C 
ATOM      5  C   UNL     1     135.669 139.754 141.747  1.00  0.00     0.004 C 
ENDBRANCH   3   4
ENDBRANCH   2   3
ENDBRANCH   1   2
BRANCH   1   6
ATOM      6  C   UNL     1     137.837 143.349 143.948  1.00  0.00     0.002 C 
BRANCH   6   7
ATOM      7  C   UNL     1     138.348 143.847 142.590  1.00  0.00     0.028 C 
BRANCH   7   8
ATOM      8  C   UNL     1     139.283 145.052 142.742  1.00  0.00     0.156 C 
BRANCH   8   9
ATOM      9  O   UNL     1     138.752 146.183 142.104  1.00  0.00    -0.396 OA
ATOM     10  H   UNL     1     137.992 145.865 141.549  1.00  0.00     0.210 HD
ENDBRANCH   8   9
ENDBRANCH   7   8
ENDBRANCH   6   7
ENDBRANCH   1   6
TORSDOF 7
ENDMDL
MODEL 5
REMARK VINA RESULT:    -2.560      6.414      6.899
REMARK INTER + INTRA:          -3.820
REMARK INTER:                  -3.626
REMARK INTRA:                  -0.194
REMARK UNBOUND:                -0.287
REMARK SMILES CCCCCCCCO
REMARK SMILES IDX 5 1 4 2 3 3 2 4 1 5 6 6 7 7 8 8 9 9
REMARK H PARENT 9 10
REMARK Flexibility Score: inf
ROOT
ATOM      1  C   UNL     1     142.002 143.868 142.820  1.00  0.00     0.000 C 
ENDROOT
BRANCH   1   2
ATOM      2  C   UNL     1     143.491 143.510 142.689  1.00  0.00    -0.000 C 
BRANCH   2   3
ATOM      3  C   UNL     1     143.923 142.405 143.664  1.00  0.00    -0.000 C 
BRANCH   3   4
ATOM      4  C   UNL     1     145.364 141.961 143.384  1.00  0.00    -0.003 C 
ATOM      5  C   UNL     1     145.747 142.212 141.928  1.00  0.00     0.004 C 
ENDBRANCH   3   4
ENDBRANCH   2   3
ENDBRANCH   1   2
BRANCH   1   6
ATOM      6  C   UNL     1     141.700 144.693 144.079  1.00  0.00     0.002 C 
BRANCH   6   7
ATOM      7  C   UNL     1     140.419 145.519 143.900  1.00  0.00     0.028 C 
BRANCH   7   8
ATOM      8  C   UNL     1     139.466 144.877 142.885  1.00  0.00     0.156 C 
BRANCH   8   9
ATOM      9  O   UNL     1     138.697 145.851 142.233  1.00  0.00    -0.396 OA
ATOM     10  H   UNL     1     137.805 145.446 142.070  1.00  0.00     0.210 HD
ENDBRANCH   8   9
ENDBRANCH   7   8
ENDBRANCH   6   7
ENDBRANCH   1   6
TORSDOF 7
ENDMDL
MODEL 6
REMARK VINA RESULT:    -2.512      2.683      5.354
REMARK INTER + INTRA:          -3.754
REMARK INTER:                  -3.560
REMARK INTRA:                  -0.194
REMARK UNBOUND:                -0.287
REMARK SMILES CCCCCCCCO
REMARK SMILES IDX 5 1 4 2 3 3 2 4 1 5 6 6 7 7 8 8 9 9
REMARK H PARENT 9 10
REMARK Flexibility Score: inf
ROOT
ATOM      1  C   UNL     1     139.539 137.906 142.864  1.00  0.00     0.000 C 
ENDROOT
BRANCH   1   2
ATOM      2  C   UNL     1     138.044 138.177 142.635  1.00  0.00    -0.000 C 
BRANCH   2   3
ATOM      3  C   UNL     1     137.403 138.967 143.786  1.00  0.00    -0.000 C 
BRANCH   3   4
ATOM      4  C   UNL     1     136.292 139.887 143.267  1.00  0.00    -0.003 C 
ATOM      5  C   UNL     1     135.789 139.428 141.900  1.00  0.00     0.004 C 
ENDBRANCH   3   4
ENDBRANCH   2   3
ENDBRANCH   1   2
BRANCH   1   6
ATOM      6  C   UNL     1     139.794 136.903 143.998  1.00  0.00     0.002 C 
BRANCH   6   7
ATOM      7  C   UNL     1     141.163 136.230 143.839  1.00  0.00     0.028 C 
BRANCH   7   8
ATOM      8  C   UNL     1     141.875 136.683 142.559  1.00  0.00     0.156 C 
BRANCH   8   9
ATOM      9  O   UNL     1     142.966 135.852 142.270  1.00  0.00    -0.396 OA
ATOM     10  H   UNL     1     143.234 135.427 143.127  1.00  0.00     0.210 HD
ENDBRANCH   8   9
ENDBRANCH   7   8
ENDBRANCH   6   7
ENDBRANCH   1   6
TORSDOF 7
ENDMDL
MODEL 7
REMARK VINA RESULT:    -2.491      4.424      5.647
REMARK INTER + INTRA:          -3.724
REMARK INTER:                  -3.528
REMARK INTRA:                  -0.196
REMARK UNBOUND:                -0.287
REMARK SMILES CCCCCCCCO
REMARK SMILES IDX 5 1 4 2 3 3 2 4 1 5 6 6 7 7 8 8 9 9
REMARK H PARENT 9 10
REMARK Flexibility Score: inf
ROOT
ATOM      1  C   UNL     1     141.757 134.592 140.702  1.00  0.00     0.000 C 
ENDROOT
BRANCH   1   2
ATOM      2  C   UNL     1     141.757 133.910 139.325  1.00  0.00    -0.000 C 
BRANCH   2   3
ATOM      3  C   UNL     1     140.340 133.597 138.819  1.00  0.00    -0.000 C 
BRANCH   3   4
ATOM      4  C   UNL     1     139.936 132.161 139.176  1.00  0.00    -0.003 C 
ATOM      5  C   UNL     1     140.769 131.144 138.399  1.00  0.00     0.004 C 
ENDBRANCH   3   4
ENDBRANCH   2   3
ENDBRANCH   1   2
BRANCH   1   6
ATOM      6  C   UNL     1     141.736 136.124 140.604  1.00  0.00     0.002 C 
BRANCH   6   7
ATOM      7  C   UNL     1     141.113 136.745 141.861  1.00  0.00     0.028 C 
BRANCH   7   8
ATOM      8  C   UNL     1     141.869 136.340 143.131  1.00  0.00     0.156 C 
BRANCH   8   9
ATOM      9  O   UNL     1     143.206 136.757 143.073  1.00  0.00    -0.396 OA
ATOM     10  H   UNL     1     143.202 137.743 143.197  1.00  0.00     0.210 HD
ENDBRANCH   8   9
ENDBRANCH   7   8
ENDBRANCH   6   7
ENDBRANCH   1   6
TORSDOF 7
ENDMDL
MODEL 8
REMARK VINA RESULT:    -2.064      4.056      5.816
REMARK INTER + INTRA:          -3.135
REMARK INTER:                  -2.968
REMARK INTRA:                  -0.167
REMARK UNBOUND:                -0.287
REMARK SMILES CCCCCCCCO
REMARK SMILES IDX 5 1 4 2 3 3 2 4 1 5 6 6 7 7 8 8 9 9
REMARK H PARENT 9 10
REMARK Flexibility Score: inf
ROOT
ATOM      1  C   UNL     1     143.967 139.519 142.819  1.00  0.00     0.000 C 
ENDROOT
BRANCH   1   2
ATOM      2  C   UNL     1     143.630 138.034 143.024  1.00  0.00    -0.000 C 
BRANCH   2   3
ATOM      3  C   UNL     1     142.800 137.450 141.871  1.00  0.00    -0.000 C 
BRANCH   3   4
ATOM      4  C   UNL     1     142.025 136.208 142.327  1.00  0.00    -0.003 C 
ATOM      5  C   UNL     1     141.374 136.433 143.689  1.00  0.00     0.004 C 
ENDBRANCH   3   4
ENDBRANCH   2   3
ENDBRANCH   1   2
BRANCH   1   6
ATOM      6  C   UNL     1     144.366 140.222 144.125  1.00  0.00     0.002 C 
BRANCH   6   7
ATOM      7  C   UNL     1     145.373 141.348 143.857  1.00  0.00     0.028 C 
BRANCH   7   8
ATOM      8  C   UNL     1     144.801 142.408 142.909  1.00  0.00     0.156 C 
BRANCH   8   9
ATOM      9  O   UNL     1     145.798 142.916 142.064  1.00  0.00    -0.396 OA
ATOM     10  H   UNL     1     145.921 143.870 142.313  1.00  0.00     0.210 HD
ENDBRANCH   8   9
ENDBRANCH   7   8
ENDBRANCH   6   7
ENDBRANCH   1   6
TORSDOF 7
ENDMDL
