MODEL 1
REMARK VINA RESULT:    -3.856      0.000      0.000
REMARK INTER + INTRA:          -4.490
REMARK INTER:                  -4.419
REMARK INTRA:                  -0.071
REMARK UNBOUND:                -0.071
REMARK SMILES COc1cc(C(C)=O)ccc1O
REMARK SMILES IDX 5 1 4 2 3 3 11 4 10 5 9 6 6 7 7 8 8 9 2 10 1 11 12 12
REMARK H PARENT 12 13
REMARK Flexibility Score: inf
ROOT
ATOM      1  C   UNL     1      27.997  27.087  25.705  1.00  0.00     0.021 A 
ATOM      2  C   UNL     1      26.869  26.357  26.127  1.00  0.00     0.062 A 
ATOM      3  C   UNL     1      26.863  24.948  26.092  1.00  0.00     0.161 A 
ATOM      4  C   UNL     1      28.004  24.268  25.630  1.00  0.00     0.157 A 
ATOM      5  C   UNL     1      29.125  24.989  25.211  1.00  0.00     0.051 A 
ATOM      6  C   UNL     1      29.125  26.384  25.247  1.00  0.00     0.016 A 
ENDROOT
BRANCH   1   7
ATOM      7  C   UNL     1      27.981  28.576  25.750  1.00  0.00     0.159 C 
ATOM      8  C   UNL     1      27.487  29.398  24.598  1.00  0.00     0.093 C 
ATOM      9  O   UNL     1      28.392  29.176  26.781  1.00  0.00    -0.295 OA
ENDBRANCH   1   7
BRANCH   3  10
ATOM     10  O   UNL     1      25.751  24.197  26.506  1.00  0.00    -0.493 OA
ATOM     11  C   UNL     1      25.600  23.620  27.799  1.00  0.00     0.278 C 
ENDBRANCH   3  10
BRANCH   4  12
ATOM     12  O   UNL     1      28.042  22.875  25.579  1.00  0.00    -0.504 OA
ATOM     13  H   UNL     1      27.753  22.298  26.359  1.00  0.00     0.293 HD
ENDBRANCH   4  12
TORSDOF 3
ENDMDL
MODEL 2
REMARK VINA RESULT:    -3.280      1.738      5.279
REMARK INTER + INTRA:          -3.831
REMARK INTER:                  -3.805
REMARK INTRA:                  -0.026
REMARK UNBOUND:                -0.071
REMARK SMILES COc1cc(C(C)=O)ccc1O
REMARK SMILES IDX 5 1 4 2 3 3 11 4 10 5 9 6 6 7 7 8 8 9 2 10 1 11 12 12
REMARK H PARENT 12 13
REMARK Flexibility Score: inf
ROOT
ATOM      1  C   UNL     1      28.297  26.899  25.744  1.00  0.00     0.021 A 
ATOM      2  C   UNL     1      28.014  27.880  24.775  1.00  0.00     0.062 A 
ATOM      3  C   UNL     1      28.282  29.241  25.021  1.00  0.00     0.161 A 
ATOM      4  C   UNL     1      28.842  29.618  26.254  1.00  0.00     0.157 A 
ATOM      5  C   UNL     1      29.125  28.649  27.218  1.00  0.00     0.051 A 
ATOM      6  C   UNL     1      28.857  27.302  26.970  1.00  0.00     0.016 A 
ENDROOT
BRANCH   1   7
ATOM      7  C   UNL     1      28.005  25.466  25.463  1.00  0.00     0.159 C 
ATOM      8  C   UNL     1      29.032  24.549  24.869  1.00  0.00     0.093 C 
ATOM      9  O   UNL     1      26.865  24.995  25.727  1.00  0.00    -0.295 OA
ENDBRANCH   1   7
BRANCH   3  10
ATOM     10  O   UNL     1      28.008  30.238  24.070  1.00  0.00    -0.493 OA
ATOM     11  C   UNL     1      28.989  30.870  23.255  1.00  0.00     0.278 C 
ENDBRANCH   3  10
BRANCH   4  12
ATOM     12  O   UNL     1      29.124  30.954  26.540  1.00  0.00    -0.504 OA
ATOM     13  H   UNL     1      28.405  31.610  26.820  1.00  0.00     0.293 HD
ENDBRANCH   4  12
TORSDOF 3
ENDMDL
MODEL 3
REMARK VINA RESULT:    -3.277      2.177      4.500
REMARK INTER + INTRA:          -3.827
REMARK INTER:                  -3.698
REMARK INTRA:                  -0.130
REMARK UNBOUND:                -0.071
REMARK SMILES COc1cc(C(C)=O)ccc1O
REMARK SMILES IDX 5 1 4 2 3 3 11 4 10 5 9 6 6 7 7 8 8 9 2 10 1 11 12 12
REMARK H PARENT 12 13
REMARK Flexibility Score: inf
ROOT
ATOM      1  C   UNL     1      25.506  23.768  26.275  1.00  0.00     0.021 A 
ATOM      2  C   UNL     1      26.682  24.479  26.580  1.00  0.00     0.062 A 
ATOM      3  C   UNL     1      27.818  24.393  25.749  1.00  0.00     0.161 A 
ATOM      4  C   UNL     1      27.769  23.583  24.602  1.00  0.00     0.157 A 
ATOM      5  C   UNL     1      26.604  22.875  24.296  1.00  0.00     0.051 A 
ATOM      6  C   UNL     1      25.483  22.964  25.121  1.00  0.00     0.016 A 
ENDROOT
BRANCH   1   7
ATOM      7  C   UNL     1      24.318  23.873  27.166  1.00  0.00     0.159 C 
ATOM      8  C   UNL     1      23.198  22.878  27.116  1.00  0.00     0.093 C 
ATOM      9  O   UNL     1      24.237  24.823  27.993  1.00  0.00    -0.295 OA
ENDBRANCH   1   7
BRANCH   3  10
ATOM     10  O   UNL     1      29.002  25.093  26.032  1.00  0.00    -0.493 OA
ATOM     11  C   UNL     1      29.114  26.512  26.072  1.00  0.00     0.278 C 
ENDBRANCH   3  10
BRANCH   4  12
ATOM     12  O   UNL     1      28.869  23.468  23.752  1.00  0.00    -0.504 OA
ATOM     13  H   UNL     1      29.221  22.570  23.443  1.00  0.00     0.293 HD
ENDBRANCH   4  12
TORSDOF 3
ENDMDL
MODEL 4
REMARK VINA RESULT:    -2.873      1.422      4.574
REMARK INTER + INTRA:          -3.364
REMARK INTER:                  -3.263
REMARK INTRA:                  -0.102
REMARK UNBOUND:                -0.071
REMARK SMILES COc1cc(C(C)=O)ccc1O
REMARK SMILES IDX 5 1 4 2 3 3 11 4 10 5 9 6 6 7 7 8 8 9 2 10 1 11 12 12
REMARK H PARENT 12 13
REMARK Flexibility Score: inf
ROOT
ATOM      1  C   UNL     1      27.436  25.288  25.544  1.00  0.00     0.021 A 
ATOM      2  C   UNL     1      26.858  26.495  25.105  1.00  0.00     0.062 A 
ATOM      3  C   UNL     1      27.406  27.739  25.475  1.00  0.00     0.161 A 
ATOM      4  C   UNL     1      28.548  27.768  26.295  1.00  0.00     0.157 A 
ATOM      5  C   UNL     1      29.125  26.574  26.733  1.00  0.00     0.051 A 
ATOM      6  C   UNL     1      28.577  25.345  26.363  1.00  0.00     0.016 A 
ENDROOT
BRANCH   1   7
ATOM      7  C   UNL     1      26.840  23.985  25.140  1.00  0.00     0.159 C 
ATOM      8  C   UNL     1      26.081  23.824  23.857  1.00  0.00     0.093 C 
ATOM      9  O   UNL     1      26.967  22.978  25.889  1.00  0.00    -0.295 OA
ENDBRANCH   1   7
BRANCH   3  10
ATOM     10  O   UNL     1      26.848  28.956  25.051  1.00  0.00    -0.493 OA
ATOM     11  C   UNL     1      27.200  29.631  23.848  1.00  0.00     0.278 C 
ENDBRANCH   3  10
BRANCH   4  12
ATOM     12  O   UNL     1      29.124  28.977  26.686  1.00  0.00    -0.504 OA
ATOM     13  H   UNL     1      29.002  29.831  26.156  1.00  0.00     0.293 HD
ENDBRANCH   4  12
TORSDOF 3
ENDMDL
MODEL 5
REMARK VINA RESULT:    -2.446      3.557      6.011
REMARK INTER + INTRA:          -2.874
REMARK INTER:                  -2.783
REMARK INTRA:                  -0.092
REMARK UNBOUND:                -0.071
REMARK SMILES COc1cc(C(C)=O)ccc1O
REMARK SMILES IDX 5 1 4 2 3 3 11 4 10 5 9 6 6 7 7 8 8 9 2 10 1 11 12 12
REMARK H PARENT 12 13
REMARK Flexibility Score: inf
ROOT
ATOM      1  C   UNL     1      24.436  24.205  27.567  1.00  0.00     0.021 A 
ATOM      2  C   UNL     1      24.195  25.538  27.952  1.00  0.00     0.062 A 
ATOM      3  C   UNL     1      22.881  26.033  28.068  1.00  0.00     0.161 A 
ATOM      4  C   UNL     1      21.799  25.178  27.794  1.00  0.00     0.157 A 
ATOM      5  C   UNL     1      22.033  23.855  27.411  1.00  0.00     0.051 A 
ATOM      6  C   UNL     1      23.337  23.370  27.298  1.00  0.00     0.016 A 
ENDROOT
BRANCH   1   7
ATOM      7  C   UNL     1      25.833  23.703  27.450  1.00  0.00     0.159 C 
ATOM      8  C   UNL     1      26.671  23.965  26.235  1.00  0.00     0.093 C 
ATOM      9  O   UNL     1      26.341  23.037  28.393  1.00  0.00    -0.295 OA
ENDBRANCH   1   7
BRANCH   3  10
ATOM     10  O   UNL     1      22.615  27.358  28.451  1.00  0.00    -0.493 OA
ATOM     11  C   UNL     1      23.572  28.411  28.439  1.00  0.00     0.278 C 
ENDBRANCH   3  10
BRANCH   4  12
ATOM     12  O   UNL     1      20.482  25.625  27.897  1.00  0.00    -0.504 OA
ATOM     13  H   UNL     1      19.759  25.327  27.254  1.00  0.00     0.293 HD
ENDBRANCH   4  12
TORSDOF 3
ENDMDL
MODEL 6
REMARK VINA RESULT:    -2.375      2.251      3.638
REMARK INTER + INTRA:          -2.793
REMARK INTER:                  -2.685
REMARK INTRA:                  -0.109
REMARK UNBOUND:                -0.071
REMARK SMILES COc1cc(C(C)=O)ccc1O
REMARK SMILES IDX 5 1 4 2 3 3 11 4 10 5 9 6 6 7 7 8 8 9 2 10 1 11 12 12
REMARK H PARENT 12 13
REMARK Flexibility Score: inf
ROOT
ATOM      1  C   UNL     1      26.927  24.563  25.800  1.00  0.00     0.021 A 
ATOM      2  C   UNL     1      26.155  25.141  26.827  1.00  0.00     0.062 A 
ATOM      3  C   UNL     1      24.910  24.592  27.194  1.00  0.00     0.161 A 
ATOM      4  C   UNL     1      24.438  23.451  26.523  1.00  0.00     0.157 A 
ATOM      5  C   UNL     1      25.200  22.875  25.504  1.00  0.00     0.051 A 
ATOM      6  C   UNL     1      26.432  23.423  25.143  1.00  0.00     0.016 A 
ENDROOT
BRANCH   1   7
ATOM      7  C   UNL     1      28.240  25.160  25.428  1.00  0.00     0.159 C 
ATOM      8  C   UNL     1      28.640  26.535  25.871  1.00  0.00     0.093 C 
ATOM      9  O   UNL     1      29.049  24.502  24.719  1.00  0.00    -0.295 OA
ENDBRANCH   1   7
BRANCH   3  10
ATOM     10  O   UNL     1      24.122  25.150  28.214  1.00  0.00    -0.493 OA
ATOM     11  C   UNL     1      23.174  26.194  28.024  1.00  0.00     0.278 C 
ENDBRANCH   3  10
BRANCH   4  12
ATOM     12  O   UNL     1      23.212  22.875  26.854  1.00  0.00    -0.504 OA
ATOM     13  H   UNL     1      22.584  22.503  26.153  1.00  0.00     0.293 HD
ENDBRANCH   4  12
TORSDOF 3
ENDMDL
MODEL 7
REMARK VINA RESULT:    -2.218      3.903      5.197
REMARK INTER + INTRA:          -2.613
REMARK INTER:                  -2.519
REMARK INTRA:                  -0.095
REMARK UNBOUND:                -0.071
REMARK SMILES COc1cc(C(C)=O)ccc1O
REMARK SMILES IDX 5 1 4 2 3 3 11 4 10 5 9 6 6 7 7 8 8 9 2 10 1 11 12 12
REMARK H PARENT 12 13
REMARK Flexibility Score: inf
ROOT
ATOM      1  C   UNL     1      24.149  23.586  27.267  1.00  0.00     0.021 A 
ATOM      2  C   UNL     1      24.611  23.509  25.939  1.00  0.00     0.062 A 
ATOM      3  C   UNL     1      25.972  23.274  25.657  1.00  0.00     0.161 A 
ATOM      4  C   UNL     1      26.875  23.113  26.722  1.00  0.00     0.157 A 
ATOM      5  C   UNL     1      26.420  23.188  28.041  1.00  0.00     0.051 A 
ATOM      6  C   UNL     1      25.072  23.422  28.314  1.00  0.00     0.016 A 
ENDROOT
BRANCH   1   7
ATOM      7  C   UNL     1      22.706  23.835  27.541  1.00  0.00     0.159 C 
ATOM      8  C   UNL     1      22.183  25.207  27.844  1.00  0.00     0.093 C 
ATOM      9  O   UNL     1      21.889  22.875  27.520  1.00  0.00    -0.295 OA
ENDBRANCH   1   7
BRANCH   3  10
ATOM     10  O   UNL     1      26.458  23.194  24.342  1.00  0.00    -0.493 OA
ATOM     11  C   UNL     1      25.742  23.620  23.188  1.00  0.00     0.278 C 
ENDBRANCH   3  10
BRANCH   4  12
ATOM     12  O   UNL     1      28.230  22.879  26.490  1.00  0.00    -0.504 OA
ATOM     13  H   UNL     1      28.732  22.121  26.938  1.00  0.00     0.293 HD
ENDBRANCH   4  12
TORSDOF 3
ENDMDL
