MODEL 1
REMARK VINA RESULT:     4.681      0.000      0.000
REMARK INTER + INTRA:           8.704
REMARK INTER:                   8.786
REMARK INTRA:                  -0.082
REMARK UNBOUND:                -0.082
REMARK SMILES CCCCCCCCC=CCCCCCCCC(=O)[O-]
REMARK SMILES IDX 10 1 9 2 11 3 12 4 13 5 14 6 15 7 16 8 17 9 18 10 19 11
REMARK SMILES IDX 20 12 8 13 7 14 6 15 5 16 4 17 3 18 2 19 1 20
REMARK H PARENT
REMARK Flexibility Score: inf
ROOT
ATOM      1  C   UNL     1     -35.341  22.364   7.752  1.00  0.00    -0.031 C 
ATOM      2  C   UNL     1     -34.427  22.863   6.899  1.00  0.00    -0.031 C 
ENDROOT
BRANCH   1   3
ATOM      3  C   UNL     1     -35.157  21.107   8.568  1.00  0.00     0.027 C 
BRANCH   3   4
ATOM      4  C   UNL     1     -36.282  20.092   8.318  1.00  0.00     0.004 C 
BRANCH   4   5
ATOM      5  C   UNL     1     -37.671  20.753   8.329  1.00  0.00     0.000 C 
BRANCH   5   6
ATOM      6  C   UNL     1     -37.962  21.561   7.051  1.00  0.00     0.000 C 
BRANCH   6   7
ATOM      7  C   UNL     1     -38.106  20.723   5.768  1.00  0.00     0.000 C 
BRANCH   7   8
ATOM      8  C   UNL     1     -38.125  21.581   4.491  1.00  0.00     0.006 C 
BRANCH   8   9
ATOM      9  C   UNL     1     -37.084  22.709   4.535  1.00  0.00     0.053 C 
BRANCH   9  10
ATOM     10  C   UNL     1     -37.692  24.014   4.948  1.00  0.00     0.041 C 
ATOM     11  O   UNL     1     -37.793  24.309   6.168  1.00  0.00    -0.550 OA
ATOM     12  O   UNL     1     -38.124  24.917   3.983  1.00  0.00    -0.550 OA
ENDBRANCH   9  10
ENDBRANCH   8   9
ENDBRANCH   7   8
ENDBRANCH   6   7
ENDBRANCH   5   6
ENDBRANCH   4   5
ENDBRANCH   3   4
ENDBRANCH   1   3
BRANCH   2  13
ATOM     13  C   UNL     1     -33.040  22.302   6.700  1.00  0.00     0.027 C 
BRANCH  13  14
ATOM     14  C   UNL     1     -32.319  22.965   5.517  1.00  0.00     0.004 C 
BRANCH  14  15
ATOM     15  C   UNL     1     -31.434  24.142   5.964  1.00  0.00     0.000 C 
BRANCH  15  16
ATOM     16  C   UNL     1     -31.070  24.074   7.455  1.00  0.00     0.000 C 
BRANCH  16  17
ATOM     17  C   UNL     1     -29.572  24.316   7.709  1.00  0.00    -0.000 C 
BRANCH  17  18
ATOM     18  C   UNL     1     -28.794  23.011   7.944  1.00  0.00    -0.000 C 
BRANCH  18  19
ATOM     19  C   UNL     1     -27.380  23.050   7.348  1.00  0.00    -0.003 C 
ATOM     20  C   UNL     1     -26.807  24.464   7.386  1.00  0.00     0.004 C 
ENDBRANCH  18  19
ENDBRANCH  17  18
ENDBRANCH  16  17
ENDBRANCH  15  16
ENDBRANCH  14  15
ENDBRANCH  13  14
ENDBRANCH   2  13
TORSDOF 15
ENDMDL
MODEL 2
REMARK VINA RESULT:     5.083      3.958      8.641
REMARK INTER + INTRA:           9.458
REMARK INTER:                  10.174
REMARK INTRA:                  -0.715
REMARK UNBOUND:                -0.082
REMARK SMILES CCCCCCCCC=CCCCCCCCC(=O)[O-]
REMARK SMILES IDX 10 1 9 2 11 3 12 4 13 5 14 6 15 7 16 8 17 9 18 10 19 11
REMARK SMILES IDX 20 12 8 13 7 14 6 15 5 16 4 17 3 18 2 19 1 20
REMARK H PARENT
REMARK Flexibility Score: inf
ROOT
ATOM      1  C   UNL     1     -34.041  21.319   7.243  1.00  0.00    -0.031 C 
ATOM      2  C   UNL     1     -35.278  21.180   7.756  1.00  0.00    -0.031 C 
ENDROOT
BRANCH   1   3
ATOM      3  C   UNL     1     -33.605  22.458   6.353  1.00  0.00     0.027 C 
BRANCH   3   4
ATOM      4  C   UNL     1     -32.881  23.558   7.142  1.00  0.00     0.004 C 
BRANCH   4   5
ATOM      5  C   UNL     1     -31.750  24.208   6.326  1.00  0.00     0.000 C 
BRANCH   5   6
ATOM      6  C   UNL     1     -30.478  24.458   7.155  1.00  0.00     0.000 C 
BRANCH   6   7
ATOM      7  C   UNL     1     -29.196  23.814   6.596  1.00  0.00     0.000 C 
BRANCH   7   8
ATOM      8  C   UNL     1     -28.320  23.177   7.688  1.00  0.00     0.006 C 
BRANCH   8   9
ATOM      9  C   UNL     1     -26.828  23.221   7.333  1.00  0.00     0.053 C 
BRANCH   9  10
ATOM     10  C   UNL     1     -26.223  24.559   7.624  1.00  0.00     0.041 C 
ATOM     11  O   UNL     1     -26.371  25.089   8.757  1.00  0.00    -0.550 OA
ATOM     12  O   UNL     1     -25.472  25.211   6.653  1.00  0.00    -0.550 OA
ENDBRANCH   9  10
ENDBRANCH   8   9
ENDBRANCH   7   8
ENDBRANCH   6   7
ENDBRANCH   5   6
ENDBRANCH   4   5
ENDBRANCH   3   4
ENDBRANCH   1   3
BRANCH   2  13
ATOM     13  C   UNL     1     -36.391  22.188   7.604  1.00  0.00     0.027 C 
BRANCH  13  14
ATOM     14  C   UNL     1     -37.773  21.551   7.810  1.00  0.00     0.004 C 
BRANCH  14  15
ATOM     15  C   UNL     1     -38.115  20.540   6.701  1.00  0.00     0.000 C 
BRANCH  15  16
ATOM     16  C   UNL     1     -37.431  20.874   5.366  1.00  0.00     0.000 C 
BRANCH  16  17
ATOM     17  C   UNL     1     -38.118  22.034   4.625  1.00  0.00    -0.000 C 
BRANCH  17  18
ATOM     18  C   UNL     1     -37.189  23.243   4.430  1.00  0.00    -0.000 C 
BRANCH  18  19
ATOM     19  C   UNL     1     -37.858  24.571   4.813  1.00  0.00    -0.003 C 
ATOM     20  C   UNL     1     -38.123  24.640   6.314  1.00  0.00     0.004 C 
ENDBRANCH  18  19
ENDBRANCH  17  18
ENDBRANCH  16  17
ENDBRANCH  15  16
ENDBRANCH  14  15
ENDBRANCH  13  14
ENDBRANCH   2  13
TORSDOF 15
ENDMDL
MODEL 3
REMARK VINA RESULT:     6.315      1.030      1.773
REMARK INTER + INTRA:          11.770
REMARK INTER:                  12.929
REMARK INTRA:                  -1.159
REMARK UNBOUND:                -0.082
REMARK SMILES CCCCCCCCC=CCCCCCCCC(=O)[O-]
REMARK SMILES IDX 10 1 9 2 11 3 12 4 13 5 14 6 15 7 16 8 17 9 18 10 19 11
REMARK SMILES IDX 20 12 8 13 7 14 6 15 5 16 4 17 3 18 2 19 1 20
REMARK H PARENT
REMARK Flexibility Score: inf
ROOT
ATOM      1  C   UNL     1     -33.981  21.994   6.636  1.00  0.00    -0.031 C 
ATOM      2  C   UNL     1     -33.190  22.983   6.180  1.00  0.00    -0.031 C 
ENDROOT
BRANCH   1   3
ATOM      3  C   UNL     1     -34.024  21.520   8.068  1.00  0.00     0.027 C 
BRANCH   3   4
ATOM      4  C   UNL     1     -35.414  20.995   8.458  1.00  0.00     0.004 C 
BRANCH   4   5
ATOM      5  C   UNL     1     -36.011  20.080   7.374  1.00  0.00     0.000 C 
BRANCH   5   6
ATOM      6  C   UNL     1     -37.501  20.360   7.107  1.00  0.00     0.000 C 
BRANCH   6   7
ATOM      7  C   UNL     1     -38.125  21.464   7.980  1.00  0.00     0.000 C 
BRANCH   7   8
ATOM      8  C   UNL     1     -38.068  22.853   7.320  1.00  0.00     0.006 C 
BRANCH   8   9
ATOM      9  C   UNL     1     -37.617  22.779   5.854  1.00  0.00     0.053 C 
BRANCH   9  10
ATOM     10  C   UNL     1     -37.821  24.080   5.141  1.00  0.00     0.041 C 
ATOM     11  O   UNL     1     -37.750  24.132   3.884  1.00  0.00    -0.550 OA
ATOM     12  O   UNL     1     -38.116  25.231   5.862  1.00  0.00    -0.550 OA
ENDBRANCH   9  10
ENDBRANCH   8   9
ENDBRANCH   7   8
ENDBRANCH   6   7
ENDBRANCH   5   6
ENDBRANCH   4   5
ENDBRANCH   3   4
ENDBRANCH   1   3
BRANCH   2  13
ATOM     13  C   UNL     1     -32.298  23.838   7.046  1.00  0.00     0.027 C 
BRANCH  13  14
ATOM     14  C   UNL     1     -31.357  24.715   6.207  1.00  0.00     0.004 C 
BRANCH  14  15
ATOM     15  C   UNL     1     -29.877  24.470   6.549  1.00  0.00     0.000 C 
BRANCH  15  16
ATOM     16  C   UNL     1     -29.686  23.885   7.957  1.00  0.00     0.000 C 
BRANCH  16  17
ATOM     17  C   UNL     1     -28.376  23.090   8.094  1.00  0.00    -0.000 C 
BRANCH  17  18
ATOM     18  C   UNL     1     -27.487  23.197   6.844  1.00  0.00    -0.000 C 
BRANCH  18  19
ATOM     19  C   UNL     1     -26.305  24.158   7.040  1.00  0.00    -0.003 C 
ATOM     20  C   UNL     1     -26.341  24.797   8.426  1.00  0.00     0.004 C 
ENDBRANCH  18  19
ENDBRANCH  17  18
ENDBRANCH  16  17
ENDBRANCH  15  16
ENDBRANCH  14  15
ENDBRANCH  13  14
ENDBRANCH   2  13
TORSDOF 15
ENDMDL
