MODEL 1
REMARK VINA RESULT:    -4.425      0.000      0.000
REMARK INTER + INTRA:          -5.029
REMARK INTER:                  -4.943
REMARK INTRA:                  -0.086
REMARK UNBOUND:                -0.086
REMARK SMILES CCc1ccc(O)cc1O
REMARK SMILES IDX 3 1 9 2 8 3 6 4 5 5 4 6 2 7 1 8 10 9 7 11
REMARK H PARENT 10 10 7 12
REMARK Flexibility Score: inf
ROOT
ATOM      1  C   UNL     1     477.125  35.663 462.105  1.00  0.00    -0.006 A 
ATOM      2  C   UNL     1     477.322  36.998 461.697  1.00  0.00     0.122 A 
ATOM      3  C   UNL     1     478.276  37.295 460.713  1.00  0.00     0.092 A 
ATOM      4  C   UNL     1     479.027  36.273 460.125  1.00  0.00     0.119 A 
ATOM      5  C   UNL     1     478.823  34.945 460.519  1.00  0.00     0.047 A 
ATOM      6  C   UNL     1     477.875  34.641 461.499  1.00  0.00     0.011 A 
ENDROOT
BRANCH   1   7
ATOM      7  C   UNL     1     476.085  35.312 463.139  1.00  0.00     0.036 C 
ATOM      8  C   UNL     1     475.842  33.807 463.173  1.00  0.00     0.009 C 
ENDBRANCH   1   7
BRANCH   2   9
ATOM      9  O   UNL     1     476.568  38.024 462.267  1.00  0.00    -0.508 OA
ATOM     10  H   UNL     1     476.953  38.951 462.410  1.00  0.00     0.293 HD
ENDBRANCH   2   9
BRANCH   4  11
ATOM     11  O   UNL     1     479.971  36.587 459.150  1.00  0.00    -0.508 OA
ATOM     12  H   UNL     1     479.937  36.171 458.227  1.00  0.00     0.293 HD
ENDBRANCH   4  11
TORSDOF 3
ENDMDL
MODEL 2
REMARK VINA RESULT:    -4.250      1.421      2.572
REMARK INTER + INTRA:          -4.833
REMARK INTER:                  -4.748
REMARK INTRA:                  -0.085
REMARK UNBOUND:                -0.086
REMARK SMILES CCc1ccc(O)cc1O
REMARK SMILES IDX 3 1 9 2 8 3 6 4 5 5 4 6 2 7 1 8 10 9 7 11
REMARK H PARENT 10 10 7 12
REMARK Flexibility Score: inf
ROOT
ATOM      1  C   UNL     1     477.235  35.255 462.136  1.00  0.00    -0.006 A 
ATOM      2  C   UNL     1     478.273  35.466 461.206  1.00  0.00     0.122 A 
ATOM      3  C   UNL     1     478.468  36.741 460.654  1.00  0.00     0.092 A 
ATOM      4  C   UNL     1     477.646  37.808 461.030  1.00  0.00     0.119 A 
ATOM      5  C   UNL     1     476.624  37.603 461.965  1.00  0.00     0.047 A 
ATOM      6  C   UNL     1     476.423  36.336 462.518  1.00  0.00     0.011 A 
ENDROOT
BRANCH   1   7
ATOM      7  C   UNL     1     477.022  33.902 462.768  1.00  0.00     0.036 C 
ATOM      8  C   UNL     1     475.651  33.824 463.431  1.00  0.00     0.009 C 
ENDBRANCH   1   7
BRANCH   2   9
ATOM      9  O   UNL     1     479.108  34.412 460.834  1.00  0.00    -0.508 OA
ATOM     10  H   UNL     1     479.640  33.888 461.519  1.00  0.00     0.293 HD
ENDBRANCH   2   9
BRANCH   4  11
ATOM     11  O   UNL     1     477.855  39.067 460.471  1.00  0.00    -0.508 OA
ATOM     12  H   UNL     1     478.274  39.820 461.004  1.00  0.00     0.293 HD
ENDBRANCH   4  11
TORSDOF 3
ENDMDL
MODEL 3
REMARK VINA RESULT:    -4.224      1.741      4.087
REMARK INTER + INTRA:          -4.804
REMARK INTER:                  -4.701
REMARK INTRA:                  -0.103
REMARK UNBOUND:                -0.086
REMARK SMILES CCc1ccc(O)cc1O
REMARK SMILES IDX 3 1 9 2 8 3 6 4 5 5 4 6 2 7 1 8 10 9 7 11
REMARK H PARENT 10 10 7 12
REMARK Flexibility Score: inf
ROOT
ATOM      1  C   UNL     1     478.176  37.038 460.874  1.00  0.00    -0.006 A 
ATOM      2  C   UNL     1     478.719  35.798 460.479  1.00  0.00     0.122 A 
ATOM      3  C   UNL     1     478.288  34.617 461.101  1.00  0.00     0.092 A 
ATOM      4  C   UNL     1     477.316  34.660 462.104  1.00  0.00     0.119 A 
ATOM      5  C   UNL     1     476.765  35.889 462.487  1.00  0.00     0.047 A 
ATOM      6  C   UNL     1     477.189  37.069 461.872  1.00  0.00     0.011 A 
ENDROOT
BRANCH   1   7
ATOM      7  C   UNL     1     478.598  38.319 460.200  1.00  0.00     0.036 C 
ATOM      8  C   UNL     1     479.737  38.984 460.967  1.00  0.00     0.009 C 
ENDBRANCH   1   7
BRANCH   2   9
ATOM      9  O   UNL     1     479.681  35.742 459.469  1.00  0.00    -0.508 OA
ATOM     10  H   UNL     1     480.387  36.461 459.367  1.00  0.00     0.293 HD
ENDBRANCH   2   9
BRANCH   4  11
ATOM     11  O   UNL     1     476.901  33.476 462.711  1.00  0.00    -0.508 OA
ATOM     12  H   UNL     1     477.145  32.570 462.327  1.00  0.00     0.293 HD
ENDBRANCH   4  11
TORSDOF 3
ENDMDL
MODEL 4
REMARK VINA RESULT:    -4.055      1.539      2.747
REMARK INTER + INTRA:          -4.615
REMARK INTER:                  -4.519
REMARK INTRA:                  -0.096
REMARK UNBOUND:                -0.086
REMARK SMILES CCc1ccc(O)cc1O
REMARK SMILES IDX 3 1 9 2 8 3 6 4 5 5 4 6 2 7 1 8 10 9 7 11
REMARK H PARENT 10 10 7 12
REMARK Flexibility Score: inf
ROOT
ATOM      1  C   UNL     1     477.303  37.226 461.655  1.00  0.00    -0.006 A 
ATOM      2  C   UNL     1     477.182  35.845 461.912  1.00  0.00     0.122 A 
ATOM      3  C   UNL     1     478.017  34.934 461.246  1.00  0.00     0.092 A 
ATOM      4  C   UNL     1     478.976  35.389 460.336  1.00  0.00     0.119 A 
ATOM      5  C   UNL     1     479.106  36.762 460.091  1.00  0.00     0.047 A 
ATOM      6  C   UNL     1     478.279  37.674 460.749  1.00  0.00     0.011 A 
ENDROOT
BRANCH   1   7
ATOM      7  C   UNL     1     476.439  38.228 462.379  1.00  0.00     0.036 C 
ATOM      8  C   UNL     1     475.521  38.956 461.403  1.00  0.00     0.009 C 
ENDBRANCH   1   7
BRANCH   2   9
ATOM      9  O   UNL     1     476.238  35.380 462.828  1.00  0.00    -0.508 OA
ATOM     10  H   UNL     1     476.474  35.222 463.801  1.00  0.00     0.293 HD
ENDBRANCH   2   9
BRANCH   4  11
ATOM     11  O   UNL     1     479.795  34.470 459.684  1.00  0.00    -0.508 OA
ATOM     12  H   UNL     1     480.805  34.521 459.751  1.00  0.00     0.293 HD
ENDBRANCH   4  11
TORSDOF 3
ENDMDL
MODEL 5
REMARK VINA RESULT:    -4.015      2.061      3.599
REMARK INTER + INTRA:          -4.571
REMARK INTER:                  -4.483
REMARK INTRA:                  -0.088
REMARK UNBOUND:                -0.086
REMARK SMILES CCc1ccc(O)cc1O
REMARK SMILES IDX 3 1 9 2 8 3 6 4 5 5 4 6 2 7 1 8 10 9 7 11
REMARK H PARENT 10 10 7 12
REMARK Flexibility Score: inf
ROOT
ATOM      1  C   UNL     1     477.520  36.990 461.477  1.00  0.00    -0.006 A 
ATOM      2  C   UNL     1     476.408  36.829 462.328  1.00  0.00     0.122 A 
ATOM      3  C   UNL     1     476.067  35.552 462.798  1.00  0.00     0.092 A 
ATOM      4  C   UNL     1     476.830  34.438 462.437  1.00  0.00     0.119 A 
ATOM      5  C   UNL     1     477.943  34.599 461.603  1.00  0.00     0.047 A 
ATOM      6  C   UNL     1     478.289  35.866 461.130  1.00  0.00     0.011 A 
ENDROOT
BRANCH   1   7
ATOM      7  C   UNL     1     477.927  38.355 460.981  1.00  0.00     0.036 C 
ATOM      8  C   UNL     1     479.446  38.473 460.909  1.00  0.00     0.009 C 
ENDBRANCH   1   7
BRANCH   2   9
ATOM      9  O   UNL     1     475.647  37.936 462.706  1.00  0.00    -0.508 OA
ATOM     10  H   UNL     1     475.985  38.883 462.577  1.00  0.00     0.293 HD
ENDBRANCH   2   9
BRANCH   4  11
ATOM     11  O   UNL     1     476.475  33.178 462.914  1.00  0.00    -0.508 OA
ATOM     12  H   UNL     1     475.889  33.068 463.733  1.00  0.00     0.293 HD
ENDBRANCH   4  11
TORSDOF 3
ENDMDL
MODEL 6
REMARK VINA RESULT:    -3.960      2.016      2.615
REMARK INTER + INTRA:          -4.509
REMARK INTER:                  -4.415
REMARK INTRA:                  -0.093
REMARK UNBOUND:                -0.086
REMARK SMILES CCc1ccc(O)cc1O
REMARK SMILES IDX 3 1 9 2 8 3 6 4 5 5 4 6 2 7 1 8 10 9 7 11
REMARK H PARENT 10 10 7 12
REMARK Flexibility Score: inf
ROOT
ATOM      1  C   UNL     1     478.189  37.295 461.351  1.00  0.00    -0.006 A 
ATOM      2  C   UNL     1     479.044  37.613 460.276  1.00  0.00     0.122 A 
ATOM      3  C   UNL     1     479.606  36.587 459.502  1.00  0.00     0.092 A 
ATOM      4  C   UNL     1     479.315  35.249 459.783  1.00  0.00     0.119 A 
ATOM      5  C   UNL     1     478.454  34.932 460.841  1.00  0.00     0.047 A 
ATOM      6  C   UNL     1     477.892  35.948 461.617  1.00  0.00     0.011 A 
ENDROOT
BRANCH   1   7
ATOM      7  C   UNL     1     477.547  38.379 462.179  1.00  0.00     0.036 C 
ATOM      8  C   UNL     1     476.038  38.177 462.259  1.00  0.00     0.009 C 
ENDBRANCH   1   7
BRANCH   2   9
ATOM      9  O   UNL     1     479.331  38.946 459.978  1.00  0.00    -0.508 OA
ATOM     10  H   UNL     1     479.965  39.494 460.547  1.00  0.00     0.293 HD
ENDBRANCH   2   9
BRANCH   4  11
ATOM     11  O   UNL     1     479.883  34.243 459.004  1.00  0.00    -0.508 OA
ATOM     12  H   UNL     1     480.672  34.427 458.395  1.00  0.00     0.293 HD
ENDBRANCH   4  11
TORSDOF 3
ENDMDL
MODEL 7
REMARK VINA RESULT:    -3.769      7.807      8.941
REMARK INTER + INTRA:          -4.296
REMARK INTER:                  -4.251
REMARK INTRA:                  -0.044
REMARK UNBOUND:                -0.086
REMARK SMILES CCc1ccc(O)cc1O
REMARK SMILES IDX 3 1 9 2 8 3 6 4 5 5 4 6 2 7 1 8 10 9 7 11
REMARK H PARENT 10 10 7 12
REMARK Flexibility Score: inf
ROOT
ATOM      1  C   UNL     1     483.641  39.410 456.859  1.00  0.00    -0.006 A 
ATOM      2  C   UNL     1     483.747  38.154 457.490  1.00  0.00     0.122 A 
ATOM      3  C   UNL     1     484.561  38.008 458.624  1.00  0.00     0.092 A 
ATOM      4  C   UNL     1     485.259  39.104 459.139  1.00  0.00     0.119 A 
ATOM      5  C   UNL     1     485.143  40.355 458.522  1.00  0.00     0.047 A 
ATOM      6  C   UNL     1     484.336  40.509 457.393  1.00  0.00     0.011 A 
ENDROOT
BRANCH   1   7
ATOM      7  C   UNL     1     482.750  39.602 455.658  1.00  0.00     0.036 C 
ATOM      8  C   UNL     1     483.445  39.126 454.387  1.00  0.00     0.009 C 
ENDBRANCH   1   7
BRANCH   2   9
ATOM      9  O   UNL     1     483.044  37.056 456.992  1.00  0.00    -0.508 OA
ATOM     10  H   UNL     1     483.479  36.382 456.373  1.00  0.00     0.293 HD
ENDBRANCH   2   9
BRANCH   4  11
ATOM     11  O   UNL     1     486.062  38.939 460.265  1.00  0.00    -0.508 OA
ATOM     12  H   UNL     1     486.676  39.677 460.590  1.00  0.00     0.293 HD
ENDBRANCH   4  11
TORSDOF 3
ENDMDL
MODEL 8
REMARK VINA RESULT:    -3.687      6.615      7.587
REMARK INTER + INTRA:          -4.204
REMARK INTER:                  -4.099
REMARK INTRA:                  -0.105
REMARK UNBOUND:                -0.086
REMARK SMILES CCc1ccc(O)cc1O
REMARK SMILES IDX 3 1 9 2 8 3 6 4 5 5 4 6 2 7 1 8 10 9 7 11
REMARK H PARENT 10 10 7 12
REMARK Flexibility Score: inf
ROOT
ATOM      1  C   UNL     1     482.651  38.648 457.861  1.00  0.00    -0.006 A 
ATOM      2  C   UNL     1     484.007  38.274 457.782  1.00  0.00     0.122 A 
ATOM      3  C   UNL     1     484.808  38.301 458.934  1.00  0.00     0.092 A 
ATOM      4  C   UNL     1     484.266  38.687 460.162  1.00  0.00     0.119 A 
ATOM      5  C   UNL     1     482.915  39.045 460.245  1.00  0.00     0.047 A 
ATOM      6  C   UNL     1     482.111  39.022 459.103  1.00  0.00     0.011 A 
ENDROOT
BRANCH   1   7
ATOM      7  C   UNL     1     481.760  38.599 456.644  1.00  0.00     0.036 C 
ATOM      8  C   UNL     1     481.067  37.244 456.536  1.00  0.00     0.009 C 
ENDBRANCH   1   7
BRANCH   2   9
ATOM      9  O   UNL     1     484.556  37.874 456.563  1.00  0.00    -0.508 OA
ATOM     10  H   UNL     1     484.479  38.447 455.731  1.00  0.00     0.293 HD
ENDBRANCH   2   9
BRANCH   4  11
ATOM     11  O   UNL     1     485.076  38.708 461.295  1.00  0.00    -0.508 OA
ATOM     12  H   UNL     1     484.759  39.118 462.166  1.00  0.00     0.293 HD
ENDBRANCH   4  11
TORSDOF 3
ENDMDL
