MODEL 1
REMARK VINA RESULT:    -2.524      0.000      0.000
REMARK INTER + INTRA:          -6.494
REMARK INTER:                  -4.443
REMARK INTRA:                  -2.051
REMARK UNBOUND:                -2.051
REMARK SMILES CCCCCCCCCCCCCCC(=O)[O-]
REMARK SMILES IDX 9 1 10 2 11 3 12 4 13 5 14 6 15 7 16 8 17 9 8 10 7 11 6 12
REMARK SMILES IDX 5 13 4 14 3 15 2 16 1 17
REMARK H PARENT
REMARK Flexibility Score: inf
ROOT
ATOM      1  C   UNL     1     -10.341  -4.610   5.916  1.00  0.00     0.000 C 
ENDROOT
BRANCH   1   2
ATOM      2  C   UNL     1      -9.872  -3.974   7.231  1.00  0.00     0.000 C 
BRANCH   2   3
ATOM      3  C   UNL     1     -10.816  -4.337   8.385  1.00  0.00     0.000 C 
BRANCH   3   4
ATOM      4  C   UNL     1     -10.384  -3.723   9.730  1.00  0.00     0.000 C 
BRANCH   4   5
ATOM      5  C   UNL     1      -9.845  -2.280   9.645  1.00  0.00     0.006 C 
BRANCH   5   6
ATOM      6  C   UNL     1      -8.337  -2.144   9.905  1.00  0.00     0.053 C 
BRANCH   6   7
ATOM      7  C   UNL     1      -7.710  -1.094   9.041  1.00  0.00     0.041 C 
ATOM      8  O   UNL     1      -7.332  -0.004   9.544  1.00  0.00    -0.550 OA
ATOM      9  O   UNL     1      -7.576  -1.304   7.674  1.00  0.00    -0.550 OA
ENDBRANCH   6   7
ENDBRANCH   5   6
ENDBRANCH   4   5
ENDBRANCH   3   4
ENDBRANCH   2   3
ENDBRANCH   1   2
BRANCH   1  10
ATOM     10  C   UNL     1     -10.936  -6.002   6.159  1.00  0.00     0.000 C 
BRANCH  10  11
ATOM     11  C   UNL     1      -9.951  -7.102   5.740  1.00  0.00    -0.000 C 
BRANCH  11  12
ATOM     12  C   UNL     1      -9.544  -8.019   6.909  1.00  0.00    -0.000 C 
BRANCH  12  13
ATOM     13  C   UNL     1      -8.383  -7.493   7.778  1.00  0.00    -0.000 C 
BRANCH  13  14
ATOM     14  C   UNL     1      -8.734  -7.256   9.258  1.00  0.00    -0.000 C 
BRANCH  14  15
ATOM     15  C   UNL     1      -7.766  -6.283   9.951  1.00  0.00    -0.000 C 
BRANCH  15  16
ATOM     16  C   UNL     1      -6.935  -5.466   8.949  1.00  0.00    -0.003 C 
ATOM     17  C   UNL     1      -5.686  -4.854   9.581  1.00  0.00     0.004 C 
ENDBRANCH  15  16
ENDBRANCH  14  15
ENDBRANCH  13  14
ENDBRANCH  12  13
ENDBRANCH  11  12
ENDBRANCH  10  11
ENDBRANCH   1  10
TORSDOF 13
ENDMDL
MODEL 2
REMARK VINA RESULT:    -2.405     21.016     22.502
REMARK INTER + INTRA:          -6.283
REMARK INTER:                  -4.596
REMARK INTRA:                  -1.687
REMARK UNBOUND:                -2.051
REMARK SMILES CCCCCCCCCCCCCCC(=O)[O-]
REMARK SMILES IDX 9 1 10 2 11 3 12 4 13 5 14 6 15 7 16 8 17 9 8 10 7 11 6 12
REMARK SMILES IDX 5 13 4 14 3 15 2 16 1 17
REMARK H PARENT
REMARK Flexibility Score: inf
ROOT
ATOM      1  C   UNL     1       5.941  -4.696  -6.565  1.00  0.00     0.000 C 
ENDROOT
BRANCH   1   2
ATOM      2  C   UNL     1       5.389  -6.027  -7.091  1.00  0.00     0.000 C 
BRANCH   2   3
ATOM      3  C   UNL     1       4.683  -6.809  -5.974  1.00  0.00     0.000 C 
BRANCH   3   4
ATOM      4  C   UNL     1       5.635  -7.740  -5.200  1.00  0.00     0.000 C 
BRANCH   4   5
ATOM      5  C   UNL     1       6.814  -8.299  -6.022  1.00  0.00     0.006 C 
BRANCH   5   6
ATOM      6  C   UNL     1       8.042  -8.699  -5.190  1.00  0.00     0.053 C 
BRANCH   6   7
ATOM      7  C   UNL     1       8.224  -7.812  -3.997  1.00  0.00     0.041 C 
ATOM      8  O   UNL     1       8.751  -6.676  -4.128  1.00  0.00    -0.550 OA
ATOM      9  O   UNL     1       7.844  -8.252  -2.735  1.00  0.00    -0.550 OA
ENDBRANCH   6   7
ENDBRANCH   5   6
ENDBRANCH   4   5
ENDBRANCH   3   4
ENDBRANCH   2   3
ENDBRANCH   1   2
BRANCH   1  10
ATOM     10  C   UNL     1       7.461  -4.618  -6.752  1.00  0.00     0.000 C 
BRANCH  10  11
ATOM     11  C   UNL     1       7.861  -5.016  -8.180  1.00  0.00    -0.000 C 
BRANCH  11  12
ATOM     12  C   UNL     1       8.584  -3.887  -8.936  1.00  0.00    -0.000 C 
BRANCH  12  13
ATOM     13  C   UNL     1       7.665  -2.781  -9.495  1.00  0.00    -0.000 C 
BRANCH  13  14
ATOM     14  C   UNL     1       6.349  -3.281 -10.117  1.00  0.00    -0.000 C 
BRANCH  14  15
ATOM     15  C   UNL     1       5.139  -2.418  -9.723  1.00  0.00    -0.000 C 
BRANCH  15  16
ATOM     16  C   UNL     1       3.802  -3.133  -9.969  1.00  0.00    -0.003 C 
ATOM     17  C   UNL     1       3.962  -4.645 -10.122  1.00  0.00     0.004 C 
ENDBRANCH  15  16
ENDBRANCH  14  15
ENDBRANCH  13  14
ENDBRANCH  12  13
ENDBRANCH  11  12
ENDBRANCH  10  11
ENDBRANCH   1  10
TORSDOF 13
ENDMDL
MODEL 3
REMARK VINA RESULT:    -2.254     21.310     22.602
REMARK INTER + INTRA:          -6.017
REMARK INTER:                  -4.457
REMARK INTRA:                  -1.560
REMARK UNBOUND:                -2.051
REMARK SMILES CCCCCCCCCCCCCCC(=O)[O-]
REMARK SMILES IDX 9 1 10 2 11 3 12 4 13 5 14 6 15 7 16 8 17 9 8 10 7 11 6 12
REMARK SMILES IDX 5 13 4 14 3 15 2 16 1 17
REMARK H PARENT
REMARK Flexibility Score: inf
ROOT
ATOM      1  C   UNL     1       5.014  -5.724  -5.878  1.00  0.00     0.000 C 
ENDROOT
BRANCH   1   2
ATOM      2  C   UNL     1       6.137  -5.020  -6.650  1.00  0.00     0.000 C 
BRANCH   2   3
ATOM      3  C   UNL     1       5.895  -5.097  -8.164  1.00  0.00     0.000 C 
BRANCH   3   4
ATOM      4  C   UNL     1       4.943  -4.000  -8.677  1.00  0.00     0.000 C 
BRANCH   4   5
ATOM      5  C   UNL     1       5.479  -3.174  -9.864  1.00  0.00     0.006 C 
BRANCH   5   6
ATOM      6  C   UNL     1       6.985  -3.331 -10.125  1.00  0.00     0.053 C 
BRANCH   6   7
ATOM      7  C   UNL     1       7.785  -2.256  -9.458  1.00  0.00     0.041 C 
ATOM      8  O   UNL     1       8.546  -2.537  -8.495  1.00  0.00    -0.550 OA
ATOM      9  O   UNL     1       7.665  -0.936  -9.876  1.00  0.00    -0.550 OA
ENDBRANCH   6   7
ENDBRANCH   5   6
ENDBRANCH   4   5
ENDBRANCH   3   4
ENDBRANCH   2   3
ENDBRANCH   1   2
BRANCH   1  10
ATOM     10  C   UNL     1       5.186  -7.246  -5.920  1.00  0.00     0.000 C 
BRANCH  10  11
ATOM     11  C   UNL     1       6.652  -7.641  -5.692  1.00  0.00    -0.000 C 
BRANCH  11  12
ATOM     12  C   UNL     1       7.193  -8.589  -6.778  1.00  0.00    -0.000 C 
BRANCH  12  13
ATOM     13  C   UNL     1       6.136  -9.121  -7.767  1.00  0.00    -0.000 C 
BRANCH  13  14
ATOM     14  C   UNL     1       6.165  -8.470  -9.161  1.00  0.00    -0.000 C 
BRANCH  14  15
ATOM     15  C   UNL     1       4.858  -8.682  -9.945  1.00  0.00    -0.000 C 
BRANCH  15  16
ATOM     16  C   UNL     1       3.705  -7.818  -9.411  1.00  0.00    -0.003 C 
ATOM     17  C   UNL     1       2.332  -8.351  -9.819  1.00  0.00     0.004 C 
ENDBRANCH  15  16
ENDBRANCH  14  15
ENDBRANCH  13  14
ENDBRANCH  12  13
ENDBRANCH  11  12
ENDBRANCH  10  11
ENDBRANCH   1  10
TORSDOF 13
ENDMDL
MODEL 4
REMARK VINA RESULT:    -2.195     21.691     22.851
REMARK INTER + INTRA:          -5.914
REMARK INTER:                  -3.618
REMARK INTRA:                  -2.296
REMARK UNBOUND:                -2.051
REMARK SMILES CCCCCCCCCCCCCCC(=O)[O-]
REMARK SMILES IDX 9 1 10 2 11 3 12 4 13 5 14 6 15 7 16 8 17 9 8 10 7 11 6 12
REMARK SMILES IDX 5 13 4 14 3 15 2 16 1 17
REMARK H PARENT
REMARK Flexibility Score: inf
ROOT
ATOM      1  C   UNL     1       5.143  -6.769  -6.883  1.00  0.00     0.000 C 
ENDROOT
BRANCH   1   2
ATOM      2  C   UNL     1       5.698  -5.341  -6.967  1.00  0.00     0.000 C 
BRANCH   2   3
ATOM      3  C   UNL     1       5.134  -4.603  -8.189  1.00  0.00     0.000 C 
BRANCH   3   4
ATOM      4  C   UNL     1       6.231  -4.111  -9.152  1.00  0.00     0.000 C 
BRANCH   4   5
ATOM      5  C   UNL     1       7.434  -5.062  -9.311  1.00  0.00     0.006 C 
BRANCH   5   6
ATOM      6  C   UNL     1       8.803  -4.363  -9.342  1.00  0.00     0.053 C 
BRANCH   6   7
ATOM      7  C   UNL     1       8.985  -3.436  -8.180  1.00  0.00     0.041 C 
ATOM      8  O   UNL     1       9.091  -3.898  -7.013  1.00  0.00    -0.550 OA
ATOM      9  O   UNL     1       9.004  -2.061  -8.380  1.00  0.00    -0.550 OA
ENDBRANCH   6   7
ENDBRANCH   5   6
ENDBRANCH   4   5
ENDBRANCH   3   4
ENDBRANCH   2   3
ENDBRANCH   1   2
BRANCH   1  10
ATOM     10  C   UNL     1       4.546  -7.208  -8.225  1.00  0.00     0.000 C 
BRANCH  10  11
ATOM     11  C   UNL     1       5.388  -8.320  -8.865  1.00  0.00    -0.000 C 
BRANCH  11  12
ATOM     12  C   UNL     1       6.330  -9.011  -7.862  1.00  0.00    -0.000 C 
BRANCH  12  13
ATOM     13  C   UNL     1       7.827  -8.958  -8.227  1.00  0.00    -0.000 C 
BRANCH  13  14
ATOM     14  C   UNL     1       8.780  -8.743  -7.038  1.00  0.00    -0.000 C 
BRANCH  14  15
ATOM     15  C   UNL     1       8.920  -7.262  -6.648  1.00  0.00    -0.000 C 
BRANCH  15  16
ATOM     16  C   UNL     1       8.522  -6.997  -5.188  1.00  0.00    -0.003 C 
ATOM     17  C   UNL     1       7.794  -8.181  -4.552  1.00  0.00     0.004 C 
ENDBRANCH  15  16
ENDBRANCH  14  15
ENDBRANCH  13  14
ENDBRANCH  12  13
ENDBRANCH  11  12
ENDBRANCH  10  11
ENDBRANCH   1  10
TORSDOF 13
ENDMDL
MODEL 5
REMARK VINA RESULT:    -2.151     13.655     16.096
REMARK INTER + INTRA:          -5.836
REMARK INTER:                  -4.881
REMARK INTRA:                  -0.955
REMARK UNBOUND:                -2.051
REMARK SMILES CCCCCCCCCCCCCCC(=O)[O-]
REMARK SMILES IDX 9 1 10 2 11 3 12 4 13 5 14 6 15 7 16 8 17 9 8 10 7 11 6 12
REMARK SMILES IDX 5 13 4 14 3 15 2 16 1 17
REMARK H PARENT
REMARK Flexibility Score: inf
ROOT
ATOM      1  C   UNL     1       9.036  -8.470   5.257  1.00  0.00     0.000 C 
ENDROOT
BRANCH   1   2
ATOM      2  C   UNL     1       8.953  -8.236   6.771  1.00  0.00     0.000 C 
BRANCH   2   3
ATOM      3  C   UNL     1       7.495  -8.256   7.251  1.00  0.00     0.000 C 
BRANCH   3   4
ATOM      4  C   UNL     1       7.068  -6.942   7.929  1.00  0.00     0.000 C 
BRANCH   4   5
ATOM      5  C   UNL     1       7.045  -6.980   9.471  1.00  0.00     0.006 C 
BRANCH   5   6
ATOM      6  C   UNL     1       6.163  -5.905  10.125  1.00  0.00     0.053 C 
BRANCH   6   7
ATOM      7  C   UNL     1       4.731  -6.021   9.700  1.00  0.00     0.041 C 
ATOM      8  O   UNL     1       4.043  -4.984   9.508  1.00  0.00    -0.550 OA
ATOM      9  O   UNL     1       4.147  -7.272   9.550  1.00  0.00    -0.550 OA
ENDBRANCH   6   7
ENDBRANCH   5   6
ENDBRANCH   4   5
ENDBRANCH   3   4
ENDBRANCH   2   3
ENDBRANCH   1   2
BRANCH   1  10
ATOM     10  C   UNL     1       7.639  -8.630   4.646  1.00  0.00     0.000 C 
BRANCH  10  11
ATOM     11  C   UNL     1       7.253  -7.391   3.826  1.00  0.00    -0.000 C 
BRANCH  11  12
ATOM     12  C   UNL     1       5.823  -6.901   4.118  1.00  0.00    -0.000 C 
BRANCH  12  13
ATOM     13  C   UNL     1       4.954  -6.640   2.871  1.00  0.00    -0.000 C 
BRANCH  13  14
ATOM     14  C   UNL     1       3.637  -7.435   2.816  1.00  0.00    -0.000 C 
BRANCH  14  15
ATOM     15  C   UNL     1       3.837  -8.884   2.340  1.00  0.00    -0.000 C 
BRANCH  15  16
ATOM     16  C   UNL     1       4.345  -8.962   0.892  1.00  0.00    -0.003 C 
ATOM     17  C   UNL     1       5.862  -9.124   0.809  1.00  0.00     0.004 C 
ENDBRANCH  15  16
ENDBRANCH  14  15
ENDBRANCH  13  14
ENDBRANCH  12  13
ENDBRANCH  11  12
ENDBRANCH  10  11
ENDBRANCH   1  10
TORSDOF 13
ENDMDL
MODEL 6
REMARK VINA RESULT:    -2.092     20.931     22.522
REMARK INTER + INTRA:          -5.732
REMARK INTER:                  -4.696
REMARK INTRA:                  -1.036
REMARK UNBOUND:                -2.051
REMARK SMILES CCCCCCCCCCCCCCC(=O)[O-]
REMARK SMILES IDX 9 1 10 2 11 3 12 4 13 5 14 6 15 7 16 8 17 9 8 10 7 11 6 12
REMARK SMILES IDX 5 13 4 14 3 15 2 16 1 17
REMARK H PARENT
REMARK Flexibility Score: inf
ROOT
ATOM      1  C   UNL     1       7.774  -4.629  -6.880  1.00  0.00     0.000 C 
ENDROOT
BRANCH   1   2
ATOM      2  C   UNL     1       8.795  -5.465  -6.098  1.00  0.00     0.000 C 
BRANCH   2   3
ATOM      3  C   UNL     1       9.097  -6.783  -6.824  1.00  0.00     0.000 C 
BRANCH   3   4
ATOM      4  C   UNL     1       8.011  -7.852  -6.605  1.00  0.00     0.000 C 
BRANCH   4   5
ATOM      5  C   UNL     1       6.898  -7.458  -5.612  1.00  0.00     0.006 C 
BRANCH   5   6
ATOM      6  C   UNL     1       5.515  -7.253  -6.250  1.00  0.00     0.053 C 
BRANCH   6   7
ATOM      7  C   UNL     1       4.684  -6.272  -5.483  1.00  0.00     0.041 C 
ATOM      8  O   UNL     1       3.860  -6.677  -4.621  1.00  0.00    -0.550 OA
ATOM      9  O   UNL     1       4.792  -4.911  -5.744  1.00  0.00    -0.550 OA
ENDBRANCH   6   7
ENDBRANCH   5   6
ENDBRANCH   4   5
ENDBRANCH   3   4
ENDBRANCH   2   3
ENDBRANCH   1   2
BRANCH   1  10
ATOM     10  C   UNL     1       8.456  -3.825  -7.993  1.00  0.00     0.000 C 
BRANCH  10  11
ATOM     11  C   UNL     1       8.137  -4.416  -9.373  1.00  0.00    -0.000 C 
BRANCH  11  12
ATOM     12  C   UNL     1       7.062  -5.517  -9.320  1.00  0.00    -0.000 C 
BRANCH  12  13
ATOM     13  C   UNL     1       5.627  -5.045  -9.632  1.00  0.00    -0.000 C 
BRANCH  13  14
ATOM     14  C   UNL     1       4.574  -6.166  -9.702  1.00  0.00    -0.000 C 
BRANCH  14  15
ATOM     15  C   UNL     1       5.193  -7.571  -9.600  1.00  0.00    -0.000 C 
BRANCH  15  16
ATOM     16  C   UNL     1       4.146  -8.686  -9.743  1.00  0.00    -0.003 C 
ATOM     17  C   UNL     1       2.713  -8.157  -9.703  1.00  0.00     0.004 C 
ENDBRANCH  15  16
ENDBRANCH  14  15
ENDBRANCH  13  14
ENDBRANCH  12  13
ENDBRANCH  11  12
ENDBRANCH  10  11
ENDBRANCH   1  10
TORSDOF 13
ENDMDL
MODEL 7
REMARK VINA RESULT:    -2.091     21.632     22.843
REMARK INTER + INTRA:          -5.730
REMARK INTER:                  -3.651
REMARK INTRA:                  -2.079
REMARK UNBOUND:                -2.051
REMARK SMILES CCCCCCCCCCCCCCC(=O)[O-]
REMARK SMILES IDX 9 1 10 2 11 3 12 4 13 5 14 6 15 7 16 8 17 9 8 10 7 11 6 12
REMARK SMILES IDX 5 13 4 14 3 15 2 16 1 17
REMARK H PARENT
REMARK Flexibility Score: inf
ROOT
ATOM      1  C   UNL     1       5.442  -5.824  -6.491  1.00  0.00     0.000 C 
ENDROOT
BRANCH   1   2
ATOM      2  C   UNL     1       6.398  -4.664  -6.189  1.00  0.00     0.000 C 
BRANCH   2   3
ATOM      3  C   UNL     1       7.834  -5.171  -5.995  1.00  0.00     0.000 C 
BRANCH   3   4
ATOM      4  C   UNL     1       8.727  -4.928  -7.226  1.00  0.00     0.000 C 
BRANCH   4   5
ATOM      5  C   UNL     1       8.451  -3.613  -7.983  1.00  0.00     0.006 C 
BRANCH   5   6
ATOM      6  C   UNL     1       7.917  -3.798  -9.412  1.00  0.00     0.053 C 
BRANCH   6   7
ATOM      7  C   UNL     1       6.861  -2.792  -9.751  1.00  0.00     0.041 C 
ATOM      8  O   UNL     1       7.176  -1.591  -9.961  1.00  0.00    -0.550 OA
ATOM      9  O   UNL     1       5.525  -3.172  -9.802  1.00  0.00    -0.550 OA
ENDBRANCH   6   7
ENDBRANCH   5   6
ENDBRANCH   4   5
ENDBRANCH   3   4
ENDBRANCH   2   3
ENDBRANCH   1   2
BRANCH   1  10
ATOM     10  C   UNL     1       5.332  -6.069  -8.001  1.00  0.00     0.000 C 
BRANCH  10  11
ATOM     11  C   UNL     1       4.729  -7.451  -8.292  1.00  0.00    -0.000 C 
BRANCH  11  12
ATOM     12  C   UNL     1       5.745  -8.431  -8.907  1.00  0.00    -0.000 C 
BRANCH  12  13
ATOM     13  C   UNL     1       7.212  -7.956  -8.877  1.00  0.00    -0.000 C 
BRANCH  13  14
ATOM     14  C   UNL     1       8.221  -8.991  -8.348  1.00  0.00    -0.000 C 
BRANCH  14  15
ATOM     15  C   UNL     1       8.685  -8.692  -6.913  1.00  0.00    -0.000 C 
BRANCH  15  16
ATOM     16  C   UNL     1       7.548  -8.822  -5.888  1.00  0.00    -0.003 C 
ATOM     17  C   UNL     1       7.962  -8.370  -4.488  1.00  0.00     0.004 C 
ENDBRANCH  15  16
ENDBRANCH  14  15
ENDBRANCH  13  14
ENDBRANCH  12  13
ENDBRANCH  11  12
ENDBRANCH  10  11
ENDBRANCH   1  10
TORSDOF 13
ENDMDL
MODEL 8
REMARK VINA RESULT:    -1.836     21.319     22.758
REMARK INTER + INTRA:          -5.282
REMARK INTER:                  -3.228
REMARK INTRA:                  -2.054
REMARK UNBOUND:                -2.051
REMARK SMILES CCCCCCCCCCCCCCC(=O)[O-]
REMARK SMILES IDX 9 1 10 2 11 3 12 4 13 5 14 6 15 7 16 8 17 9 8 10 7 11 6 12
REMARK SMILES IDX 5 13 4 14 3 15 2 16 1 17
REMARK H PARENT
REMARK Flexibility Score: inf
ROOT
ATOM      1  C   UNL     1       6.431  -5.008  -5.804  1.00  0.00     0.000 C 
ENDROOT
BRANCH   1   2
ATOM      2  C   UNL     1       7.790  -4.635  -6.411  1.00  0.00     0.000 C 
BRANCH   2   3
ATOM      3  C   UNL     1       8.924  -5.431  -5.751  1.00  0.00     0.000 C 
BRANCH   3   4
ATOM      4  C   UNL     1       9.125  -6.823  -6.378  1.00  0.00     0.000 C 
BRANCH   4   5
ATOM      5  C   UNL     1       8.728  -8.009  -5.475  1.00  0.00     0.006 C 
BRANCH   5   6
ATOM      6  C   UNL     1       8.697  -7.687  -3.973  1.00  0.00     0.053 C 
BRANCH   6   7
ATOM      7  C   UNL     1       7.399  -8.085  -3.341  1.00  0.00     0.041 C 
ATOM      8  O   UNL     1       7.387  -8.604  -2.193  1.00  0.00    -0.550 OA
ATOM      9  O   UNL     1       6.206  -7.917  -4.032  1.00  0.00    -0.550 OA
ENDBRANCH   6   7
ENDBRANCH   5   6
ENDBRANCH   4   5
ENDBRANCH   3   4
ENDBRANCH   2   3
ENDBRANCH   1   2
BRANCH   1  10
ATOM     10  C   UNL     1       5.396  -5.290  -6.899  1.00  0.00     0.000 C 
BRANCH  10  11
ATOM     11  C   UNL     1       5.392  -6.776  -7.283  1.00  0.00    -0.000 C 
BRANCH  11  12
ATOM     12  C   UNL     1       5.761  -7.016  -8.758  1.00  0.00    -0.000 C 
BRANCH  12  13
ATOM     13  C   UNL     1       7.268  -7.186  -9.036  1.00  0.00    -0.000 C 
BRANCH  13  14
ATOM     14  C   UNL     1       7.838  -6.259 -10.125  1.00  0.00    -0.000 C 
BRANCH  14  15
ATOM     15  C   UNL     1       8.813  -5.211  -9.564  1.00  0.00    -0.000 C 
BRANCH  15  16
ATOM     16  C   UNL     1       8.441  -3.779  -9.978  1.00  0.00    -0.003 C 
ATOM     17  C   UNL     1       6.936  -3.519  -9.910  1.00  0.00     0.004 C 
ENDBRANCH  15  16
ENDBRANCH  14  15
ENDBRANCH  13  14
ENDBRANCH  12  13
ENDBRANCH  11  12
ENDBRANCH  10  11
ENDBRANCH   1  10
TORSDOF 13
ENDMDL
MODEL 9
REMARK VINA RESULT:    -1.805     22.258     23.797
REMARK INTER + INTRA:          -5.227
REMARK INTER:                  -3.659
REMARK INTRA:                  -1.568
REMARK UNBOUND:                -2.051
REMARK SMILES CCCCCCCCCCCCCCC(=O)[O-]
REMARK SMILES IDX 9 1 10 2 11 3 12 4 13 5 14 6 15 7 16 8 17 9 8 10 7 11 6 12
REMARK SMILES IDX 5 13 4 14 3 15 2 16 1 17
REMARK H PARENT
REMARK Flexibility Score: inf
ROOT
ATOM      1  C   UNL     1       5.425  -5.464  -6.606  1.00  0.00     0.000 C 
ENDROOT
BRANCH   1   2
ATOM      2  C   UNL     1       5.751  -6.606  -7.577  1.00  0.00     0.000 C 
BRANCH   2   3
ATOM      3  C   UNL     1       4.469  -7.265  -8.103  1.00  0.00     0.000 C 
BRANCH   3   4
ATOM      4  C   UNL     1       4.745  -8.406  -9.098  1.00  0.00     0.000 C 
BRANCH   4   5
ATOM      5  C   UNL     1       5.860  -8.121 -10.125  1.00  0.00     0.006 C 
BRANCH   5   6
ATOM      6  C   UNL     1       7.044  -9.099 -10.071  1.00  0.00     0.053 C 
BRANCH   6   7
ATOM      7  C   UNL     1       8.208  -8.531  -9.319  1.00  0.00     0.041 C 
ATOM      8  O   UNL     1       8.650  -9.119  -8.298  1.00  0.00    -0.550 OA
ATOM      9  O   UNL     1       8.782  -7.332  -9.724  1.00  0.00    -0.550 OA
ENDBRANCH   6   7
ENDBRANCH   5   6
ENDBRANCH   4   5
ENDBRANCH   3   4
ENDBRANCH   2   3
ENDBRANCH   1   2
BRANCH   1  10
ATOM     10  C   UNL     1       6.683  -4.664  -6.251  1.00  0.00     0.000 C 
BRANCH  10  11
ATOM     11  C   UNL     1       7.791  -4.892  -7.290  1.00  0.00    -0.000 C 
BRANCH  11  12
ATOM     12  C   UNL     1       8.319  -3.581  -7.900  1.00  0.00    -0.000 C 
BRANCH  12  13
ATOM     13  C   UNL     1       8.261  -3.506  -9.439  1.00  0.00    -0.000 C 
BRANCH  13  14
ATOM     14  C   UNL     1       7.762  -2.165 -10.007  1.00  0.00    -0.000 C 
BRANCH  14  15
ATOM     15  C   UNL     1       6.230  -2.103 -10.125  1.00  0.00    -0.000 C 
BRANCH  15  16
ATOM     16  C   UNL     1       5.571  -3.482  -9.974  1.00  0.00    -0.003 C 
ATOM     17  C   UNL     1       4.152  -3.399  -9.414  1.00  0.00     0.004 C 
ENDBRANCH  15  16
ENDBRANCH  14  15
ENDBRANCH  13  14
ENDBRANCH  12  13
ENDBRANCH  11  12
ENDBRANCH  10  11
ENDBRANCH   1  10
TORSDOF 13
ENDMDL
