MODEL 1
REMARK VINA RESULT:    -5.097      0.000      0.000
REMARK INTER + INTRA:          -5.888
REMARK INTER:                  -5.842
REMARK INTRA:                  -0.045
REMARK UNBOUND:                -0.045
REMARK SMILES O=C([O-])c1cc(O)c(O)c(O)c1
REMARK SMILES IDX 4 1 5 2 12 3 6 4 10 5 8 6 2 7 1 8 3 9 7 10 11 12 9 14
REMARK H PARENT 7 11 11 13 9 15
REMARK Flexibility Score: inf
ROOT
ATOM      1  C   UNL     1       4.258  10.559  38.909  1.00  0.00     0.005 A 
ATOM      2  C   UNL     1       4.730  10.924  40.182  1.00  0.00     0.060 A 
ATOM      3  C   UNL     1       3.123  11.204  38.391  1.00  0.00     0.060 A 
ATOM      4  C   UNL     1       4.077  11.915  40.927  1.00  0.00     0.162 A 
ATOM      5  C   UNL     1       2.467  12.197  39.132  1.00  0.00     0.162 A 
ATOM      6  C   UNL     1       2.942  12.555  40.400  1.00  0.00     0.200 A 
ENDROOT
BRANCH   1   7
ATOM      7  C   UNL     1       4.946   9.512  38.121  1.00  0.00     0.072 C 
ATOM      8  O   UNL     1       4.413   8.383  37.951  1.00  0.00    -0.545 OA
ATOM      9  O   UNL     1       6.193   9.759  37.557  1.00  0.00    -0.545 OA
ENDBRANCH   1   7
BRANCH   4  10
ATOM     10  O   UNL     1       4.553  12.270  42.189  1.00  0.00    -0.504 OA
ATOM     11  H   UNL     1       5.229  13.015  42.312  1.00  0.00     0.293 HD
ENDBRANCH   4  10
BRANCH   5  12
ATOM     12  O   UNL     1       1.341  12.834  38.614  1.00  0.00    -0.504 OA
ATOM     13  H   UNL     1       1.246  13.843  38.636  1.00  0.00     0.293 HD
ENDBRANCH   5  12
BRANCH   6  14
ATOM     14  O   UNL     1       2.276  13.545  41.124  1.00  0.00    -0.502 OA
ATOM     15  H   UNL     1       1.285  13.721  41.011  1.00  0.00     0.293 HD
ENDBRANCH   6  14
TORSDOF 4
ENDMDL
MODEL 2
REMARK VINA RESULT:    -5.070      2.329      4.078
REMARK INTER + INTRA:          -5.856
REMARK INTER:                  -5.809
REMARK INTRA:                  -0.047
REMARK UNBOUND:                -0.045
REMARK SMILES O=C([O-])c1cc(O)c(O)c(O)c1
REMARK SMILES IDX 4 1 5 2 12 3 6 4 10 5 8 6 2 7 1 8 3 9 7 10 11 12 9 14
REMARK H PARENT 7 11 11 13 9 15
REMARK Flexibility Score: inf
ROOT
ATOM      1  C   UNL     1       0.588  11.497  38.732  1.00  0.00     0.005 A 
ATOM      2  C   UNL     1       0.326  12.626  39.529  1.00  0.00     0.060 A 
ATOM      3  C   UNL     1       1.885  10.957  38.722  1.00  0.00     0.060 A 
ATOM      4  C   UNL     1       1.342  13.206  40.301  1.00  0.00     0.162 A 
ATOM      5  C   UNL     1       2.903  11.532  39.492  1.00  0.00     0.162 A 
ATOM      6  C   UNL     1       2.635  12.657  40.284  1.00  0.00     0.200 A 
ENDROOT
BRANCH   1   7
ATOM      7  C   UNL     1      -0.484  10.885  37.916  1.00  0.00     0.072 C 
ATOM      8  O   UNL     1      -0.749   9.658  38.022  1.00  0.00    -0.545 OA
ATOM      9  O   UNL     1      -1.214  11.656  37.018  1.00  0.00    -0.545 OA
ENDBRANCH   1   7
BRANCH   4  10
ATOM     10  O   UNL     1       1.070  14.324  41.088  1.00  0.00    -0.504 OA
ATOM     11  H   UNL     1       0.636  15.154  40.700  1.00  0.00     0.293 HD
ENDBRANCH   4  10
BRANCH   5  12
ATOM     12  O   UNL     1       4.188  10.992  39.478  1.00  0.00    -0.504 OA
ATOM     13  H   UNL     1       4.621  10.676  38.618  1.00  0.00     0.293 HD
ENDBRANCH   5  12
BRANCH   6  14
ATOM     14  O   UNL     1       3.662  13.217  41.044  1.00  0.00    -0.502 OA
ATOM     15  H   UNL     1       4.561  12.763  41.154  1.00  0.00     0.293 HD
ENDBRANCH   6  14
TORSDOF 4
ENDMDL
MODEL 3
REMARK VINA RESULT:    -5.043      1.402      3.727
REMARK INTER + INTRA:          -5.825
REMARK INTER:                  -5.775
REMARK INTRA:                  -0.050
REMARK UNBOUND:                -0.045
REMARK SMILES O=C([O-])c1cc(O)c(O)c(O)c1
REMARK SMILES IDX 4 1 5 2 12 3 6 4 10 5 8 6 2 7 1 8 3 9 7 10 11 12 9 14
REMARK H PARENT 7 11 11 13 9 15
REMARK Flexibility Score: inf
ROOT
ATOM      1  C   UNL     1       2.586  12.110  39.049  1.00  0.00     0.005 A 
ATOM      2  C   UNL     1       2.943  12.325  40.392  1.00  0.00     0.060 A 
ATOM      3  C   UNL     1       3.537  11.568  38.169  1.00  0.00     0.060 A 
ATOM      4  C   UNL     1       4.229  12.005  40.848  1.00  0.00     0.162 A 
ATOM      5  C   UNL     1       4.824  11.245  38.620  1.00  0.00     0.162 A 
ATOM      6  C   UNL     1       5.173  11.462  39.960  1.00  0.00     0.200 A 
ENDROOT
BRANCH   1   7
ATOM      7  C   UNL     1       1.229  12.449  38.566  1.00  0.00     0.072 C 
ATOM      8  O   UNL     1       0.227  12.311  39.318  1.00  0.00    -0.545 OA
ATOM      9  O   UNL     1       1.039  12.924  37.273  1.00  0.00    -0.545 OA
ENDBRANCH   1   7
BRANCH   4  10
ATOM     10  O   UNL     1       4.572  12.222  42.182  1.00  0.00    -0.504 OA
ATOM     11  H   UNL     1       5.255  11.641  42.656  1.00  0.00     0.293 HD
ENDBRANCH   4  10
BRANCH   5  12
ATOM     12  O   UNL     1       5.764  10.707  37.743  1.00  0.00    -0.504 OA
ATOM     13  H   UNL     1       6.697  11.096  37.662  1.00  0.00     0.293 HD
ENDBRANCH   5  12
BRANCH   6  14
ATOM     14  O   UNL     1       6.459  11.136  40.391  1.00  0.00    -0.502 OA
ATOM     15  H   UNL     1       7.232  11.787  40.326  1.00  0.00     0.293 HD
ENDBRANCH   6  14
TORSDOF 4
ENDMDL
MODEL 4
REMARK VINA RESULT:    -5.039      1.409      4.151
REMARK INTER + INTRA:          -5.821
REMARK INTER:                  -5.771
REMARK INTRA:                  -0.050
REMARK UNBOUND:                -0.045
REMARK SMILES O=C([O-])c1cc(O)c(O)c(O)c1
REMARK SMILES IDX 4 1 5 2 12 3 6 4 10 5 8 6 2 7 1 8 3 9 7 10 11 12 9 14
REMARK H PARENT 7 11 11 13 9 15
REMARK Flexibility Score: inf
ROOT
ATOM      1  C   UNL     1       2.651  12.124  39.047  1.00  0.00     0.005 A 
ATOM      2  C   UNL     1       3.609  11.580  38.174  1.00  0.00     0.060 A 
ATOM      3  C   UNL     1       2.995  12.332  40.393  1.00  0.00     0.060 A 
ATOM      4  C   UNL     1       4.889  11.246  38.637  1.00  0.00     0.162 A 
ATOM      5  C   UNL     1       4.273  12.001  40.861  1.00  0.00     0.162 A 
ATOM      6  C   UNL     1       5.223  11.459  39.985  1.00  0.00     0.200 A 
ENDROOT
BRANCH   1   7
ATOM      7  C   UNL     1       1.299  12.476  38.558  1.00  0.00     0.072 C 
ATOM      8  O   UNL     1       1.132  12.908  37.387  1.00  0.00    -0.545 OA
ATOM      9  O   UNL     1       0.191  12.333  39.387  1.00  0.00    -0.545 OA
ENDBRANCH   1   7
BRANCH   4  10
ATOM     10  O   UNL     1       5.831  10.707  37.763  1.00  0.00    -0.504 OA
ATOM     11  H   UNL     1       6.825  10.761  37.954  1.00  0.00     0.293 HD
ENDBRANCH   4  10
BRANCH   5  12
ATOM     12  O   UNL     1       4.610  12.209  42.198  1.00  0.00    -0.504 OA
ATOM     13  H   UNL     1       5.575  12.213  42.507  1.00  0.00     0.293 HD
ENDBRANCH   5  12
BRANCH   6  14
ATOM     14  O   UNL     1       6.491  11.135  40.470  1.00  0.00    -0.502 OA
ATOM     15  H   UNL     1       7.003  11.747  41.093  1.00  0.00     0.293 HD
ENDBRANCH   6  14
TORSDOF 4
ENDMDL
MODEL 5
REMARK VINA RESULT:    -5.038      2.345      3.974
REMARK INTER + INTRA:          -5.820
REMARK INTER:                  -5.774
REMARK INTRA:                  -0.046
REMARK UNBOUND:                -0.045
REMARK SMILES O=C([O-])c1cc(O)c(O)c(O)c1
REMARK SMILES IDX 4 1 5 2 12 3 6 4 10 5 8 6 2 7 1 8 3 9 7 10 11 12 9 14
REMARK H PARENT 7 11 11 13 9 15
REMARK Flexibility Score: inf
ROOT
ATOM      1  C   UNL     1       0.491  11.541  38.701  1.00  0.00     0.005 A 
ATOM      2  C   UNL     1       1.762  10.939  38.689  1.00  0.00     0.060 A 
ATOM      3  C   UNL     1       0.277  12.664  39.518  1.00  0.00     0.060 A 
ATOM      4  C   UNL     1       2.800  11.449  39.480  1.00  0.00     0.162 A 
ATOM      5  C   UNL     1       1.312  13.177  40.310  1.00  0.00     0.162 A 
ATOM      6  C   UNL     1       2.575  12.572  40.293  1.00  0.00     0.200 A 
ENDROOT
BRANCH   1   7
ATOM      7  C   UNL     1      -0.607  11.004  37.867  1.00  0.00     0.072 C 
ATOM      8  O   UNL     1      -1.042   9.836  38.053  1.00  0.00    -0.545 OA
ATOM      9  O   UNL     1      -1.175  11.782  36.863  1.00  0.00    -0.545 OA
ENDBRANCH   1   7
BRANCH   4  10
ATOM     10  O   UNL     1       4.056  10.844  39.460  1.00  0.00    -0.504 OA
ATOM     11  H   UNL     1       4.793  11.127  40.097  1.00  0.00     0.293 HD
ENDBRANCH   4  10
BRANCH   5  12
ATOM     12  O   UNL     1       1.094  14.292  41.119  1.00  0.00    -0.504 OA
ATOM     13  H   UNL     1       0.160  14.635  41.308  1.00  0.00     0.293 HD
ENDBRANCH   5  12
BRANCH   6  14
ATOM     14  O   UNL     1       3.594  13.097  41.089  1.00  0.00    -0.502 OA
ATOM     15  H   UNL     1       4.519  13.290  40.724  1.00  0.00     0.293 HD
ENDBRANCH   6  14
TORSDOF 4
ENDMDL
MODEL 6
REMARK VINA RESULT:    -4.999      2.464      4.288
REMARK INTER + INTRA:          -5.775
REMARK INTER:                  -5.729
REMARK INTRA:                  -0.047
REMARK UNBOUND:                -0.045
REMARK SMILES O=C([O-])c1cc(O)c(O)c(O)c1
REMARK SMILES IDX 4 1 5 2 12 3 6 4 10 5 8 6 2 7 1 8 3 9 7 10 11 12 9 14
REMARK H PARENT 7 11 11 13 9 15
REMARK Flexibility Score: inf
ROOT
ATOM      1  C   UNL     1       1.929  11.717  39.292  1.00  0.00     0.005 A 
ATOM      2  C   UNL     1       0.660  11.139  39.469  1.00  0.00     0.060 A 
ATOM      3  C   UNL     1       2.165  12.510  38.156  1.00  0.00     0.060 A 
ATOM      4  C   UNL     1      -0.357  11.348  38.527  1.00  0.00     0.162 A 
ATOM      5  C   UNL     1       1.152  12.722  37.212  1.00  0.00     0.162 A 
ATOM      6  C   UNL     1      -0.110  12.142  37.395  1.00  0.00     0.200 A 
ENDROOT
BRANCH   1   7
ATOM      7  C   UNL     1       3.003  11.497  40.286  1.00  0.00     0.072 C 
ATOM      8  O   UNL     1       3.388  10.331  40.568  1.00  0.00    -0.545 OA
ATOM      9  O   UNL     1       3.605  12.577  40.924  1.00  0.00    -0.545 OA
ENDBRANCH   1   7
BRANCH   4  10
ATOM     10  O   UNL     1      -1.612  10.770  38.713  1.00  0.00    -0.504 OA
ATOM     11  H   UNL     1      -2.361  11.266  39.183  1.00  0.00     0.293 HD
ENDBRANCH   4  10
BRANCH   5  12
ATOM     12  O   UNL     1       1.391  13.509  36.086  1.00  0.00    -0.504 OA
ATOM     13  H   UNL     1       0.638  13.983  35.602  1.00  0.00     0.293 HD
ENDBRANCH   5  12
BRANCH   6  14
ATOM     14  O   UNL     1      -1.107  12.364  36.443  1.00  0.00    -0.502 OA
ATOM     15  H   UNL     1      -2.014  12.742  36.690  1.00  0.00     0.293 HD
ENDBRANCH   6  14
TORSDOF 4
ENDMDL
MODEL 7
REMARK VINA RESULT:    -4.975      2.497      4.352
REMARK INTER + INTRA:          -5.747
REMARK INTER:                  -5.701
REMARK INTRA:                  -0.047
REMARK UNBOUND:                -0.045
REMARK SMILES O=C([O-])c1cc(O)c(O)c(O)c1
REMARK SMILES IDX 4 1 5 2 12 3 6 4 10 5 8 6 2 7 1 8 3 9 7 10 11 12 9 14
REMARK H PARENT 7 11 11 13 9 15
REMARK Flexibility Score: inf
ROOT
ATOM      1  C   UNL     1       1.893  11.707  39.283  1.00  0.00     0.005 A 
ATOM      2  C   UNL     1       2.115  12.478  38.129  1.00  0.00     0.060 A 
ATOM      3  C   UNL     1       0.625  11.139  39.489  1.00  0.00     0.060 A 
ATOM      4  C   UNL     1       1.088  12.681  37.197  1.00  0.00     0.162 A 
ATOM      5  C   UNL     1      -0.405  11.337  38.560  1.00  0.00     0.162 A 
ATOM      6  C   UNL     1      -0.176  12.107  37.412  1.00  0.00     0.200 A 
ENDROOT
BRANCH   1   7
ATOM      7  C   UNL     1       2.976  11.494  40.268  1.00  0.00     0.072 C 
ATOM      8  O   UNL     1       3.341  10.328  40.578  1.00  0.00    -0.545 OA
ATOM      9  O   UNL     1       3.608  12.578  40.867  1.00  0.00    -0.545 OA
ENDBRANCH   1   7
BRANCH   4  10
ATOM     10  O   UNL     1       1.320  13.447  36.055  1.00  0.00    -0.504 OA
ATOM     11  H   UNL     1       1.005  14.408  35.988  1.00  0.00     0.293 HD
ENDBRANCH   4  10
BRANCH   5  12
ATOM     12  O   UNL     1      -1.662  10.771  38.769  1.00  0.00    -0.504 OA
ATOM     13  H   UNL     1      -2.498  11.171  38.359  1.00  0.00     0.293 HD
ENDBRANCH   5  12
BRANCH   6  14
ATOM     14  O   UNL     1      -1.214  12.295  36.498  1.00  0.00    -0.502 OA
ATOM     15  H   UNL     1      -1.124  12.911  35.699  1.00  0.00     0.293 HD
ENDBRANCH   6  14
TORSDOF 4
ENDMDL
MODEL 8
REMARK VINA RESULT:    -4.928      4.103      5.962
REMARK INTER + INTRA:          -5.693
REMARK INTER:                  -5.646
REMARK INTRA:                  -0.047
REMARK UNBOUND:                -0.045
REMARK SMILES O=C([O-])c1cc(O)c(O)c(O)c1
REMARK SMILES IDX 4 1 5 2 12 3 6 4 10 5 8 6 2 7 1 8 3 9 7 10 11 12 9 14
REMARK H PARENT 7 11 11 13 9 15
REMARK Flexibility Score: inf
ROOT
ATOM      1  C   UNL     1      -0.237  12.036  38.928  1.00  0.00     0.005 A 
ATOM      2  C   UNL     1      -1.292  11.787  39.823  1.00  0.00     0.060 A 
ATOM      3  C   UNL     1      -0.455  11.858  37.551  1.00  0.00     0.060 A 
ATOM      4  C   UNL     1      -2.543  11.365  39.353  1.00  0.00     0.162 A 
ATOM      5  C   UNL     1      -1.704  11.437  37.076  1.00  0.00     0.162 A 
ATOM      6  C   UNL     1      -2.751  11.190  37.974  1.00  0.00     0.200 A 
ENDROOT
BRANCH   1   7
ATOM      7  C   UNL     1       1.084  12.481  39.423  1.00  0.00     0.072 C 
ATOM      8  O   UNL     1       2.135  11.876  39.081  1.00  0.00    -0.545 OA
ATOM      9  O   UNL     1       1.185  13.576  40.275  1.00  0.00    -0.545 OA
ENDBRANCH   1   7
BRANCH   4  10
ATOM     10  O   UNL     1      -3.582  11.120  40.250  1.00  0.00    -0.504 OA
ATOM     11  H   UNL     1      -3.413  11.022  41.245  1.00  0.00     0.293 HD
ENDBRANCH   4  10
BRANCH   5  12
ATOM     12  O   UNL     1      -1.916  11.262  35.709  1.00  0.00    -0.504 OA
ATOM     13  H   UNL     1      -2.003  12.052  35.080  1.00  0.00     0.293 HD
ENDBRANCH   5  12
BRANCH   6  14
ATOM     14  O   UNL     1      -3.987  10.771  37.483  1.00  0.00    -0.502 OA
ATOM     15  H   UNL     1      -4.160   9.813  37.202  1.00  0.00     0.293 HD
ENDBRANCH   6  14
TORSDOF 4
ENDMDL
MODEL 9
REMARK VINA RESULT:    -4.918      4.117      6.203
REMARK INTER + INTRA:          -5.682
REMARK INTER:                  -5.634
REMARK INTRA:                  -0.048
REMARK UNBOUND:                -0.045
REMARK SMILES O=C([O-])c1cc(O)c(O)c(O)c1
REMARK SMILES IDX 4 1 5 2 12 3 6 4 10 5 8 6 2 7 1 8 3 9 7 10 11 12 9 14
REMARK H PARENT 7 11 11 13 9 15
REMARK Flexibility Score: inf
ROOT
ATOM      1  C   UNL     1      -0.253  12.042  38.920  1.00  0.00     0.005 A 
ATOM      2  C   UNL     1      -0.479  11.852  37.546  1.00  0.00     0.060 A 
ATOM      3  C   UNL     1      -1.297  11.787  39.825  1.00  0.00     0.060 A 
ATOM      4  C   UNL     1      -1.729  11.417  37.082  1.00  0.00     0.162 A 
ATOM      5  C   UNL     1      -2.547  11.352  39.366  1.00  0.00     0.162 A 
ATOM      6  C   UNL     1      -2.766  11.166  37.995  1.00  0.00     0.200 A 
ENDROOT
BRANCH   1   7
ATOM      7  C   UNL     1       1.066  12.501  39.411  1.00  0.00     0.072 C 
ATOM      8  O   UNL     1       2.122  11.910  39.061  1.00  0.00    -0.545 OA
ATOM      9  O   UNL     1       1.157  13.594  40.267  1.00  0.00    -0.545 OA
ENDBRANCH   1   7
BRANCH   4  10
ATOM     10  O   UNL     1      -1.942  11.233  35.716  1.00  0.00    -0.504 OA
ATOM     11  H   UNL     1      -2.877  11.170  35.328  1.00  0.00     0.293 HD
ENDBRANCH   4  10
BRANCH   5  12
ATOM     12  O   UNL     1      -3.581  11.101  40.268  1.00  0.00    -0.504 OA
ATOM     13  H   UNL     1      -4.483  11.556  40.180  1.00  0.00     0.293 HD
ENDBRANCH   5  12
BRANCH   6  14
ATOM     14  O   UNL     1      -4.018  10.732  37.556  1.00  0.00    -0.502 OA
ATOM     15  H   UNL     1      -4.365   9.801  37.752  1.00  0.00     0.293 HD
ENDBRANCH   6  14
TORSDOF 4
ENDMDL
