MODEL 1
REMARK VINA RESULT:    -5.589      0.000      0.000
REMARK INTER + INTRA:          -6.545
REMARK INTER:                  -6.406
REMARK INTRA:                  -0.139
REMARK UNBOUND:                -0.139
REMARK SMILES O=C([O-])C=Cc1ccc(O)cc1
REMARK SMILES IDX 6 1 7 2 12 3 8 4 11 5 9 6 5 7 4 8 2 9 1 10 3 11 10 12
REMARK H PARENT 10 13
REMARK Flexibility Score: inf
ROOT
ATOM      1  C   UNL     1      70.696  49.046   5.286  1.00  0.00    -0.025 A 
ATOM      2  C   UNL     1      71.406  48.312   4.314  1.00  0.00     0.012 A 
ATOM      3  C   UNL     1      69.931  50.151   4.874  1.00  0.00     0.012 A 
ATOM      4  C   UNL     1      71.329  48.665   2.964  1.00  0.00     0.047 A 
ATOM      5  C   UNL     1      69.856  50.500   3.522  1.00  0.00     0.047 A 
ATOM      6  C   UNL     1      70.551  49.759   2.564  1.00  0.00     0.115 A 
ENDROOT
BRANCH   1   7
ATOM      7  C   UNL     1      70.752  48.722   6.733  1.00  0.00     0.010 C 
ATOM      8  C   UNL     1      71.244  49.552   7.664  1.00  0.00     0.025 C 
BRANCH   8   9
ATOM      9  C   UNL     1      71.294  49.191   9.090  1.00  0.00     0.064 C 
ATOM     10  O   UNL     1      70.240  49.054   9.766  1.00  0.00    -0.545 OA
ATOM     11  O   UNL     1      72.526  49.002   9.703  1.00  0.00    -0.545 OA
ENDBRANCH   8   9
ENDBRANCH   1   7
BRANCH   6  12
ATOM     12  O   UNL     1      70.467  50.118   1.220  1.00  0.00    -0.508 OA
ATOM     13  H   UNL     1      71.085  49.716   0.526  1.00  0.00     0.293 HD
ENDBRANCH   6  12
TORSDOF 3
ENDMDL
MODEL 2
REMARK VINA RESULT:    -5.503      0.244      1.418
REMARK INTER + INTRA:          -6.447
REMARK INTER:                  -6.314
REMARK INTRA:                  -0.133
REMARK UNBOUND:                -0.139
REMARK SMILES O=C([O-])C=Cc1ccc(O)cc1
REMARK SMILES IDX 6 1 7 2 12 3 8 4 11 5 9 6 5 7 4 8 2 9 1 10 3 11 10 12
REMARK H PARENT 10 13
REMARK Flexibility Score: inf
ROOT
ATOM      1  C   UNL     1      70.759  49.145   5.294  1.00  0.00    -0.025 A 
ATOM      2  C   UNL     1      69.985  50.243   4.868  1.00  0.00     0.012 A 
ATOM      3  C   UNL     1      71.358  48.323   4.324  1.00  0.00     0.012 A 
ATOM      4  C   UNL     1      69.838  50.521   3.506  1.00  0.00     0.047 A 
ATOM      5  C   UNL     1      71.210  48.605   2.962  1.00  0.00     0.047 A 
ATOM      6  C   UNL     1      70.454  49.704   2.549  1.00  0.00     0.115 A 
ENDROOT
BRANCH   1   7
ATOM      7  C   UNL     1      70.937  48.798   6.726  1.00  0.00     0.010 C 
ATOM      8  C   UNL     1      71.480  49.625   7.631  1.00  0.00     0.025 C 
BRANCH   8   9
ATOM      9  C   UNL     1      71.652  49.242   9.041  1.00  0.00     0.064 C 
ATOM     10  O   UNL     1      70.661  49.118   9.809  1.00  0.00    -0.545 OA
ATOM     11  O   UNL     1      72.930  49.016   9.536  1.00  0.00    -0.545 OA
ENDBRANCH   8   9
ENDBRANCH   1   7
BRANCH   6  12
ATOM     12  O   UNL     1      70.315  49.974   1.189  1.00  0.00    -0.508 OA
ATOM     13  H   UNL     1      69.953  49.280   0.547  1.00  0.00     0.293 HD
ENDBRANCH   6  12
TORSDOF 3
ENDMDL
MODEL 3
REMARK VINA RESULT:    -5.473     10.014     13.397
REMARK INTER + INTRA:          -6.412
REMARK INTER:                  -6.262
REMARK INTRA:                  -0.151
REMARK UNBOUND:                -0.139
REMARK SMILES O=C([O-])C=Cc1ccc(O)cc1
REMARK SMILES IDX 6 1 7 2 12 3 8 4 11 5 9 6 5 7 4 8 2 9 1 10 3 11 10 12
REMARK H PARENT 10 13
REMARK Flexibility Score: inf
ROOT
ATOM      1  C   UNL     1      73.578  43.435  -4.289  1.00  0.00    -0.025 A 
ATOM      2  C   UNL     1      73.896  44.760  -3.928  1.00  0.00     0.012 A 
ATOM      3  C   UNL     1      72.885  42.630  -3.368  1.00  0.00     0.012 A 
ATOM      4  C   UNL     1      73.507  45.268  -2.685  1.00  0.00     0.047 A 
ATOM      5  C   UNL     1      72.497  43.143  -2.126  1.00  0.00     0.047 A 
ATOM      6  C   UNL     1      72.803  44.462  -1.782  1.00  0.00     0.115 A 
ENDROOT
BRANCH   1   7
ATOM      7  C   UNL     1      73.978  42.841  -5.589  1.00  0.00     0.010 C 
ATOM      8  C   UNL     1      73.591  41.626  -6.004  1.00  0.00     0.025 C 
BRANCH   8   9
ATOM      9  C   UNL     1      74.017  41.065  -7.296  1.00  0.00     0.064 C 
ATOM     10  O   UNL     1      75.088  40.411  -7.402  1.00  0.00    -0.545 OA
ATOM     11  O   UNL     1      73.225  41.263  -8.420  1.00  0.00    -0.545 OA
ENDBRANCH   8   9
ENDBRANCH   1   7
BRANCH   6  12
ATOM     12  O   UNL     1      72.409  44.960  -0.542  1.00  0.00    -0.508 OA
ATOM     13  H   UNL     1      71.454  44.873  -0.216  1.00  0.00     0.293 HD
ENDBRANCH   6  12
TORSDOF 3
ENDMDL
MODEL 4
REMARK VINA RESULT:    -5.248      1.140      1.517
REMARK INTER + INTRA:          -6.155
REMARK INTER:                  -6.015
REMARK INTRA:                  -0.140
REMARK UNBOUND:                -0.139
REMARK SMILES O=C([O-])C=Cc1ccc(O)cc1
REMARK SMILES IDX 6 1 7 2 12 3 8 4 11 5 9 6 5 7 4 8 2 9 1 10 3 11 10 12
REMARK H PARENT 10 13
REMARK Flexibility Score: inf
ROOT
ATOM      1  C   UNL     1      70.838  48.934   5.138  1.00  0.00    -0.025 A 
ATOM      2  C   UNL     1      71.511  48.264   4.095  1.00  0.00     0.012 A 
ATOM      3  C   UNL     1      70.025  50.036   4.820  1.00  0.00     0.012 A 
ATOM      4  C   UNL     1      71.350  48.676   2.770  1.00  0.00     0.047 A 
ATOM      5  C   UNL     1      69.866  50.444   3.492  1.00  0.00     0.047 A 
ATOM      6  C   UNL     1      70.524  49.766   2.464  1.00  0.00     0.115 A 
ENDROOT
BRANCH   1   7
ATOM      7  C   UNL     1      70.983  48.546   6.563  1.00  0.00     0.010 C 
ATOM      8  C   UNL     1      71.947  47.734   7.020  1.00  0.00     0.025 C 
BRANCH   8   9
ATOM      9  C   UNL     1      72.052  47.361   8.440  1.00  0.00     0.064 C 
ATOM     10  O   UNL     1      73.154  47.016   8.944  1.00  0.00    -0.545 OA
ATOM     11  O   UNL     1      70.916  47.389   9.238  1.00  0.00    -0.545 OA
ENDBRANCH   8   9
ENDBRANCH   1   7
BRANCH   6  12
ATOM     12  O   UNL     1      70.356  50.183   1.146  1.00  0.00    -0.508 OA
ATOM     13  H   UNL     1      70.894  49.776   0.390  1.00  0.00     0.293 HD
ENDBRANCH   6  12
TORSDOF 3
ENDMDL
MODEL 5
REMARK VINA RESULT:    -4.983     12.127     14.631
REMARK INTER + INTRA:          -5.851
REMARK INTER:                  -5.714
REMARK INTRA:                  -0.136
REMARK UNBOUND:                -0.139
REMARK SMILES O=C([O-])C=Cc1ccc(O)cc1
REMARK SMILES IDX 6 1 7 2 12 3 8 4 11 5 9 6 5 7 4 8 2 9 1 10 3 11 10 12
REMARK H PARENT 10 13
REMARK Flexibility Score: inf
ROOT
ATOM      1  C   UNL     1      73.811  41.366  -6.375  1.00  0.00    -0.025 A 
ATOM      2  C   UNL     1      75.006  41.419  -7.121  1.00  0.00     0.012 A 
ATOM      3  C   UNL     1      72.737  40.606  -6.869  1.00  0.00     0.012 A 
ATOM      4  C   UNL     1      75.125  40.708  -8.318  1.00  0.00     0.047 A 
ATOM      5  C   UNL     1      72.861  39.895  -8.067  1.00  0.00     0.047 A 
ATOM      6  C   UNL     1      74.053  39.941  -8.793  1.00  0.00     0.115 A 
ENDROOT
BRANCH   1   7
ATOM      7  C   UNL     1      73.627  42.111  -5.104  1.00  0.00     0.010 C 
ATOM      8  C   UNL     1      73.624  43.449  -5.018  1.00  0.00     0.025 C 
BRANCH   8   9
ATOM      9  C   UNL     1      73.450  44.154  -3.738  1.00  0.00     0.064 C 
ATOM     10  O   UNL     1      73.984  45.276  -3.533  1.00  0.00    -0.545 OA
ATOM     11  O   UNL     1      72.686  43.570  -2.736  1.00  0.00    -0.545 OA
ENDBRANCH   8   9
ENDBRANCH   1   7
BRANCH   6  12
ATOM     12  O   UNL     1      74.163  39.227  -9.984  1.00  0.00    -0.508 OA
ATOM     13  H   UNL     1      73.621  39.477 -10.802  1.00  0.00     0.293 HD
ENDBRANCH   6  12
TORSDOF 3
ENDMDL
MODEL 6
REMARK VINA RESULT:    -4.982      1.767      2.556
REMARK INTER + INTRA:          -5.850
REMARK INTER:                  -5.712
REMARK INTRA:                  -0.138
REMARK UNBOUND:                -0.139
REMARK SMILES O=C([O-])C=Cc1ccc(O)cc1
REMARK SMILES IDX 6 1 7 2 12 3 8 4 11 5 9 6 5 7 4 8 2 9 1 10 3 11 10 12
REMARK H PARENT 10 13
REMARK Flexibility Score: inf
ROOT
ATOM      1  C   UNL     1      71.440  48.544   5.849  1.00  0.00    -0.025 A 
ATOM      2  C   UNL     1      70.419  49.515   5.897  1.00  0.00     0.012 A 
ATOM      3  C   UNL     1      71.919  48.127   4.595  1.00  0.00     0.012 A 
ATOM      4  C   UNL     1      69.911  50.067   4.717  1.00  0.00     0.047 A 
ATOM      5  C   UNL     1      71.409  48.683   3.417  1.00  0.00     0.047 A 
ATOM      6  C   UNL     1      70.407  49.655   3.474  1.00  0.00     0.115 A 
ENDROOT
BRANCH   1   7
ATOM      7  C   UNL     1      72.006  47.917   7.069  1.00  0.00     0.010 C 
ATOM      8  C   UNL     1      73.282  48.060   7.457  1.00  0.00     0.025 C 
BRANCH   8   9
ATOM      9  C   UNL     1      73.812  47.413   8.668  1.00  0.00     0.064 C 
ATOM     10  O   UNL     1      74.889  46.760   8.641  1.00  0.00    -0.545 OA
ATOM     11  O   UNL     1      73.110  47.521   9.862  1.00  0.00    -0.545 OA
ENDBRANCH   8   9
ENDBRANCH   1   7
BRANCH   6  12
ATOM     12  O   UNL     1      69.909  50.200   2.293  1.00  0.00    -0.508 OA
ATOM     13  H   UNL     1      68.947  50.061   2.011  1.00  0.00     0.293 HD
ENDBRANCH   6  12
TORSDOF 3
ENDMDL
MODEL 7
REMARK VINA RESULT:    -4.689      7.463      9.641
REMARK INTER + INTRA:          -5.513
REMARK INTER:                  -5.362
REMARK INTRA:                  -0.151
REMARK UNBOUND:                -0.139
REMARK SMILES O=C([O-])C=Cc1ccc(O)cc1
REMARK SMILES IDX 6 1 7 2 12 3 8 4 11 5 9 6 5 7 4 8 2 9 1 10 3 11 10 12
REMARK H PARENT 10 13
REMARK Flexibility Score: inf
ROOT
ATOM      1  C   UNL     1      72.655  44.460  -2.433  1.00  0.00    -0.025 A 
ATOM      2  C   UNL     1      73.360  45.102  -3.471  1.00  0.00     0.012 A 
ATOM      3  C   UNL     1      72.488  43.065  -2.490  1.00  0.00     0.012 A 
ATOM      4  C   UNL     1      73.901  44.359  -4.525  1.00  0.00     0.047 A 
ATOM      5  C   UNL     1      73.032  42.326  -3.545  1.00  0.00     0.047 A 
ATOM      6  C   UNL     1      73.741  42.968  -4.562  1.00  0.00     0.115 A 
ENDROOT
BRANCH   1   7
ATOM      7  C   UNL     1      72.050  45.201  -1.298  1.00  0.00     0.010 C 
ATOM      8  C   UNL     1      71.635  44.618  -0.164  1.00  0.00     0.025 C 
BRANCH   8   9
ATOM      9  C   UNL     1      71.029  45.384   0.936  1.00  0.00     0.064 C 
ATOM     10  O   UNL     1      70.088  46.195   0.726  1.00  0.00    -0.545 OA
ATOM     11  O   UNL     1      71.503  45.212   2.230  1.00  0.00    -0.545 OA
ENDBRANCH   8   9
ENDBRANCH   1   7
BRANCH   6  12
ATOM     12  O   UNL     1      74.279  42.219  -5.607  1.00  0.00    -0.508 OA
ATOM     13  H   UNL     1      75.185  42.437  -6.003  1.00  0.00     0.293 HD
ENDBRANCH   6  12
TORSDOF 3
ENDMDL
MODEL 8
REMARK VINA RESULT:    -4.510      3.184      3.752
REMARK INTER + INTRA:          -5.308
REMARK INTER:                  -5.170
REMARK INTRA:                  -0.138
REMARK UNBOUND:                -0.139
REMARK SMILES O=C([O-])C=Cc1ccc(O)cc1
REMARK SMILES IDX 6 1 7 2 12 3 8 4 11 5 9 6 5 7 4 8 2 9 1 10 3 11 10 12
REMARK H PARENT 10 13
REMARK Flexibility Score: inf
ROOT
ATOM      1  C   UNL     1      72.020  47.864   5.220  1.00  0.00    -0.025 A 
ATOM      2  C   UNL     1      72.154  48.007   3.824  1.00  0.00     0.012 A 
ATOM      3  C   UNL     1      71.055  48.636   5.890  1.00  0.00     0.012 A 
ATOM      4  C   UNL     1      71.324  48.883   3.119  1.00  0.00     0.047 A 
ATOM      5  C   UNL     1      70.226  49.511   5.181  1.00  0.00     0.047 A 
ATOM      6  C   UNL     1      70.355  49.635   3.796  1.00  0.00     0.115 A 
ENDROOT
BRANCH   1   7
ATOM      7  C   UNL     1      72.883  46.958   6.019  1.00  0.00     0.010 C 
ATOM      8  C   UNL     1      73.383  45.804   5.554  1.00  0.00     0.025 C 
BRANCH   8   9
ATOM      9  C   UNL     1      74.226  44.924   6.380  1.00  0.00     0.064 C 
ATOM     10  O   UNL     1      74.434  45.174   7.597  1.00  0.00    -0.545 OA
ATOM     11  O   UNL     1      74.804  43.800   5.806  1.00  0.00    -0.545 OA
ENDBRANCH   8   9
ENDBRANCH   1   7
BRANCH   6  12
ATOM     12  O   UNL     1      69.522  50.509   3.101  1.00  0.00    -0.508 OA
ATOM     13  H   UNL     1      69.723  50.789   2.149  1.00  0.00     0.293 HD
ENDBRANCH   6  12
TORSDOF 3
ENDMDL
MODEL 9
REMARK VINA RESULT:    -4.455      1.796      5.990
REMARK INTER + INTRA:          -5.245
REMARK INTER:                  -5.103
REMARK INTRA:                  -0.142
REMARK UNBOUND:                -0.139
REMARK SMILES O=C([O-])C=Cc1ccc(O)cc1
REMARK SMILES IDX 6 1 7 2 12 3 8 4 11 5 9 6 5 7 4 8 2 9 1 10 3 11 10 12
REMARK H PARENT 10 13
REMARK Flexibility Score: inf
ROOT
ATOM      1  C   UNL     1      71.795  48.524   6.765  1.00  0.00    -0.025 A 
ATOM      2  C   UNL     1      71.949  49.412   7.849  1.00  0.00     0.012 A 
ATOM      3  C   UNL     1      72.432  47.272   6.820  1.00  0.00     0.012 A 
ATOM      4  C   UNL     1      72.703  49.041   8.966  1.00  0.00     0.047 A 
ATOM      5  C   UNL     1      73.186  46.905   7.939  1.00  0.00     0.047 A 
ATOM      6  C   UNL     1      73.321  47.785   9.015  1.00  0.00     0.115 A 
ENDROOT
BRANCH   1   7
ATOM      7  C   UNL     1      71.015  48.871   5.551  1.00  0.00     0.010 C 
ATOM      8  C   UNL     1      71.502  48.787   4.304  1.00  0.00     0.025 C 
BRANCH   8   9
ATOM      9  C   UNL     1      70.703  49.151   3.123  1.00  0.00     0.064 C 
ATOM     10  O   UNL     1      70.659  48.405   2.109  1.00  0.00    -0.545 OA
ATOM     11  O   UNL     1      69.985  50.340   3.125  1.00  0.00    -0.545 OA
ENDBRANCH   8   9
ENDBRANCH   1   7
BRANCH   6  12
ATOM     12  O   UNL     1      74.073  47.406  10.125  1.00  0.00    -0.508 OA
ATOM     13  H   UNL     1      74.860  46.774  10.040  1.00  0.00     0.293 HD
ENDBRANCH   6  12
TORSDOF 3
ENDMDL
