MODEL 1
REMARK VINA RESULT:    -5.947      0.000      0.000
REMARK INTER + INTRA:          -6.120
REMARK INTER:                  -6.120
REMARK INTRA:                   0.000
REMARK UNBOUND:                 0.000
REMARK SMILES O=c1ccc2ccc(O)cc2o1
REMARK SMILES IDX 6 1 7 2 8 3 10 4 11 5 5 6 4 7 3 8 2 9 1 10 12 11 9 12
REMARK H PARENT 9 13
REMARK Flexibility Score: inf
ROOT
ATOM      1  C   UNL     1      -9.543  -4.150  -7.214  1.00  0.00     0.016 A 
ATOM      2  C   UNL     1      -9.174  -3.721  -8.493  1.00  0.00     0.047 A 
ATOM      3  C   UNL     1      -9.935  -4.090  -9.609  1.00  0.00     0.119 A 
ATOM      4  C   UNL     1     -11.074  -4.893  -9.445  1.00  0.00     0.094 A 
ATOM      5  C   UNL     1     -11.451  -5.325  -8.168  1.00  0.00     0.142 A 
ATOM      6  C   UNL     1     -10.680  -4.952  -7.045  1.00  0.00     0.018 A 
ATOM      7  C   UNL     1     -11.081  -5.400  -5.783  1.00  0.00     0.019 A 
ATOM      8  C   UNL     1     -12.220  -6.196  -5.670  1.00  0.00     0.094 A 
ATOM      9  C   UNL     1     -12.934  -6.526  -6.826  1.00  0.00     0.336 A 
ATOM     10  O   UNL     1     -13.966  -7.243  -6.744  1.00  0.00    -0.246 OA
ATOM     11  O   UNL     1     -12.531  -6.087  -8.016  1.00  0.00    -0.423 OA
ENDROOT
BRANCH   3  12
ATOM     12  O   UNL     1      -9.552  -3.653 -10.875  1.00  0.00    -0.508 OA
ATOM     13  H   UNL     1      -9.132  -2.741 -11.015  1.00  0.00     0.293 HD
ENDBRANCH   3  12
TORSDOF 1
ENDMDL
MODEL 2
REMARK VINA RESULT:    -5.848      6.960      7.678
REMARK INTER + INTRA:          -6.019
REMARK INTER:                  -6.019
REMARK INTRA:                   0.000
REMARK UNBOUND:                 0.000
REMARK SMILES O=c1ccc2ccc(O)cc2o1
REMARK SMILES IDX 6 1 7 2 8 3 10 4 11 5 5 6 4 7 3 8 2 9 1 10 12 11 9 12
REMARK H PARENT 9 13
REMARK Flexibility Score: inf
ROOT
ATOM      1  C   UNL     1     -11.860   2.309  -9.182  1.00  0.00     0.016 A 
ATOM      2  C   UNL     1     -12.450   3.479  -8.692  1.00  0.00     0.047 A 
ATOM      3  C   UNL     1     -13.844   3.591  -8.619  1.00  0.00     0.119 A 
ATOM      4  C   UNL     1     -14.655   2.525  -9.037  1.00  0.00     0.094 A 
ATOM      5  C   UNL     1     -14.073   1.351  -9.528  1.00  0.00     0.142 A 
ATOM      6  C   UNL     1     -12.667   1.242  -9.602  1.00  0.00     0.018 A 
ATOM      7  C   UNL     1     -12.115   0.056 -10.096  1.00  0.00     0.019 A 
ATOM      8  C   UNL     1     -12.961  -0.976 -10.501  1.00  0.00     0.094 A 
ATOM      9  C   UNL     1     -14.345  -0.797 -10.399  1.00  0.00     0.336 A 
ATOM     10  O   UNL     1     -15.125  -1.718 -10.758  1.00  0.00    -0.246 OA
ATOM     11  O   UNL     1     -14.844   0.342  -9.924  1.00  0.00    -0.423 OA
ENDROOT
BRANCH   3  12
ATOM     12  O   UNL     1     -14.412   4.764  -8.127  1.00  0.00    -0.508 OA
ATOM     13  H   UNL     1     -14.985   5.360  -8.714  1.00  0.00     0.293 HD
ENDBRANCH   3  12
TORSDOF 1
ENDMDL
MODEL 3
REMARK VINA RESULT:    -5.503      0.779      4.218
REMARK INTER + INTRA:          -5.663
REMARK INTER:                  -5.663
REMARK INTRA:                   0.000
REMARK UNBOUND:                 0.000
REMARK SMILES O=c1ccc2ccc(O)cc2o1
REMARK SMILES IDX 6 1 7 2 8 3 10 4 11 5 5 6 4 7 3 8 2 9 1 10 12 11 9 12
REMARK H PARENT 9 13
REMARK Flexibility Score: inf
ROOT
ATOM      1  C   UNL     1     -11.148  -5.522  -5.900  1.00  0.00     0.016 A 
ATOM      2  C   UNL     1     -12.266  -6.364  -5.927  1.00  0.00     0.047 A 
ATOM      3  C   UNL     1     -12.918  -6.633  -7.137  1.00  0.00     0.119 A 
ATOM      4  C   UNL     1     -12.449  -6.058  -8.328  1.00  0.00     0.094 A 
ATOM      5  C   UNL     1     -11.331  -5.215  -8.309  1.00  0.00     0.142 A 
ATOM      6  C   UNL     1     -10.677  -4.945  -7.087  1.00  0.00     0.018 A 
ATOM      7  C   UNL     1      -9.563  -4.100  -7.100  1.00  0.00     0.019 A 
ATOM      8  C   UNL     1      -9.135  -3.552  -8.308  1.00  0.00     0.094 A 
ATOM      9  C   UNL     1      -9.832  -3.864  -9.480  1.00  0.00     0.336 A 
ATOM     10  O   UNL     1      -9.460  -3.379 -10.580  1.00  0.00    -0.246 OA
ATOM     11  O   UNL     1     -10.889  -4.671  -9.440  1.00  0.00    -0.423 OA
ENDROOT
BRANCH   3  12
ATOM     12  O   UNL     1     -14.029  -7.473  -7.145  1.00  0.00    -0.508 OA
ATOM     13  H   UNL     1     -14.489  -7.734  -8.009  1.00  0.00     0.293 HD
ENDBRANCH   3  12
TORSDOF 1
ENDMDL
MODEL 4
REMARK VINA RESULT:    -5.315      1.529      2.292
REMARK INTER + INTRA:          -5.470
REMARK INTER:                  -5.470
REMARK INTRA:                   0.000
REMARK UNBOUND:                 0.000
REMARK SMILES O=c1ccc2ccc(O)cc2o1
REMARK SMILES IDX 6 1 7 2 8 3 10 4 11 5 5 6 4 7 3 8 2 9 1 10 12 11 9 12
REMARK H PARENT 9 13
REMARK Flexibility Score: inf
ROOT
ATOM      1  C   UNL     1     -11.254  -4.661  -9.251  1.00  0.00     0.016 A 
ATOM      2  C   UNL     1     -10.163  -3.811  -9.040  1.00  0.00     0.047 A 
ATOM      3  C   UNL     1      -9.530  -3.771  -7.791  1.00  0.00     0.119 A 
ATOM      4  C   UNL     1      -9.991  -4.586  -6.746  1.00  0.00     0.094 A 
ATOM      5  C   UNL     1     -11.081  -5.440  -6.950  1.00  0.00     0.142 A 
ATOM      6  C   UNL     1     -11.717  -5.477  -8.210  1.00  0.00     0.018 A 
ATOM      7  C   UNL     1     -12.804  -6.340  -8.383  1.00  0.00     0.019 A 
ATOM      8  C   UNL     1     -13.225  -7.131  -7.314  1.00  0.00     0.094 A 
ATOM      9  C   UNL     1     -12.547  -7.041  -6.094  1.00  0.00     0.336 A 
ATOM     10  O   UNL     1     -12.912  -7.748  -5.119  1.00  0.00    -0.246 OA
ATOM     11  O   UNL     1     -11.515  -6.212  -5.957  1.00  0.00    -0.423 OA
ENDROOT
BRANCH   3  12
ATOM     12  O   UNL     1      -8.445  -2.918  -7.600  1.00  0.00    -0.508 OA
ATOM     13  H   UNL     1      -8.571  -1.918  -7.492  1.00  0.00     0.293 HD
ENDBRANCH   3  12
TORSDOF 1
ENDMDL
MODEL 5
REMARK VINA RESULT:    -5.265      6.848      8.010
REMARK INTER + INTRA:          -5.419
REMARK INTER:                  -5.419
REMARK INTRA:                   0.000
REMARK UNBOUND:                 0.000
REMARK SMILES O=c1ccc2ccc(O)cc2o1
REMARK SMILES IDX 6 1 7 2 8 3 10 4 11 5 5 6 4 7 3 8 2 9 1 10 12 11 9 12
REMARK H PARENT 9 13
REMARK Flexibility Score: inf
ROOT
ATOM      1  C   UNL     1     -12.000  -0.006 -10.042  1.00  0.00     0.016 A 
ATOM      2  C   UNL     1     -12.879  -1.016 -10.446  1.00  0.00     0.047 A 
ATOM      3  C   UNL     1     -14.263  -0.804 -10.408  1.00  0.00     0.119 A 
ATOM      4  C   UNL     1     -14.772   0.426  -9.964  1.00  0.00     0.094 A 
ATOM      5  C   UNL     1     -13.899   1.441  -9.559  1.00  0.00     0.142 A 
ATOM      6  C   UNL     1     -12.504   1.224  -9.597  1.00  0.00     0.018 A 
ATOM      7  C   UNL     1     -11.657   2.258  -9.187  1.00  0.00     0.019 A 
ATOM      8  C   UNL     1     -12.209   3.463  -8.753  1.00  0.00     0.094 A 
ATOM      9  C   UNL     1     -13.600   3.607  -8.742  1.00  0.00     0.336 A 
ATOM     10  O   UNL     1     -14.117   4.687  -8.354  1.00  0.00    -0.246 OA
ATOM     11  O   UNL     1     -14.384   2.607  -9.138  1.00  0.00    -0.423 OA
ENDROOT
BRANCH   3  12
ATOM     12  O   UNL     1     -15.123  -1.822 -10.814  1.00  0.00    -0.508 OA
ATOM     13  H   UNL     1     -15.029  -2.767 -10.461  1.00  0.00     0.293 HD
ENDBRANCH   3  12
TORSDOF 1
ENDMDL
MODEL 6
REMARK VINA RESULT:    -5.219     16.973     18.061
REMARK INTER + INTRA:          -5.372
REMARK INTER:                  -5.372
REMARK INTRA:                   0.000
REMARK UNBOUND:                 0.000
REMARK SMILES O=c1ccc2ccc(O)cc2o1
REMARK SMILES IDX 6 1 7 2 8 3 10 4 11 5 5 6 4 7 3 8 2 9 1 10 12 11 9 12
REMARK H PARENT 9 13
REMARK Flexibility Score: inf
ROOT
ATOM      1  C   UNL     1     -11.666   3.690   6.253  1.00  0.00     0.016 A 
ATOM      2  C   UNL     1     -10.813   3.905   7.340  1.00  0.00     0.047 A 
ATOM      3  C   UNL     1     -10.677   5.187   7.889  1.00  0.00     0.119 A 
ATOM      4  C   UNL     1     -11.400   6.261   7.347  1.00  0.00     0.094 A 
ATOM      5  C   UNL     1     -12.256   6.053   6.260  1.00  0.00     0.142 A 
ATOM      6  C   UNL     1     -12.390   4.760   5.709  1.00  0.00     0.018 A 
ATOM      7  C   UNL     1     -13.254   4.584   4.623  1.00  0.00     0.019 A 
ATOM      8  C   UNL     1     -13.951   5.682   4.119  1.00  0.00     0.094 A 
ATOM      9  C   UNL     1     -13.768   6.934   4.716  1.00  0.00     0.336 A 
ATOM     10  O   UNL     1     -14.390   7.936   4.276  1.00  0.00    -0.246 OA
ATOM     11  O   UNL     1     -12.940   7.074   5.749  1.00  0.00    -0.423 OA
ENDROOT
BRANCH   3  12
ATOM     12  O   UNL     1      -9.822   5.382   8.971  1.00  0.00    -0.508 OA
ATOM     13  H   UNL     1     -10.155   5.321   9.926  1.00  0.00     0.293 HD
ENDBRANCH   3  12
TORSDOF 1
ENDMDL
MODEL 7
REMARK VINA RESULT:    -5.061      1.655      4.745
REMARK INTER + INTRA:          -5.209
REMARK INTER:                  -5.209
REMARK INTRA:                   0.000
REMARK UNBOUND:                 0.000
REMARK SMILES O=c1ccc2ccc(O)cc2o1
REMARK SMILES IDX 6 1 7 2 8 3 10 4 11 5 5 6 4 7 3 8 2 9 1 10 12 11 9 12
REMARK H PARENT 9 13
REMARK Flexibility Score: inf
ROOT
ATOM      1  C   UNL     1     -12.877  -6.346  -8.233  1.00  0.00     0.016 A 
ATOM      2  C   UNL     1     -13.259  -7.150  -7.153  1.00  0.00     0.047 A 
ATOM      3  C   UNL     1     -12.536  -7.113  -5.954  1.00  0.00     0.119 A 
ATOM      4  C   UNL     1     -11.423  -6.267  -5.834  1.00  0.00     0.094 A 
ATOM      5  C   UNL     1     -11.035  -5.460  -6.909  1.00  0.00     0.142 A 
ATOM      6  C   UNL     1     -11.766  -5.500  -8.116  1.00  0.00     0.018 A 
ATOM      7  C   UNL     1     -11.354  -4.682  -9.173  1.00  0.00     0.019 A 
ATOM      8  C   UNL     1     -10.241  -3.857  -9.006  1.00  0.00     0.094 A 
ATOM      9  C   UNL     1      -9.566  -3.870  -7.781  1.00  0.00     0.336 A 
ATOM     10  O   UNL     1      -8.560  -3.132  -7.611  1.00  0.00    -0.246 OA
ATOM     11  O   UNL     1      -9.979  -4.658  -6.791  1.00  0.00    -0.423 OA
ENDROOT
BRANCH   3  12
ATOM     12  O   UNL     1     -12.932  -7.920  -4.890  1.00  0.00    -0.508 OA
ATOM     13  H   UNL     1     -13.748  -8.517  -4.954  1.00  0.00     0.293 HD
ENDBRANCH   3  12
TORSDOF 1
ENDMDL
MODEL 8
REMARK VINA RESULT:    -5.030     16.497     17.681
REMARK INTER + INTRA:          -5.177
REMARK INTER:                  -5.177
REMARK INTRA:                   0.000
REMARK UNBOUND:                 0.000
REMARK SMILES O=c1ccc2ccc(O)cc2o1
REMARK SMILES IDX 6 1 7 2 8 3 10 4 11 5 5 6 4 7 3 8 2 9 1 10 12 11 9 12
REMARK H PARENT 9 13
REMARK Flexibility Score: inf
ROOT
ATOM      1  C   UNL     1     -13.855   5.803   7.582  1.00  0.00     0.016 A 
ATOM      2  C   UNL     1     -13.119   4.714   8.059  1.00  0.00     0.047 A 
ATOM      3  C   UNL     1     -12.524   3.816   7.163  1.00  0.00     0.119 A 
ATOM      4  C   UNL     1     -12.665   4.011   5.781  1.00  0.00     0.094 A 
ATOM      5  C   UNL     1     -13.399   5.099   5.295  1.00  0.00     0.142 A 
ATOM      6  C   UNL     1     -13.999   6.000   6.202  1.00  0.00     0.018 A 
ATOM      7  C   UNL     1     -14.726   7.078   5.687  1.00  0.00     0.019 A 
ATOM      8  C   UNL     1     -14.839   7.229   4.305  1.00  0.00     0.094 A 
ATOM      9  C   UNL     1     -14.218   6.296   3.468  1.00  0.00     0.336 A 
ATOM     10  O   UNL     1     -14.308   6.417   2.218  1.00  0.00    -0.246 OA
ATOM     11  O   UNL     1     -13.531   5.280   3.984  1.00  0.00    -0.423 OA
ENDROOT
BRANCH   3  12
ATOM     12  O   UNL     1     -11.794   2.737   7.657  1.00  0.00    -0.508 OA
ATOM     13  H   UNL     1     -12.252   1.895   7.985  1.00  0.00     0.293 HD
ENDBRANCH   3  12
TORSDOF 1
ENDMDL
MODEL 9
REMARK VINA RESULT:    -4.989     16.479     17.437
REMARK INTER + INTRA:          -5.134
REMARK INTER:                  -5.134
REMARK INTRA:                   0.000
REMARK UNBOUND:                 0.000
REMARK SMILES O=c1ccc2ccc(O)cc2o1
REMARK SMILES IDX 6 1 7 2 8 3 10 4 11 5 5 6 4 7 3 8 2 9 1 10 12 11 9 12
REMARK H PARENT 9 13
REMARK Flexibility Score: inf
ROOT
ATOM      1  C   UNL     1     -14.549   6.816   5.925  1.00  0.00     0.016 A 
ATOM      2  C   UNL     1     -14.782   6.911   4.549  1.00  0.00     0.047 A 
ATOM      3  C   UNL     1     -14.220   5.975   3.671  1.00  0.00     0.119 A 
ATOM      4  C   UNL     1     -13.422   4.936   4.173  1.00  0.00     0.094 A 
ATOM      5  C   UNL     1     -13.185   4.834   5.548  1.00  0.00     0.142 A 
ATOM      6  C   UNL     1     -13.751   5.780   6.430  1.00  0.00     0.018 A 
ATOM      7  C   UNL     1     -13.497   5.652   7.799  1.00  0.00     0.019 A 
ATOM      8  C   UNL     1     -12.696   4.603   8.251  1.00  0.00     0.094 A 
ATOM      9  C   UNL     1     -12.168   3.703   7.318  1.00  0.00     0.336 A 
ATOM     10  O   UNL     1     -11.444   2.749   7.707  1.00  0.00    -0.246 OA
ATOM     11  O   UNL     1     -12.426   3.848   6.021  1.00  0.00    -0.423 OA
ENDROOT
BRANCH   3  12
ATOM     12  O   UNL     1     -14.464   6.086   2.304  1.00  0.00    -0.508 OA
ATOM     13  H   UNL     1     -13.911   5.575   1.625  1.00  0.00     0.293 HD
ENDBRANCH   3  12
TORSDOF 1
ENDMDL
