MODEL 1
REMARK VINA RESULT:    -3.309      0.000      0.000
REMARK INTER + INTRA:          -9.136
REMARK INTER:                  -6.404
REMARK INTRA:                  -2.732
REMARK UNBOUND:                -2.732
REMARK SMILES CCCCCCCCCCCCCCCCCC(=O)[O-]
REMARK SMILES IDX 10 1 11 2 12 3 13 4 14 5 15 6 16 7 17 8 18 9 19 10 20 11
REMARK SMILES IDX 9 12 8 13 7 14 6 15 5 16 4 17 3 18 2 19 1 20
REMARK H PARENT
REMARK Flexibility Score: inf
ROOT
ATOM      1  C   UNL     1      42.803  30.836  88.605  1.00  0.00     0.000 C 
ENDROOT
BRANCH   1   2
ATOM      2  C   UNL     1      42.091  31.259  87.314  1.00  0.00     0.000 C 
BRANCH   2   3
ATOM      3  C   UNL     1      40.594  31.493  87.565  1.00  0.00     0.000 C 
BRANCH   3   4
ATOM      4  C   UNL     1      40.000  30.508  88.584  1.00  0.00     0.000 C 
BRANCH   4   5
ATOM      5  C   UNL     1      39.240  29.349  87.922  1.00  0.00     0.000 C 
BRANCH   5   6
ATOM      6  C   UNL     1      40.184  28.176  87.620  1.00  0.00     0.000 C 
BRANCH   6   7
ATOM      7  C   UNL     1      39.834  26.911  88.419  1.00  0.00     0.006 C 
BRANCH   7   8
ATOM      8  C   UNL     1      39.173  27.227  89.768  1.00  0.00     0.053 C 
BRANCH   8   9
ATOM      9  C   UNL     1      37.846  26.542  89.874  1.00  0.00     0.041 C 
ATOM     10  O   UNL     1      37.040  26.568  88.905  1.00  0.00    -0.550 OA
ATOM     11  O   UNL     1      37.518  25.839  91.025  1.00  0.00    -0.550 OA
ENDBRANCH   8   9
ENDBRANCH   7   8
ENDBRANCH   6   7
ENDBRANCH   5   6
ENDBRANCH   4   5
ENDBRANCH   3   4
ENDBRANCH   2   3
ENDBRANCH   1   2
BRANCH   1  12
ATOM     12  C   UNL     1      43.589  29.532  88.399  1.00  0.00     0.000 C 
BRANCH  12  13
ATOM     13  C   UNL     1      43.363  28.507  89.527  1.00  0.00    -0.000 C 
BRANCH  13  14
ATOM     14  C   UNL     1      42.407  28.964  90.644  1.00  0.00    -0.000 C 
BRANCH  14  15
ATOM     15  C   UNL     1      43.046  28.911  92.042  1.00  0.00    -0.000 C 
BRANCH  15  16
ATOM     16  C   UNL     1      44.433  29.575  92.075  1.00  0.00    -0.000 C 
BRANCH  16  17
ATOM     17  C   UNL     1      44.354  31.081  92.377  1.00  0.00    -0.000 C 
BRANCH  17  18
ATOM     18  C   UNL     1      45.217  31.929  91.426  1.00  0.00    -0.000 C 
BRANCH  18  19
ATOM     19  C   UNL     1      46.260  31.139  90.617  1.00  0.00    -0.003 C 
ATOM     20  C   UNL     1      46.433  31.661  89.191  1.00  0.00     0.004 C 
ENDBRANCH  18  19
ENDBRANCH  17  18
ENDBRANCH  16  17
ENDBRANCH  15  16
ENDBRANCH  14  15
ENDBRANCH  13  14
ENDBRANCH  12  13
ENDBRANCH   1  12
TORSDOF 16
ENDMDL
MODEL 2
REMARK VINA RESULT:    -3.286      3.377      6.683
REMARK INTER + INTRA:          -9.091
REMARK INTER:                  -5.917
REMARK INTRA:                  -3.174
REMARK UNBOUND:                -2.732
REMARK SMILES CCCCCCCCCCCCCCCCCC(=O)[O-]
REMARK SMILES IDX 10 1 11 2 12 3 13 4 14 5 15 6 16 7 17 8 18 9 19 10 20 11
REMARK SMILES IDX 9 12 8 13 7 14 6 15 5 16 4 17 3 18 2 19 1 20
REMARK H PARENT
REMARK Flexibility Score: inf
ROOT
ATOM      1  C   UNL     1      42.516  28.419  90.795  1.00  0.00     0.000 C 
ENDROOT
BRANCH   1   2
ATOM      2  C   UNL     1      42.708  29.819  91.392  1.00  0.00     0.000 C 
BRANCH   2   3
ATOM      3  C   UNL     1      44.091  29.951  92.047  1.00  0.00     0.000 C 
BRANCH   3   4
ATOM      4  C   UNL     1      44.836  31.223  91.614  1.00  0.00     0.000 C 
BRANCH   4   5
ATOM      5  C   UNL     1      44.668  31.534  90.120  1.00  0.00     0.000 C 
BRANCH   5   6
ATOM      6  C   UNL     1      46.023  31.501  89.397  1.00  0.00     0.000 C 
BRANCH   6   7
ATOM      7  C   UNL     1      47.191  31.177  90.341  1.00  0.00     0.006 C 
BRANCH   7   8
ATOM      8  C   UNL     1      48.062  30.022  89.830  1.00  0.00     0.053 C 
BRANCH   8   9
ATOM      9  C   UNL     1      47.367  28.712  90.031  1.00  0.00     0.041 C 
ATOM     10  O   UNL     1      47.089  27.983  89.041  1.00  0.00    -0.550 OA
ATOM     11  O   UNL     1      47.064  28.276  91.315  1.00  0.00    -0.550 OA
ENDBRANCH   8   9
ENDBRANCH   7   8
ENDBRANCH   6   7
ENDBRANCH   5   6
ENDBRANCH   4   5
ENDBRANCH   3   4
ENDBRANCH   2   3
ENDBRANCH   1   2
BRANCH   1  12
ATOM     12  C   UNL     1      43.655  28.075  89.822  1.00  0.00     0.000 C 
BRANCH  12  13
ATOM     13  C   UNL     1      43.186  27.240  88.615  1.00  0.00    -0.000 C 
BRANCH  13  14
ATOM     14  C   UNL     1      43.385  27.908  87.242  1.00  0.00    -0.000 C 
BRANCH  14  15
ATOM     15  C   UNL     1      43.555  29.434  87.335  1.00  0.00    -0.000 C 
BRANCH  15  16
ATOM     16  C   UNL     1      42.291  30.191  86.892  1.00  0.00    -0.000 C 
BRANCH  16  17
ATOM     17  C   UNL     1      41.677  31.022  88.031  1.00  0.00    -0.000 C 
BRANCH  17  18
ATOM     18  C   UNL     1      40.273  30.537  88.436  1.00  0.00    -0.000 C 
BRANCH  18  19
ATOM     19  C   UNL     1      39.818  29.230  87.764  1.00  0.00    -0.003 C 
ATOM     20  C   UNL     1      39.523  28.114  88.764  1.00  0.00     0.004 C 
ENDBRANCH  18  19
ENDBRANCH  17  18
ENDBRANCH  16  17
ENDBRANCH  15  16
ENDBRANCH  14  15
ENDBRANCH  13  14
ENDBRANCH  12  13
ENDBRANCH   1  12
TORSDOF 16
ENDMDL
MODEL 3
REMARK VINA RESULT:    -3.279      2.050      4.434
REMARK INTER + INTRA:          -9.078
REMARK INTER:                  -6.628
REMARK INTRA:                  -2.450
REMARK UNBOUND:                -2.732
REMARK SMILES CCCCCCCCCCCCCCCCCC(=O)[O-]
REMARK SMILES IDX 10 1 11 2 12 3 13 4 14 5 15 6 16 7 17 8 18 9 19 10 20 11
REMARK SMILES IDX 9 12 8 13 7 14 6 15 5 16 4 17 3 18 2 19 1 20
REMARK H PARENT
REMARK Flexibility Score: inf
ROOT
ATOM      1  C   UNL     1      43.278  29.298  91.843  1.00  0.00     0.000 C 
ENDROOT
BRANCH   1   2
ATOM      2  C   UNL     1      43.593  28.172  90.850  1.00  0.00     0.000 C 
BRANCH   2   3
ATOM      3  C   UNL     1      42.908  28.425  89.498  1.00  0.00     0.000 C 
BRANCH   3   4
ATOM      4  C   UNL     1      43.906  28.754  88.377  1.00  0.00     0.000 C 
BRANCH   4   5
ATOM      5  C   UNL     1      43.834  30.220  87.925  1.00  0.00     0.000 C 
BRANCH   5   6
ATOM      6  C   UNL     1      42.673  30.950  88.618  1.00  0.00     0.000 C 
BRANCH   6   7
ATOM      7  C   UNL     1      41.481  31.194  87.680  1.00  0.00     0.006 C 
BRANCH   7   8
ATOM      8  C   UNL     1      40.160  30.657  88.248  1.00  0.00     0.053 C 
BRANCH   8   9
ATOM      9  C   UNL     1      39.851  29.311  87.672  1.00  0.00     0.041 C 
ATOM     10  O   UNL     1      38.859  28.655  88.089  1.00  0.00    -0.550 OA
ATOM     11  O   UNL     1      40.632  28.799  86.643  1.00  0.00    -0.550 OA
ENDBRANCH   8   9
ENDBRANCH   7   8
ENDBRANCH   6   7
ENDBRANCH   5   6
ENDBRANCH   4   5
ENDBRANCH   3   4
ENDBRANCH   2   3
ENDBRANCH   1   2
BRANCH   1  12
ATOM     12  C   UNL     1      44.562  30.018  92.284  1.00  0.00     0.000 C 
BRANCH  12  13
ATOM     13  C   UNL     1      44.720  31.413  91.650  1.00  0.00    -0.000 C 
BRANCH  13  14
ATOM     14  C   UNL     1      46.003  31.613  90.822  1.00  0.00    -0.000 C 
BRANCH  14  15
ATOM     15  C   UNL     1      46.668  30.288  90.413  1.00  0.00    -0.000 C 
BRANCH  15  16
ATOM     16  C   UNL     1      47.291  30.357  89.008  1.00  0.00    -0.000 C 
BRANCH  16  17
ATOM     17  C   UNL     1      47.249  31.777  88.419  1.00  0.00    -0.000 C 
BRANCH  17  18
ATOM     18  C   UNL     1      48.147  31.937  87.179  1.00  0.00    -0.000 C 
BRANCH  18  19
ATOM     19  C   UNL     1      49.199  33.055  87.278  1.00  0.00    -0.003 C 
ATOM     20  C   UNL     1      49.008  34.153  86.233  1.00  0.00     0.004 C 
ENDBRANCH  18  19
ENDBRANCH  17  18
ENDBRANCH  16  17
ENDBRANCH  15  16
ENDBRANCH  14  15
ENDBRANCH  13  14
ENDBRANCH  12  13
ENDBRANCH   1  12
TORSDOF 16
ENDMDL
MODEL 4
REMARK VINA RESULT:    -3.271      3.744      7.102
REMARK INTER + INTRA:          -9.063
REMARK INTER:                  -6.000
REMARK INTRA:                  -3.063
REMARK UNBOUND:                -2.732
REMARK SMILES CCCCCCCCCCCCCCCCCC(=O)[O-]
REMARK SMILES IDX 10 1 11 2 12 3 13 4 14 5 15 6 16 7 17 8 18 9 19 10 20 11
REMARK SMILES IDX 9 12 8 13 7 14 6 15 5 16 4 17 3 18 2 19 1 20
REMARK H PARENT
REMARK Flexibility Score: inf
ROOT
ATOM      1  C   UNL     1      43.538  27.449  90.101  1.00  0.00     0.000 C 
ENDROOT
BRANCH   1   2
ATOM      2  C   UNL     1      42.718  28.563  90.764  1.00  0.00     0.000 C 
BRANCH   2   3
ATOM      3  C   UNL     1      43.195  28.814  92.202  1.00  0.00     0.000 C 
BRANCH   3   4
ATOM      4  C   UNL     1      44.511  29.606  92.263  1.00  0.00     0.000 C 
BRANCH   4   5
ATOM      5  C   UNL     1      44.373  31.034  91.715  1.00  0.00     0.000 C 
BRANCH   5   6
ATOM      6  C   UNL     1      45.612  31.428  90.897  1.00  0.00     0.000 C 
BRANCH   6   7
ATOM      7  C   UNL     1      46.533  30.234  90.601  1.00  0.00     0.006 C 
BRANCH   7   8
ATOM      8  C   UNL     1      47.812  30.641  89.857  1.00  0.00     0.053 C 
BRANCH   8   9
ATOM      9  C   UNL     1      47.484  31.131  88.482  1.00  0.00     0.041 C 
ATOM     10  O   UNL     1      47.036  30.334  87.614  1.00  0.00    -0.550 OA
ATOM     11  O   UNL     1      47.631  32.476  88.170  1.00  0.00    -0.550 OA
ENDBRANCH   8   9
ENDBRANCH   7   8
ENDBRANCH   6   7
ENDBRANCH   5   6
ENDBRANCH   4   5
ENDBRANCH   3   4
ENDBRANCH   2   3
ENDBRANCH   1   2
BRANCH   1  12
ATOM     12  C   UNL     1      44.028  27.880  88.709  1.00  0.00     0.000 C 
BRANCH  12  13
ATOM     13  C   UNL     1      43.712  29.353  88.388  1.00  0.00    -0.000 C 
BRANCH  13  14
ATOM     14  C   UNL     1      43.306  29.632  86.929  1.00  0.00    -0.000 C 
BRANCH  14  15
ATOM     15  C   UNL     1      41.948  30.344  86.809  1.00  0.00    -0.000 C 
BRANCH  15  16
ATOM     16  C   UNL     1      41.511  30.996  88.132  1.00  0.00    -0.000 C 
BRANCH  16  17
ATOM     17  C   UNL     1      40.123  30.518  88.589  1.00  0.00    -0.000 C 
BRANCH  17  18
ATOM     18  C   UNL     1      39.629  29.284  87.812  1.00  0.00    -0.000 C 
BRANCH  18  19
ATOM     19  C   UNL     1      39.719  27.953  88.579  1.00  0.00    -0.003 C 
ATOM     20  C   UNL     1      40.524  26.888  87.837  1.00  0.00     0.004 C 
ENDBRANCH  18  19
ENDBRANCH  17  18
ENDBRANCH  16  17
ENDBRANCH  15  16
ENDBRANCH  14  15
ENDBRANCH  13  14
ENDBRANCH  12  13
ENDBRANCH   1  12
TORSDOF 16
ENDMDL
MODEL 5
REMARK VINA RESULT:    -3.204      4.023      7.004
REMARK INTER + INTRA:          -8.933
REMARK INTER:                  -6.194
REMARK INTRA:                  -2.739
REMARK UNBOUND:                -2.732
REMARK SMILES CCCCCCCCCCCCCCCCCC(=O)[O-]
REMARK SMILES IDX 10 1 11 2 12 3 13 4 14 5 15 6 16 7 17 8 18 9 19 10 20 11
REMARK SMILES IDX 9 12 8 13 7 14 6 15 5 16 4 17 3 18 2 19 1 20
REMARK H PARENT
REMARK Flexibility Score: inf
ROOT
ATOM      1  C   UNL     1      46.078  27.477  90.722  1.00  0.00     0.000 C 
ENDROOT
BRANCH   1   2
ATOM      2  C   UNL     1      46.043  28.710  91.633  1.00  0.00     0.000 C 
BRANCH   2   3
ATOM      3  C   UNL     1      44.680  28.836  92.332  1.00  0.00     0.000 C 
BRANCH   3   4
ATOM      4  C   UNL     1      44.028  30.212  92.121  1.00  0.00     0.000 C 
BRANCH   4   5
ATOM      5  C   UNL     1      44.904  31.168  91.297  1.00  0.00     0.000 C 
BRANCH   5   6
ATOM      6  C   UNL     1      44.403  31.257  89.848  1.00  0.00     0.000 C 
BRANCH   6   7
ATOM      7  C   UNL     1      45.502  30.945  88.820  1.00  0.00     0.006 C 
BRANCH   7   8
ATOM      8  C   UNL     1      46.762  31.796  89.023  1.00  0.00     0.053 C 
BRANCH   8   9
ATOM      9  C   UNL     1      47.933  30.927  89.355  1.00  0.00     0.041 C 
ATOM     10  O   UNL     1      48.516  31.043  90.467  1.00  0.00    -0.550 OA
ATOM     11  O   UNL     1      48.355  29.957  88.455  1.00  0.00    -0.550 OA
ENDBRANCH   8   9
ENDBRANCH   7   8
ENDBRANCH   6   7
ENDBRANCH   5   6
ENDBRANCH   4   5
ENDBRANCH   3   4
ENDBRANCH   2   3
ENDBRANCH   1   2
BRANCH   1  12
ATOM     12  C   UNL     1      44.658  27.048  90.321  1.00  0.00     0.000 C 
BRANCH  12  13
ATOM     13  C   UNL     1      44.290  27.452  88.880  1.00  0.00    -0.000 C 
BRANCH  13  14
ATOM     14  C   UNL     1      42.852  27.970  88.694  1.00  0.00    -0.000 C 
BRANCH  14  15
ATOM     15  C   UNL     1      42.040  27.972  90.000  1.00  0.00    -0.000 C 
BRANCH  15  16
ATOM     16  C   UNL     1      40.523  28.008  89.745  1.00  0.00    -0.000 C 
BRANCH  16  17
ATOM     17  C   UNL     1      40.185  28.140  88.250  1.00  0.00    -0.000 C 
BRANCH  17  18
ATOM     18  C   UNL     1      39.408  29.428  87.924  1.00  0.00    -0.000 C 
BRANCH  18  19
ATOM     19  C   UNL     1      40.059  30.726  88.433  1.00  0.00    -0.003 C 
ATOM     20  C   UNL     1      41.289  31.136  87.625  1.00  0.00     0.004 C 
ENDBRANCH  18  19
ENDBRANCH  17  18
ENDBRANCH  16  17
ENDBRANCH  15  16
ENDBRANCH  14  15
ENDBRANCH  13  14
ENDBRANCH  12  13
ENDBRANCH   1  12
TORSDOF 16
ENDMDL
MODEL 6
REMARK VINA RESULT:    -3.201      2.417      3.677
REMARK INTER + INTRA:          -8.926
REMARK INTER:                  -6.422
REMARK INTRA:                  -2.504
REMARK UNBOUND:                -2.732
REMARK SMILES CCCCCCCCCCCCCCCCCC(=O)[O-]
REMARK SMILES IDX 10 1 11 2 12 3 13 4 14 5 15 6 16 7 17 8 18 9 19 10 20 11
REMARK SMILES IDX 9 12 8 13 7 14 6 15 5 16 4 17 3 18 2 19 1 20
REMARK H PARENT
REMARK Flexibility Score: inf
ROOT
ATOM      1  C   UNL     1      43.858  30.170  87.839  1.00  0.00     0.000 C 
ENDROOT
BRANCH   1   2
ATOM      2  C   UNL     1      42.904  31.267  88.329  1.00  0.00     0.000 C 
BRANCH   2   3
ATOM      3  C   UNL     1      41.690  31.396  87.396  1.00  0.00     0.000 C 
BRANCH   3   4
ATOM      4  C   UNL     1      40.380  30.938  88.057  1.00  0.00     0.000 C 
BRANCH   4   5
ATOM      5  C   UNL     1      40.609  30.165  89.364  1.00  0.00     0.000 C 
BRANCH   5   6
ATOM      6  C   UNL     1      40.124  28.713  89.232  1.00  0.00     0.000 C 
BRANCH   6   7
ATOM      7  C   UNL     1      39.830  28.315  87.778  1.00  0.00     0.006 C 
BRANCH   7   8
ATOM      8  C   UNL     1      41.059  27.742  87.060  1.00  0.00     0.053 C 
BRANCH   8   9
ATOM      9  C   UNL     1      41.054  28.137  85.617  1.00  0.00     0.041 C 
ATOM     10  O   UNL     1      42.068  28.685  85.106  1.00  0.00    -0.550 OA
ATOM     11  O   UNL     1      39.948  27.860  84.825  1.00  0.00    -0.550 OA
ENDBRANCH   8   9
ENDBRANCH   7   8
ENDBRANCH   6   7
ENDBRANCH   5   6
ENDBRANCH   4   5
ENDBRANCH   3   4
ENDBRANCH   2   3
ENDBRANCH   1   2
BRANCH   1  12
ATOM     12  C   UNL     1      44.436  29.375  89.019  1.00  0.00     0.000 C 
BRANCH  12  13
ATOM     13  C   UNL     1      44.053  29.966  90.390  1.00  0.00    -0.000 C 
BRANCH  13  14
ATOM     14  C   UNL     1      45.232  30.495  91.227  1.00  0.00    -0.000 C 
BRANCH  14  15
ATOM     15  C   UNL     1      46.188  31.389  90.419  1.00  0.00    -0.000 C 
BRANCH  15  16
ATOM     16  C   UNL     1      47.619  30.827  90.380  1.00  0.00    -0.000 C 
BRANCH  16  17
ATOM     17  C   UNL     1      48.356  31.191  89.080  1.00  0.00    -0.000 C 
BRANCH  17  18
ATOM     18  C   UNL     1      47.408  31.685  87.973  1.00  0.00    -0.000 C 
BRANCH  18  19
ATOM     19  C   UNL     1      47.366  30.804  86.712  1.00  0.00    -0.003 C 
ATOM     20  C   UNL     1      47.553  29.318  87.014  1.00  0.00     0.004 C 
ENDBRANCH  18  19
ENDBRANCH  17  18
ENDBRANCH  16  17
ENDBRANCH  15  16
ENDBRANCH  14  15
ENDBRANCH  13  14
ENDBRANCH  12  13
ENDBRANCH   1  12
TORSDOF 16
ENDMDL
MODEL 7
REMARK VINA RESULT:    -3.196      2.133      3.382
REMARK INTER + INTRA:          -8.917
REMARK INTER:                  -5.893
REMARK INTRA:                  -3.024
REMARK UNBOUND:                -2.732
REMARK SMILES CCCCCCCCCCCCCCCCCC(=O)[O-]
REMARK SMILES IDX 10 1 11 2 12 3 13 4 14 5 15 6 16 7 17 8 18 9 19 10 20 11
REMARK SMILES IDX 9 12 8 13 7 14 6 15 5 16 4 17 3 18 2 19 1 20
REMARK H PARENT
REMARK Flexibility Score: inf
ROOT
ATOM      1  C   UNL     1      44.249  30.065  87.954  1.00  0.00     0.000 C 
ENDROOT
BRANCH   1   2
ATOM      2  C   UNL     1      43.257  31.077  88.541  1.00  0.00     0.000 C 
BRANCH   2   3
ATOM      3  C   UNL     1      42.044  31.257  87.616  1.00  0.00     0.000 C 
BRANCH   3   4
ATOM      4  C   UNL     1      40.760  30.636  88.189  1.00  0.00     0.000 C 
BRANCH   4   5
ATOM      5  C   UNL     1      40.939  30.112  89.621  1.00  0.00     0.000 C 
BRANCH   5   6
ATOM      6  C   UNL     1      40.697  28.596  89.684  1.00  0.00     0.000 C 
BRANCH   6   7
ATOM      7  C   UNL     1      41.105  27.876  88.390  1.00  0.00     0.006 C 
BRANCH   7   8
ATOM      8  C   UNL     1      42.265  26.894  88.600  1.00  0.00     0.053 C 
BRANCH   8   9
ATOM      9  C   UNL     1      41.781  25.482  88.499  1.00  0.00     0.041 C 
ATOM     10  O   UNL     1      42.591  24.549  88.250  1.00  0.00    -0.550 OA
ATOM     11  O   UNL     1      40.442  25.189  88.724  1.00  0.00    -0.550 OA
ENDBRANCH   8   9
ENDBRANCH   7   8
ENDBRANCH   6   7
ENDBRANCH   5   6
ENDBRANCH   4   5
ENDBRANCH   3   4
ENDBRANCH   2   3
ENDBRANCH   1   2
BRANCH   1  12
ATOM     12  C   UNL     1      45.686  30.607  88.009  1.00  0.00     0.000 C 
BRANCH  12  13
ATOM     13  C   UNL     1      45.969  31.438  89.275  1.00  0.00    -0.000 C 
BRANCH  13  14
ATOM     14  C   UNL     1      47.104  30.902  90.168  1.00  0.00    -0.000 C 
BRANCH  14  15
ATOM     15  C   UNL     1      47.306  29.383  90.037  1.00  0.00    -0.000 C 
BRANCH  15  16
ATOM     16  C   UNL     1      46.645  28.605  91.187  1.00  0.00    -0.000 C 
BRANCH  16  17
ATOM     17  C   UNL     1      45.307  27.971  90.772  1.00  0.00    -0.000 C 
BRANCH  17  18
ATOM     18  C   UNL     1      44.088  28.712  91.350  1.00  0.00    -0.000 C 
BRANCH  18  19
ATOM     19  C   UNL     1      44.376  29.559  92.602  1.00  0.00    -0.003 C 
ATOM     20  C   UNL     1      44.093  31.046  92.398  1.00  0.00     0.004 C 
ENDBRANCH  18  19
ENDBRANCH  17  18
ENDBRANCH  16  17
ENDBRANCH  15  16
ENDBRANCH  14  15
ENDBRANCH  13  14
ENDBRANCH  12  13
ENDBRANCH   1  12
TORSDOF 16
ENDMDL
MODEL 8
REMARK VINA RESULT:    -3.183      1.081      2.396
REMARK INTER + INTRA:          -8.892
REMARK INTER:                  -6.550
REMARK INTRA:                  -2.342
REMARK UNBOUND:                -2.732
REMARK SMILES CCCCCCCCCCCCCCCCCC(=O)[O-]
REMARK SMILES IDX 10 1 11 2 12 3 13 4 14 5 15 6 16 7 17 8 18 9 19 10 20 11
REMARK SMILES IDX 9 12 8 13 7 14 6 15 5 16 4 17 3 18 2 19 1 20
REMARK H PARENT
REMARK Flexibility Score: inf
ROOT
ATOM      1  C   UNL     1      42.912  28.736  89.607  1.00  0.00     0.000 C 
ENDROOT
BRANCH   1   2
ATOM      2  C   UNL     1      43.043  29.507  88.287  1.00  0.00     0.000 C 
BRANCH   2   3
ATOM      3  C   UNL     1      42.423  30.907  88.406  1.00  0.00     0.000 C 
BRANCH   3   4
ATOM      4  C   UNL     1      41.120  31.052  87.603  1.00  0.00     0.000 C 
BRANCH   4   5
ATOM      5  C   UNL     1      39.866  30.793  88.450  1.00  0.00     0.000 C 
BRANCH   5   6
ATOM      6  C   UNL     1      38.997  29.694  87.820  1.00  0.00     0.000 C 
BRANCH   6   7
ATOM      7  C   UNL     1      39.640  28.302  87.914  1.00  0.00     0.006 C 
BRANCH   7   8
ATOM      8  C   UNL     1      39.176  27.517  89.148  1.00  0.00     0.053 C 
BRANCH   8   9
ATOM      9  C   UNL     1      38.013  26.641  88.806  1.00  0.00     0.041 C 
ATOM     10  O   UNL     1      36.837  27.023  89.048  1.00  0.00    -0.550 OA
ATOM     11  O   UNL     1      38.225  25.420  88.178  1.00  0.00    -0.550 OA
ENDBRANCH   8   9
ENDBRANCH   7   8
ENDBRANCH   6   7
ENDBRANCH   5   6
ENDBRANCH   4   5
ENDBRANCH   3   4
ENDBRANCH   2   3
ENDBRANCH   1   2
BRANCH   1  12
ATOM     12  C   UNL     1      42.522  29.677  90.757  1.00  0.00     0.000 C 
BRANCH  12  13
ATOM     13  C   UNL     1      43.379  29.473  92.021  1.00  0.00    -0.000 C 
BRANCH  13  14
ATOM     14  C   UNL     1      44.262  30.672  92.412  1.00  0.00    -0.000 C 
BRANCH  14  15
ATOM     15  C   UNL     1      45.168  31.152  91.265  1.00  0.00    -0.000 C 
BRANCH  15  16
ATOM     16  C   UNL     1      46.255  30.123  90.910  1.00  0.00    -0.000 C 
BRANCH  16  17
ATOM     17  C   UNL     1      46.481  30.011  89.393  1.00  0.00    -0.000 C 
BRANCH  17  18
ATOM     18  C   UNL     1      46.243  31.339  88.652  1.00  0.00    -0.000 C 
BRANCH  18  19
ATOM     19  C   UNL     1      47.520  32.104  88.262  1.00  0.00    -0.003 C 
ATOM     20  C   UNL     1      48.093  31.665  86.916  1.00  0.00     0.004 C 
ENDBRANCH  18  19
ENDBRANCH  17  18
ENDBRANCH  16  17
ENDBRANCH  15  16
ENDBRANCH  14  15
ENDBRANCH  13  14
ENDBRANCH  12  13
ENDBRANCH   1  12
TORSDOF 16
ENDMDL
MODEL 9
REMARK VINA RESULT:    -3.150      3.070      6.074
REMARK INTER + INTRA:          -8.829
REMARK INTER:                  -6.000
REMARK INTRA:                  -2.829
REMARK UNBOUND:                -2.732
REMARK SMILES CCCCCCCCCCCCCCCCCC(=O)[O-]
REMARK SMILES IDX 10 1 11 2 12 3 13 4 14 5 15 6 16 7 17 8 18 9 19 10 20 11
REMARK SMILES IDX 9 12 8 13 7 14 6 15 5 16 4 17 3 18 2 19 1 20
REMARK H PARENT
REMARK Flexibility Score: inf
ROOT
ATOM      1  C   UNL     1      40.653  29.975  89.552  1.00  0.00     0.000 C 
ENDROOT
BRANCH   1   2
ATOM      2  C   UNL     1      40.220  30.695  88.268  1.00  0.00     0.000 C 
BRANCH   2   3
ATOM      3  C   UNL     1      41.442  31.150  87.456  1.00  0.00     0.000 C 
BRANCH   3   4
ATOM      4  C   UNL     1      42.722  31.237  88.304  1.00  0.00     0.000 C 
BRANCH   4   5
ATOM      5  C   UNL     1      43.871  30.390  87.738  1.00  0.00     0.000 C 
BRANCH   5   6
ATOM      6  C   UNL     1      45.023  30.286  88.749  1.00  0.00     0.000 C 
BRANCH   6   7
ATOM      7  C   UNL     1      44.790  31.140  90.004  1.00  0.00     0.006 C 
BRANCH   7   8
ATOM      8  C   UNL     1      45.358  30.494  91.275  1.00  0.00     0.053 C 
BRANCH   8   9
ATOM      9  C   UNL     1      44.378  30.601  92.400  1.00  0.00     0.041 C 
ATOM     10  O   UNL     1      44.206  31.703  92.989  1.00  0.00    -0.550 OA
ATOM     11  O   UNL     1      43.622  29.497  92.770  1.00  0.00    -0.550 OA
ENDBRANCH   8   9
ENDBRANCH   7   8
ENDBRANCH   6   7
ENDBRANCH   5   6
ENDBRANCH   4   5
ENDBRANCH   3   4
ENDBRANCH   2   3
ENDBRANCH   1   2
BRANCH   1  12
ATOM     12  C   UNL     1      39.972  28.603  89.670  1.00  0.00     0.000 C 
BRANCH  12  13
ATOM     13  C   UNL     1      40.946  27.478  90.070  1.00  0.00    -0.000 C 
BRANCH  13  14
ATOM     14  C   UNL     1      42.437  27.862  90.035  1.00  0.00    -0.000 C 
BRANCH  14  15
ATOM     15  C   UNL     1      43.263  26.979  89.084  1.00  0.00    -0.000 C 
BRANCH  15  16
ATOM     16  C   UNL     1      42.408  26.378  87.955  1.00  0.00    -0.000 C 
BRANCH  16  17
ATOM     17  C   UNL     1      42.290  27.321  86.746  1.00  0.00    -0.000 C 
BRANCH  17  18
ATOM     18  C   UNL     1      41.097  26.978  85.835  1.00  0.00    -0.000 C 
BRANCH  18  19
ATOM     19  C   UNL     1      39.924  27.971  85.898  1.00  0.00    -0.003 C 
ATOM     20  C   UNL     1      38.768  27.591  84.974  1.00  0.00     0.004 C 
ENDBRANCH  18  19
ENDBRANCH  17  18
ENDBRANCH  16  17
ENDBRANCH  15  16
ENDBRANCH  14  15
ENDBRANCH  13  14
ENDBRANCH  12  13
ENDBRANCH   1  12
TORSDOF 16
ENDMDL
