MODEL 1
REMARK VINA RESULT:    -3.946      0.000      0.000
REMARK INTER + INTRA:          -6.215
REMARK INTER:                  -6.022
REMARK INTRA:                  -0.193
REMARK UNBOUND:                -0.193
REMARK SMILES CC1=CCC[C@H](C)C(=O)C[C@@H](C(C)C)C(=O)C1
REMARK SMILES IDX 8 1 9 2 6 3 7 4 5 5 4 6 3 7 2 8 1 9 10 11 11 12 15 13 16 14
REMARK SMILES IDX 17 15 12 17 13 18 14 19
REMARK H PARENT
REMARK Flexibility Score: 70.00
ROOT
ATOM      1  C   UNL     1      23.258  29.132  38.608  1.00  0.00     0.136 C 
ATOM      2  O   UNL     1      23.894  28.091  38.696  1.00  0.00    -0.299 OA
ENDROOT
BRANCH   1   3
ATOM      3  C   UNL     1      23.975  30.432  38.309  1.00  0.00     0.053 C 
ATOM      4  C   UNL     1      25.220  30.540  39.196  1.00  0.00     0.016 C 
BRANCH   3   5
ATOM      5  C   UNL     1      24.368  30.541  36.818  1.00  0.00     0.015 C 
BRANCH   5   6
ATOM      6  C   UNL     1      23.541  31.581  36.047  1.00  0.00     0.028 C 
BRANCH   6   7
ATOM      7  C   UNL     1      22.961  32.620  36.977  1.00  0.00    -0.028 C 
ATOM      8  C   UNL     1      21.648  32.777  37.262  1.00  0.00    -0.070 CG0
ATOM      9  C   UNL     1      21.261  33.876  38.220  1.00  0.00     0.039 C 
ATOM     10  G   UNL     1      20.561  31.884  36.697  1.00  0.00     0.000 G0
ENDBRANCH   6   7
ENDBRANCH   5   6
ENDBRANCH   3   5
ENDBRANCH   1   3
BRANCH   1  11
ATOM     11  C   UNL     1      21.766  29.096  38.820  1.00  0.00     0.087 C 
BRANCH  11  12
ATOM     12  C   UNL     1      20.988  29.425  37.522  1.00  0.00     0.066 C 
BRANCH  12  13
ATOM     13  C   UNL     1      20.261  30.755  37.642  1.00  0.00     0.140 C 
ATOM     14  O   UNL     1      19.400  30.903  38.499  1.00  0.00    -0.299 OA
BRANCH  13  15
ATOM     15  C   UNL     1      20.548  31.893  36.697  1.00  0.00     0.106 CG0
ATOM     16  G   UNL     1      21.651  32.782  37.237  1.00  0.00     0.000 G0
ENDBRANCH  13  15
ENDBRANCH  12  13
BRANCH  12  17
ATOM     17  C   UNL     1      20.032  28.266  37.109  1.00  0.00    -0.006 C 
ATOM     18  C   UNL     1      19.222  28.549  35.832  1.00  0.00     0.008 C 
ATOM     19  C   UNL     1      20.788  26.935  36.971  1.00  0.00     0.008 C 
ENDBRANCH  12  17
ENDBRANCH  11  12
ENDBRANCH   1  11
TORSDOF 1
ENDMDL
MODEL 2
REMARK VINA RESULT:    -3.858      2.193      5.094
REMARK INTER + INTRA:          -6.081
REMARK INTER:                  -5.797
REMARK INTRA:                  -0.284
REMARK UNBOUND:                -0.193
REMARK SMILES CC1=CCC[C@H](C)C(=O)C[C@@H](C(C)C)C(=O)C1
REMARK SMILES IDX 8 1 9 2 6 3 7 4 5 5 4 6 3 7 2 8 1 9 10 11 11 12 15 13 16 14
REMARK SMILES IDX 17 15 12 17 13 18 14 19
REMARK H PARENT
REMARK Flexibility Score: 70.00
ROOT
ATOM      1  C   UNL     1      19.566  31.080  36.278  1.00  0.00     0.136 C 
ATOM      2  O   UNL     1      19.131  31.243  35.147  1.00  0.00    -0.299 OA
ENDROOT
BRANCH   1   3
ATOM      3  C   UNL     1      18.968  30.010  37.168  1.00  0.00     0.053 C 
ATOM      4  C   UNL     1      17.477  30.297  37.376  1.00  0.00     0.016 C 
BRANCH   3   5
ATOM      5  C   UNL     1      19.163  28.596  36.575  1.00  0.00     0.015 C 
BRANCH   5   6
ATOM      6  C   UNL     1      20.640  28.191  36.446  1.00  0.00     0.028 C 
BRANCH   6   7
ATOM      7  C   UNL     1      21.355  28.293  37.772  1.00  0.00    -0.028 C 
ATOM      8  C   UNL     1      22.540  28.911  37.983  1.00  0.00    -0.070 CG0
ATOM      9  C   UNL     1      23.098  28.908  39.384  1.00  0.00     0.039 C 
ATOM     10  G   UNL     1      23.308  29.631  36.892  1.00  0.00     0.000 G0
ENDBRANCH   6   7
ENDBRANCH   5   6
ENDBRANCH   3   5
ENDBRANCH   1   3
BRANCH   1  11
ATOM     11  C   UNL     1      20.681  31.968  36.768  1.00  0.00     0.087 C 
BRANCH  11  12
ATOM     12  C   UNL     1      21.996  31.728  35.988  1.00  0.00     0.066 C 
BRANCH  12  13
ATOM     13  C   UNL     1      23.060  31.113  36.884  1.00  0.00     0.140 C 
ATOM     14  O   UNL     1      23.739  31.831  37.605  1.00  0.00    -0.299 OA
BRANCH  13  15
ATOM     15  C   UNL     1      23.330  29.630  36.874  1.00  0.00     0.106 CG0
ATOM     16  G   UNL     1      22.548  28.930  37.969  1.00  0.00     0.000 G0
ENDBRANCH  13  15
ENDBRANCH  12  13
BRANCH  12  17
ATOM     17  C   UNL     1      22.498  33.026  35.285  1.00  0.00    -0.006 C 
ATOM     18  C   UNL     1      23.036  32.797  33.861  1.00  0.00     0.008 C 
ATOM     19  C   UNL     1      21.412  34.113  35.269  1.00  0.00     0.008 C 
ENDBRANCH  12  17
ENDBRANCH  11  12
ENDBRANCH   1  11
TORSDOF 1
ENDMDL
MODEL 3
REMARK VINA RESULT:    -3.848      1.496      1.792
REMARK INTER + INTRA:          -6.065
REMARK INTER:                  -5.847
REMARK INTRA:                  -0.218
REMARK UNBOUND:                -0.193
REMARK SMILES CC1=CCC[C@H](C)C(=O)C[C@@H](C(C)C)C(=O)C1
REMARK SMILES IDX 8 1 9 2 6 3 7 4 5 5 4 6 3 7 2 8 1 9 10 11 11 12 15 13 16 14
REMARK SMILES IDX 17 15 12 17 13 18 14 19
REMARK H PARENT
REMARK Flexibility Score: 70.00
ROOT
ATOM      1  C   UNL     1      22.908  30.085  36.635  1.00  0.00     0.136 C 
ATOM      2  O   UNL     1      23.622  29.227  36.135  1.00  0.00    -0.299 OA
ENDROOT
BRANCH   1   3
ATOM      3  C   UNL     1      23.211  31.550  36.399  1.00  0.00     0.053 C 
ATOM      4  C   UNL     1      24.700  31.809  36.659  1.00  0.00     0.016 C 
BRANCH   3   5
ATOM      5  C   UNL     1      22.834  31.990  34.966  1.00  0.00     0.015 C 
BRANCH   5   6
ATOM      6  C   UNL     1      21.575  32.868  34.912  1.00  0.00     0.028 C 
BRANCH   6   7
ATOM      7  C   UNL     1      21.419  33.680  36.176  1.00  0.00    -0.028 C 
ATOM      8  C   UNL     1      20.432  33.535  37.089  1.00  0.00    -0.070 CG0
ATOM      9  C   UNL     1      20.444  34.444  38.293  1.00  0.00     0.039 C 
ATOM     10  G   UNL     1      19.343  32.486  36.977  1.00  0.00     0.000 G0
ENDBRANCH   6   7
ENDBRANCH   5   6
ENDBRANCH   3   5
ENDBRANCH   1   3
BRANCH   1  11
ATOM     11  C   UNL     1      21.747  29.659  37.496  1.00  0.00     0.087 C 
BRANCH  11  12
ATOM     12  C   UNL     1      20.387  30.070  36.881  1.00  0.00     0.066 C 
BRANCH  12  13
ATOM     13  C   UNL     1      19.747  31.200  37.672  1.00  0.00     0.140 C 
ATOM     14  O   UNL     1      19.540  31.063  38.870  1.00  0.00    -0.299 OA
BRANCH  13  15
ATOM     15  C   UNL     1      19.319  32.481  37.003  1.00  0.00     0.106 CG0
ATOM     16  G   UNL     1      20.408  33.532  37.097  1.00  0.00     0.000 G0
ENDBRANCH  13  15
ENDBRANCH  12  13
BRANCH  12  17
ATOM     17  C   UNL     1      19.431  28.850  36.718  1.00  0.00    -0.006 C 
ATOM     18  C   UNL     1      18.440  28.985  35.548  1.00  0.00     0.008 C 
ATOM     19  C   UNL     1      20.215  27.534  36.596  1.00  0.00     0.008 C 
ENDBRANCH  12  17
ENDBRANCH  11  12
ENDBRANCH   1  11
TORSDOF 1
ENDMDL
MODEL 4
REMARK VINA RESULT:    -3.787      1.853      4.186
REMARK INTER + INTRA:          -5.973
REMARK INTER:                  -5.886
REMARK INTRA:                  -0.087
REMARK UNBOUND:                -0.193
REMARK SMILES CC1=CCC[C@H](C)C(=O)C[C@@H](C(C)C)C(=O)C1
REMARK SMILES IDX 8 1 9 2 6 3 7 4 5 5 4 6 3 7 2 8 1 9 10 11 11 12 15 13 16 14
REMARK SMILES IDX 17 15 12 17 13 18 14 19
REMARK H PARENT
REMARK Flexibility Score: 70.00
ROOT
ATOM      1  C   UNL     1      21.564  29.406  37.688  1.00  0.00     0.136 C 
ATOM      2  O   UNL     1      21.350  29.236  38.880  1.00  0.00    -0.299 OA
ENDROOT
BRANCH   1   3
ATOM      3  C   UNL     1      20.686  28.723  36.659  1.00  0.00     0.053 C 
ATOM      4  C   UNL     1      20.928  27.210  36.710  1.00  0.00     0.016 C 
BRANCH   3   5
ATOM      5  C   UNL     1      19.189  29.033  36.886  1.00  0.00     0.015 C 
BRANCH   5   6
ATOM      6  C   UNL     1      18.908  30.524  37.129  1.00  0.00     0.028 C 
BRANCH   6   7
ATOM      7  C   UNL     1      19.187  31.343  35.891  1.00  0.00    -0.028 C 
ATOM      8  C   UNL     1      19.940  32.466  35.841  1.00  0.00    -0.070 CG0
ATOM      9  C   UNL     1      20.103  33.148  34.505  1.00  0.00     0.039 C 
ATOM     10  G   UNL     1      20.650  33.046  37.049  1.00  0.00     0.000 G0
ENDBRANCH   6   7
ENDBRANCH   5   6
ENDBRANCH   3   5
ENDBRANCH   1   3
BRANCH   1  11
ATOM     11  C   UNL     1      22.716  30.283  37.270  1.00  0.00     0.087 C 
BRANCH  11  12
ATOM     12  C   UNL     1      22.681  31.661  37.976  1.00  0.00     0.066 C 
BRANCH  12  13
ATOM     13  C   UNL     1      22.126  32.735  37.054  1.00  0.00     0.140 C 
ATOM     14  O   UNL     1      22.883  33.360  36.323  1.00  0.00    -0.299 OA
BRANCH  13  15
ATOM     15  C   UNL     1      20.660  33.082  37.048  1.00  0.00     0.106 CG0
ATOM     16  G   UNL     1      19.961  32.463  35.852  1.00  0.00     0.000 G0
ENDBRANCH  13  15
ENDBRANCH  12  13
BRANCH  12  17
ATOM     17  C   UNL     1      24.072  32.048  38.562  1.00  0.00    -0.006 C 
ATOM     18  C   UNL     1      24.016  33.161  39.623  1.00  0.00     0.008 C 
ATOM     19  C   UNL     1      24.807  30.821  39.122  1.00  0.00     0.008 C 
ENDBRANCH  12  17
ENDBRANCH  11  12
ENDBRANCH   1  11
TORSDOF 1
ENDMDL
MODEL 5
REMARK VINA RESULT:    -3.767      1.575      3.752
REMARK INTER + INTRA:          -5.942
REMARK INTER:                  -6.040
REMARK INTRA:                   0.098
REMARK UNBOUND:                -0.193
REMARK SMILES CC1=CCC[C@H](C)C(=O)C[C@@H](C(C)C)C(=O)C1
REMARK SMILES IDX 8 1 9 2 6 3 7 4 5 5 4 6 3 7 2 8 1 9 10 11 11 12 15 13 16 14
REMARK SMILES IDX 17 15 12 17 13 18 14 19
REMARK H PARENT
REMARK Flexibility Score: 70.00
ROOT
ATOM      1  C   UNL     1      20.095  31.679  37.771  1.00  0.00     0.136 C 
ATOM      2  O   UNL     1      19.471  31.112  38.657  1.00  0.00    -0.299 OA
ENDROOT
BRANCH   1   3
ATOM      3  C   UNL     1      20.367  33.165  37.871  1.00  0.00     0.053 C 
ATOM      4  C   UNL     1      19.038  33.928  37.833  1.00  0.00     0.016 C 
BRANCH   3   5
ATOM      5  C   UNL     1      21.150  33.519  39.156  1.00  0.00     0.015 C 
BRANCH   5   6
ATOM      6  C   UNL     1      22.565  32.921  39.189  1.00  0.00     0.028 C 
BRANCH   6   7
ATOM      7  C   UNL     1      23.230  33.011  37.836  1.00  0.00    -0.028 C 
ATOM      8  C   UNL     1      23.745  31.971  37.140  1.00  0.00    -0.070 CG0
ATOM      9  C   UNL     1      24.372  32.261  35.799  1.00  0.00     0.039 C 
ATOM     10  G   UNL     1      23.690  30.536  37.626  1.00  0.00     0.000 G0
ENDBRANCH   6   7
ENDBRANCH   5   6
ENDBRANCH   3   5
ENDBRANCH   1   3
BRANCH   1  11
ATOM     11  C   UNL     1      20.565  30.879  36.583  1.00  0.00     0.087 C 
BRANCH  11  12
ATOM     12  C   UNL     1      21.297  29.583  37.009  1.00  0.00     0.066 C 
BRANCH  12  13
ATOM     13  C   UNL     1      22.791  29.687  36.749  1.00  0.00     0.140 C 
ATOM     14  O   UNL     1      23.295  29.052  35.833  1.00  0.00    -0.299 OA
BRANCH  13  15
ATOM     15  C   UNL     1      23.682  30.529  37.626  1.00  0.00     0.106 CG0
ATOM     16  G   UNL     1      23.750  31.957  37.118  1.00  0.00     0.000 G0
ENDBRANCH  13  15
ENDBRANCH  12  13
BRANCH  12  17
ATOM     17  C   UNL     1      20.670  28.318  36.348  1.00  0.00    -0.006 C 
ATOM     18  C   UNL     1      20.885  27.023  37.149  1.00  0.00     0.008 C 
ATOM     19  C   UNL     1      19.175  28.518  36.058  1.00  0.00     0.008 C 
ENDBRANCH  12  17
ENDBRANCH  11  12
ENDBRANCH   1  11
TORSDOF 1
ENDMDL
MODEL 6
REMARK VINA RESULT:    -3.760      1.854      4.061
REMARK INTER + INTRA:          -5.931
REMARK INTER:                  -6.059
REMARK INTRA:                   0.128
REMARK UNBOUND:                -0.193
REMARK SMILES CC1=CCC[C@H](C)C(=O)C[C@@H](C(C)C)C(=O)C1
REMARK SMILES IDX 8 1 9 2 6 3 7 4 5 5 4 6 3 7 2 8 1 9 10 11 11 12 15 13 16 14
REMARK SMILES IDX 17 15 12 17 13 18 14 19
REMARK H PARENT
REMARK Flexibility Score: 70.00
ROOT
ATOM      1  C   UNL     1      19.261  31.030  35.918  1.00  0.00     0.136 C 
ATOM      2  O   UNL     1      19.442  31.852  35.030  1.00  0.00    -0.299 OA
ENDROOT
BRANCH   1   3
ATOM      3  C   UNL     1      18.274  31.324  37.029  1.00  0.00     0.053 C 
ATOM      4  C   UNL     1      17.361  30.110  37.231  1.00  0.00     0.016 C 
BRANCH   3   5
ATOM      5  C   UNL     1      18.990  31.681  38.352  1.00  0.00     0.015 C 
BRANCH   5   6
ATOM      6  C   UNL     1      19.776  33.000  38.279  1.00  0.00     0.028 C 
BRANCH   6   7
ATOM      7  C   UNL     1      21.153  32.852  38.880  1.00  0.00    -0.028 C 
ATOM      8  C   UNL     1      22.265  32.458  38.217  1.00  0.00    -0.070 CG0
ATOM      9  C   UNL     1      23.556  32.370  38.992  1.00  0.00     0.039 C 
ATOM     10  G   UNL     1      22.279  32.139  36.735  1.00  0.00     0.000 G0
ENDBRANCH   6   7
ENDBRANCH   5   6
ENDBRANCH   3   5
ENDBRANCH   1   3
BRANCH   1  11
ATOM     11  C   UNL     1      20.046  29.744  35.893  1.00  0.00     0.087 C 
BRANCH  11  12
ATOM     12  C   UNL     1      21.195  29.747  36.930  1.00  0.00     0.066 C 
BRANCH  12  13
ATOM     13  C   UNL     1      22.335  30.649  36.483  1.00  0.00     0.140 C 
ATOM     14  O   UNL     1      23.318  30.164  35.940  1.00  0.00    -0.299 OA
BRANCH  13  15
ATOM     15  C   UNL     1      22.301  32.135  36.731  1.00  0.00     0.106 CG0
ATOM     16  G   UNL     1      22.251  32.436  38.216  1.00  0.00     0.000 G0
ENDBRANCH  13  15
ENDBRANCH  12  13
BRANCH  12  17
ATOM     17  C   UNL     1      21.682  28.303  37.261  1.00  0.00    -0.006 C 
ATOM     18  C   UNL     1      22.180  28.128  38.706  1.00  0.00     0.008 C 
ATOM     19  C   UNL     1      20.600  27.259  36.944  1.00  0.00     0.008 C 
ENDBRANCH  12  17
ENDBRANCH  11  12
ENDBRANCH   1  11
TORSDOF 1
ENDMDL
MODEL 7
REMARK VINA RESULT:    -3.677      2.383      3.919
REMARK INTER + INTRA:          -5.805
REMARK INTER:                  -5.691
REMARK INTRA:                  -0.114
REMARK UNBOUND:                -0.193
REMARK SMILES CC1=CCC[C@H](C)C(=O)C[C@@H](C(C)C)C(=O)C1
REMARK SMILES IDX 8 1 9 2 6 3 7 4 5 5 4 6 3 7 2 8 1 9 10 11 11 12 15 13 16 14
REMARK SMILES IDX 17 15 12 17 13 18 14 19
REMARK H PARENT
REMARK Flexibility Score: 70.00
ROOT
ATOM      1  C   UNL     1      22.877  28.701  39.649  1.00  0.00     0.136 C 
ATOM      2  O   UNL     1      22.050  27.802  39.718  1.00  0.00    -0.299 OA
ENDROOT
BRANCH   1   3
ATOM      3  C   UNL     1      24.162  28.609  40.445  1.00  0.00     0.053 C 
ATOM      4  C   UNL     1      23.996  27.566  41.556  1.00  0.00     0.016 C 
BRANCH   3   5
ATOM      5  C   UNL     1      25.367  28.247  39.547  1.00  0.00     0.015 C 
BRANCH   5   6
ATOM      6  C   UNL     1      26.324  29.426  39.313  1.00  0.00     0.028 C 
BRANCH   6   7
ATOM      7  C   UNL     1      26.719  29.532  37.859  1.00  0.00    -0.028 C 
ATOM      8  C   UNL     1      26.044  30.213  36.906  1.00  0.00    -0.070 CG0
ATOM      9  C   UNL     1      26.599  30.201  35.503  1.00  0.00     0.039 C 
ATOM     10  G   UNL     1      24.785  31.009  37.187  1.00  0.00     0.000 G0
ENDBRANCH   6   7
ENDBRANCH   5   6
ENDBRANCH   3   5
ENDBRANCH   1   3
BRANCH   1  11
ATOM     11  C   UNL     1      22.583  29.897  38.780  1.00  0.00     0.087 C 
BRANCH  11  12
ATOM     12  C   UNL     1      22.608  29.539  37.274  1.00  0.00     0.066 C 
BRANCH  12  13
ATOM     13  C   UNL     1      23.574  30.434  36.514  1.00  0.00     0.140 C 
ATOM     14  O   UNL     1      23.391  30.655  35.324  1.00  0.00    -0.299 OA
BRANCH  13  15
ATOM     15  C   UNL     1      24.786  31.027  37.184  1.00  0.00     0.106 CG0
ATOM     16  G   UNL     1      26.022  30.192  36.908  1.00  0.00     0.000 G0
ENDBRANCH  13  15
ENDBRANCH  12  13
BRANCH  12  17
ATOM     17  C   UNL     1      21.179  29.552  36.651  1.00  0.00    -0.006 C 
ATOM     18  C   UNL     1      20.490  28.176  36.641  1.00  0.00     0.008 C 
ATOM     19  C   UNL     1      20.276  30.589  37.336  1.00  0.00     0.008 C 
ENDBRANCH  12  17
ENDBRANCH  11  12
ENDBRANCH   1  11
TORSDOF 1
ENDMDL
MODEL 8
REMARK VINA RESULT:    -3.582      1.666      4.349
REMARK INTER + INTRA:          -5.660
REMARK INTER:                  -5.867
REMARK INTRA:                   0.207
REMARK UNBOUND:                -0.193
REMARK SMILES CC1=CCC[C@H](C)C(=O)C[C@@H](C(C)C)C(=O)C1
REMARK SMILES IDX 8 1 9 2 6 3 7 4 5 5 4 6 3 7 2 8 1 9 10 11 11 12 15 13 16 14
REMARK SMILES IDX 17 15 12 17 13 18 14 19
REMARK H PARENT
REMARK Flexibility Score: 70.00
ROOT
ATOM      1  C   UNL     1      21.557  29.288  37.938  1.00  0.00     0.136 C 
ATOM      2  O   UNL     1      20.987  29.841  38.868  1.00  0.00    -0.299 OA
ENDROOT
BRANCH   1   3
ATOM      3  C   UNL     1      20.898  29.232  36.576  1.00  0.00     0.053 C 
ATOM      4  C   UNL     1      19.825  28.137  36.575  1.00  0.00     0.016 C 
BRANCH   3   5
ATOM      5  C   UNL     1      20.275  30.592  36.184  1.00  0.00     0.015 C 
BRANCH   5   6
ATOM      6  C   UNL     1      21.174  31.791  36.524  1.00  0.00     0.028 C 
BRANCH   6   7
ATOM      7  C   UNL     1      22.148  32.080  35.407  1.00  0.00    -0.028 C 
ATOM      8  C   UNL     1      23.495  32.120  35.526  1.00  0.00    -0.070 CG0
ATOM      9  C   UNL     1      24.305  32.426  34.291  1.00  0.00     0.039 C 
ATOM     10  G   UNL     1      24.224  31.838  36.826  1.00  0.00     0.000 G0
ENDBRANCH   6   7
ENDBRANCH   5   6
ENDBRANCH   3   5
ENDBRANCH   1   3
BRANCH   1  11
ATOM     11  C   UNL     1      22.904  28.655  38.179  1.00  0.00     0.087 C 
BRANCH  11  12
ATOM     12  C   UNL     1      24.015  29.714  38.378  1.00  0.00     0.066 C 
BRANCH  12  13
ATOM     13  C   UNL     1      24.410  30.349  37.054  1.00  0.00     0.140 C 
ATOM     14  O   UNL     1      24.900  29.659  36.170  1.00  0.00    -0.299 OA
BRANCH  13  15
ATOM     15  C   UNL     1      24.253  31.829  36.817  1.00  0.00     0.106 CG0
ATOM     16  G   UNL     1      23.493  32.093  35.531  1.00  0.00     0.000 G0
ENDBRANCH  13  15
ENDBRANCH  12  13
BRANCH  12  17
ATOM     17  C   UNL     1      25.242  29.131  39.142  1.00  0.00    -0.006 C 
ATOM     18  C   UNL     1      26.278  30.190  39.560  1.00  0.00     0.008 C 
ATOM     19  C   UNL     1      24.805  28.309  40.364  1.00  0.00     0.008 C 
ENDBRANCH  12  17
ENDBRANCH  11  12
ENDBRANCH   1  11
TORSDOF 1
ENDMDL
MODEL 9
REMARK VINA RESULT:    -3.538      1.580      4.052
REMARK INTER + INTRA:          -5.593
REMARK INTER:                  -5.864
REMARK INTRA:                   0.270
REMARK UNBOUND:                -0.193
REMARK SMILES CC1=CCC[C@H](C)C(=O)C[C@@H](C(C)C)C(=O)C1
REMARK SMILES IDX 8 1 9 2 6 3 7 4 5 5 4 6 3 7 2 8 1 9 10 11 11 12 15 13 16 14
REMARK SMILES IDX 17 15 12 17 13 18 14 19
REMARK H PARENT
REMARK Flexibility Score: 70.00
ROOT
ATOM      1  C   UNL     1      22.164  28.669  38.213  1.00  0.00     0.136 C 
ATOM      2  O   UNL     1      21.736  28.410  39.330  1.00  0.00    -0.299 OA
ENDROOT
BRANCH   1   3
ATOM      3  C   UNL     1      21.240  28.594  37.016  1.00  0.00     0.053 C 
ATOM      4  C   UNL     1      20.627  27.192  36.934  1.00  0.00     0.016 C 
BRANCH   3   5
ATOM      5  C   UNL     1      20.125  29.663  37.084  1.00  0.00     0.015 C 
BRANCH   5   6
ATOM      6  C   UNL     1      20.469  30.949  36.319  1.00  0.00     0.028 C 
BRANCH   6   7
ATOM      7  C   UNL     1      20.694  32.106  37.263  1.00  0.00    -0.028 C 
ATOM      8  C   UNL     1      21.887  32.490  37.771  1.00  0.00    -0.070 CG0
ATOM      9  C   UNL     1      21.911  33.676  38.702  1.00  0.00     0.039 C 
ATOM     10  G   UNL     1      23.197  31.810  37.421  1.00  0.00     0.000 G0
ENDBRANCH   6   7
ENDBRANCH   5   6
ENDBRANCH   3   5
ENDBRANCH   1   3
BRANCH   1  11
ATOM     11  C   UNL     1      23.616  29.040  38.055  1.00  0.00     0.087 C 
BRANCH  11  12
ATOM     12  C   UNL     1      24.080  30.039  39.143  1.00  0.00     0.066 C 
BRANCH  12  13
ATOM     13  C   UNL     1      24.006  31.472  38.639  1.00  0.00     0.140 C 
ATOM     14  O   UNL     1      24.574  32.364  39.255  1.00  0.00    -0.299 OA
BRANCH  13  15
ATOM     15  C   UNL     1      23.208  31.830  37.413  1.00  0.00     0.106 CG0
ATOM     16  G   UNL     1      21.904  32.505  37.792  1.00  0.00     0.000 G0
ENDBRANCH  13  15
ENDBRANCH  12  13
BRANCH  12  17
ATOM     17  C   UNL     1      25.494  29.681  39.694  1.00  0.00    -0.006 C 
ATOM     18  C   UNL     1      25.505  28.474  40.648  1.00  0.00     0.008 C 
ATOM     19  C   UNL     1      26.502  29.464  38.555  1.00  0.00     0.008 C 
ENDBRANCH  12  17
ENDBRANCH  11  12
ENDBRANCH   1  11
TORSDOF 1
ENDMDL
