MODEL 1
REMARK VINA RESULT:    -3.822      0.000      0.000
REMARK INTER + INTRA:          -5.161
REMARK INTER:                  -5.385
REMARK INTRA:                   0.225
REMARK UNBOUND:                 0.225
REMARK SMILES CC1=CCC(=C(C)C)C(=O)CC(C)=CCC1
REMARK SMILES IDX 12 1 14 2 13 3 15 4 16 5 2 6 1 7 3 8 11 10 9 11 10 12 5 13
REMARK SMILES IDX 6 14 7 15 8 16 4 17
REMARK H PARENT
REMARK Flexibility Score: 60.00
ROOT
ATOM      1  C   UNL     1      31.818  70.952 106.430  1.00  0.00    -0.070 C 
ATOM      2  C   UNL     1      32.735  71.863 106.822  1.00  0.00    -0.027 C 
ATOM      3  C   UNL     1      30.365  71.250 106.701  1.00  0.00     0.039 C 
ENDROOT
BRANCH   2   4
ATOM      4  C   UNL     1      34.237  71.704 106.726  1.00  0.00     0.032 C 
BRANCH   4   5
ATOM      5  C   UNL     1      34.810  71.819 105.298  1.00  0.00     0.034 C 
BRANCH   5   6
ATOM      6  C   UNL     1      35.656  70.624 104.895  1.00  0.00    -0.077 C 
ATOM      7  C   UNL     1      36.928  70.374 105.665  1.00  0.00     0.039 C 
ATOM      8  C   UNL     1      35.378  69.810 103.848  1.00  0.00    -0.023 CG0
ATOM      9  G   UNL     1      34.157  69.858 102.951  1.00  0.00     0.000 G0
ENDBRANCH   5   6
ENDBRANCH   4   5
ENDBRANCH   2   4
BRANCH   1  10
ATOM     10  C   UNL     1      32.184  69.614 105.819  1.00  0.00     0.111 C 
BRANCH  10  11
ATOM     11  C   UNL     1      32.016  69.622 104.322  1.00  0.00     0.163 C 
ATOM     12  O   UNL     1      30.966  70.132 103.845  1.00  0.00    -0.294 OA
BRANCH  11  13
ATOM     13  C   UNL     1      33.012  68.999 103.401  1.00  0.00    -0.002 C 
ATOM     14  C   UNL     1      32.928  67.674 103.075  1.00  0.00    -0.069 C 
ATOM     15  C   UNL     1      31.746  66.833 103.504  1.00  0.00     0.039 C 
ATOM     16  C   UNL     1      34.007  66.977 102.274  1.00  0.00     0.039 C 
BRANCH  13  17
ATOM     17  C   UNL     1      34.161  69.872 102.925  1.00  0.00     0.066 CG0
ATOM     18  G   UNL     1      35.363  69.796 103.846  1.00  0.00     0.000 G0
ENDBRANCH  13  17
ENDBRANCH  11  13
ENDBRANCH  10  11
ENDBRANCH   1  10
TORSDOF 0
ENDMDL
MODEL 2
REMARK VINA RESULT:    -3.457      1.661      1.836
REMARK INTER + INTRA:          -4.647
REMARK INTER:                  -4.859
REMARK INTRA:                   0.212
REMARK UNBOUND:                 0.225
REMARK SMILES CC1=CCC(=C(C)C)C(=O)CC(C)=CCC1
REMARK SMILES IDX 12 1 14 2 13 3 15 4 16 5 2 6 1 7 3 8 11 10 9 11 10 12 5 13
REMARK SMILES IDX 6 14 7 15 8 16 4 17
REMARK H PARENT
REMARK Flexibility Score: 60.00
ROOT
ATOM      1  C   UNL     1      31.290  70.946 106.260  1.00  0.00    -0.070 C 
ATOM      2  C   UNL     1      32.276  71.737 106.735  1.00  0.00    -0.027 C 
ATOM      3  C   UNL     1      30.003  70.874 107.042  1.00  0.00     0.039 C 
ENDROOT
BRANCH   2   4
ATOM      4  C   UNL     1      33.666  71.867 106.149  1.00  0.00     0.032 C 
BRANCH   4   5
ATOM      5  C   UNL     1      34.743  71.002 106.837  1.00  0.00     0.034 C 
BRANCH   5   6
ATOM      6  C   UNL     1      35.548  70.163 105.860  1.00  0.00    -0.077 C 
ATOM      7  C   UNL     1      36.737  70.811 105.194  1.00  0.00     0.039 C 
ATOM      8  C   UNL     1      35.230  68.897 105.496  1.00  0.00    -0.023 CG0
ATOM      9  G   UNL     1      34.101  68.045 106.042  1.00  0.00     0.000 G0
ENDBRANCH   5   6
ENDBRANCH   4   5
ENDBRANCH   2   4
BRANCH   1  10
ATOM     10  C   UNL     1      31.448  70.065 105.037  1.00  0.00     0.111 C 
BRANCH  10  11
ATOM     11  C   UNL     1      31.675  68.625 105.415  1.00  0.00     0.163 C 
ATOM     12  O   UNL     1      30.781  68.039 106.085  1.00  0.00    -0.294 OA
BRANCH  11  13
ATOM     13  C   UNL     1      32.934  67.897 105.081  1.00  0.00    -0.002 C 
ATOM     14  C   UNL     1      32.998  67.074 103.990  1.00  0.00    -0.069 C 
ATOM     15  C   UNL     1      31.855  66.993 103.000  1.00  0.00     0.039 C 
ATOM     16  C   UNL     1      34.203  66.202 103.714  1.00  0.00     0.039 C 
BRANCH  13  17
ATOM     17  C   UNL     1      34.097  68.037 106.050  1.00  0.00     0.066 CG0
ATOM     18  G   UNL     1      35.222  68.881 105.483  1.00  0.00     0.000 G0
ENDBRANCH  13  17
ENDBRANCH  11  13
ENDBRANCH  10  11
ENDBRANCH   1  10
TORSDOF 0
ENDMDL
MODEL 3
REMARK VINA RESULT:    -3.302      2.703      5.445
REMARK INTER + INTRA:          -4.428
REMARK INTER:                  -4.927
REMARK INTRA:                   0.499
REMARK UNBOUND:                 0.225
REMARK SMILES CC1=CCC(=C(C)C)C(=O)CC(C)=CCC1
REMARK SMILES IDX 12 1 14 2 13 3 15 4 16 5 2 6 1 7 3 8 11 10 9 11 10 12 5 13
REMARK SMILES IDX 6 14 7 15 8 16 4 17
REMARK H PARENT
REMARK Flexibility Score: 60.00
ROOT
ATOM      1  C   UNL     1      32.198  68.829 103.664  1.00  0.00    -0.070 C 
ATOM      2  C   UNL     1      31.745  67.556 103.649  1.00  0.00    -0.027 C 
ATOM      3  C   UNL     1      33.630  69.073 103.260  1.00  0.00     0.039 C 
ENDROOT
BRANCH   2   4
ATOM      4  C   UNL     1      30.377  67.099 104.108  1.00  0.00     0.032 C 
BRANCH   4   5
ATOM      5  C   UNL     1      30.386  66.147 105.322  1.00  0.00     0.034 C 
BRANCH   5   6
ATOM      6  C   UNL     1      29.990  66.829 106.619  1.00  0.00    -0.077 C 
ATOM      7  C   UNL     1      28.594  66.593 107.139  1.00  0.00     0.039 C 
ATOM      8  C   UNL     1      30.783  67.688 107.304  1.00  0.00    -0.023 CG0
ATOM      9  G   UNL     1      32.218  68.061 106.984  1.00  0.00     0.000 G0
ENDBRANCH   5   6
ENDBRANCH   4   5
ENDBRANCH   2   4
BRANCH   1  10
ATOM     10  C   UNL     1      31.369  70.000 104.151  1.00  0.00     0.111 C 
BRANCH  10  11
ATOM     11  C   UNL     1      31.331  70.067 105.655  1.00  0.00     0.163 C 
ATOM     12  O   UNL     1      30.371  70.678 106.198  1.00  0.00    -0.294 OA
BRANCH  11  13
ATOM     13  C   UNL     1      32.412  69.495 106.510  1.00  0.00    -0.002 C 
ATOM     14  C   UNL     1      33.543  70.214 106.782  1.00  0.00    -0.069 C 
ATOM     15  C   UNL     1      33.673  71.662 106.361  1.00  0.00     0.039 C 
ATOM     16  C   UNL     1      34.723  69.607 107.510  1.00  0.00     0.039 C 
BRANCH  13  17
ATOM     17  C   UNL     1      32.242  68.059 106.980  1.00  0.00     0.066 CG0
ATOM     18  G   UNL     1      30.798  67.726 107.303  1.00  0.00     0.000 G0
ENDBRANCH  13  17
ENDBRANCH  11  13
ENDBRANCH  10  11
ENDBRANCH   1  10
TORSDOF 0
ENDMDL
MODEL 4
REMARK VINA RESULT:    -3.161      2.138      5.178
REMARK INTER + INTRA:          -4.229
REMARK INTER:                  -4.686
REMARK INTRA:                   0.457
REMARK UNBOUND:                 0.225
REMARK SMILES CC1=CCC(=C(C)C)C(=O)CC(C)=CCC1
REMARK SMILES IDX 12 1 14 2 13 3 15 4 16 5 2 6 1 7 3 8 11 10 9 11 10 12 5 13
REMARK SMILES IDX 6 14 7 15 8 16 4 17
REMARK H PARENT
REMARK Flexibility Score: 60.00
ROOT
ATOM      1  C   UNL     1      34.353  69.175 103.803  1.00  0.00    -0.070 C 
ATOM      2  C   UNL     1      33.658  68.540 102.835  1.00  0.00    -0.027 C 
ATOM      3  C   UNL     1      34.897  70.547 103.497  1.00  0.00     0.039 C 
ENDROOT
BRANCH   2   4
ATOM      4  C   UNL     1      33.117  67.128 102.916  1.00  0.00     0.032 C 
BRANCH   4   5
ATOM      5  C   UNL     1      31.587  67.029 103.087  1.00  0.00     0.034 C 
BRANCH   5   6
ATOM      6  C   UNL     1      31.161  66.801 104.526  1.00  0.00    -0.077 C 
ATOM      7  C   UNL     1      30.869  65.385 104.956  1.00  0.00     0.039 C 
ATOM      8  C   UNL     1      30.961  67.791 105.430  1.00  0.00    -0.023 CG0
ATOM      9  G   UNL     1      31.207  69.274 105.231  1.00  0.00     0.000 G0
ENDBRANCH   5   6
ENDBRANCH   4   5
ENDBRANCH   2   4
BRANCH   1  10
ATOM     10  C   UNL     1      34.686  68.542 105.139  1.00  0.00     0.111 C 
BRANCH  10  11
ATOM     11  C   UNL     1      33.576  68.733 106.138  1.00  0.00     0.163 C 
ATOM     12  O   UNL     1      33.542  67.971 107.142  1.00  0.00    -0.294 OA
BRANCH  11  13
ATOM     13  C   UNL     1      32.493  69.743 105.949  1.00  0.00    -0.002 C 
ATOM     14  C   UNL     1      32.617  71.005 106.460  1.00  0.00    -0.069 C 
ATOM     15  C   UNL     1      33.910  71.472 107.094  1.00  0.00     0.039 C 
ATOM     16  C   UNL     1      31.477  72.000 106.425  1.00  0.00     0.039 C 
BRANCH  13  17
ATOM     17  C   UNL     1      31.223  69.280 105.255  1.00  0.00     0.066 CG0
ATOM     18  G   UNL     1      30.972  67.796 105.441  1.00  0.00     0.000 G0
ENDBRANCH  13  17
ENDBRANCH  11  13
ENDBRANCH  10  11
ENDBRANCH   1  10
TORSDOF 0
ENDMDL
MODEL 5
REMARK VINA RESULT:    -3.137      2.211      4.378
REMARK INTER + INTRA:          -4.196
REMARK INTER:                  -4.333
REMARK INTRA:                   0.137
REMARK UNBOUND:                 0.225
REMARK SMILES CC1=CCC(=C(C)C)C(=O)CC(C)=CCC1
REMARK SMILES IDX 12 1 14 2 13 3 15 4 16 5 2 6 1 7 3 8 11 10 9 11 10 12 5 13
REMARK SMILES IDX 6 14 7 15 8 16 4 17
REMARK H PARENT
REMARK Flexibility Score: 60.00
ROOT
ATOM      1  C   UNL     1      29.878  69.047 107.139  1.00  0.00    -0.070 C 
ATOM      2  C   UNL     1      29.278  67.837 107.147  1.00  0.00    -0.027 C 
ATOM      3  C   UNL     1      29.037  70.254 107.469  1.00  0.00     0.039 C 
ENDROOT
BRANCH   2   4
ATOM      4  C   UNL     1      29.925  66.527 106.752  1.00  0.00     0.032 C 
BRANCH   4   5
ATOM      5  C   UNL     1      29.891  66.217 105.241  1.00  0.00     0.034 C 
BRANCH   5   6
ATOM      6  C   UNL     1      31.252  65.852 104.676  1.00  0.00    -0.077 C 
ATOM      7  C   UNL     1      31.816  64.497 105.025  1.00  0.00     0.039 C 
ATOM      8  C   UNL     1      32.022  66.687 103.937  1.00  0.00    -0.023 CG0
ATOM      9  G   UNL     1      31.658  68.077 103.452  1.00  0.00     0.000 G0
ENDBRANCH   5   6
ENDBRANCH   4   5
ENDBRANCH   2   4
BRANCH   1  10
ATOM     10  C   UNL     1      31.321  69.256 106.728  1.00  0.00     0.111 C 
BRANCH  10  11
ATOM     11  C   UNL     1      31.427  69.821 105.336  1.00  0.00     0.163 C 
ATOM     12  O   UNL     1      30.724  70.827 105.048  1.00  0.00    -0.294 OA
BRANCH  11  13
ATOM     13  C   UNL     1      32.280  69.198 104.281  1.00  0.00    -0.002 C 
ATOM     14  C   UNL     1      33.538  69.671 104.030  1.00  0.00    -0.069 C 
ATOM     15  C   UNL     1      34.169  70.729 104.909  1.00  0.00     0.039 C 
ATOM     16  C   UNL     1      34.365  69.168 102.867  1.00  0.00     0.039 C 
BRANCH  13  17
ATOM     17  C   UNL     1      31.656  68.092 103.446  1.00  0.00     0.066 CG0
ATOM     18  G   UNL     1      32.024  66.710 103.952  1.00  0.00     0.000 G0
ENDBRANCH  13  17
ENDBRANCH  11  13
ENDBRANCH  10  11
ENDBRANCH   1  10
TORSDOF 0
ENDMDL
MODEL 6
REMARK VINA RESULT:    -3.120      9.588     11.443
REMARK INTER + INTRA:          -4.172
REMARK INTER:                  -4.701
REMARK INTRA:                   0.528
REMARK UNBOUND:                 0.225
REMARK SMILES CC1=CCC(=C(C)C)C(=O)CC(C)=CCC1
REMARK SMILES IDX 12 1 14 2 13 3 15 4 16 5 2 6 1 7 3 8 11 10 9 11 10 12 5 13
REMARK SMILES IDX 6 14 7 15 8 16 4 17
REMARK H PARENT
REMARK Flexibility Score: 60.00
ROOT
ATOM      1  C   UNL     1      25.138  71.650 109.346  1.00  0.00    -0.070 C 
ATOM      2  C   UNL     1      24.153  70.754 109.120  1.00  0.00    -0.027 C 
ATOM      3  C   UNL     1      25.547  71.904 110.775  1.00  0.00     0.039 C 
ENDROOT
BRANCH   2   4
ATOM      4  C   UNL     1      23.541  70.434 107.773  1.00  0.00     0.032 C 
BRANCH   4   5
ATOM      5  C   UNL     1      22.077  70.891 107.601  1.00  0.00     0.034 C 
BRANCH   5   6
ATOM      6  C   UNL     1      21.808  72.263 108.192  1.00  0.00    -0.077 C 
ATOM      7  C   UNL     1      20.978  72.335 109.449  1.00  0.00     0.039 C 
ATOM      8  C   UNL     1      22.205  73.429 107.627  1.00  0.00    -0.023 CG0
ATOM      9  G   UNL     1      23.056  73.601 106.385  1.00  0.00     0.000 G0
ENDBRANCH   5   6
ENDBRANCH   4   5
ENDBRANCH   2   4
BRANCH   1  10
ATOM     10  C   UNL     1      25.782  72.472 108.248  1.00  0.00     0.111 C 
BRANCH  10  11
ATOM     11  C   UNL     1      25.035  73.756 108.004  1.00  0.00     0.163 C 
ATOM     12  O   UNL     1      24.854  74.533 108.980  1.00  0.00    -0.294 OA
BRANCH  11  13
ATOM     13  C   UNL     1      24.455  74.105 106.673  1.00  0.00    -0.002 C 
ATOM     14  C   UNL     1      25.138  74.905 105.801  1.00  0.00    -0.069 C 
ATOM     15  C   UNL     1      26.562  75.336 106.080  1.00  0.00     0.039 C 
ATOM     16  C   UNL     1      24.514  75.406 104.516  1.00  0.00     0.039 C 
BRANCH  13  17
ATOM     17  C   UNL     1      23.047  73.613 106.377  1.00  0.00     0.066 CG0
ATOM     18  G   UNL     1      22.224  73.426 107.637  1.00  0.00     0.000 G0
ENDBRANCH  13  17
ENDBRANCH  11  13
ENDBRANCH  10  11
ENDBRANCH   1  10
TORSDOF 0
ENDMDL
MODEL 7
REMARK VINA RESULT:    -3.100      3.302      5.211
REMARK INTER + INTRA:          -4.144
REMARK INTER:                  -4.277
REMARK INTRA:                   0.132
REMARK UNBOUND:                 0.225
REMARK SMILES CC1=CCC(=C(C)C)C(=O)CC(C)=CCC1
REMARK SMILES IDX 12 1 14 2 13 3 15 4 16 5 2 6 1 7 3 8 11 10 9 11 10 12 5 13
REMARK SMILES IDX 6 14 7 15 8 16 4 17
REMARK H PARENT
REMARK Flexibility Score: 60.00
ROOT
ATOM      1  C   UNL     1      35.374  71.114 106.458  1.00  0.00    -0.070 C 
ATOM      2  C   UNL     1      34.436  71.740 105.713  1.00  0.00    -0.027 C 
ATOM      3  C   UNL     1      36.793  71.109 105.948  1.00  0.00     0.039 C 
ENDROOT
BRANCH   2   4
ATOM      4  C   UNL     1      32.951  71.772 106.005  1.00  0.00     0.032 C 
BRANCH   4   5
ATOM      5  C   UNL     1      32.184  70.497 105.598  1.00  0.00     0.034 C 
BRANCH   5   6
ATOM      6  C   UNL     1      31.291  69.959 106.702  1.00  0.00    -0.077 C 
ATOM      7  C   UNL     1      30.113  70.802 107.125  1.00  0.00     0.039 C 
ATOM      8  C   UNL     1      31.521  68.808 107.379  1.00  0.00    -0.023 CG0
ATOM      9  G   UNL     1      32.623  67.800 107.119  1.00  0.00     0.000 G0
ENDBRANCH   5   6
ENDBRANCH   4   5
ENDBRANCH   2   4
BRANCH   1  10
ATOM     10  C   UNL     1      35.053  70.345 107.723  1.00  0.00     0.111 C 
BRANCH  10  11
ATOM     11  C   UNL     1      34.946  68.866 107.462  1.00  0.00     0.163 C 
ATOM     12  O   UNL     1      35.794  68.335 106.696  1.00  0.00    -0.294 OA
BRANCH  11  13
ATOM     13  C   UNL     1      33.844  68.030 108.025  1.00  0.00    -0.002 C 
ATOM     14  C   UNL     1      33.972  67.439 109.251  1.00  0.00    -0.069 C 
ATOM     15  C   UNL     1      35.157  67.734 110.146  1.00  0.00     0.039 C 
ATOM     16  C   UNL     1      32.945  66.461 109.780  1.00  0.00     0.039 C 
BRANCH  13  17
ATOM     17  C   UNL     1      32.630  67.793 107.142  1.00  0.00     0.066 CG0
ATOM     18  G   UNL     1      31.535  68.814 107.381  1.00  0.00     0.000 G0
ENDBRANCH  13  17
ENDBRANCH  11  13
ENDBRANCH  10  11
ENDBRANCH   1  10
TORSDOF 0
ENDMDL
MODEL 8
REMARK VINA RESULT:    -3.097      1.866      3.916
REMARK INTER + INTRA:          -4.140
REMARK INTER:                  -4.428
REMARK INTRA:                   0.289
REMARK UNBOUND:                 0.225
REMARK SMILES CC1=CCC(=C(C)C)C(=O)CC(C)=CCC1
REMARK SMILES IDX 12 1 14 2 13 3 15 4 16 5 2 6 1 7 3 8 11 10 9 11 10 12 5 13
REMARK SMILES IDX 6 14 7 15 8 16 4 17
REMARK H PARENT
REMARK Flexibility Score: 60.00
ROOT
ATOM      1  C   UNL     1      35.502  68.455 104.133  1.00  0.00    -0.070 C 
ATOM      2  C   UNL     1      36.452  69.382 104.379  1.00  0.00    -0.027 C 
ATOM      3  C   UNL     1      35.627  67.632 102.875  1.00  0.00     0.039 C 
ENDROOT
BRANCH   2   4
ATOM      4  C   UNL     1      36.451  70.365 105.530  1.00  0.00     0.032 C 
BRANCH   4   5
ATOM      5  C   UNL     1      35.473  71.548 105.371  1.00  0.00     0.034 C 
BRANCH   5   6
ATOM      6  C   UNL     1      34.701  71.860 106.641  1.00  0.00    -0.077 C 
ATOM      7  C   UNL     1      35.490  72.275 107.858  1.00  0.00     0.039 C 
ATOM      8  C   UNL     1      33.360  71.724 106.772  1.00  0.00    -0.023 CG0
ATOM      9  G   UNL     1      32.369  71.341 105.690  1.00  0.00     0.000 G0
ENDBRANCH   5   6
ENDBRANCH   4   5
ENDBRANCH   2   4
BRANCH   1  10
ATOM     10  C   UNL     1      34.278  68.267 105.006  1.00  0.00     0.111 C 
BRANCH  10  11
ATOM     11  C   UNL     1      33.138  69.146 104.562  1.00  0.00     0.163 C 
ATOM     12  O   UNL     1      32.991  69.349 103.326  1.00  0.00    -0.294 OA
BRANCH  11  13
ATOM     13  C   UNL     1      32.226  69.825 105.529  1.00  0.00    -0.002 C 
ATOM     14  C   UNL     1      31.250  69.124 106.180  1.00  0.00    -0.069 C 
ATOM     15  C   UNL     1      31.157  67.618 106.068  1.00  0.00     0.039 C 
ATOM     16  C   UNL     1      30.211  69.809 107.043  1.00  0.00     0.039 C 
BRANCH  13  17
ATOM     17  C   UNL     1      32.370  71.331 105.681  1.00  0.00     0.066 CG0
ATOM     18  G   UNL     1      33.336  71.709 106.788  1.00  0.00     0.000 G0
ENDBRANCH  13  17
ENDBRANCH  11  13
ENDBRANCH  10  11
ENDBRANCH   1  10
TORSDOF 0
ENDMDL
MODEL 9
REMARK VINA RESULT:    -2.991      2.461      3.411
REMARK INTER + INTRA:          -3.990
REMARK INTER:                  -4.242
REMARK INTRA:                   0.252
REMARK UNBOUND:                 0.225
REMARK SMILES CC1=CCC(=C(C)C)C(=O)CC(C)=CCC1
REMARK SMILES IDX 12 1 14 2 13 3 15 4 16 5 2 6 1 7 3 8 11 10 9 11 10 12 5 13
REMARK SMILES IDX 6 14 7 15 8 16 4 17
REMARK H PARENT
REMARK Flexibility Score: 60.00
ROOT
ATOM      1  C   UNL     1      29.741  67.335 107.035  1.00  0.00    -0.070 C 
ATOM      2  C   UNL     1      29.618  68.633 107.388  1.00  0.00    -0.027 C 
ATOM      3  C   UNL     1      28.532  66.445 107.185  1.00  0.00     0.039 C 
ENDROOT
BRANCH   2   4
ATOM      4  C   UNL     1      30.735  69.655 107.400  1.00  0.00     0.032 C 
BRANCH   4   5
ATOM      5  C   UNL     1      30.957  70.388 106.061  1.00  0.00     0.034 C 
BRANCH   5   6
ATOM      6  C   UNL     1      32.395  70.328 105.579  1.00  0.00    -0.077 C 
ATOM      7  C   UNL     1      33.392  71.253 106.231  1.00  0.00     0.039 C 
ATOM      8  C   UNL     1      32.827  69.550 104.557  1.00  0.00    -0.023 CG0
ATOM      9  G   UNL     1      32.016  68.537 103.773  1.00  0.00     0.000 G0
ENDBRANCH   5   6
ENDBRANCH   4   5
ENDBRANCH   2   4
BRANCH   1  10
ATOM     10  C   UNL     1      31.048  66.716 106.584  1.00  0.00     0.111 C 
BRANCH  10  11
ATOM     11  C   UNL     1      31.094  66.538 105.089  1.00  0.00     0.163 C 
ATOM     12  O   UNL     1      30.198  65.836 104.547  1.00  0.00    -0.294 OA
BRANCH  11  13
ATOM     13  C   UNL     1      32.186  67.109 104.248  1.00  0.00    -0.002 C 
ATOM     14  C   UNL     1      33.330  66.398 104.011  1.00  0.00    -0.069 C 
ATOM     15  C   UNL     1      33.466  64.958 104.455  1.00  0.00     0.039 C 
ATOM     16  C   UNL     1      34.518  67.007 103.297  1.00  0.00     0.039 C 
BRANCH  13  17
ATOM     17  C   UNL     1      32.010  68.536 103.753  1.00  0.00     0.066 CG0
ATOM     18  G   UNL     1      32.817  69.531 104.563  1.00  0.00     0.000 G0
ENDBRANCH  13  17
ENDBRANCH  11  13
ENDBRANCH  10  11
ENDBRANCH   1  10
TORSDOF 0
ENDMDL
