MODEL 1
REMARK VINA RESULT:    -5.388      0.000      0.000
REMARK INTER + INTRA:          -6.083
REMARK INTER:                  -6.018
REMARK INTRA:                  -0.065
REMARK UNBOUND:                -0.065
REMARK SMILES COc1cc2ccc(=O)oc2c(O)c1O
REMARK SMILES IDX 3 1 14 2 12 3 11 4 5 5 4 6 6 7 7 8 8 9 9 10 10 11 2 12 1 13
REMARK SMILES IDX 15 14 13 16
REMARK H PARENT 15 15 13 17
REMARK Flexibility Score: inf
ROOT
ATOM      1  C   UNL     1      21.107  46.208  43.645  1.00  0.00     0.165 A 
ATOM      2  C   UNL     1      19.978  46.334  42.811  1.00  0.00     0.204 A 
ATOM      3  C   UNL     1      19.145  47.464  42.912  1.00  0.00     0.205 A 
ATOM      4  C   UNL     1      19.438  48.469  43.842  1.00  0.00     0.184 A 
ATOM      5  C   UNL     1      20.568  48.346  44.679  1.00  0.00     0.025 A 
ATOM      6  C   UNL     1      21.395  47.221  44.579  1.00  0.00     0.062 A 
ATOM      7  C   UNL     1      20.832  49.367  45.597  1.00  0.00     0.020 A 
ATOM      8  C   UNL     1      19.980  50.469  45.662  1.00  0.00     0.094 A 
ATOM      9  C   UNL     1      18.879  50.523  44.802  1.00  0.00     0.336 A 
ATOM     10  O   UNL     1      18.097  51.509  44.844  1.00  0.00    -0.246 OA
ATOM     11  O   UNL     1      18.651  49.539  43.937  1.00  0.00    -0.419 OA
ENDROOT
BRANCH   1  12
ATOM     12  O   UNL     1      21.915  45.066  43.518  1.00  0.00    -0.493 OA
ATOM     13  C   UNL     1      22.086  44.078  44.529  1.00  0.00     0.278 C 
ENDBRANCH   1  12
BRANCH   2  14
ATOM     14  O   UNL     1      19.671  45.342  41.878  1.00  0.00    -0.502 OA
ATOM     15  H   UNL     1      18.718  45.067  41.673  1.00  0.00     0.293 HD
ENDBRANCH   2  14
BRANCH   3  16
ATOM     16  O   UNL     1      18.024  47.604  42.093  1.00  0.00    -0.502 OA
ATOM     17  H   UNL     1      17.169  47.085  42.256  1.00  0.00     0.293 HD
ENDBRANCH   3  16
TORSDOF 3
ENDMDL
MODEL 2
REMARK VINA RESULT:    -5.310      1.386      4.642
REMARK INTER + INTRA:          -5.996
REMARK INTER:                  -5.947
REMARK INTRA:                  -0.049
REMARK UNBOUND:                -0.065
REMARK SMILES COc1cc2ccc(=O)oc2c(O)c1O
REMARK SMILES IDX 3 1 14 2 12 3 11 4 5 5 4 6 6 7 7 8 8 9 9 10 10 11 2 12 1 13
REMARK SMILES IDX 15 14 13 16
REMARK H PARENT 15 15 13 17
REMARK Flexibility Score: inf
ROOT
ATOM      1  C   UNL     1      20.434  50.015  45.991  1.00  0.00     0.165 A 
ATOM      2  C   UNL     1      19.437  50.432  45.086  1.00  0.00     0.204 A 
ATOM      3  C   UNL     1      19.046  49.592  44.027  1.00  0.00     0.205 A 
ATOM      4  C   UNL     1      19.646  48.337  43.870  1.00  0.00     0.184 A 
ATOM      5  C   UNL     1      20.644  47.916  44.774  1.00  0.00     0.025 A 
ATOM      6  C   UNL     1      21.034  48.752  45.828  1.00  0.00     0.062 A 
ATOM      7  C   UNL     1      21.223  46.656  44.589  1.00  0.00     0.020 A 
ATOM      8  C   UNL     1      20.804  45.858  43.526  1.00  0.00     0.094 A 
ATOM      9  C   UNL     1      19.809  46.340  42.670  1.00  0.00     0.336 A 
ATOM     10  O   UNL     1      19.416  45.636  41.704  1.00  0.00    -0.246 OA
ATOM     11  O   UNL     1      19.275  47.542  42.869  1.00  0.00    -0.419 OA
ENDROOT
BRANCH   1  12
ATOM     12  O   UNL     1      20.801  50.879  47.036  1.00  0.00    -0.493 OA
ATOM     13  C   UNL     1      21.761  50.572  48.041  1.00  0.00     0.278 C 
ENDBRANCH   1  12
BRANCH   2  14
ATOM     14  O   UNL     1      18.829  51.680  45.227  1.00  0.00    -0.502 OA
ATOM     15  H   UNL     1      18.727  52.324  44.454  1.00  0.00     0.293 HD
ENDBRANCH   2  14
BRANCH   3  16
ATOM     16  O   UNL     1      18.061  49.990  43.123  1.00  0.00    -0.502 OA
ATOM     17  H   UNL     1      18.276  50.238  42.164  1.00  0.00     0.293 HD
ENDBRANCH   3  16
TORSDOF 3
ENDMDL
MODEL 3
REMARK VINA RESULT:    -5.167      2.807      5.083
REMARK INTER + INTRA:          -5.836
REMARK INTER:                  -5.774
REMARK INTRA:                  -0.062
REMARK UNBOUND:                -0.065
REMARK SMILES COc1cc2ccc(=O)oc2c(O)c1O
REMARK SMILES IDX 3 1 14 2 12 3 11 4 5 5 4 6 6 7 7 8 8 9 9 10 10 11 2 12 1 13
REMARK SMILES IDX 15 14 13 16
REMARK H PARENT 15 15 13 17
REMARK Flexibility Score: inf
ROOT
ATOM      1  C   UNL     1      20.575  49.561  47.481  1.00  0.00     0.165 A 
ATOM      2  C   UNL     1      19.707  48.491  47.778  1.00  0.00     0.204 A 
ATOM      3  C   UNL     1      19.475  47.482  46.825  1.00  0.00     0.205 A 
ATOM      4  C   UNL     1      20.107  47.538  45.577  1.00  0.00     0.184 A 
ATOM      5  C   UNL     1      20.976  48.609  45.276  1.00  0.00     0.025 A 
ATOM      6  C   UNL     1      21.207  49.612  46.224  1.00  0.00     0.062 A 
ATOM      7  C   UNL     1      21.591  48.635  44.019  1.00  0.00     0.020 A 
ATOM      8  C   UNL     1      21.331  47.614  43.107  1.00  0.00     0.094 A 
ATOM      9  C   UNL     1      20.458  46.585  43.474  1.00  0.00     0.336 A 
ATOM     10  O   UNL     1      20.210  45.653  42.665  1.00  0.00    -0.246 OA
ATOM     11  O   UNL     1      19.887  46.583  44.675  1.00  0.00    -0.419 OA
ENDROOT
BRANCH   1  12
ATOM     12  O   UNL     1      20.783  50.551  48.456  1.00  0.00    -0.493 OA
ATOM     13  C   UNL     1      21.839  50.537  49.410  1.00  0.00     0.278 C 
ENDBRANCH   1  12
BRANCH   2  14
ATOM     14  O   UNL     1      19.069  48.418  49.017  1.00  0.00    -0.502 OA
ATOM     15  H   UNL     1      18.064  48.496  49.115  1.00  0.00     0.293 HD
ENDBRANCH   2  14
BRANCH   3  16
ATOM     16  O   UNL     1      18.619  46.416  47.104  1.00  0.00    -0.502 OA
ATOM     17  H   UNL     1      18.274  45.796  46.379  1.00  0.00     0.293 HD
ENDBRANCH   3  16
TORSDOF 3
ENDMDL
MODEL 4
REMARK VINA RESULT:    -5.150      4.278      5.879
REMARK INTER + INTRA:          -5.818
REMARK INTER:                  -5.768
REMARK INTRA:                  -0.050
REMARK UNBOUND:                -0.065
REMARK SMILES COc1cc2ccc(=O)oc2c(O)c1O
REMARK SMILES IDX 3 1 14 2 12 3 11 4 5 5 4 6 6 7 7 8 8 9 9 10 10 11 2 12 1 13
REMARK SMILES IDX 15 14 13 16
REMARK H PARENT 15 15 13 17
REMARK Flexibility Score: inf
ROOT
ATOM      1  C   UNL     1      16.114  49.581  45.978  1.00  0.00     0.165 A 
ATOM      2  C   UNL     1      17.403  50.135  45.845  1.00  0.00     0.204 A 
ATOM      3  C   UNL     1      17.895  50.490  44.575  1.00  0.00     0.205 A 
ATOM      4  C   UNL     1      17.102  50.295  43.438  1.00  0.00     0.184 A 
ATOM      5  C   UNL     1      15.811  49.740  43.566  1.00  0.00     0.025 A 
ATOM      6  C   UNL     1      15.323  49.386  44.830  1.00  0.00     0.062 A 
ATOM      7  C   UNL     1      15.045  49.557  42.410  1.00  0.00     0.020 A 
ATOM      8  C   UNL     1      15.574  49.924  41.173  1.00  0.00     0.094 A 
ATOM      9  C   UNL     1      16.861  50.468  41.121  1.00  0.00     0.336 A 
ATOM     10  O   UNL     1      17.356  50.806  40.015  1.00  0.00    -0.246 OA
ATOM     11  O   UNL     1      17.567  50.631  42.237  1.00  0.00    -0.419 OA
ENDROOT
BRANCH   1  12
ATOM     12  O   UNL     1      15.656  49.237  47.260  1.00  0.00    -0.493 OA
ATOM     13  C   UNL     1      14.575  48.349  47.522  1.00  0.00     0.278 C 
ENDBRANCH   1  12
BRANCH   2  14
ATOM     14  O   UNL     1      18.207  50.337  46.968  1.00  0.00    -0.502 OA
ATOM     15  H   UNL     1      17.864  50.791  47.806  1.00  0.00     0.293 HD
ENDBRANCH   2  14
BRANCH   3  16
ATOM     16  O   UNL     1      19.169  51.040  44.428  1.00  0.00    -0.502 OA
ATOM     17  H   UNL     1      19.412  51.948  44.807  1.00  0.00     0.293 HD
ENDBRANCH   3  16
TORSDOF 3
ENDMDL
MODEL 5
REMARK VINA RESULT:    -5.077      2.043      3.587
REMARK INTER + INTRA:          -5.735
REMARK INTER:                  -5.667
REMARK INTRA:                  -0.069
REMARK UNBOUND:                -0.065
REMARK SMILES COc1cc2ccc(=O)oc2c(O)c1O
REMARK SMILES IDX 3 1 14 2 12 3 11 4 5 5 4 6 6 7 7 8 8 9 9 10 10 11 2 12 1 13
REMARK SMILES IDX 15 14 13 16
REMARK H PARENT 15 15 13 17
REMARK Flexibility Score: inf
ROOT
ATOM      1  C   UNL     1      18.189  46.756  42.403  1.00  0.00     0.165 A 
ATOM      2  C   UNL     1      19.253  45.836  42.490  1.00  0.00     0.204 A 
ATOM      3  C   UNL     1      20.450  46.196  43.135  1.00  0.00     0.205 A 
ATOM      4  C   UNL     1      20.589  47.472  43.694  1.00  0.00     0.184 A 
ATOM      5  C   UNL     1      19.526  48.396  43.609  1.00  0.00     0.025 A 
ATOM      6  C   UNL     1      18.335  48.038  42.967  1.00  0.00     0.062 A 
ATOM      7  C   UNL     1      19.697  49.663  44.178  1.00  0.00     0.020 A 
ATOM      8  C   UNL     1      20.901  49.975  44.807  1.00  0.00     0.094 A 
ATOM      9  C   UNL     1      21.910  49.009  44.853  1.00  0.00     0.336 A 
ATOM     10  O   UNL     1      23.005  49.270  45.417  1.00  0.00    -0.246 OA
ATOM     11  O   UNL     1      21.722  47.812  44.305  1.00  0.00    -0.419 OA
ENDROOT
BRANCH   1  12
ATOM     12  O   UNL     1      17.008  46.364  41.751  1.00  0.00    -0.493 OA
ATOM     13  C   UNL     1      16.616  46.800  40.454  1.00  0.00     0.278 C 
ENDBRANCH   1  12
BRANCH   2  14
ATOM     14  O   UNL     1      19.132  44.560  41.938  1.00  0.00    -0.502 OA
ATOM     15  H   UNL     1      19.716  43.786  42.228  1.00  0.00     0.293 HD
ENDBRANCH   2  14
BRANCH   3  16
ATOM     16  O   UNL     1      21.513  45.295  43.229  1.00  0.00    -0.502 OA
ATOM     17  H   UNL     1      21.849  44.948  44.119  1.00  0.00     0.293 HD
ENDBRANCH   3  16
TORSDOF 3
ENDMDL
MODEL 6
REMARK VINA RESULT:    -5.069      3.437      5.361
REMARK INTER + INTRA:          -5.727
REMARK INTER:                  -5.664
REMARK INTRA:                  -0.062
REMARK UNBOUND:                -0.065
REMARK SMILES COc1cc2ccc(=O)oc2c(O)c1O
REMARK SMILES IDX 3 1 14 2 12 3 11 4 5 5 4 6 6 7 7 8 8 9 9 10 10 11 2 12 1 13
REMARK SMILES IDX 15 14 13 16
REMARK H PARENT 15 15 13 17
REMARK Flexibility Score: inf
ROOT
ATOM      1  C   UNL     1      14.746  49.564  43.557  1.00  0.00     0.165 A 
ATOM      2  C   UNL     1      15.348  49.622  42.284  1.00  0.00     0.204 A 
ATOM      3  C   UNL     1      16.747  49.723  42.166  1.00  0.00     0.205 A 
ATOM      4  C   UNL     1      17.546  49.764  43.315  1.00  0.00     0.184 A 
ATOM      5  C   UNL     1      16.947  49.707  44.591  1.00  0.00     0.025 A 
ATOM      6  C   UNL     1      15.555  49.607  44.709  1.00  0.00     0.062 A 
ATOM      7  C   UNL     1      17.774  49.750  45.719  1.00  0.00     0.020 A 
ATOM      8  C   UNL     1      19.154  49.850  45.553  1.00  0.00     0.094 A 
ATOM      9  C   UNL     1      19.678  49.903  44.258  1.00  0.00     0.336 A 
ATOM     10  O   UNL     1      20.922  49.993  44.086  1.00  0.00    -0.246 OA
ATOM     11  O   UNL     1      18.869  49.859  43.202  1.00  0.00    -0.419 OA
ENDROOT
BRANCH   1  12
ATOM     12  O   UNL     1      13.347  49.465  43.638  1.00  0.00    -0.493 OA
ATOM     13  C   UNL     1      12.647  48.395  44.263  1.00  0.00     0.278 C 
ENDBRANCH   1  12
BRANCH   2  14
ATOM     14  O   UNL     1      14.567  49.582  41.128  1.00  0.00    -0.502 OA
ATOM     15  H   UNL     1      13.959  50.344  40.858  1.00  0.00     0.293 HD
ENDBRANCH   2  14
BRANCH   3  16
ATOM     16  O   UNL     1      17.358  49.781  40.912  1.00  0.00    -0.502 OA
ATOM     17  H   UNL     1      16.947  49.352  40.091  1.00  0.00     0.293 HD
ENDBRANCH   3  16
TORSDOF 3
ENDMDL
MODEL 7
REMARK VINA RESULT:    -4.975      2.268      4.883
REMARK INTER + INTRA:          -5.621
REMARK INTER:                  -5.556
REMARK INTRA:                  -0.065
REMARK UNBOUND:                -0.065
REMARK SMILES COc1cc2ccc(=O)oc2c(O)c1O
REMARK SMILES IDX 3 1 14 2 12 3 11 4 5 5 4 6 6 7 7 8 8 9 9 10 10 11 2 12 1 13
REMARK SMILES IDX 15 14 13 16
REMARK H PARENT 15 15 13 17
REMARK Flexibility Score: inf
ROOT
ATOM      1  C   UNL     1      17.325  47.753  41.912  1.00  0.00     0.165 A 
ATOM      2  C   UNL     1      17.610  46.656  41.074  1.00  0.00     0.204 A 
ATOM      3  C   UNL     1      18.686  45.799  41.369  1.00  0.00     0.205 A 
ATOM      4  C   UNL     1      19.478  46.033  42.500  1.00  0.00     0.184 A 
ATOM      5  C   UNL     1      19.197  47.130  43.341  1.00  0.00     0.025 A 
ATOM      6  C   UNL     1      18.126  47.983  43.047  1.00  0.00     0.062 A 
ATOM      7  C   UNL     1      20.007  47.335  44.463  1.00  0.00     0.020 A 
ATOM      8  C   UNL     1      21.063  46.460  44.716  1.00  0.00     0.094 A 
ATOM      9  C   UNL     1      21.283  45.395  43.838  1.00  0.00     0.336 A 
ATOM     10  O   UNL     1      22.230  44.593  44.047  1.00  0.00    -0.246 OA
ATOM     11  O   UNL     1      20.496  45.221  42.779  1.00  0.00    -0.419 OA
ENDROOT
BRANCH   1  12
ATOM     12  O   UNL     1      16.244  48.588  41.587  1.00  0.00    -0.493 OA
ATOM     13  C   UNL     1      16.362  49.956  41.211  1.00  0.00     0.278 C 
ENDBRANCH   1  12
BRANCH   2  14
ATOM     14  O   UNL     1      16.831  46.408  39.943  1.00  0.00    -0.502 OA
ATOM     15  H   UNL     1      15.854  46.147  40.003  1.00  0.00     0.293 HD
ENDBRANCH   2  14
BRANCH   3  16
ATOM     16  O   UNL     1      18.980  44.709  40.548  1.00  0.00    -0.502 OA
ATOM     17  H   UNL     1      19.212  43.797  40.925  1.00  0.00     0.293 HD
ENDBRANCH   3  16
TORSDOF 3
ENDMDL
MODEL 8
REMARK VINA RESULT:    -4.922      2.018      3.556
REMARK INTER + INTRA:          -5.562
REMARK INTER:                  -5.501
REMARK INTRA:                  -0.062
REMARK UNBOUND:                -0.065
REMARK SMILES COc1cc2ccc(=O)oc2c(O)c1O
REMARK SMILES IDX 3 1 14 2 12 3 11 4 5 5 4 6 6 7 7 8 8 9 9 10 10 11 2 12 1 13
REMARK SMILES IDX 15 14 13 16
REMARK H PARENT 15 15 13 17
REMARK Flexibility Score: inf
ROOT
ATOM      1  C   UNL     1      20.834  48.671  44.563  1.00  0.00     0.165 A 
ATOM      2  C   UNL     1      20.564  47.335  44.205  1.00  0.00     0.204 A 
ATOM      3  C   UNL     1      19.441  47.026  43.416  1.00  0.00     0.205 A 
ATOM      4  C   UNL     1      18.588  48.047  42.982  1.00  0.00     0.184 A 
ATOM      5  C   UNL     1      18.854  49.386  43.339  1.00  0.00     0.025 A 
ATOM      6  C   UNL     1      19.971  49.694  44.125  1.00  0.00     0.062 A 
ATOM      7  C   UNL     1      17.981  50.383  42.889  1.00  0.00     0.020 A 
ATOM      8  C   UNL     1      16.881  50.030  42.109  1.00  0.00     0.094 A 
ATOM      9  C   UNL     1      16.679  48.682  41.795  1.00  0.00     0.336 A 
ATOM     10  O   UNL     1      15.692  48.342  41.092  1.00  0.00    -0.246 OA
ATOM     11  O   UNL     1      17.525  47.754  42.235  1.00  0.00    -0.419 OA
ENDROOT
BRANCH   1  12
ATOM     12  O   UNL     1      21.963  48.944  45.353  1.00  0.00    -0.493 OA
ATOM     13  C   UNL     1      23.026  49.811  44.974  1.00  0.00     0.278 C 
ENDBRANCH   1  12
BRANCH   2  14
ATOM     14  O   UNL     1      21.405  46.304  44.629  1.00  0.00    -0.502 OA
ATOM     15  H   UNL     1      21.375  45.933  45.570  1.00  0.00     0.293 HD
ENDBRANCH   2  14
BRANCH   3  16
ATOM     16  O   UNL     1      19.161  45.708  43.053  1.00  0.00    -0.502 OA
ATOM     17  H   UNL     1      18.524  45.479  42.298  1.00  0.00     0.293 HD
ENDBRANCH   3  16
TORSDOF 3
ENDMDL
MODEL 9
REMARK VINA RESULT:    -4.887      3.203      5.312
REMARK INTER + INTRA:          -5.523
REMARK INTER:                  -5.463
REMARK INTRA:                  -0.060
REMARK UNBOUND:                -0.065
REMARK SMILES COc1cc2ccc(=O)oc2c(O)c1O
REMARK SMILES IDX 3 1 14 2 12 3 11 4 5 5 4 6 6 7 7 8 8 9 9 10 10 11 2 12 1 13
REMARK SMILES IDX 15 14 13 16
REMARK H PARENT 15 15 13 17
REMARK Flexibility Score: inf
ROOT
ATOM      1  C   UNL     1      18.446  48.408  47.796  1.00  0.00     0.165 A 
ATOM      2  C   UNL     1      18.825  49.748  48.013  1.00  0.00     0.204 A 
ATOM      3  C   UNL     1      19.804  50.348  47.198  1.00  0.00     0.205 A 
ATOM      4  C   UNL     1      20.403  49.615  46.167  1.00  0.00     0.184 A 
ATOM      5  C   UNL     1      20.026  48.273  45.947  1.00  0.00     0.025 A 
ATOM      6  C   UNL     1      19.053  47.676  46.758  1.00  0.00     0.062 A 
ATOM      7  C   UNL     1      20.644  47.568  44.909  1.00  0.00     0.020 A 
ATOM      8  C   UNL     1      21.608  48.204  44.127  1.00  0.00     0.094 A 
ATOM      9  C   UNL     1      21.931  49.536  44.404  1.00  0.00     0.336 A 
ATOM     10  O   UNL     1      22.799  50.128  43.710  1.00  0.00    -0.246 OA
ATOM     11  O   UNL     1      21.328  50.183  45.397  1.00  0.00    -0.419 OA
ENDROOT
BRANCH   1  12
ATOM     12  O   UNL     1      17.467  47.840  48.628  1.00  0.00    -0.493 OA
ATOM     13  C   UNL     1      16.072  47.828  48.346  1.00  0.00     0.278 C 
ENDBRANCH   1  12
BRANCH   2  14
ATOM     14  O   UNL     1      18.239  50.494  49.036  1.00  0.00    -0.502 OA
ATOM     15  H   UNL     1      17.936  50.076  49.907  1.00  0.00     0.293 HD
ENDBRANCH   2  14
BRANCH   3  16
ATOM     16  O   UNL     1      20.190  51.674  47.401  1.00  0.00    -0.502 OA
ATOM     17  H   UNL     1      21.143  51.987  47.254  1.00  0.00     0.293 HD
ENDBRANCH   3  16
TORSDOF 3
ENDMDL
