MODEL 1
REMARK VINA RESULT:    -6.764      0.000      0.000
REMARK INTER + INTRA:          -7.221
REMARK INTER:                  -7.357
REMARK INTRA:                   0.136
REMARK UNBOUND:                 0.136
REMARK SMILES C[C@H]1[C@H](C)CC[C@@]2(C(=O)[O-])CC[C@]3(C)C(=CC[C@H]4[C@]5(C)CC[C@@H](O)C(C)(C)[C@H]5CC[C@]43C)[C@H]12
REMARK SMILES IDX 7 1 6 2 11 3 33 4 5 5 12 6 15 7 2 8 3 9 13 10 16 11 1 12
REMARK SMILES IDX 4 13 14 14 31 15 17 16 18 17 30 18 32 19 19 20 29 21 28 22
REMARK SMILES IDX 21 23 20 24 25 25 22 26 23 27 26 28 27 29 8 30 9 31 10 32
REMARK SMILES IDX 24 33
REMARK H PARENT 24 34
REMARK Flexibility Score: inf
ROOT
ATOM      1  C   UNL     1      10.945  51.066  14.006  1.00  0.00     0.017 C 
ATOM      2  C   UNL     1       9.803  50.390  13.211  1.00  0.00     0.014 C 
ATOM      3  C   UNL     1      10.360  52.308  14.788  1.00  0.00     0.014 C 
ATOM      4  C   UNL     1      11.540  50.035  15.027  1.00  0.00     0.030 C 
ATOM      5  C   UNL     1      10.285  49.133  12.485  1.00  0.00     0.004 C 
ATOM      6  C   UNL     1      10.738  52.368  16.290  1.00  0.00     0.013 C 
ATOM      7  C   UNL     1      12.626  50.759  15.847  1.00  0.00    -0.063 C 
ATOM      8  C   UNL     1      11.907  48.632  14.421  1.00  0.00    -0.003 C 
ATOM      9  C   UNL     1      10.779  48.082  13.489  1.00  0.00    -0.011 C 
ATOM     10  C   UNL     1      12.258  52.077  16.547  1.00  0.00    -0.006 C 
ATOM     11  C   UNL     1      13.880  50.283  16.003  1.00  0.00    -0.027 C 
ATOM     12  C   UNL     1      12.158  47.599  15.552  1.00  0.00     0.008 C 
ATOM     13  C   UNL     1      11.236  46.828  12.724  1.00  0.00     0.008 C 
ATOM     14  C   UNL     1      13.043  53.257  15.876  1.00  0.00     0.017 C 
ATOM     15  C   UNL     1      12.629  51.928  18.104  1.00  0.00    -0.020 C 
ATOM     16  C   UNL     1      14.830  50.938  16.962  1.00  0.00     0.032 C 
ATOM     17  C   UNL     1      14.107  51.317  18.295  1.00  0.00     0.006 C 
ATOM     18  C   UNL     1      12.465  53.296  18.829  1.00  0.00     0.008 C 
ATOM     19  C   UNL     1      11.614  50.945  18.784  1.00  0.00     0.012 C 
ATOM     20  C   UNL     1      15.057  52.030  19.359  1.00  0.00    -0.025 C 
ATOM     21  C   UNL     1      12.980  53.350  20.276  1.00  0.00     0.005 C 
ATOM     22  C   UNL     1      14.183  52.418  20.611  1.00  0.00     0.003 C 
ATOM     23  C   UNL     1      16.192  51.007  19.777  1.00  0.00     0.010 C 
ATOM     24  C   UNL     1      15.756  53.288  18.761  1.00  0.00     0.012 C 
ATOM     25  C   UNL     1      14.967  52.830  21.941  1.00  0.00    -0.006 C 
ATOM     26  C   UNL     1      16.362  50.788  21.285  1.00  0.00     0.033 C 
ATOM     27  C   UNL     1      16.362  52.109  22.047  1.00  0.00     0.120 C 
ATOM     28  C   UNL     1      15.165  54.366  22.100  1.00  0.00     0.014 C 
ATOM     29  C   UNL     1      14.113  52.382  23.160  1.00  0.00     0.014 C 
ENDROOT
BRANCH   1  30
ATOM     30  C   UNL     1      11.990  51.559  13.003  1.00  0.00     0.048 C 
ATOM     31  O   UNL     1      11.889  52.712  12.504  1.00  0.00    -0.550 OA
ATOM     32  O   UNL     1      13.042  50.751  12.590  1.00  0.00    -0.550 OA
ENDBRANCH   1  30
BRANCH  27  33
ATOM     33  O   UNL     1      17.415  52.908  21.558  1.00  0.00    -0.393 OA
ATOM     34  H   UNL     1      17.718  52.516  20.697  1.00  0.00     0.210 HD
ENDBRANCH  27  33
TORSDOF 2
ENDMDL
MODEL 2
REMARK VINA RESULT:    -6.095      8.087     10.972
REMARK INTER + INTRA:          -6.493
REMARK INTER:                  -6.632
REMARK INTRA:                   0.139
REMARK UNBOUND:                 0.136
REMARK SMILES C[C@H]1[C@H](C)CC[C@@]2(C(=O)[O-])CC[C@]3(C)C(=CC[C@H]4[C@]5(C)CC[C@@H](O)C(C)(C)[C@H]5CC[C@]43C)[C@H]12
REMARK SMILES IDX 7 1 6 2 11 3 33 4 5 5 12 6 15 7 2 8 3 9 13 10 16 11 1 12
REMARK SMILES IDX 4 13 14 14 31 15 17 16 18 17 30 18 32 19 19 20 29 21 28 22
REMARK SMILES IDX 21 23 20 24 25 25 22 26 23 27 26 28 27 29 8 30 9 31 10 32
REMARK SMILES IDX 24 33
REMARK H PARENT 24 34
REMARK Flexibility Score: inf
ROOT
ATOM      1  C   UNL     1      16.975  48.066   5.868  1.00  0.00     0.017 C 
ATOM      2  C   UNL     1      17.110  46.760   5.051  1.00  0.00     0.014 C 
ATOM      3  C   UNL     1      16.973  49.295   4.875  1.00  0.00     0.014 C 
ATOM      4  C   UNL     1      15.628  48.034   6.668  1.00  0.00     0.030 C 
ATOM      5  C   UNL     1      17.047  45.522   5.947  1.00  0.00     0.004 C 
ATOM      6  C   UNL     1      15.825  50.311   5.100  1.00  0.00     0.013 C 
ATOM      7  C   UNL     1      15.492  49.375   7.417  1.00  0.00    -0.063 C 
ATOM      8  C   UNL     1      15.370  46.720   7.490  1.00  0.00    -0.003 C 
ATOM      9  C   UNL     1      15.689  45.435   6.658  1.00  0.00    -0.011 C 
ATOM     10  C   UNL     1      15.625  50.679   6.612  1.00  0.00    -0.006 C 
ATOM     11  C   UNL     1      15.240  49.466   8.740  1.00  0.00    -0.027 C 
ATOM     12  C   UNL     1      13.890  46.649   7.955  1.00  0.00     0.008 C 
ATOM     13  C   UNL     1      15.656  44.170   7.531  1.00  0.00     0.008 C 
ATOM     14  C   UNL     1      16.931  51.428   7.051  1.00  0.00     0.017 C 
ATOM     15  C   UNL     1      14.313  51.564   6.890  1.00  0.00    -0.020 C 
ATOM     16  C   UNL     1      14.937  50.794   9.369  1.00  0.00     0.032 C 
ATOM     17  C   UNL     1      13.981  51.637   8.465  1.00  0.00     0.006 C 
ATOM     18  C   UNL     1      14.477  52.980   6.263  1.00  0.00     0.008 C 
ATOM     19  C   UNL     1      13.084  50.905   6.173  1.00  0.00     0.012 C 
ATOM     20  C   UNL     1      13.626  53.070   9.069  1.00  0.00    -0.025 C 
ATOM     21  C   UNL     1      13.385  54.000   6.624  1.00  0.00     0.005 C 
ATOM     22  C   UNL     1      12.723  53.828   8.024  1.00  0.00     0.003 C 
ATOM     23  C   UNL     1      12.835  52.856  10.425  1.00  0.00     0.010 C 
ATOM     24  C   UNL     1      14.906  53.894   9.395  1.00  0.00     0.012 C 
ATOM     25  C   UNL     1      11.961  55.135   8.541  1.00  0.00    -0.006 C 
ATOM     26  C   UNL     1      11.500  53.601  10.536  1.00  0.00     0.033 C 
ATOM     27  C   UNL     1      11.626  55.049  10.076  1.00  0.00     0.120 C 
ATOM     28  C   UNL     1      12.723  56.460   8.250  1.00  0.00     0.014 C 
ATOM     29  C   UNL     1      10.614  55.240   7.773  1.00  0.00     0.014 C 
ENDROOT
BRANCH   1  30
ATOM     30  C   UNL     1      18.194  48.174   6.788  1.00  0.00     0.048 C 
ATOM     31  O   UNL     1      19.232  48.766   6.390  1.00  0.00    -0.550 OA
ATOM     32  O   UNL     1      18.205  47.600   8.053  1.00  0.00    -0.550 OA
ENDBRANCH   1  30
BRANCH  27  33
ATOM     33  O   UNL     1      12.599  55.689  10.871  1.00  0.00    -0.393 OA
ATOM     34  H   UNL     1      13.459  55.666  10.374  1.00  0.00     0.210 HD
ENDBRANCH  27  33
TORSDOF 2
ENDMDL
MODEL 3
REMARK VINA RESULT:    -6.034      9.408     12.638
REMARK INTER + INTRA:          -6.427
REMARK INTER:                  -6.563
REMARK INTRA:                   0.136
REMARK UNBOUND:                 0.136
REMARK SMILES C[C@H]1[C@H](C)CC[C@@]2(C(=O)[O-])CC[C@]3(C)C(=CC[C@H]4[C@]5(C)CC[C@@H](O)C(C)(C)[C@H]5CC[C@]43C)[C@H]12
REMARK SMILES IDX 7 1 6 2 11 3 33 4 5 5 12 6 15 7 2 8 3 9 13 10 16 11 1 12
REMARK SMILES IDX 4 13 14 14 31 15 17 16 18 17 30 18 32 19 19 20 29 21 28 22
REMARK SMILES IDX 21 23 20 24 25 25 22 26 23 27 26 28 27 29 8 30 9 31 10 32
REMARK SMILES IDX 24 33
REMARK H PARENT 24 34
REMARK Flexibility Score: inf
ROOT
ATOM      1  C   UNL     1      20.794  48.710   7.271  1.00  0.00     0.017 C 
ATOM      2  C   UNL     1      21.977  47.810   6.844  1.00  0.00     0.014 C 
ATOM      3  C   UNL     1      20.577  49.826   6.174  1.00  0.00     0.014 C 
ATOM      4  C   UNL     1      19.500  47.833   7.392  1.00  0.00     0.030 C 
ATOM      5  C   UNL     1      22.198  46.661   7.828  1.00  0.00     0.004 C 
ATOM      6  C   UNL     1      19.114  49.984   5.687  1.00  0.00     0.013 C 
ATOM      7  C   UNL     1      18.329  48.769   7.751  1.00  0.00    -0.063 C 
ATOM      8  C   UNL     1      19.660  46.519   8.239  1.00  0.00    -0.003 C 
ATOM      9  C   UNL     1      20.968  45.743   7.876  1.00  0.00    -0.011 C 
ATOM     10  C   UNL     1      18.079  50.001   6.866  1.00  0.00    -0.006 C 
ATOM     11  C   UNL     1      17.495  48.551   8.790  1.00  0.00    -0.027 C 
ATOM     12  C   UNL     1      18.450  45.574   8.014  1.00  0.00     0.008 C 
ATOM     13  C   UNL     1      21.235  44.590   8.859  1.00  0.00     0.008 C 
ATOM     14  C   UNL     1      18.383  51.300   7.689  1.00  0.00     0.017 C 
ATOM     15  C   UNL     1      16.548  49.953   6.378  1.00  0.00    -0.020 C 
ATOM     16  C   UNL     1      16.268  49.395   8.973  1.00  0.00     0.032 C 
ATOM     17  C   UNL     1      15.552  49.647   7.607  1.00  0.00     0.006 C 
ATOM     18  C   UNL     1      16.177  51.275   5.643  1.00  0.00     0.008 C 
ATOM     19  C   UNL     1      16.377  48.802   5.327  1.00  0.00     0.012 C 
ATOM     20  C   UNL     1      14.244  50.550   7.726  1.00  0.00    -0.025 C 
ATOM     21  C   UNL     1      14.690  51.453   5.299  1.00  0.00     0.005 C 
ATOM     22  C   UNL     1      13.676  50.780   6.274  1.00  0.00     0.003 C 
ATOM     23  C   UNL     1      13.184  49.776   8.614  1.00  0.00     0.010 C 
ATOM     24  C   UNL     1      14.539  51.910   8.426  1.00  0.00     0.012 C 
ATOM     25  C   UNL     1      12.191  51.360   6.162  1.00  0.00    -0.006 C 
ATOM     26  C   UNL     1      11.791  49.620   7.993  1.00  0.00     0.033 C 
ATOM     27  C   UNL     1      11.299  50.928   7.383  1.00  0.00     0.120 C 
ATOM     28  C   UNL     1      12.135  52.907   6.000  1.00  0.00     0.014 C 
ATOM     29  C   UNL     1      11.543  50.774   4.876  1.00  0.00     0.014 C 
ENDROOT
BRANCH   1  30
ATOM     30  C   UNL     1      21.166  49.381   8.595  1.00  0.00     0.048 C 
ATOM     31  O   UNL     1      21.775  50.484   8.592  1.00  0.00    -0.550 OA
ATOM     32  O   UNL     1      20.881  48.788   9.818  1.00  0.00    -0.550 OA
ENDBRANCH   1  30
BRANCH  27  33
ATOM     33  O   UNL     1      11.266  51.909   8.394  1.00  0.00    -0.393 OA
ATOM     34  H   UNL     1      11.978  51.692   9.051  1.00  0.00     0.210 HD
ENDBRANCH  27  33
TORSDOF 2
ENDMDL
MODEL 4
REMARK VINA RESULT:    -5.851      9.711     12.645
REMARK INTER + INTRA:          -6.228
REMARK INTER:                  -6.368
REMARK INTRA:                   0.140
REMARK UNBOUND:                 0.136
REMARK SMILES C[C@H]1[C@H](C)CC[C@@]2(C(=O)[O-])CC[C@]3(C)C(=CC[C@H]4[C@]5(C)CC[C@@H](O)C(C)(C)[C@H]5CC[C@]43C)[C@H]12
REMARK SMILES IDX 7 1 6 2 11 3 33 4 5 5 12 6 15 7 2 8 3 9 13 10 16 11 1 12
REMARK SMILES IDX 4 13 14 14 31 15 17 16 18 17 30 18 32 19 19 20 29 21 28 22
REMARK SMILES IDX 21 23 20 24 25 25 22 26 23 27 26 28 27 29 8 30 9 31 10 32
REMARK SMILES IDX 24 33
REMARK H PARENT 24 34
REMARK Flexibility Score: inf
ROOT
ATOM      1  C   UNL     1      19.147  45.504   7.891  1.00  0.00     0.017 C 
ATOM      2  C   UNL     1      19.993  44.303   7.410  1.00  0.00     0.014 C 
ATOM      3  C   UNL     1      20.099  46.743   8.123  1.00  0.00     0.014 C 
ATOM      4  C   UNL     1      18.084  45.856   6.793  1.00  0.00     0.030 C 
ATOM      5  C   UNL     1      19.122  43.085   7.096  1.00  0.00     0.004 C 
ATOM      6  C   UNL     1      19.625  48.061   7.460  1.00  0.00     0.013 C 
ATOM      7  C   UNL     1      17.304  47.096   7.273  1.00  0.00    -0.063 C 
ATOM      8  C   UNL     1      17.246  44.638   6.260  1.00  0.00    -0.003 C 
ATOM      9  C   UNL     1      18.145  43.397   5.953  1.00  0.00    -0.011 C 
ATOM     10  C   UNL     1      18.099  48.344   7.691  1.00  0.00    -0.006 C 
ATOM     11  C   UNL     1      15.957  47.153   7.325  1.00  0.00    -0.027 C 
ATOM     12  C   UNL     1      16.485  45.026   4.964  1.00  0.00     0.008 C 
ATOM     13  C   UNL     1      17.303  42.145   5.653  1.00  0.00     0.008 C 
ATOM     14  C   UNL     1      17.931  48.573   9.233  1.00  0.00     0.017 C 
ATOM     15  C   UNL     1      17.541  49.590   6.842  1.00  0.00    -0.020 C 
ATOM     16  C   UNL     1      15.259  48.447   7.623  1.00  0.00     0.032 C 
ATOM     17  C   UNL     1      15.931  49.635   6.862  1.00  0.00     0.006 C 
ATOM     18  C   UNL     1      18.168  50.917   7.361  1.00  0.00     0.008 C 
ATOM     19  C   UNL     1      17.997  49.442   5.349  1.00  0.00     0.012 C 
ATOM     20  C   UNL     1      15.246  51.047   7.144  1.00  0.00    -0.025 C 
ATOM     21  C   UNL     1      17.573  52.209   6.777  1.00  0.00     0.005 C 
ATOM     22  C   UNL     1      16.068  52.149   6.376  1.00  0.00     0.003 C 
ATOM     23  C   UNL     1      13.758  50.994   6.602  1.00  0.00     0.010 C 
ATOM     24  C   UNL     1      15.181  51.366   8.667  1.00  0.00     0.012 C 
ATOM     25  C   UNL     1      15.385  53.586   6.224  1.00  0.00    -0.006 C 
ATOM     26  C   UNL     1      13.361  52.131   5.652  1.00  0.00     0.033 C 
ATOM     27  C   UNL     1      13.815  53.487   6.179  1.00  0.00     0.120 C 
ATOM     28  C   UNL     1      15.809  54.600   7.326  1.00  0.00     0.014 C 
ATOM     29  C   UNL     1      15.855  54.201   4.875  1.00  0.00     0.014 C 
ENDROOT
BRANCH   1  30
ATOM     30  C   UNL     1      18.499  45.120   9.224  1.00  0.00     0.048 C 
ATOM     31  O   UNL     1      19.107  45.340  10.305  1.00  0.00    -0.550 OA
ATOM     32  O   UNL     1      17.259  44.495   9.278  1.00  0.00    -0.550 OA
ENDBRANCH   1  30
BRANCH  27  33
ATOM     33  O   UNL     1      13.231  53.695   7.445  1.00  0.00    -0.393 OA
ATOM     34  H   UNL     1      12.255  53.535   7.357  1.00  0.00     0.210 HD
ENDBRANCH  27  33
TORSDOF 2
ENDMDL
MODEL 5
REMARK VINA RESULT:    -5.782      2.418      8.205
REMARK INTER + INTRA:          -6.152
REMARK INTER:                  -6.292
REMARK INTRA:                   0.140
REMARK UNBOUND:                 0.136
REMARK SMILES C[C@H]1[C@H](C)CC[C@@]2(C(=O)[O-])CC[C@]3(C)C(=CC[C@H]4[C@]5(C)CC[C@@H](O)C(C)(C)[C@H]5CC[C@]43C)[C@H]12
REMARK SMILES IDX 7 1 6 2 11 3 33 4 5 5 12 6 15 7 2 8 3 9 13 10 16 11 1 12
REMARK SMILES IDX 4 13 14 14 31 15 17 16 18 17 30 18 32 19 19 20 29 21 28 22
REMARK SMILES IDX 21 23 20 24 25 25 22 26 23 27 26 28 27 29 8 30 9 31 10 32
REMARK SMILES IDX 24 33
REMARK H PARENT 24 34
REMARK Flexibility Score: inf
ROOT
ATOM      1  C   UNL     1      14.098  52.841  18.137  1.00  0.00     0.017 C 
ATOM      2  C   UNL     1      14.564  52.817  19.612  1.00  0.00     0.014 C 
ATOM      3  C   UNL     1      15.351  52.632  17.199  1.00  0.00     0.014 C 
ATOM      4  C   UNL     1      13.068  51.682  17.906  1.00  0.00     0.030 C 
ATOM      5  C   UNL     1      13.387  52.943  20.580  1.00  0.00     0.004 C 
ATOM      6  C   UNL     1      15.173  51.546  16.108  1.00  0.00     0.013 C 
ATOM      7  C   UNL     1      12.676  51.691  16.415  1.00  0.00    -0.063 C 
ATOM      8  C   UNL     1      11.903  51.603  18.958  1.00  0.00    -0.003 C 
ATOM      9  C   UNL     1      12.426  51.757  20.424  1.00  0.00    -0.011 C 
ATOM     10  C   UNL     1      13.796  51.652  15.363  1.00  0.00    -0.006 C 
ATOM     11  C   UNL     1      11.397  51.710  15.983  1.00  0.00    -0.027 C 
ATOM     12  C   UNL     1      11.155  50.248  18.842  1.00  0.00     0.008 C 
ATOM     13  C   UNL     1      11.269  51.907  21.426  1.00  0.00     0.008 C 
ATOM     14  C   UNL     1      13.828  53.015  14.588  1.00  0.00     0.017 C 
ATOM     15  C   UNL     1      13.502  50.416  14.377  1.00  0.00    -0.020 C 
ATOM     16  C   UNL     1      11.081  51.532  14.527  1.00  0.00     0.032 C 
ATOM     17  C   UNL     1      11.965  50.407  13.896  1.00  0.00     0.006 C 
ATOM     18  C   UNL     1      14.490  50.442  13.174  1.00  0.00     0.008 C 
ATOM     19  C   UNL     1      13.772  49.073  15.140  1.00  0.00     0.012 C 
ATOM     20  C   UNL     1      11.690  50.172  12.343  1.00  0.00    -0.025 C 
ATOM     21  C   UNL     1      14.195  49.439  12.048  1.00  0.00     0.005 C 
ATOM     22  C   UNL     1      12.695  49.073  11.831  1.00  0.00     0.003 C 
ATOM     23  C   UNL     1      10.196  49.672  12.173  1.00  0.00     0.010 C 
ATOM     24  C   UNL     1      11.842  51.486  11.522  1.00  0.00     0.012 C 
ATOM     25  C   UNL     1      12.391  48.422  10.404  1.00  0.00    -0.006 C 
ATOM     26  C   UNL     1      10.020  48.381  11.363  1.00  0.00     0.033 C 
ATOM     27  C   UNL     1      10.850  48.404  10.085  1.00  0.00     0.120 C 
ATOM     28  C   UNL     1      13.155  49.102   9.230  1.00  0.00     0.014 C 
ATOM     29  C   UNL     1      12.881  46.947  10.434  1.00  0.00     0.014 C 
ENDROOT
BRANCH   1  30
ATOM     30  C   UNL     1      13.493  54.219  17.857  1.00  0.00     0.048 C 
ATOM     31  O   UNL     1      14.233  55.165  17.477  1.00  0.00    -0.550 OA
ATOM     32  O   UNL     1      12.141  54.474  18.046  1.00  0.00    -0.550 OA
ENDBRANCH   1  30
BRANCH  27  33
ATOM     33  O   UNL     1      10.452  49.512   9.311  1.00  0.00    -0.393 OA
ATOM     34  H   UNL     1       9.681  49.940   9.769  1.00  0.00     0.210 HD
ENDBRANCH  27  33
TORSDOF 2
ENDMDL
MODEL 6
REMARK VINA RESULT:    -5.771      1.755      2.739
REMARK INTER + INTRA:          -6.141
REMARK INTER:                  -6.278
REMARK INTRA:                   0.137
REMARK UNBOUND:                 0.136
REMARK SMILES C[C@H]1[C@H](C)CC[C@@]2(C(=O)[O-])CC[C@]3(C)C(=CC[C@H]4[C@]5(C)CC[C@@H](O)C(C)(C)[C@H]5CC[C@]43C)[C@H]12
REMARK SMILES IDX 7 1 6 2 11 3 33 4 5 5 12 6 15 7 2 8 3 9 13 10 16 11 1 12
REMARK SMILES IDX 4 13 14 14 31 15 17 16 18 17 30 18 32 19 19 20 29 21 28 22
REMARK SMILES IDX 21 23 20 24 25 25 22 26 23 27 26 28 27 29 8 30 9 31 10 32
REMARK SMILES IDX 24 33
REMARK H PARENT 24 34
REMARK Flexibility Score: inf
ROOT
ATOM      1  C   UNL     1      10.991  48.401  12.803  1.00  0.00     0.017 C 
ATOM      2  C   UNL     1       9.833  47.468  12.377  1.00  0.00     0.014 C 
ATOM      3  C   UNL     1      10.475  49.895  12.795  1.00  0.00     0.014 C 
ATOM      4  C   UNL     1      11.456  48.014  14.249  1.00  0.00     0.030 C 
ATOM      5  C   UNL     1      10.243  45.996  12.432  1.00  0.00     0.004 C 
ATOM      6  C   UNL     1      10.792  50.699  14.081  1.00  0.00     0.013 C 
ATOM      7  C   UNL     1      12.561  49.003  14.669  1.00  0.00    -0.063 C 
ATOM      8  C   UNL     1      11.735  46.484  14.473  1.00  0.00    -0.003 C 
ATOM      9  C   UNL     1      10.607  45.587  13.867  1.00  0.00    -0.011 C 
ATOM     10  C   UNL     1      12.271  50.510  14.568  1.00  0.00    -0.006 C 
ATOM     11  C   UNL     1      13.765  48.617  15.143  1.00  0.00    -0.027 C 
ATOM     12  C   UNL     1      11.852  46.167  15.989  1.00  0.00     0.008 C 
ATOM     13  C   UNL     1      10.992  44.098  13.886  1.00  0.00     0.008 C 
ATOM     14  C   UNL     1      13.177  51.139  13.454  1.00  0.00     0.017 C 
ATOM     15  C   UNL     1      12.562  51.164  16.008  1.00  0.00    -0.020 C 
ATOM     16  C   UNL     1      14.723  49.625  15.705  1.00  0.00     0.032 C 
ATOM     17  C   UNL     1      13.977  50.669  16.599  1.00  0.00     0.006 C 
ATOM     18  C   UNL     1      12.479  52.716  15.919  1.00  0.00     0.008 C 
ATOM     19  C   UNL     1      11.443  50.719  17.012  1.00  0.00     0.012 C 
ATOM     20  C   UNL     1      14.935  51.781  17.221  1.00  0.00    -0.025 C 
ATOM     21  C   UNL     1      12.933  53.481  17.173  1.00  0.00     0.005 C 
ATOM     22  C   UNL     1      14.042  52.797  18.028  1.00  0.00     0.003 C 
ATOM     23  C   UNL     1      15.964  51.065  18.190  1.00  0.00     0.010 C 
ATOM     24  C   UNL     1      15.757  52.518  16.123  1.00  0.00     0.012 C 
ATOM     25  C   UNL     1      14.799  53.796  19.019  1.00  0.00    -0.006 C 
ATOM     26  C   UNL     1      16.050  51.644  19.607  1.00  0.00     0.033 C 
ATOM     27  C   UNL     1      16.125  53.166  19.587  1.00  0.00     0.120 C 
ATOM     28  C   UNL     1      15.113  55.184  18.389  1.00  0.00     0.014 C 
ATOM     29  C   UNL     1      13.860  54.079  20.226  1.00  0.00     0.014 C 
ENDROOT
BRANCH   1  30
ATOM     30  C   UNL     1      12.114  48.258  11.774  1.00  0.00     0.048 C 
ATOM     31  O   UNL     1      12.132  49.000  10.755  1.00  0.00    -0.550 OA
ATOM     32  O   UNL     1      13.110  47.299  11.910  1.00  0.00    -0.550 OA
ENDBRANCH   1  30
BRANCH  27  33
ATOM     33  O   UNL     1      17.259  53.550  18.843  1.00  0.00    -0.393 OA
ATOM     34  H   UNL     1      18.064  53.251  19.343  1.00  0.00     0.210 HD
ENDBRANCH  27  33
TORSDOF 2
ENDMDL
MODEL 7
REMARK VINA RESULT:    -5.736      4.556      7.027
REMARK INTER + INTRA:          -6.102
REMARK INTER:                  -6.246
REMARK INTRA:                   0.144
REMARK UNBOUND:                 0.136
REMARK SMILES C[C@H]1[C@H](C)CC[C@@]2(C(=O)[O-])CC[C@]3(C)C(=CC[C@H]4[C@]5(C)CC[C@@H](O)C(C)(C)[C@H]5CC[C@]43C)[C@H]12
REMARK SMILES IDX 7 1 6 2 11 3 33 4 5 5 12 6 15 7 2 8 3 9 13 10 16 11 1 12
REMARK SMILES IDX 4 13 14 14 31 15 17 16 18 17 30 18 32 19 19 20 29 21 28 22
REMARK SMILES IDX 21 23 20 24 25 25 22 26 23 27 26 28 27 29 8 30 9 31 10 32
REMARK SMILES IDX 24 33
REMARK H PARENT 24 34
REMARK Flexibility Score: inf
ROOT
ATOM      1  C   UNL     1      12.138  51.829   6.982  1.00  0.00     0.017 C 
ATOM      2  C   UNL     1      12.024  51.222   5.564  1.00  0.00     0.014 C 
ATOM      3  C   UNL     1      10.711  51.821   7.659  1.00  0.00     0.014 C 
ATOM      4  C   UNL     1      13.130  50.964   7.833  1.00  0.00     0.030 C 
ATOM      5  C   UNL     1      13.387  51.132   4.875  1.00  0.00     0.004 C 
ATOM      6  C   UNL     1      10.675  51.230   9.091  1.00  0.00     0.013 C 
ATOM      7  C   UNL     1      13.168  51.555   9.256  1.00  0.00    -0.063 C 
ATOM      8  C   UNL     1      14.507  50.653   7.143  1.00  0.00    -0.003 C 
ATOM      9  C   UNL     1      14.330  50.206   5.655  1.00  0.00    -0.011 C 
ATOM     10  C   UNL     1      11.838  51.761  10.000  1.00  0.00    -0.006 C 
ATOM     11  C   UNL     1      14.312  51.881   9.895  1.00  0.00    -0.027 C 
ATOM     12  C   UNL     1      15.259  49.530   7.908  1.00  0.00     0.008 C 
ATOM     13  C   UNL     1      15.680  50.125   4.922  1.00  0.00     0.008 C 
ATOM     14  C   UNL     1      11.578  53.297  10.180  1.00  0.00     0.017 C 
ATOM     15  C   UNL     1      11.944  51.007  11.415  1.00  0.00    -0.020 C 
ATOM     16  C   UNL     1      14.291  52.277  11.342  1.00  0.00     0.032 C 
ATOM     17  C   UNL     1      13.329  51.357  12.161  1.00  0.00     0.006 C 
ATOM     18  C   UNL     1      10.706  51.344  12.297  1.00  0.00     0.008 C 
ATOM     19  C   UNL     1      11.907  49.458  11.178  1.00  0.00     0.012 C 
ATOM     20  C   UNL     1      13.248  51.730  13.709  1.00  0.00    -0.025 C 
ATOM     21  C   UNL     1      10.771  50.856  13.753  1.00  0.00     0.005 C 
ATOM     22  C   UNL     1      12.194  50.775  14.386  1.00  0.00     0.003 C 
ATOM     23  C   UNL     1      14.680  51.508  14.349  1.00  0.00     0.010 C 
ATOM     24  C   UNL     1      12.862  53.223  13.926  1.00  0.00     0.012 C 
ATOM     25  C   UNL     1      12.186  50.723  15.983  1.00  0.00    -0.006 C 
ATOM     26  C   UNL     1      14.714  50.626  15.603  1.00  0.00     0.033 C 
ATOM     27  C   UNL     1      13.612  51.006  16.585  1.00  0.00     0.120 C 
ATOM     28  C   UNL     1      11.148  51.681  16.635  1.00  0.00     0.014 C 
ATOM     29  C   UNL     1      11.771  49.288  16.414  1.00  0.00     0.014 C 
ENDROOT
BRANCH   1  30
ATOM     30  C   UNL     1      12.610  53.278   6.836  1.00  0.00     0.048 C 
ATOM     31  O   UNL     1      11.766  54.209   6.749  1.00  0.00    -0.550 OA
ATOM     32  O   UNL     1      13.959  53.601   6.760  1.00  0.00    -0.550 OA
ENDBRANCH   1  30
BRANCH  27  33
ATOM     33  O   UNL     1      13.780  52.357  16.947  1.00  0.00    -0.393 OA
ATOM     34  H   UNL     1      12.877  52.764  17.026  1.00  0.00     0.210 HD
ENDBRANCH  27  33
TORSDOF 2
ENDMDL
MODEL 8
REMARK VINA RESULT:    -5.713      9.035     11.237
REMARK INTER + INTRA:          -6.078
REMARK INTER:                  -6.239
REMARK INTRA:                   0.161
REMARK UNBOUND:                 0.136
REMARK SMILES C[C@H]1[C@H](C)CC[C@@]2(C(=O)[O-])CC[C@]3(C)C(=CC[C@H]4[C@]5(C)CC[C@@H](O)C(C)(C)[C@H]5CC[C@]43C)[C@H]12
REMARK SMILES IDX 7 1 6 2 11 3 33 4 5 5 12 6 15 7 2 8 3 9 13 10 16 11 1 12
REMARK SMILES IDX 4 13 14 14 31 15 17 16 18 17 30 18 32 19 19 20 29 21 28 22
REMARK SMILES IDX 21 23 20 24 25 25 22 26 23 27 26 28 27 29 8 30 9 31 10 32
REMARK SMILES IDX 24 33
REMARK H PARENT 24 34
REMARK Flexibility Score: inf
ROOT
ATOM      1  C   UNL     1      11.298  53.679   7.168  1.00  0.00     0.017 C 
ATOM      2  C   UNL     1      10.340  54.763   6.620  1.00  0.00     0.014 C 
ATOM      3  C   UNL     1      11.461  52.543   6.082  1.00  0.00     0.014 C 
ATOM      4  C   UNL     1      12.694  54.329   7.462  1.00  0.00     0.030 C 
ATOM      5  C   UNL     1      10.193  55.933   7.593  1.00  0.00     0.004 C 
ATOM      6  C   UNL     1      12.926  52.144   5.773  1.00  0.00     0.013 C 
ATOM      7  C   UNL     1      13.641  53.212   7.941  1.00  0.00    -0.063 C 
ATOM      8  C   UNL     1      12.649  55.651   8.311  1.00  0.00    -0.003 C 
ATOM      9  C   UNL     1      11.542  56.634   7.809  1.00  0.00    -0.011 C 
ATOM     10  C   UNL     1      13.792  51.955   7.068  1.00  0.00    -0.006 C 
ATOM     11  C   UNL     1      14.366  53.288   9.078  1.00  0.00    -0.027 C 
ATOM     12  C   UNL     1      14.017  56.382   8.254  1.00  0.00     0.008 C 
ATOM     13  C   UNL     1      11.350  57.815   8.775  1.00  0.00     0.008 C 
ATOM     14  C   UNL     1      13.179  50.724   7.821  1.00  0.00     0.017 C 
ATOM     15  C   UNL     1      15.358  51.748   6.770  1.00  0.00    -0.020 C 
ATOM     16  C   UNL     1      15.404  52.251   9.391  1.00  0.00     0.032 C 
ATOM     17  C   UNL     1      16.231  51.884   8.116  1.00  0.00     0.006 C 
ATOM     18  C   UNL     1      15.593  50.384   6.058  1.00  0.00     0.008 C 
ATOM     19  C   UNL     1      15.843  52.855   5.771  1.00  0.00     0.012 C 
ATOM     20  C   UNL     1      17.348  50.776   8.374  1.00  0.00    -0.025 C 
ATOM     21  C   UNL     1      17.061  49.961   5.893  1.00  0.00     0.005 C 
ATOM     22  C   UNL     1      18.044  50.456   6.998  1.00  0.00     0.003 C 
ATOM     23  C   UNL     1      18.404  51.364   9.400  1.00  0.00     0.010 C 
ATOM     24  C   UNL     1      16.749  49.484   9.005  1.00  0.00     0.012 C 
ATOM     25  C   UNL     1      19.416  49.637   7.054  1.00  0.00    -0.006 C 
ATOM     26  C   UNL     1      19.870  51.286   8.956  1.00  0.00     0.033 C 
ATOM     27  C   UNL     1      20.210  49.915   8.383  1.00  0.00     0.120 C 
ATOM     28  C   UNL     1      19.235  48.102   6.868  1.00  0.00     0.014 C 
ATOM     29  C   UNL     1      20.305  50.108   5.868  1.00  0.00     0.014 C 
ENDROOT
BRANCH   1  30
ATOM     30  C   UNL     1      10.660  53.079   8.423  1.00  0.00     0.048 C 
ATOM     31  O   UNL     1       9.775  52.189   8.315  1.00  0.00    -0.550 OA
ATOM     32  O   UNL     1      11.006  53.515   9.696  1.00  0.00    -0.550 OA
ENDBRANCH   1  30
BRANCH  27  33
ATOM     33  O   UNL     1      19.957  48.941   9.370  1.00  0.00    -0.393 OA
ATOM     34  H   UNL     1      19.602  48.133   8.913  1.00  0.00     0.210 HD
ENDBRANCH  27  33
TORSDOF 2
ENDMDL
MODEL 9
REMARK VINA RESULT:    -5.655      5.123      8.972
REMARK INTER + INTRA:          -6.015
REMARK INTER:                  -6.159
REMARK INTRA:                   0.144
REMARK UNBOUND:                 0.136
REMARK SMILES C[C@H]1[C@H](C)CC[C@@]2(C(=O)[O-])CC[C@]3(C)C(=CC[C@H]4[C@]5(C)CC[C@@H](O)C(C)(C)[C@H]5CC[C@]43C)[C@H]12
REMARK SMILES IDX 7 1 6 2 11 3 33 4 5 5 12 6 15 7 2 8 3 9 13 10 16 11 1 12
REMARK SMILES IDX 4 13 14 14 31 15 17 16 18 17 30 18 32 19 19 20 29 21 28 22
REMARK SMILES IDX 21 23 20 24 25 25 22 26 23 27 26 28 27 29 8 30 9 31 10 32
REMARK SMILES IDX 24 33
REMARK H PARENT 24 34
REMARK Flexibility Score: inf
ROOT
ATOM      1  C   UNL     1      13.313  52.001   6.170  1.00  0.00     0.017 C 
ATOM      2  C   UNL     1      14.095  52.326   4.875  1.00  0.00     0.014 C 
ATOM      3  C   UNL     1      12.588  50.608   5.995  1.00  0.00     0.014 C 
ATOM      4  C   UNL     1      14.317  51.924   7.371  1.00  0.00     0.030 C 
ATOM      5  C   UNL     1      14.882  53.631   5.001  1.00  0.00     0.004 C 
ATOM      6  C   UNL     1      12.804  49.612   7.162  1.00  0.00     0.013 C 
ATOM      7  C   UNL     1      13.517  51.533   8.629  1.00  0.00    -0.063 C 
ATOM      8  C   UNL     1      15.307  53.139   7.493  1.00  0.00    -0.003 C 
ATOM      9  C   UNL     1      15.934  53.525   6.114  1.00  0.00    -0.011 C 
ATOM     10  C   UNL     1      12.629  50.279   8.572  1.00  0.00    -0.006 C 
ATOM     11  C   UNL     1      13.573  52.221   9.789  1.00  0.00    -0.027 C 
ATOM     12  C   UNL     1      16.457  52.808   8.481  1.00  0.00     0.008 C 
ATOM     13  C   UNL     1      16.718  54.846   6.197  1.00  0.00     0.008 C 
ATOM     14  C   UNL     1      11.124  50.705   8.665  1.00  0.00     0.017 C 
ATOM     15  C   UNL     1      13.051  49.321   9.792  1.00  0.00    -0.020 C 
ATOM     16  C   UNL     1      12.916  51.685  11.026  1.00  0.00     0.032 C 
ATOM     17  C   UNL     1      13.164  50.148  11.170  1.00  0.00     0.006 C 
ATOM     18  C   UNL     1      12.057  48.129   9.907  1.00  0.00     0.008 C 
ATOM     19  C   UNL     1      14.458  48.695   9.494  1.00  0.00     0.012 C 
ATOM     20  C   UNL     1      12.482  49.507  12.461  1.00  0.00    -0.025 C 
ATOM     21  C   UNL     1      12.219  47.244  11.154  1.00  0.00     0.005 C 
ATOM     22  C   UNL     1      12.751  47.955  12.435  1.00  0.00     0.003 C 
ATOM     23  C   UNL     1      13.143  50.157  13.747  1.00  0.00     0.010 C 
ATOM     24  C   UNL     1      10.954  49.803  12.517  1.00  0.00     0.012 C 
ATOM     25  C   UNL     1      12.467  47.148  13.785  1.00  0.00    -0.006 C 
ATOM     26  C   UNL     1      13.682  49.166  14.785  1.00  0.00     0.033 C 
ATOM     27  C   UNL     1      12.686  48.044  15.059  1.00  0.00     0.120 C 
ATOM     28  C   UNL     1      11.053  46.502  13.841  1.00  0.00     0.014 C 
ATOM     29  C   UNL     1      13.478  45.969  13.861  1.00  0.00     0.014 C 
ENDROOT
BRANCH   1  30
ATOM     30  C   UNL     1      12.255  53.089   6.366  1.00  0.00     0.048 C 
ATOM     31  O   UNL     1      11.098  52.935   5.893  1.00  0.00    -0.550 OA
ATOM     32  O   UNL     1      12.545  54.276   7.028  1.00  0.00    -0.550 OA
ENDBRANCH   1  30
BRANCH  27  33
ATOM     33  O   UNL     1      11.483  48.616  15.522  1.00  0.00    -0.393 OA
ATOM     34  H   UNL     1      11.664  49.569  15.735  1.00  0.00     0.210 HD
ENDBRANCH  27  33
TORSDOF 2
ENDMDL
