MODEL 1
REMARK VINA RESULT:    -2.688      0.000      0.000
REMARK INTER + INTRA:          -7.957
REMARK INTER:                  -5.044
REMARK INTRA:                  -2.912
REMARK UNBOUND:                -2.912
REMARK SMILES CCCCCCCCC=CCCCCCCCC(=O)[O-]
REMARK SMILES IDX 10 1 9 2 11 3 12 4 13 5 14 6 15 7 16 8 17 9 18 10 19 11
REMARK SMILES IDX 20 12 8 13 7 14 6 15 5 16 4 17 3 18 2 19 1 20
REMARK H PARENT
REMARK Flexibility Score: inf
ROOT
ATOM      1  C   UNL     1     -99.700  24.406 -40.167  1.00  0.00    -0.031 C 
ATOM      2  C   UNL     1     -99.507  24.661 -38.860  1.00  0.00    -0.031 C 
ENDROOT
BRANCH   1   3
ATOM      3  C   UNL     1     -99.123  25.226 -41.295  1.00  0.00     0.027 C 
BRANCH   3   4
ATOM      4  C   UNL     1     -98.987  24.379 -42.565  1.00  0.00     0.004 C 
BRANCH   4   5
ATOM      5  C   UNL     1     -97.767  23.451 -42.477  1.00  0.00     0.000 C 
BRANCH   5   6
ATOM      6  C   UNL     1     -96.434  24.218 -42.406  1.00  0.00     0.000 C 
BRANCH   6   7
ATOM      7  C   UNL     1     -95.524  23.841 -41.222  1.00  0.00     0.000 C 
BRANCH   7   8
ATOM      8  C   UNL     1     -95.500  24.853 -40.059  1.00  0.00     0.006 C 
BRANCH   8   9
ATOM      9  C   UNL     1     -95.673  26.318 -40.501  1.00  0.00     0.053 C 
BRANCH   9  10
ATOM     10  C   UNL     1     -95.299  27.292 -39.425  1.00  0.00     0.041 C 
ATOM     11  O   UNL     1     -95.350  28.531 -39.644  1.00  0.00    -0.550 OA
ATOM     12  O   UNL     1     -94.928  26.833 -38.168  1.00  0.00    -0.550 OA
ENDBRANCH   9  10
ENDBRANCH   8   9
ENDBRANCH   7   8
ENDBRANCH   6   7
ENDBRANCH   5   6
ENDBRANCH   4   5
ENDBRANCH   3   4
ENDBRANCH   1   3
BRANCH   2  13
ATOM     13  C   UNL     1     -98.607  25.745 -38.318  1.00  0.00     0.027 C 
BRANCH  13  14
ATOM     14  C   UNL     1     -99.373  27.047 -38.027  1.00  0.00     0.004 C 
BRANCH  14  15
ATOM     15  C   UNL     1     -99.047  28.203 -38.991  1.00  0.00     0.000 C 
BRANCH  15  16
ATOM     16  C   UNL     1    -100.151  28.443 -40.032  1.00  0.00     0.000 C 
BRANCH  16  17
ATOM     17  C   UNL     1    -101.490  27.863 -39.556  1.00  0.00    -0.000 C 
BRANCH  17  18
ATOM     18  C   UNL     1    -102.348  27.308 -40.707  1.00  0.00    -0.000 C 
BRANCH  18  19
ATOM     19  C   UNL     1    -102.138  28.006 -42.063  1.00  0.00    -0.003 C 
ATOM     20  C   UNL     1    -101.636  27.058 -43.151  1.00  0.00     0.004 C 
ENDBRANCH  18  19
ENDBRANCH  17  18
ENDBRANCH  16  17
ENDBRANCH  15  16
ENDBRANCH  14  15
ENDBRANCH  13  14
ENDBRANCH   2  13
TORSDOF 15
ENDMDL
MODEL 2
REMARK VINA RESULT:    -2.510      2.292      4.457
REMARK INTER + INTRA:          -7.623
REMARK INTER:                  -5.172
REMARK INTRA:                  -2.451
REMARK UNBOUND:                -2.912
REMARK SMILES CCCCCCCCC=CCCCCCCCC(=O)[O-]
REMARK SMILES IDX 10 1 9 2 11 3 12 4 13 5 14 6 15 7 16 8 17 9 18 10 19 11
REMARK SMILES IDX 20 12 8 13 7 14 6 15 5 16 4 17 3 18 2 19 1 20
REMARK H PARENT
REMARK Flexibility Score: inf
ROOT
ATOM      1  C   UNL     1    -102.366  27.254 -42.328  1.00  0.00    -0.031 C 
ATOM      2  C   UNL     1    -103.683  27.490 -42.180  1.00  0.00    -0.031 C 
ENDROOT
BRANCH   1   3
ATOM      3  C   UNL     1    -101.283  28.286 -42.133  1.00  0.00     0.027 C 
BRANCH   3   4
ATOM      4  C   UNL     1    -100.661  28.160 -40.738  1.00  0.00     0.004 C 
BRANCH   4   5
ATOM      5  C   UNL     1    -100.260  26.706 -40.446  1.00  0.00     0.000 C 
BRANCH   5   6
ATOM      6  C   UNL     1     -98.949  26.594 -39.647  1.00  0.00     0.000 C 
BRANCH   6   7
ATOM      7  C   UNL     1     -98.667  27.762 -38.683  1.00  0.00     0.000 C 
BRANCH   7   8
ATOM      8  C   UNL     1     -97.234  27.820 -38.118  1.00  0.00     0.006 C 
BRANCH   8   9
ATOM      9  C   UNL     1     -96.193  28.376 -39.107  1.00  0.00     0.053 C 
BRANCH   9  10
ATOM     10  C   UNL     1     -95.235  27.329 -39.585  1.00  0.00     0.041 C 
ATOM     11  O   UNL     1     -94.131  27.164 -39.002  1.00  0.00    -0.550 OA
ATOM     12  O   UNL     1     -95.576  26.506 -40.652  1.00  0.00    -0.550 OA
ENDBRANCH   9  10
ENDBRANCH   8   9
ENDBRANCH   7   8
ENDBRANCH   6   7
ENDBRANCH   5   6
ENDBRANCH   4   5
ENDBRANCH   3   4
ENDBRANCH   1   3
BRANCH   2  13
ATOM     13  C   UNL     1    -104.276  28.794 -41.703  1.00  0.00     0.027 C 
BRANCH  13  14
ATOM     14  C   UNL     1    -104.848  28.687 -40.279  1.00  0.00     0.004 C 
BRANCH  14  15
ATOM     15  C   UNL     1    -104.486  29.869 -39.360  1.00  0.00     0.000 C 
BRANCH  15  16
ATOM     16  C   UNL     1    -103.177  29.645 -38.587  1.00  0.00     0.000 C 
BRANCH  16  17
ATOM     17  C   UNL     1    -103.373  28.617 -37.463  1.00  0.00    -0.000 C 
BRANCH  17  18
ATOM     18  C   UNL     1    -102.465  27.383 -37.613  1.00  0.00    -0.000 C 
BRANCH  18  19
ATOM     19  C   UNL     1    -103.207  26.035 -37.635  1.00  0.00    -0.003 C 
ATOM     20  C   UNL     1    -103.403  25.483 -39.046  1.00  0.00     0.004 C 
ENDBRANCH  18  19
ENDBRANCH  17  18
ENDBRANCH  16  17
ENDBRANCH  15  16
ENDBRANCH  14  15
ENDBRANCH  13  14
ENDBRANCH   2  13
TORSDOF 15
ENDMDL
MODEL 3
REMARK VINA RESULT:    -2.487      2.590      4.501
REMARK INTER + INTRA:          -7.580
REMARK INTER:                  -5.466
REMARK INTRA:                  -2.114
REMARK UNBOUND:                -2.912
REMARK SMILES CCCCCCCCC=CCCCCCCCC(=O)[O-]
REMARK SMILES IDX 10 1 9 2 11 3 12 4 13 5 14 6 15 7 16 8 17 9 18 10 19 11
REMARK SMILES IDX 20 12 8 13 7 14 6 15 5 16 4 17 3 18 2 19 1 20
REMARK H PARENT
REMARK Flexibility Score: inf
ROOT
ATOM      1  C   UNL     1     -99.447  28.232 -39.207  1.00  0.00    -0.031 C 
ATOM      2  C   UNL     1    -100.291  28.300 -40.254  1.00  0.00    -0.031 C 
ENDROOT
BRANCH   1   3
ATOM      3  C   UNL     1     -99.000  26.951 -38.548  1.00  0.00     0.027 C 
BRANCH   3   4
ATOM      4  C   UNL     1     -97.603  27.115 -37.938  1.00  0.00     0.004 C 
BRANCH   4   5
ATOM      5  C   UNL     1     -96.835  28.253 -38.625  1.00  0.00     0.000 C 
BRANCH   5   6
ATOM      6  C   UNL     1     -95.722  27.746 -39.561  1.00  0.00     0.000 C 
BRANCH   6   7
ATOM      7  C   UNL     1     -95.616  26.214 -39.682  1.00  0.00     0.000 C 
BRANCH   7   8
ATOM      8  C   UNL     1     -95.908  25.640 -41.082  1.00  0.00     0.006 C 
BRANCH   8   9
ATOM      9  C   UNL     1     -97.285  24.961 -41.205  1.00  0.00     0.053 C 
BRANCH   9  10
ATOM     10  C   UNL     1     -97.407  24.126 -42.443  1.00  0.00     0.041 C 
ATOM     11  O   UNL     1     -96.389  23.581 -42.945  1.00  0.00    -0.550 OA
ATOM     12  O   UNL     1     -98.652  23.918 -43.024  1.00  0.00    -0.550 OA
ENDBRANCH   9  10
ENDBRANCH   8   9
ENDBRANCH   7   8
ENDBRANCH   6   7
ENDBRANCH   5   6
ENDBRANCH   4   5
ENDBRANCH   3   4
ENDBRANCH   1   3
BRANCH   2  13
ATOM     13  C   UNL     1    -100.846  27.105 -40.991  1.00  0.00     0.027 C 
BRANCH  13  14
ATOM     14  C   UNL     1    -102.382  27.131 -41.070  1.00  0.00     0.004 C 
BRANCH  14  15
ATOM     15  C   UNL     1    -102.947  28.143 -42.084  1.00  0.00     0.000 C 
BRANCH  15  16
ATOM     16  C   UNL     1    -104.223  28.839 -41.587  1.00  0.00     0.000 C 
BRANCH  16  17
ATOM     17  C   UNL     1    -104.643  28.299 -40.212  1.00  0.00    -0.000 C 
BRANCH  17  18
ATOM     18  C   UNL     1    -104.674  29.386 -39.123  1.00  0.00    -0.000 C 
BRANCH  18  19
ATOM     19  C   UNL     1    -103.290  29.870 -38.655  1.00  0.00    -0.003 C 
ATOM     20  C   UNL     1    -102.700  29.006 -37.541  1.00  0.00     0.004 C 
ENDBRANCH  18  19
ENDBRANCH  17  18
ENDBRANCH  16  17
ENDBRANCH  15  16
ENDBRANCH  14  15
ENDBRANCH  13  14
ENDBRANCH   2  13
TORSDOF 15
ENDMDL
MODEL 4
REMARK VINA RESULT:    -2.483      1.126      2.801
REMARK INTER + INTRA:          -7.573
REMARK INTER:                  -4.749
REMARK INTRA:                  -2.824
REMARK UNBOUND:                -2.912
REMARK SMILES CCCCCCCCC=CCCCCCCCC(=O)[O-]
REMARK SMILES IDX 10 1 9 2 11 3 12 4 13 5 14 6 15 7 16 8 17 9 18 10 19 11
REMARK SMILES IDX 20 12 8 13 7 14 6 15 5 16 4 17 3 18 2 19 1 20
REMARK H PARENT
REMARK Flexibility Score: inf
ROOT
ATOM      1  C   UNL     1     -98.652  24.496 -42.605  1.00  0.00    -0.031 C 
ATOM      2  C   UNL     1     -99.112  25.133 -41.512  1.00  0.00    -0.031 C 
ENDROOT
BRANCH   1   3
ATOM      3  C   UNL     1     -98.685  23.001 -42.804  1.00  0.00     0.027 C 
BRANCH   3   4
ATOM      4  C   UNL     1     -97.275  22.409 -42.692  1.00  0.00     0.004 C 
BRANCH   4   5
ATOM      5  C   UNL     1     -96.208  23.502 -42.845  1.00  0.00     0.000 C 
BRANCH   5   6
ATOM      6  C   UNL     1     -95.258  23.587 -41.637  1.00  0.00     0.000 C 
BRANCH   6   7
ATOM      7  C   UNL     1     -95.940  23.494 -40.259  1.00  0.00     0.000 C 
BRANCH   7   8
ATOM      8  C   UNL     1     -95.867  24.770 -39.398  1.00  0.00     0.006 C 
BRANCH   8   9
ATOM      9  C   UNL     1     -95.767  26.072 -40.215  1.00  0.00     0.053 C 
BRANCH   9  10
ATOM     10  C   UNL     1     -95.000  27.142 -39.502  1.00  0.00     0.041 C 
ATOM     11  O   UNL     1     -94.050  26.838 -38.733  1.00  0.00    -0.550 OA
ATOM     12  O   UNL     1     -95.308  28.480 -39.714  1.00  0.00    -0.550 OA
ENDBRANCH   9  10
ENDBRANCH   8   9
ENDBRANCH   7   8
ENDBRANCH   6   7
ENDBRANCH   5   6
ENDBRANCH   4   5
ENDBRANCH   3   4
ENDBRANCH   1   3
BRANCH   2  13
ATOM     13  C   UNL     1     -99.819  24.462 -40.360  1.00  0.00     0.027 C 
BRANCH  13  14
ATOM     14  C   UNL     1    -101.350  24.525 -40.499  1.00  0.00     0.004 C 
BRANCH  14  15
ATOM     15  C   UNL     1    -102.036  25.496 -39.520  1.00  0.00     0.000 C 
BRANCH  15  16
ATOM     16  C   UNL     1    -102.100  26.935 -40.053  1.00  0.00     0.000 C 
BRANCH  16  17
ATOM     17  C   UNL     1    -101.342  27.898 -39.127  1.00  0.00    -0.000 C 
BRANCH  17  18
ATOM     18  C   UNL     1    -100.019  28.397 -39.732  1.00  0.00    -0.000 C 
BRANCH  18  19
ATOM     19  C   UNL     1     -98.753  27.921 -38.998  1.00  0.00    -0.003 C 
ATOM     20  C   UNL     1     -99.060  27.075 -37.764  1.00  0.00     0.004 C 
ENDBRANCH  18  19
ENDBRANCH  17  18
ENDBRANCH  16  17
ENDBRANCH  15  16
ENDBRANCH  14  15
ENDBRANCH  13  14
ENDBRANCH   2  13
TORSDOF 15
ENDMDL
MODEL 5
REMARK VINA RESULT:    -2.448      2.608      4.704
REMARK INTER + INTRA:          -7.506
REMARK INTER:                  -4.829
REMARK INTRA:                  -2.678
REMARK UNBOUND:                -2.912
REMARK SMILES CCCCCCCCC=CCCCCCCCC(=O)[O-]
REMARK SMILES IDX 10 1 9 2 11 3 12 4 13 5 14 6 15 7 16 8 17 9 18 10 19 11
REMARK SMILES IDX 20 12 8 13 7 14 6 15 5 16 4 17 3 18 2 19 1 20
REMARK H PARENT
REMARK Flexibility Score: inf
ROOT
ATOM      1  C   UNL     1     -97.249  24.324 -39.961  1.00  0.00    -0.031 C 
ATOM      2  C   UNL     1     -96.466  24.177 -38.876  1.00  0.00    -0.031 C 
ENDROOT
BRANCH   1   3
ATOM      3  C   UNL     1     -96.836  25.034 -41.227  1.00  0.00     0.027 C 
BRANCH   3   4
ATOM      4  C   UNL     1     -96.930  24.092 -42.432  1.00  0.00     0.004 C 
BRANCH   4   5
ATOM      5  C   UNL     1     -97.810  22.875 -42.109  1.00  0.00     0.000 C 
BRANCH   5   6
ATOM      6  C   UNL     1     -99.110  22.839 -42.932  1.00  0.00     0.000 C 
BRANCH   6   7
ATOM      7  C   UNL     1     -99.844  24.188 -43.057  1.00  0.00     0.000 C 
BRANCH   7   8
ATOM      8  C   UNL     1    -100.647  24.620 -41.814  1.00  0.00     0.006 C 
BRANCH   8   9
ATOM      9  C   UNL     1    -100.427  26.089 -41.407  1.00  0.00     0.053 C 
BRANCH   9  10
ATOM     10  C   UNL     1    -101.317  27.034 -42.155  1.00  0.00     0.041 C 
ATOM     11  O   UNL     1    -101.075  28.270 -42.154  1.00  0.00    -0.550 OA
ATOM     12  O   UNL     1    -102.393  26.546 -42.886  1.00  0.00    -0.550 OA
ENDBRANCH   9  10
ENDBRANCH   8   9
ENDBRANCH   7   8
ENDBRANCH   6   7
ENDBRANCH   5   6
ENDBRANCH   4   5
ENDBRANCH   3   4
ENDBRANCH   1   3
BRANCH   2  13
ATOM     13  C   UNL     1     -95.024  24.613 -38.790  1.00  0.00     0.027 C 
BRANCH  13  14
ATOM     14  C   UNL     1     -94.872  25.996 -38.134  1.00  0.00     0.004 C 
BRANCH  14  15
ATOM     15  C   UNL     1     -94.516  27.128 -39.116  1.00  0.00     0.000 C 
BRANCH  15  16
ATOM     16  C   UNL     1     -95.686  28.092 -39.367  1.00  0.00     0.000 C 
BRANCH  16  17
ATOM     17  C   UNL     1     -96.803  27.880 -38.334  1.00  0.00    -0.000 C 
BRANCH  17  18
ATOM     18  C   UNL     1     -98.211  27.928 -38.953  1.00  0.00    -0.000 C 
BRANCH  18  19
ATOM     19  C   UNL     1     -99.330  27.370 -38.055  1.00  0.00    -0.003 C 
ATOM     20  C   UNL     1    -100.689  28.015 -38.324  1.00  0.00     0.004 C 
ENDBRANCH  18  19
ENDBRANCH  17  18
ENDBRANCH  16  17
ENDBRANCH  15  16
ENDBRANCH  14  15
ENDBRANCH  13  14
ENDBRANCH   2  13
TORSDOF 15
ENDMDL
MODEL 6
REMARK VINA RESULT:    -2.439      1.711      4.033
REMARK INTER + INTRA:          -7.490
REMARK INTER:                  -4.746
REMARK INTRA:                  -2.744
REMARK UNBOUND:                -2.912
REMARK SMILES CCCCCCCCC=CCCCCCCCC(=O)[O-]
REMARK SMILES IDX 10 1 9 2 11 3 12 4 13 5 14 6 15 7 16 8 17 9 18 10 19 11
REMARK SMILES IDX 20 12 8 13 7 14 6 15 5 16 4 17 3 18 2 19 1 20
REMARK H PARENT
REMARK Flexibility Score: inf
ROOT
ATOM      1  C   UNL     1    -100.807  24.454 -39.395  1.00  0.00    -0.031 C 
ATOM      2  C   UNL     1     -99.751  24.235 -40.199  1.00  0.00    -0.031 C 
ENDROOT
BRANCH   1   3
ATOM      3  C   UNL     1    -101.652  25.704 -39.410  1.00  0.00     0.027 C 
BRANCH   3   4
ATOM      4  C   UNL     1    -101.853  26.239 -37.988  1.00  0.00     0.004 C 
BRANCH   4   5
ATOM      5  C   UNL     1    -100.872  27.381 -37.688  1.00  0.00     0.000 C 
BRANCH   5   6
ATOM      6  C   UNL     1    -100.573  28.255 -38.920  1.00  0.00     0.000 C 
BRANCH   6   7
ATOM      7  C   UNL     1     -99.112  28.223 -39.406  1.00  0.00     0.000 C 
BRANCH   7   8
ATOM      8  C   UNL     1     -98.132  27.448 -38.503  1.00  0.00     0.006 C 
BRANCH   8   9
ATOM      9  C   UNL     1     -96.727  28.074 -38.420  1.00  0.00     0.053 C 
BRANCH   9  10
ATOM     10  C   UNL     1     -95.676  27.218 -39.056  1.00  0.00     0.041 C 
ATOM     11  O   UNL     1     -95.590  27.143 -40.310  1.00  0.00    -0.550 OA
ATOM     12  O   UNL     1     -94.764  26.530 -38.265  1.00  0.00    -0.550 OA
ENDBRANCH   9  10
ENDBRANCH   8   9
ENDBRANCH   7   8
ENDBRANCH   6   7
ENDBRANCH   5   6
ENDBRANCH   4   5
ENDBRANCH   3   4
ENDBRANCH   1   3
BRANCH   2  13
ATOM     13  C   UNL     1     -99.304  25.161 -41.305  1.00  0.00     0.027 C 
BRANCH  13  14
ATOM     14  C   UNL     1     -99.761  24.676 -42.691  1.00  0.00     0.004 C 
BRANCH  14  15
ATOM     15  C   UNL     1    -101.107  25.264 -43.156  1.00  0.00     0.000 C 
BRANCH  15  16
ATOM     16  C   UNL     1    -101.199  26.784 -42.946  1.00  0.00     0.000 C 
BRANCH  16  17
ATOM     17  C   UNL     1    -102.662  27.232 -42.813  1.00  0.00    -0.000 C 
BRANCH  17  18
ATOM     18  C   UNL     1    -102.865  28.311 -41.736  1.00  0.00    -0.000 C 
BRANCH  18  19
ATOM     19  C   UNL     1    -104.147  28.155 -40.899  1.00  0.00    -0.003 C 
ATOM     20  C   UNL     1    -104.099  28.928 -39.582  1.00  0.00     0.004 C 
ENDBRANCH  18  19
ENDBRANCH  17  18
ENDBRANCH  16  17
ENDBRANCH  15  16
ENDBRANCH  14  15
ENDBRANCH  13  14
ENDBRANCH   2  13
TORSDOF 15
ENDMDL
MODEL 7
REMARK VINA RESULT:    -2.432      2.520      4.247
REMARK INTER + INTRA:          -7.477
REMARK INTER:                  -4.883
REMARK INTRA:                  -2.594
REMARK UNBOUND:                -2.912
REMARK SMILES CCCCCCCCC=CCCCCCCCC(=O)[O-]
REMARK SMILES IDX 10 1 9 2 11 3 12 4 13 5 14 6 15 7 16 8 17 9 18 10 19 11
REMARK SMILES IDX 20 12 8 13 7 14 6 15 5 16 4 17 3 18 2 19 1 20
REMARK H PARENT
REMARK Flexibility Score: inf
ROOT
ATOM      1  C   UNL     1     -96.615  28.045 -38.812  1.00  0.00    -0.031 C 
ATOM      2  C   UNL     1     -97.837  27.485 -38.883  1.00  0.00    -0.031 C 
ENDROOT
BRANCH   1   3
ATOM      3  C   UNL     1     -95.407  27.567 -39.579  1.00  0.00     0.027 C 
BRANCH   3   4
ATOM      4  C   UNL     1     -94.360  26.978 -38.627  1.00  0.00     0.004 C 
BRANCH   4   5
ATOM      5  C   UNL     1     -94.134  25.487 -38.916  1.00  0.00     0.000 C 
BRANCH   5   6
ATOM      6  C   UNL     1     -95.289  24.598 -38.419  1.00  0.00     0.000 C 
BRANCH   6   7
ATOM      7  C   UNL     1     -95.778  23.538 -39.424  1.00  0.00     0.000 C 
BRANCH   7   8
ATOM      8  C   UNL     1     -95.143  23.614 -40.826  1.00  0.00     0.006 C 
BRANCH   8   9
ATOM      9  C   UNL     1     -96.102  24.116 -41.922  1.00  0.00     0.053 C 
BRANCH   9  10
ATOM     10  C   UNL     1     -96.239  23.146 -43.056  1.00  0.00     0.041 C 
ATOM     11  O   UNL     1     -95.215  22.692 -43.631  1.00  0.00    -0.550 OA
ATOM     12  O   UNL     1     -97.497  22.713 -43.455  1.00  0.00    -0.550 OA
ENDBRANCH   9  10
ENDBRANCH   8   9
ENDBRANCH   7   8
ENDBRANCH   6   7
ENDBRANCH   5   6
ENDBRANCH   4   5
ENDBRANCH   3   4
ENDBRANCH   1   3
BRANCH   2  13
ATOM     13  C   UNL     1     -98.213  26.356 -39.811  1.00  0.00     0.027 C 
BRANCH  13  14
ATOM     14  C   UNL     1     -99.061  25.282 -39.108  1.00  0.00     0.004 C 
BRANCH  14  15
ATOM     15  C   UNL     1     -99.733  24.279 -40.064  1.00  0.00     0.000 C 
BRANCH  15  16
ATOM     16  C   UNL     1     -99.722  24.748 -41.527  1.00  0.00     0.000 C 
BRANCH  16  17
ATOM     17  C   UNL     1    -101.101  25.279 -41.944  1.00  0.00    -0.000 C 
BRANCH  17  18
ATOM     18  C   UNL     1    -101.019  26.524 -42.844  1.00  0.00    -0.000 C 
BRANCH  18  19
ATOM     19  C   UNL     1    -101.668  27.790 -42.256  1.00  0.00    -0.003 C 
ATOM     20  C   UNL     1    -101.004  28.255 -40.961  1.00  0.00     0.004 C 
ENDBRANCH  18  19
ENDBRANCH  17  18
ENDBRANCH  16  17
ENDBRANCH  15  16
ENDBRANCH  14  15
ENDBRANCH  13  14
ENDBRANCH   2  13
TORSDOF 15
ENDMDL
MODEL 8
REMARK VINA RESULT:    -2.415      2.484      5.644
REMARK INTER + INTRA:          -7.444
REMARK INTER:                  -4.882
REMARK INTRA:                  -2.563
REMARK UNBOUND:                -2.912
REMARK SMILES CCCCCCCCC=CCCCCCCCC(=O)[O-]
REMARK SMILES IDX 10 1 9 2 11 3 12 4 13 5 14 6 15 7 16 8 17 9 18 10 19 11
REMARK SMILES IDX 20 12 8 13 7 14 6 15 5 16 4 17 3 18 2 19 1 20
REMARK H PARENT
REMARK Flexibility Score: inf
ROOT
ATOM      1  C   UNL     1     -94.587  25.006 -37.609  1.00  0.00    -0.031 C 
ATOM      2  C   UNL     1     -95.519  24.036 -37.621  1.00  0.00    -0.031 C 
ENDROOT
BRANCH   1   3
ATOM      3  C   UNL     1     -93.954  25.603 -38.841  1.00  0.00     0.027 C 
BRANCH   3   4
ATOM      4  C   UNL     1     -94.161  27.121 -38.876  1.00  0.00     0.004 C 
BRANCH   4   5
ATOM      5  C   UNL     1     -95.403  27.487 -39.700  1.00  0.00     0.000 C 
BRANCH   5   6
ATOM      6  C   UNL     1     -96.470  28.234 -38.880  1.00  0.00     0.000 C 
BRANCH   6   7
ATOM      7  C   UNL     1     -97.257  27.365 -37.882  1.00  0.00     0.000 C 
BRANCH   7   8
ATOM      8  C   UNL     1     -98.775  27.278 -38.136  1.00  0.00     0.006 C 
BRANCH   8   9
ATOM      9  C   UNL     1     -99.272  28.184 -39.278  1.00  0.00     0.053 C 
BRANCH   9  10
ATOM     10  C   UNL     1    -100.500  27.647 -39.947  1.00  0.00     0.041 C 
ATOM     11  O   UNL     1    -101.281  28.423 -40.557  1.00  0.00    -0.550 OA
ATOM     12  O   UNL     1    -100.764  26.283 -39.928  1.00  0.00    -0.550 OA
ENDBRANCH   9  10
ENDBRANCH   8   9
ENDBRANCH   7   8
ENDBRANCH   6   7
ENDBRANCH   5   6
ENDBRANCH   4   5
ENDBRANCH   3   4
ENDBRANCH   1   3
BRANCH   2  13
ATOM     13  C   UNL     1     -96.146  23.460 -38.868  1.00  0.00     0.027 C 
BRANCH  13  14
ATOM     14  C   UNL     1     -97.655  23.745 -38.946  1.00  0.00     0.004 C 
BRANCH  14  15
ATOM     15  C   UNL     1     -98.142  24.208 -40.332  1.00  0.00     0.000 C 
BRANCH  15  16
ATOM     16  C   UNL     1     -97.044  24.908 -41.148  1.00  0.00     0.000 C 
BRANCH  16  17
ATOM     17  C   UNL     1     -97.110  24.495 -42.625  1.00  0.00    -0.000 C 
BRANCH  17  18
ATOM     18  C   UNL     1     -97.591  23.047 -42.824  1.00  0.00    -0.000 C 
BRANCH  18  19
ATOM     19  C   UNL     1     -96.470  21.991 -42.844  1.00  0.00    -0.003 C 
ATOM     20  C   UNL     1     -95.157  22.525 -43.415  1.00  0.00     0.004 C 
ENDBRANCH  18  19
ENDBRANCH  17  18
ENDBRANCH  16  17
ENDBRANCH  15  16
ENDBRANCH  14  15
ENDBRANCH  13  14
ENDBRANCH   2  13
TORSDOF 15
ENDMDL
MODEL 9
REMARK VINA RESULT:    -2.379      2.634      5.344
REMARK INTER + INTRA:          -7.378
REMARK INTER:                  -4.381
REMARK INTRA:                  -2.996
REMARK UNBOUND:                -2.912
REMARK SMILES CCCCCCCCC=CCCCCCCCC(=O)[O-]
REMARK SMILES IDX 10 1 9 2 11 3 12 4 13 5 14 6 15 7 16 8 17 9 18 10 19 11
REMARK SMILES IDX 20 12 8 13 7 14 6 15 5 16 4 17 3 18 2 19 1 20
REMARK H PARENT
REMARK Flexibility Score: inf
ROOT
ATOM      1  C   UNL     1     -98.134  25.761 -37.427  1.00  0.00    -0.031 C 
ATOM      2  C   UNL     1     -98.228  27.096 -37.571  1.00  0.00    -0.031 C 
ENDROOT
BRANCH   1   3
ATOM      3  C   UNL     1     -97.808  24.800 -38.543  1.00  0.00     0.027 C 
BRANCH   3   4
ATOM      4  C   UNL     1     -99.004  23.886 -38.836  1.00  0.00     0.004 C 
BRANCH   4   5
ATOM      5  C   UNL     1     -99.502  24.080 -40.276  1.00  0.00     0.000 C 
BRANCH   5   6
ATOM      6  C   UNL     1     -98.606  25.024 -41.099  1.00  0.00     0.000 C 
BRANCH   6   7
ATOM      7  C   UNL     1     -98.284  24.542 -42.526  1.00  0.00     0.000 C 
BRANCH   7   8
ATOM      8  C   UNL     1     -96.946  23.794 -42.683  1.00  0.00     0.006 C 
BRANCH   8   9
ATOM      9  C   UNL     1     -95.824  24.315 -41.765  1.00  0.00     0.053 C 
BRANCH   9  10
ATOM     10  C   UNL     1     -95.310  23.265 -40.829  1.00  0.00     0.041 C 
ATOM     11  O   UNL     1     -94.122  23.310 -40.414  1.00  0.00    -0.550 OA
ATOM     12  O   UNL     1     -96.154  22.254 -40.384  1.00  0.00    -0.550 OA
ENDBRANCH   9  10
ENDBRANCH   8   9
ENDBRANCH   7   8
ENDBRANCH   6   7
ENDBRANCH   5   6
ENDBRANCH   4   5
ENDBRANCH   3   4
ENDBRANCH   1   3
BRANCH   2  13
ATOM     13  C   UNL     1     -97.929  27.848 -38.845  1.00  0.00     0.027 C 
BRANCH  13  14
ATOM     14  C   UNL     1     -96.471  28.334 -38.906  1.00  0.00     0.004 C 
BRANCH  14  15
ATOM     15  C   UNL     1     -95.528  27.412 -39.701  1.00  0.00     0.000 C 
BRANCH  15  16
ATOM     16  C   UNL     1     -94.222  27.105 -38.953  1.00  0.00     0.000 C 
BRANCH  16  17
ATOM     17  C   UNL     1     -94.399  25.909 -38.007  1.00  0.00    -0.000 C 
BRANCH  17  18
ATOM     18  C   UNL     1     -94.536  26.324 -36.531  1.00  0.00    -0.000 C 
BRANCH  18  19
ATOM     19  C   UNL     1     -94.770  25.160 -35.552  1.00  0.00    -0.003 C 
ATOM     20  C   UNL     1     -94.973  23.819 -36.255  1.00  0.00     0.004 C 
ENDBRANCH  18  19
ENDBRANCH  17  18
ENDBRANCH  16  17
ENDBRANCH  15  16
ENDBRANCH  14  15
ENDBRANCH  13  14
ENDBRANCH   2  13
TORSDOF 15
ENDMDL
