MODEL 1
REMARK VINA RESULT:    -2.528      0.000      0.000
REMARK INTER + INTRA:          -2.528
REMARK INTER:                  -2.528
REMARK INTRA:                   0.000
REMARK UNBOUND:                 0.000
REMARK SMILES CC(=O)[O-]
REMARK SMILES IDX 1 1 2 2 3 3 4 4
REMARK H PARENT
REMARK Flexibility Score: inf
ROOT
ATOM      1  C   UNL     1      54.560  44.383  12.742  1.00  0.00     0.063 C 
ATOM      2  C   UNL     1      54.480  44.241  11.260  1.00  0.00     0.038 C 
ATOM      3  O   UNL     1      54.210  43.124  10.747  1.00  0.00    -0.550 OA
ATOM      4  O   UNL     1      54.648  45.352  10.444  1.00  0.00    -0.550 OA
ENDROOT
TORSDOF 0
ENDMDL
MODEL 2
REMARK VINA RESULT:    -2.518      1.141      1.924
REMARK INTER + INTRA:          -2.518
REMARK INTER:                  -2.518
REMARK INTRA:                   0.000
REMARK UNBOUND:                 0.000
REMARK SMILES CC(=O)[O-]
REMARK SMILES IDX 1 1 2 2 3 3 4 4
REMARK H PARENT
REMARK Flexibility Score: inf
ROOT
ATOM      1  C   UNL     1      54.551  44.529  12.584  1.00  0.00     0.063 C 
ATOM      2  C   UNL     1      54.656  45.371  11.359  1.00  0.00     0.038 C 
ATOM      3  O   UNL     1      55.110  46.543  11.435  1.00  0.00    -0.550 OA
ATOM      4  O   UNL     1      54.305  44.847  10.122  1.00  0.00    -0.550 OA
ENDROOT
TORSDOF 0
ENDMDL
MODEL 3
REMARK VINA RESULT:    -2.498      1.684      1.935
REMARK INTER + INTRA:          -2.498
REMARK INTER:                  -2.498
REMARK INTRA:                   0.000
REMARK UNBOUND:                 0.000
REMARK SMILES CC(=O)[O-]
REMARK SMILES IDX 1 1 2 2 3 3 4 4
REMARK H PARENT
REMARK Flexibility Score: inf
ROOT
ATOM      1  C   UNL     1      54.728  46.050  11.552  1.00  0.00     0.063 C 
ATOM      2  C   UNL     1      54.550  44.613  11.907  1.00  0.00     0.038 C 
ATOM      3  O   UNL     1      54.675  44.238  13.102  1.00  0.00    -0.550 OA
ATOM      4  O   UNL     1      54.193  43.693  10.931  1.00  0.00    -0.550 OA
ENDROOT
TORSDOF 0
ENDMDL
MODEL 4
REMARK VINA RESULT:    -2.490      1.621      1.887
REMARK INTER + INTRA:          -2.490
REMARK INTER:                  -2.490
REMARK INTRA:                   0.000
REMARK UNBOUND:                 0.000
REMARK SMILES CC(=O)[O-]
REMARK SMILES IDX 1 1 2 2 3 3 4 4
REMARK H PARENT
REMARK Flexibility Score: inf
ROOT
ATOM      1  C   UNL     1      54.194  43.896  10.789  1.00  0.00     0.063 C 
ATOM      2  C   UNL     1      54.584  44.746  11.949  1.00  0.00     0.038 C 
ATOM      3  O   UNL     1      54.672  44.243  13.099  1.00  0.00    -0.550 OA
ATOM      4  O   UNL     1      54.905  46.083  11.756  1.00  0.00    -0.550 OA
ENDROOT
TORSDOF 0
ENDMDL
MODEL 5
REMARK VINA RESULT:    -2.393     13.110     13.429
REMARK INTER + INTRA:          -2.393
REMARK INTER:                  -2.393
REMARK INTRA:                   0.000
REMARK UNBOUND:                 0.000
REMARK SMILES CC(=O)[O-]
REMARK SMILES IDX 1 1 2 2 3 3 4 4
REMARK H PARENT
REMARK Flexibility Score: inf
ROOT
ATOM      1  C   UNL     1      50.900  32.212   5.515  1.00  0.00     0.063 C 
ATOM      2  C   UNL     1      50.073  33.357   5.039  1.00  0.00     0.038 C 
ATOM      3  O   UNL     1      49.339  33.984   5.845  1.00  0.00    -0.550 OA
ATOM      4  O   UNL     1      50.153  33.769   3.715  1.00  0.00    -0.550 OA
ENDROOT
TORSDOF 0
ENDMDL
MODEL 6
REMARK VINA RESULT:    -2.376     13.016     13.395
REMARK INTER + INTRA:          -2.376
REMARK INTER:                  -2.376
REMARK INTRA:                   0.000
REMARK UNBOUND:                 0.000
REMARK SMILES CC(=O)[O-]
REMARK SMILES IDX 1 1 2 2 3 3 4 4
REMARK H PARENT
REMARK Flexibility Score: inf
ROOT
ATOM      1  C   UNL     1      50.943  32.240   5.519  1.00  0.00     0.063 C 
ATOM      2  C   UNL     1      50.012  33.355   5.184  1.00  0.00     0.038 C 
ATOM      3  O   UNL     1      49.814  33.672   3.982  1.00  0.00    -0.550 OA
ATOM      4  O   UNL     1      49.320  34.011   6.192  1.00  0.00    -0.550 OA
ENDROOT
TORSDOF 0
ENDMDL
MODEL 7
REMARK VINA RESULT:    -2.319     13.343     13.673
REMARK INTER + INTRA:          -2.319
REMARK INTER:                  -2.319
REMARK INTRA:                   0.000
REMARK UNBOUND:                 0.000
REMARK SMILES CC(=O)[O-]
REMARK SMILES IDX 1 1 2 2 3 3 4 4
REMARK H PARENT
REMARK Flexibility Score: inf
ROOT
ATOM      1  C   UNL     1      50.503  33.741   3.341  1.00  0.00     0.063 C 
ATOM      2  C   UNL     1      50.336  33.264   4.744  1.00  0.00     0.038 C 
ATOM      3  O   UNL     1      49.413  33.728   5.462  1.00  0.00    -0.550 OA
ATOM      4  O   UNL     1      51.165  32.269   5.244  1.00  0.00    -0.550 OA
ENDROOT
TORSDOF 0
ENDMDL
MODEL 8
REMARK VINA RESULT:    -2.274     13.701     14.262
REMARK INTER + INTRA:          -2.274
REMARK INTER:                  -2.274
REMARK INTRA:                   0.000
REMARK UNBOUND:                 0.000
REMARK SMILES CC(=O)[O-]
REMARK SMILES IDX 1 1 2 2 3 3 4 4
REMARK H PARENT
REMARK Flexibility Score: inf
ROOT
ATOM      1  C   UNL     1      47.333  52.125   0.394  1.00  0.00     0.063 C 
ATOM      2  C   UNL     1      47.096  51.220   1.554  1.00  0.00     0.038 C 
ATOM      3  O   UNL     1      48.017  51.002   2.384  1.00  0.00    -0.550 OA
ATOM      4  O   UNL     1      45.842  50.657   1.753  1.00  0.00    -0.550 OA
ENDROOT
TORSDOF 0
ENDMDL
MODEL 9
REMARK VINA RESULT:    -2.262     13.165     13.378
REMARK INTER + INTRA:          -2.262
REMARK INTER:                  -2.262
REMARK INTRA:                   0.000
REMARK UNBOUND:                 0.000
REMARK SMILES CC(=O)[O-]
REMARK SMILES IDX 1 1 2 2 3 3 4 4
REMARK H PARENT
REMARK Flexibility Score: inf
ROOT
ATOM      1  C   UNL     1      49.593  33.672   6.230  1.00  0.00     0.063 C 
ATOM      2  C   UNL     1      50.474  33.101   5.172  1.00  0.00     0.038 C 
ATOM      3  O   UNL     1      51.222  32.122   5.432  1.00  0.00    -0.550 OA
ATOM      4  O   UNL     1      50.434  33.612   3.882  1.00  0.00    -0.550 OA
ENDROOT
TORSDOF 0
ENDMDL
