MODEL 1
REMARK VINA RESULT:    -6.322      0.000      0.000
REMARK INTER + INTRA:         -10.224
REMARK INTER:                  -8.354
REMARK INTRA:                  -1.870
REMARK UNBOUND:                -1.870
REMARK SMILES CC[C@@H](C=C[C@@H](C)[C@H]1CC[C@H]2C3=CC[C@H]4C[C@@H](O)CC[C@]4(C)[C@H]3CC[C@]12C)C(C)C
REMARK SMILES IDX 6 1 7 2 5 3 4 4 3 5 2 6 1 7 28 8 29 9 30 10 8 11 9 12 26 13
REMARK SMILES IDX 10 14 11 15 25 16 27 17 12 18 24 19 23 20 13 21 21 22 14 23
REMARK SMILES IDX 15 24 20 25 22 26 16 27 19 28 17 29 18 30
REMARK H PARENT 18 31
REMARK Flexibility Score: inf
ROOT
ATOM      1  C   UNL     1     141.540 134.210 148.225  1.00  0.00     0.012 C 
ATOM      2  C   UNL     1     142.286 133.964 149.558  1.00  0.00     0.012 C 
ENDROOT
BRANCH   1   3
ATOM      3  C   UNL     1     140.415 133.197 148.075  1.00  0.00    -0.028 C 
ATOM      4  C   UNL     1     139.169 133.456 147.628  1.00  0.00    -0.027 C 
BRANCH   4   5
ATOM      5  C   UNL     1     138.593 134.814 147.259  1.00  0.00     0.014 C 
BRANCH   5   6
ATOM      6  C   UNL     1     137.529 135.162 148.340  1.00  0.00     0.004 C 
ATOM      7  C   UNL     1     136.666 133.971 148.795  1.00  0.00     0.004 C 
ENDBRANCH   5   6
BRANCH   5   8
ATOM      8  C   UNL     1     138.004 134.725 145.811  1.00  0.00    -0.011 C 
ATOM      9  C   UNL     1     138.813 133.719 144.960  1.00  0.00     0.008 C 
ATOM     10  C   UNL     1     137.966 136.075 145.073  1.00  0.00     0.008 C 
ENDBRANCH   5   8
ENDBRANCH   4   5
ENDBRANCH   1   3
BRANCH   1  11
ATOM     11  C   UNL     1     142.568 134.222 147.039  1.00  0.00     0.002 C 
ATOM     12  C   UNL     1     142.324 133.198 145.904  1.00  0.00     0.005 C 
ATOM     13  C   UNL     1     142.851 135.573 146.322  1.00  0.00    -0.023 C 
ATOM     14  C   UNL     1     142.789 133.871 144.603  1.00  0.00     0.009 C 
ATOM     15  C   UNL     1     143.597 135.072 145.083  1.00  0.00     0.021 C 
ATOM     16  C   UNL     1     143.816 136.518 147.086  1.00  0.00     0.008 C 
ATOM     17  C   UNL     1     141.534 136.319 145.954  1.00  0.00     0.012 C 
ATOM     18  C   UNL     1     143.950 136.216 144.155  1.00  0.00    -0.067 C 
ATOM     19  C   UNL     1     144.243 137.726 146.210  1.00  0.00     0.009 C 
ATOM     20  C   UNL     1     144.804 137.316 144.803  1.00  0.00     0.021 C 
ATOM     21  C   UNL     1     143.826 136.088 142.816  1.00  0.00    -0.027 C 
ATOM     22  C   UNL     1     145.092 138.537 143.845  1.00  0.00    -0.023 C 
ATOM     23  C   UNL     1     144.349 137.106 141.841  1.00  0.00     0.031 C 
ATOM     24  C   UNL     1     145.490 137.940 142.448  1.00  0.00     0.002 C 
ATOM     25  C   UNL     1     146.274 139.419 144.413  1.00  0.00     0.010 C 
ATOM     26  C   UNL     1     143.816 139.428 143.720  1.00  0.00     0.012 C 
ATOM     27  C   UNL     1     145.993 139.010 141.455  1.00  0.00     0.036 C 
ATOM     28  C   UNL     1     147.491 139.533 143.479  1.00  0.00     0.032 C 
ATOM     29  C   UNL     1     147.081 139.937 142.051  1.00  0.00     0.114 C 
BRANCH  29  30
ATOM     30  O   UNL     1     146.618 141.262 142.049  1.00  0.00    -0.393 OA
ATOM     31  H   UNL     1     146.041 141.368 142.852  1.00  0.00     0.210 HD
ENDBRANCH  29  30
ENDBRANCH   1  11
TORSDOF 6
ENDMDL
MODEL 2
REMARK VINA RESULT:    -6.076      6.102      8.770
REMARK INTER + INTRA:          -9.900
REMARK INTER:                  -8.136
REMARK INTRA:                  -1.764
REMARK UNBOUND:                -1.870
REMARK SMILES CC[C@@H](C=C[C@@H](C)[C@H]1CC[C@H]2C3=CC[C@H]4C[C@@H](O)CC[C@]4(C)[C@H]3CC[C@]12C)C(C)C
REMARK SMILES IDX 6 1 7 2 5 3 4 4 3 5 2 6 1 7 28 8 29 9 30 10 8 11 9 12 26 13
REMARK SMILES IDX 10 14 11 15 25 16 27 17 12 18 24 19 23 20 13 21 21 22 14 23
REMARK SMILES IDX 15 24 20 25 22 26 16 27 19 28 17 29 18 30
REMARK H PARENT 18 31
REMARK Flexibility Score: inf
ROOT
ATOM      1  C   UNL     1     138.467 143.549 141.204  1.00  0.00     0.012 C 
ATOM      2  C   UNL     1     137.944 144.891 140.638  1.00  0.00     0.012 C 
ENDROOT
BRANCH   1   3
ATOM      3  C   UNL     1     137.646 143.152 142.421  1.00  0.00    -0.028 C 
ATOM      4  C   UNL     1     137.111 141.936 142.656  1.00  0.00    -0.027 C 
BRANCH   4   5
ATOM      5  C   UNL     1     137.139 140.730 141.730  1.00  0.00     0.014 C 
BRANCH   5   6
ATOM      6  C   UNL     1     135.670 140.464 141.292  1.00  0.00     0.004 C 
ATOM      7  C   UNL     1     135.240 141.202 140.013  1.00  0.00     0.004 C 
ENDBRANCH   5   6
BRANCH   5   8
ATOM      8  C   UNL     1     137.788 139.530 142.499  1.00  0.00    -0.011 C 
ATOM      9  C   UNL     1     137.006 139.236 143.800  1.00  0.00     0.008 C 
ATOM     10  C   UNL     1     139.269 139.751 142.855  1.00  0.00     0.008 C 
ENDBRANCH   5   8
ENDBRANCH   4   5
ENDBRANCH   1   3
BRANCH   1  11
ATOM     11  C   UNL     1     140.011 143.652 141.465  1.00  0.00     0.002 C 
ATOM     12  C   UNL     1     140.529 143.036 142.787  1.00  0.00     0.005 C 
ATOM     13  C   UNL     1     140.982 143.140 140.363  1.00  0.00    -0.023 C 
ATOM     14  C   UNL     1     141.931 142.482 142.489  1.00  0.00     0.009 C 
ATOM     15  C   UNL     1     142.296 143.112 141.149  1.00  0.00     0.021 C 
ATOM     16  C   UNL     1     141.181 144.117 139.175  1.00  0.00     0.008 C 
ATOM     17  C   UNL     1     140.575 141.727 139.846  1.00  0.00     0.012 C 
ATOM     18  C   UNL     1     143.431 142.579 140.301  1.00  0.00    -0.067 C 
ATOM     19  C   UNL     1     142.335 143.658 138.245  1.00  0.00     0.009 C 
ATOM     20  C   UNL     1     143.677 143.366 139.006  1.00  0.00     0.021 C 
ATOM     21  C   UNL     1     144.345 141.729 140.819  1.00  0.00    -0.027 C 
ATOM     22  C   UNL     1     144.810 142.747 138.097  1.00  0.00    -0.023 C 
ATOM     23  C   UNL     1     145.600 141.330 140.092  1.00  0.00     0.031 C 
ATOM     24  C   UNL     1     146.007 142.379 139.044  1.00  0.00     0.002 C 
ATOM     25  C   UNL     1     145.282 143.794 137.010  1.00  0.00     0.010 C 
ATOM     26  C   UNL     1     144.272 141.475 137.368  1.00  0.00     0.012 C 
ATOM     27  C   UNL     1     147.272 141.941 138.275  1.00  0.00     0.036 C 
ATOM     28  C   UNL     1     146.772 144.167 137.089  1.00  0.00     0.032 C 
ATOM     29  C   UNL     1     147.673 142.920 137.144  1.00  0.00     0.114 C 
BRANCH  29  30
ATOM     30  O   UNL     1     147.630 142.252 135.910  1.00  0.00    -0.393 OA
ATOM     31  H   UNL     1     148.554 142.264 135.543  1.00  0.00     0.210 HD
ENDBRANCH  29  30
ENDBRANCH   1  11
TORSDOF 6
ENDMDL
MODEL 3
REMARK VINA RESULT:    -6.073      8.424     11.030
REMARK INTER + INTRA:          -9.896
REMARK INTER:                  -8.395
REMARK INTRA:                  -1.501
REMARK UNBOUND:                -1.870
REMARK SMILES CC[C@@H](C=C[C@@H](C)[C@H]1CC[C@H]2C3=CC[C@H]4C[C@@H](O)CC[C@]4(C)[C@H]3CC[C@]12C)C(C)C
REMARK SMILES IDX 6 1 7 2 5 3 4 4 3 5 2 6 1 7 28 8 29 9 30 10 8 11 9 12 26 13
REMARK SMILES IDX 10 14 11 15 25 16 27 17 12 18 24 19 23 20 13 21 21 22 14 23
REMARK SMILES IDX 15 24 20 25 22 26 16 27 19 28 17 29 18 30
REMARK H PARENT 18 31
REMARK Flexibility Score: inf
ROOT
ATOM      1  C   UNL     1     134.207 139.378 137.522  1.00  0.00     0.012 C 
ATOM      2  C   UNL     1     134.668 137.952 137.137  1.00  0.00     0.012 C 
ENDROOT
BRANCH   1   3
ATOM      3  C   UNL     1     133.075 139.815 136.604  1.00  0.00    -0.028 C 
ATOM      4  C   UNL     1     131.756 139.673 136.846  1.00  0.00    -0.027 C 
BRANCH   4   5
ATOM      5  C   UNL     1     131.115 138.979 138.038  1.00  0.00     0.014 C 
BRANCH   5   6
ATOM      6  C   UNL     1     130.270 137.801 137.473  1.00  0.00     0.004 C 
ATOM      7  C   UNL     1     131.097 136.630 136.915  1.00  0.00     0.004 C 
ENDBRANCH   5   6
BRANCH   5   8
ATOM      8  C   UNL     1     130.266 140.034 138.827  1.00  0.00    -0.011 C 
ATOM      9  C   UNL     1     129.187 140.654 137.909  1.00  0.00     0.008 C 
ATOM     10  C   UNL     1     131.104 141.170 139.440  1.00  0.00     0.008 C 
ENDBRANCH   5   8
ENDBRANCH   4   5
ENDBRANCH   1   3
BRANCH   1  11
ATOM     11  C   UNL     1     135.442 140.346 137.540  1.00  0.00     0.002 C 
ATOM     12  C   UNL     1     135.269 141.698 136.806  1.00  0.00     0.005 C 
ATOM     13  C   UNL     1     136.082 140.701 138.912  1.00  0.00    -0.023 C 
ATOM     14  C   UNL     1     136.092 142.729 137.593  1.00  0.00     0.009 C 
ATOM     15  C   UNL     1     136.972 141.877 138.502  1.00  0.00     0.021 C 
ATOM     16  C   UNL     1     137.013 139.603 139.492  1.00  0.00     0.008 C 
ATOM     17  C   UNL     1     135.007 141.115 139.961  1.00  0.00     0.012 C 
ATOM     18  C   UNL     1     137.689 142.466 139.698  1.00  0.00    -0.067 C 
ATOM     19  C   UNL     1     137.801 140.117 140.726  1.00  0.00     0.009 C 
ATOM     20  C   UNL     1     138.561 141.466 140.470  1.00  0.00     0.021 C 
ATOM     21  C   UNL     1     137.819 143.804 139.839  1.00  0.00    -0.027 C 
ATOM     22  C   UNL     1     139.234 142.080 141.759  1.00  0.00    -0.023 C 
ATOM     23  C   UNL     1     138.690 144.438 140.889  1.00  0.00     0.031 C 
ATOM     24  C   UNL     1     139.804 143.486 141.354  1.00  0.00     0.002 C 
ATOM     25  C   UNL     1     140.404 141.148 142.270  1.00  0.00     0.010 C 
ATOM     26  C   UNL     1     138.173 142.222 142.897  1.00  0.00     0.012 C 
ATOM     27  C   UNL     1     140.666 144.129 142.461  1.00  0.00     0.036 C 
ATOM     28  C   UNL     1     141.787 141.820 142.303  1.00  0.00     0.032 C 
ATOM     29  C   UNL     1     141.748 143.177 143.030  1.00  0.00     0.114 C 
BRANCH  29  30
ATOM     30  O   UNL     1     141.518 142.972 144.399  1.00  0.00    -0.393 OA
ATOM     31  H   UNL     1     141.268 142.017 144.511  1.00  0.00     0.210 HD
ENDBRANCH  29  30
ENDBRANCH   1  11
TORSDOF 6
ENDMDL
MODEL 4
REMARK VINA RESULT:    -5.923      3.607      8.969
REMARK INTER + INTRA:          -9.697
REMARK INTER:                  -8.226
REMARK INTRA:                  -1.471
REMARK UNBOUND:                -1.870
REMARK SMILES CC[C@@H](C=C[C@@H](C)[C@H]1CC[C@H]2C3=CC[C@H]4C[C@@H](O)CC[C@]4(C)[C@H]3CC[C@]12C)C(C)C
REMARK SMILES IDX 6 1 7 2 5 3 4 4 3 5 2 6 1 7 28 8 29 9 30 10 8 11 9 12 26 13
REMARK SMILES IDX 10 14 11 15 25 16 27 17 12 18 24 19 23 20 13 21 21 22 14 23
REMARK SMILES IDX 15 24 20 25 22 26 16 27 19 28 17 29 18 30
REMARK H PARENT 18 31
REMARK Flexibility Score: inf
ROOT
ATOM      1  C   UNL     1     143.716 136.130 146.254  1.00  0.00     0.012 C 
ATOM      2  C   UNL     1     145.195 136.202 146.701  1.00  0.00     0.012 C 
ENDROOT
BRANCH   1   3
ATOM      3  C   UNL     1     143.310 137.449 145.613  1.00  0.00    -0.028 C 
ATOM      4  C   UNL     1     143.410 137.759 144.304  1.00  0.00    -0.027 C 
BRANCH   4   5
ATOM      5  C   UNL     1     144.020 136.902 143.205  1.00  0.00     0.014 C 
BRANCH   5   6
ATOM      6  C   UNL     1     144.843 137.857 142.293  1.00  0.00     0.004 C 
ATOM      7  C   UNL     1     144.858 137.466 140.806  1.00  0.00     0.004 C 
ENDBRANCH   5   6
BRANCH   5   8
ATOM      8  C   UNL     1     142.860 136.166 142.452  1.00  0.00    -0.011 C 
ATOM      9  C   UNL     1     141.539 136.956 142.590  1.00  0.00     0.008 C 
ATOM     10  C   UNL     1     142.625 134.724 142.935  1.00  0.00     0.008 C 
ENDBRANCH   5   8
ENDBRANCH   4   5
ENDBRANCH   1   3
BRANCH   1  11
ATOM     11  C   UNL     1     142.819 135.692 147.466  1.00  0.00     0.002 C 
ATOM     12  C   UNL     1     142.421 136.804 148.466  1.00  0.00     0.005 C 
ATOM     13  C   UNL     1     141.505 134.915 147.168  1.00  0.00    -0.023 C 
ATOM     14  C   UNL     1     141.013 136.451 148.972  1.00  0.00     0.009 C 
ATOM     15  C   UNL     1     140.821 135.002 148.535  1.00  0.00     0.021 C 
ATOM     16  C   UNL     1     141.704 133.410 146.852  1.00  0.00     0.008 C 
ATOM     17  C   UNL     1     140.668 135.602 146.047  1.00  0.00     0.012 C 
ATOM     18  C   UNL     1     139.454 134.353 148.507  1.00  0.00    -0.067 C 
ATOM     19  C   UNL     1     140.351 132.652 146.808  1.00  0.00     0.009 C 
ATOM     20  C   UNL     1     139.461 132.878 148.081  1.00  0.00     0.021 C 
ATOM     21  C   UNL     1     138.403 134.921 149.139  1.00  0.00    -0.027 C 
ATOM     22  C   UNL     1     138.019 132.244 147.979  1.00  0.00    -0.023 C 
ATOM     23  C   UNL     1     137.080 134.228 149.319  1.00  0.00     0.031 C 
ATOM     24  C   UNL     1     137.227 132.699 149.256  1.00  0.00     0.002 C 
ATOM     25  C   UNL     1     138.111 130.666 147.933  1.00  0.00     0.010 C 
ATOM     26  C   UNL     1     137.308 132.743 146.682  1.00  0.00     0.012 C 
ATOM     27  C   UNL     1     135.859 131.997 149.400  1.00  0.00     0.036 C 
ATOM     28  C   UNL     1     137.384 129.951 149.084  1.00  0.00     0.032 C 
ATOM     29  C   UNL     1     135.940 130.458 149.253  1.00  0.00     0.114 C 
BRANCH  29  30
ATOM     30  O   UNL     1     135.166 130.052 148.155  1.00  0.00    -0.393 OA
ATOM     31  H   UNL     1     134.216 130.236 148.387  1.00  0.00     0.210 HD
ENDBRANCH  29  30
ENDBRANCH   1  11
TORSDOF 6
ENDMDL
MODEL 5
REMARK VINA RESULT:    -5.897      5.177      7.585
REMARK INTER + INTRA:          -9.663
REMARK INTER:                  -7.782
REMARK INTRA:                  -1.882
REMARK UNBOUND:                -1.870
REMARK SMILES CC[C@@H](C=C[C@@H](C)[C@H]1CC[C@H]2C3=CC[C@H]4C[C@@H](O)CC[C@]4(C)[C@H]3CC[C@]12C)C(C)C
REMARK SMILES IDX 6 1 7 2 5 3 4 4 3 5 2 6 1 7 28 8 29 9 30 10 8 11 9 12 26 13
REMARK SMILES IDX 10 14 11 15 25 16 27 17 12 18 24 19 23 20 13 21 21 22 14 23
REMARK SMILES IDX 15 24 20 25 22 26 16 27 19 28 17 29 18 30
REMARK H PARENT 18 31
REMARK Flexibility Score: inf
ROOT
ATOM      1  C   UNL     1     137.377 142.164 142.029  1.00  0.00     0.012 C 
ATOM      2  C   UNL     1     137.118 143.375 142.955  1.00  0.00     0.012 C 
ENDROOT
BRANCH   1   3
ATOM      3  C   UNL     1     136.051 141.571 141.577  1.00  0.00    -0.028 C 
ATOM      4  C   UNL     1     135.775 141.088 140.348  1.00  0.00    -0.027 C 
BRANCH   4   5
ATOM      5  C   UNL     1     136.689 141.104 139.133  1.00  0.00     0.014 C 
BRANCH   5   6
ATOM      6  C   UNL     1     136.256 142.315 138.258  1.00  0.00     0.004 C 
ATOM      7  C   UNL     1     137.043 143.610 138.524  1.00  0.00     0.004 C 
ENDBRANCH   5   6
BRANCH   5   8
ATOM      8  C   UNL     1     136.559 139.726 138.398  1.00  0.00    -0.011 C 
ATOM      9  C   UNL     1     135.071 139.363 138.191  1.00  0.00     0.008 C 
ATOM     10  C   UNL     1     137.252 138.565 139.133  1.00  0.00     0.008 C 
ENDBRANCH   5   8
ENDBRANCH   4   5
ENDBRANCH   1   3
BRANCH   1  11
ATOM     11  C   UNL     1     138.335 141.147 142.745  1.00  0.00     0.002 C 
ATOM     12  C   UNL     1     137.797 139.707 142.930  1.00  0.00     0.005 C 
ATOM     13  C   UNL     1     139.780 140.980 142.195  1.00  0.00    -0.023 C 
ATOM     14  C   UNL     1     139.011 138.771 142.813  1.00  0.00     0.009 C 
ATOM     15  C   UNL     1     140.208 139.709 142.932  1.00  0.00     0.021 C 
ATOM     16  C   UNL     1     140.763 142.105 142.614  1.00  0.00     0.008 C 
ATOM     17  C   UNL     1     139.791 140.795 140.647  1.00  0.00     0.012 C 
ATOM     18  C   UNL     1     141.600 139.279 142.523  1.00  0.00    -0.067 C 
ATOM     19  C   UNL     1     142.227 141.752 142.240  1.00  0.00     0.009 C 
ATOM     20  C   UNL     1     142.685 140.342 142.754  1.00  0.00     0.021 C 
ATOM     21  C   UNL     1     141.893 137.976 142.319  1.00  0.00    -0.027 C 
ATOM     22  C   UNL     1     144.114 139.905 142.245  1.00  0.00    -0.023 C 
ATOM     23  C   UNL     1     143.294 137.471 142.112  1.00  0.00     0.031 C 
ATOM     24  C   UNL     1     144.337 138.425 142.719  1.00  0.00     0.002 C 
ATOM     25  C   UNL     1     145.229 140.843 142.856  1.00  0.00     0.010 C 
ATOM     26  C   UNL     1     144.177 140.000 140.687  1.00  0.00     0.012 C 
ATOM     27  C   UNL     1     145.773 137.919 142.466  1.00  0.00     0.036 C 
ATOM     28  C   UNL     1     146.279 140.112 143.711  1.00  0.00     0.032 C 
ATOM     29  C   UNL     1     146.865 138.892 142.978  1.00  0.00     0.114 C 
BRANCH  29  30
ATOM     30  O   UNL     1     147.652 139.321 141.899  1.00  0.00    -0.393 OA
ATOM     31  H   UNL     1     148.358 139.913 142.273  1.00  0.00     0.210 HD
ENDBRANCH  29  30
ENDBRANCH   1  11
TORSDOF 6
ENDMDL
MODEL 6
REMARK VINA RESULT:    -5.687      1.633      2.244
REMARK INTER + INTRA:          -9.386
REMARK INTER:                  -7.768
REMARK INTRA:                  -1.617
REMARK UNBOUND:                -1.870
REMARK SMILES CC[C@@H](C=C[C@@H](C)[C@H]1CC[C@H]2C3=CC[C@H]4C[C@@H](O)CC[C@]4(C)[C@H]3CC[C@]12C)C(C)C
REMARK SMILES IDX 6 1 7 2 5 3 4 4 3 5 2 6 1 7 28 8 29 9 30 10 8 11 9 12 26 13
REMARK SMILES IDX 10 14 11 15 25 16 27 17 12 18 24 19 23 20 13 21 21 22 14 23
REMARK SMILES IDX 15 24 20 25 22 26 16 27 19 28 17 29 18 30
REMARK H PARENT 18 31
REMARK Flexibility Score: inf
ROOT
ATOM      1  C   UNL     1     142.439 134.831 147.022  1.00  0.00     0.012 C 
ATOM      2  C   UNL     1     143.484 134.746 148.160  1.00  0.00     0.012 C 
ENDROOT
BRANCH   1   3
ATOM      3  C   UNL     1     141.458 133.675 147.141  1.00  0.00    -0.028 C 
ATOM      4  C   UNL     1     140.176 133.760 147.551  1.00  0.00    -0.027 C 
BRANCH   4   5
ATOM      5  C   UNL     1     139.459 135.001 148.059  1.00  0.00     0.014 C 
BRANCH   5   6
ATOM      6  C   UNL     1     139.288 134.827 149.596  1.00  0.00     0.004 C 
ATOM      7  C   UNL     1     140.508 135.261 150.428  1.00  0.00     0.004 C 
ENDBRANCH   5   6
BRANCH   5   8
ATOM      8  C   UNL     1     138.099 135.136 147.292  1.00  0.00    -0.011 C 
ATOM      9  C   UNL     1     137.142 133.988 147.685  1.00  0.00     0.008 C 
ATOM     10  C   UNL     1     138.251 135.149 145.761  1.00  0.00     0.008 C 
ENDBRANCH   5   8
ENDBRANCH   4   5
ENDBRANCH   1   3
BRANCH   1  11
ATOM     11  C   UNL     1     143.172 134.924 145.637  1.00  0.00     0.002 C 
ATOM     12  C   UNL     1     142.878 133.790 144.625  1.00  0.00     0.005 C 
ATOM     13  C   UNL     1     143.050 136.244 144.825  1.00  0.00    -0.023 C 
ATOM     14  C   UNL     1     142.929 134.430 143.228  1.00  0.00     0.009 C 
ATOM     15  C   UNL     1     143.593 135.782 143.470  1.00  0.00     0.021 C 
ATOM     16  C   UNL     1     143.971 137.392 145.318  1.00  0.00     0.008 C 
ATOM     17  C   UNL     1     141.573 136.732 144.731  1.00  0.00     0.012 C 
ATOM     18  C   UNL     1     143.531 136.894 142.445  1.00  0.00    -0.067 C 
ATOM     19  C   UNL     1     143.980 138.584 144.325  1.00  0.00     0.009 C 
ATOM     20  C   UNL     1     144.293 138.166 142.844  1.00  0.00     0.021 C 
ATOM     21  C   UNL     1     143.150 136.646 141.173  1.00  0.00    -0.027 C 
ATOM     22  C   UNL     1     144.148 139.342 141.801  1.00  0.00    -0.023 C 
ATOM     23  C   UNL     1     143.264 137.660 140.068  1.00  0.00     0.031 C 
ATOM     24  C   UNL     1     144.340 138.715 140.374  1.00  0.00     0.002 C 
ATOM     25  C   UNL     1     145.247 140.449 142.058  1.00  0.00     0.010 C 
ATOM     26  C   UNL     1     142.737 139.998 141.929  1.00  0.00     0.012 C 
ATOM     27  C   UNL     1     144.421 139.774 139.254  1.00  0.00     0.036 C 
ATOM     28  C   UNL     1     146.197 140.692 140.872  1.00  0.00     0.032 C 
ATOM     29  C   UNL     1     145.427 140.912 139.558  1.00  0.00     0.114 C 
BRANCH  29  30
ATOM     30  O   UNL     1     144.746 142.138 139.609  1.00  0.00    -0.393 OA
ATOM     31  H   UNL     1     145.156 142.666 140.345  1.00  0.00     0.210 HD
ENDBRANCH  29  30
ENDBRANCH   1  11
TORSDOF 6
ENDMDL
MODEL 7
REMARK VINA RESULT:    -5.646      8.888     12.473
REMARK INTER + INTRA:          -9.331
REMARK INTER:                  -8.100
REMARK INTRA:                  -1.231
REMARK UNBOUND:                -1.870
REMARK SMILES CC[C@@H](C=C[C@@H](C)[C@H]1CC[C@H]2C3=CC[C@H]4C[C@@H](O)CC[C@]4(C)[C@H]3CC[C@]12C)C(C)C
REMARK SMILES IDX 6 1 7 2 5 3 4 4 3 5 2 6 1 7 28 8 29 9 30 10 8 11 9 12 26 13
REMARK SMILES IDX 10 14 11 15 25 16 27 17 12 18 24 19 23 20 13 21 21 22 14 23
REMARK SMILES IDX 15 24 20 25 22 26 16 27 19 28 17 29 18 30
REMARK H PARENT 18 31
REMARK Flexibility Score: inf
ROOT
ATOM      1  C   UNL     1     138.303 143.217 141.379  1.00  0.00     0.012 C 
ATOM      2  C   UNL     1     137.443 143.481 142.638  1.00  0.00     0.012 C 
ENDROOT
BRANCH   1   3
ATOM      3  C   UNL     1     139.525 144.123 141.395  1.00  0.00    -0.028 C 
ATOM      4  C   UNL     1     140.616 143.969 142.173  1.00  0.00    -0.027 C 
BRANCH   4   5
ATOM      5  C   UNL     1     140.830 142.919 143.252  1.00  0.00     0.014 C 
BRANCH   5   6
ATOM      6  C   UNL     1     141.858 143.511 144.260  1.00  0.00     0.004 C 
ATOM      7  C   UNL     1     141.510 144.918 144.776  1.00  0.00     0.004 C 
ENDBRANCH   5   6
BRANCH   5   8
ATOM      8  C   UNL     1     141.318 141.598 142.567  1.00  0.00    -0.011 C 
ATOM      9  C   UNL     1     140.344 140.438 142.875  1.00  0.00     0.008 C 
ATOM     10  C   UNL     1     142.738 141.173 142.982  1.00  0.00     0.008 C 
ENDBRANCH   5   8
ENDBRANCH   4   5
ENDBRANCH   1   3
BRANCH   1  11
ATOM     11  C   UNL     1     137.411 143.349 140.093  1.00  0.00     0.002 C 
ATOM     12  C   UNL     1     138.036 144.106 138.896  1.00  0.00     0.005 C 
ATOM     13  C   UNL     1     136.794 142.057 139.488  1.00  0.00    -0.023 C 
ATOM     14  C   UNL     1     137.492 143.436 137.625  1.00  0.00     0.009 C 
ATOM     15  C   UNL     1     136.328 142.589 138.130  1.00  0.00     0.021 C 
ATOM     16  C   UNL     1     135.536 141.535 140.230  1.00  0.00     0.008 C 
ATOM     17  C   UNL     1     137.853 140.923 139.343  1.00  0.00     0.012 C 
ATOM     18  C   UNL     1     135.721 141.486 137.288  1.00  0.00    -0.067 C 
ATOM     19  C   UNL     1     134.836 140.399 139.438  1.00  0.00     0.009 C 
ATOM     20  C   UNL     1     134.531 140.770 137.943  1.00  0.00     0.021 C 
ATOM     21  C   UNL     1     135.980 141.401 135.964  1.00  0.00    -0.027 C 
ATOM     22  C   UNL     1     133.966 139.572 137.085  1.00  0.00    -0.023 C 
ATOM     23  C   UNL     1     135.252 140.461 135.044  1.00  0.00     0.031 C 
ATOM     24  C   UNL     1     133.872 140.075 135.601  1.00  0.00     0.002 C 
ATOM     25  C   UNL     1     132.535 139.146 137.604  1.00  0.00     0.010 C 
ATOM     26  C   UNL     1     134.924 138.343 137.191  1.00  0.00     0.012 C 
ATOM     27  C   UNL     1     133.150 139.077 134.670  1.00  0.00     0.036 C 
ATOM     28  C   UNL     1     131.415 139.268 136.558  1.00  0.00     0.032 C 
ATOM     29  C   UNL     1     131.793 138.585 135.231  1.00  0.00     0.114 C 
BRANCH  29  30
ATOM     30  O   UNL     1     131.838 137.194 135.412  1.00  0.00    -0.393 OA
ATOM     31  H   UNL     1     131.144 136.968 136.087  1.00  0.00     0.210 HD
ENDBRANCH  29  30
ENDBRANCH   1  11
TORSDOF 6
ENDMDL
MODEL 8
REMARK VINA RESULT:    -5.503      5.060      8.698
REMARK INTER + INTRA:          -9.143
REMARK INTER:                  -7.676
REMARK INTRA:                  -1.467
REMARK UNBOUND:                -1.870
REMARK SMILES CC[C@@H](C=C[C@@H](C)[C@H]1CC[C@H]2C3=CC[C@H]4C[C@@H](O)CC[C@]4(C)[C@H]3CC[C@]12C)C(C)C
REMARK SMILES IDX 6 1 7 2 5 3 4 4 3 5 2 6 1 7 28 8 29 9 30 10 8 11 9 12 26 13
REMARK SMILES IDX 10 14 11 15 25 16 27 17 12 18 24 19 23 20 13 21 21 22 14 23
REMARK SMILES IDX 15 24 20 25 22 26 16 27 19 28 17 29 18 30
REMARK H PARENT 18 31
REMARK Flexibility Score: inf
ROOT
ATOM      1  C   UNL     1     144.199 138.251 142.353  1.00  0.00     0.012 C 
ATOM      2  C   UNL     1     144.768 137.467 141.147  1.00  0.00     0.012 C 
ENDROOT
BRANCH   1   3
ATOM      3  C   UNL     1     144.344 137.420 143.618  1.00  0.00    -0.028 C 
ATOM      4  C   UNL     1     145.139 137.707 144.669  1.00  0.00    -0.027 C 
BRANCH   4   5
ATOM      5  C   UNL     1     146.117 138.867 144.787  1.00  0.00     0.014 C 
BRANCH   5   6
ATOM      6  C   UNL     1     147.388 138.469 143.983  1.00  0.00     0.004 C 
ATOM      7  C   UNL     1     147.675 139.357 142.760  1.00  0.00     0.004 C 
ENDBRANCH   5   6
BRANCH   5   8
ATOM      8  C   UNL     1     146.396 139.126 146.306  1.00  0.00    -0.011 C 
ATOM      9  C   UNL     1     147.298 140.369 146.485  1.00  0.00     0.008 C 
ATOM     10  C   UNL     1     147.050 137.935 147.028  1.00  0.00     0.008 C 
ENDBRANCH   5   8
ENDBRANCH   4   5
ENDBRANCH   1   3
BRANCH   1  11
ATOM     11  C   UNL     1     142.730 138.708 142.039  1.00  0.00     0.002 C 
ATOM     12  C   UNL     1     141.632 138.215 143.012  1.00  0.00     0.005 C 
ATOM     13  C   UNL     1     142.456 140.227 141.844  1.00  0.00    -0.023 C 
ATOM     14  C   UNL     1     140.582 139.335 143.088  1.00  0.00     0.009 C 
ATOM     15  C   UNL     1     140.926 140.238 141.908  1.00  0.00     0.021 C 
ATOM     16  C   UNL     1     142.859 140.780 140.451  1.00  0.00     0.008 C 
ATOM     17  C   UNL     1     143.099 141.081 142.977  1.00  0.00     0.012 C 
ATOM     18  C   UNL     1     140.383 141.647 141.798  1.00  0.00    -0.067 C 
ATOM     19  C   UNL     1     142.338 142.226 140.240  1.00  0.00     0.009 C 
ATOM     20  C   UNL     1     140.803 142.390 140.522  1.00  0.00     0.021 C 
ATOM     21  C   UNL     1     139.352 142.055 142.570  1.00  0.00    -0.027 C 
ATOM     22  C   UNL     1     140.294 143.883 140.465  1.00  0.00    -0.023 C 
ATOM     23  C   UNL     1     138.641 143.364 142.365  1.00  0.00     0.031 C 
ATOM     24  C   UNL     1     138.792 143.873 140.922  1.00  0.00     0.002 C 
ATOM     25  C   UNL     1     140.409 144.452 138.994  1.00  0.00     0.010 C 
ATOM     26  C   UNL     1     141.154 144.775 141.416  1.00  0.00     0.012 C 
ATOM     27  C   UNL     1     138.094 145.237 140.732  1.00  0.00     0.036 C 
ATOM     28  C   UNL     1     139.073 144.900 138.378  1.00  0.00     0.032 C 
ATOM     29  C   UNL     1     138.295 145.838 139.318  1.00  0.00     0.114 C 
BRANCH  29  30
ATOM     30  O   UNL     1     138.966 147.066 139.423  1.00  0.00    -0.393 OA
ATOM     31  H   UNL     1     139.932 146.881 139.277  1.00  0.00     0.210 HD
ENDBRANCH  29  30
ENDBRANCH   1  11
TORSDOF 6
ENDMDL
MODEL 9
REMARK VINA RESULT:    -5.484      2.548      4.537
REMARK INTER + INTRA:          -9.117
REMARK INTER:                  -7.631
REMARK INTRA:                  -1.487
REMARK UNBOUND:                -1.870
REMARK SMILES CC[C@@H](C=C[C@@H](C)[C@H]1CC[C@H]2C3=CC[C@H]4C[C@@H](O)CC[C@]4(C)[C@H]3CC[C@]12C)C(C)C
REMARK SMILES IDX 6 1 7 2 5 3 4 4 3 5 2 6 1 7 28 8 29 9 30 10 8 11 9 12 26 13
REMARK SMILES IDX 10 14 11 15 25 16 27 17 12 18 24 19 23 20 13 21 21 22 14 23
REMARK SMILES IDX 15 24 20 25 22 26 16 27 19 28 17 29 18 30
REMARK H PARENT 18 31
REMARK Flexibility Score: inf
ROOT
ATOM      1  C   UNL     1     144.584 137.421 145.996  1.00  0.00     0.012 C 
ATOM      2  C   UNL     1     145.654 138.365 146.596  1.00  0.00     0.012 C 
ENDROOT
BRANCH   1   3
ATOM      3  C   UNL     1     144.537 136.127 146.795  1.00  0.00    -0.028 C 
ATOM      4  C   UNL     1     143.455 135.620 147.421  1.00  0.00    -0.027 C 
BRANCH   4   5
ATOM      5  C   UNL     1     142.080 136.260 147.535  1.00  0.00     0.014 C 
BRANCH   5   6
ATOM      6  C   UNL     1     141.645 136.133 149.023  1.00  0.00     0.004 C 
ATOM      7  C   UNL     1     140.289 135.438 149.236  1.00  0.00     0.004 C 
ENDBRANCH   5   6
BRANCH   5   8
ATOM      8  C   UNL     1     141.113 135.536 146.538  1.00  0.00    -0.011 C 
ATOM      9  C   UNL     1     141.669 134.143 146.161  1.00  0.00     0.008 C 
ATOM     10  C   UNL     1     140.849 136.327 145.245  1.00  0.00     0.008 C 
ENDBRANCH   5   8
ENDBRANCH   4   5
ENDBRANCH   1   3
BRANCH   1  11
ATOM     11  C   UNL     1     144.851 137.228 144.461  1.00  0.00     0.002 C 
ATOM     12  C   UNL     1     144.152 136.024 143.786  1.00  0.00     0.005 C 
ATOM     13  C   UNL     1     144.602 138.435 143.512  1.00  0.00    -0.023 C 
ATOM     14  C   UNL     1     143.820 136.461 142.351  1.00  0.00     0.009 C 
ATOM     15  C   UNL     1     144.647 137.728 142.155  1.00  0.00     0.021 C 
ATOM     16  C   UNL     1     145.733 139.498 143.511  1.00  0.00     0.008 C 
ATOM     17  C   UNL     1     143.222 139.106 143.780  1.00  0.00     0.012 C 
ATOM     18  C   UNL     1     144.369 138.694 141.023  1.00  0.00    -0.067 C 
ATOM     19  C   UNL     1     145.539 140.536 142.375  1.00  0.00     0.009 C 
ATOM     20  C   UNL     1     145.331 139.889 140.960  1.00  0.00     0.021 C 
ATOM     21  C   UNL     1     143.587 138.336 139.981  1.00  0.00    -0.027 C 
ATOM     22  C   UNL     1     144.975 140.926 139.825  1.00  0.00    -0.023 C 
ATOM     23  C   UNL     1     143.441 139.171 138.739  1.00  0.00     0.031 C 
ATOM     24  C   UNL     1     144.651 140.097 138.531  1.00  0.00     0.002 C 
ATOM     25  C   UNL     1     146.196 141.894 139.555  1.00  0.00     0.010 C 
ATOM     26  C   UNL     1     143.742 141.783 140.254  1.00  0.00     0.012 C 
ATOM     27  C   UNL     1     144.473 140.979 137.277  1.00  0.00     0.036 C 
ATOM     28  C   UNL     1     146.744 141.845 138.119  1.00  0.00     0.032 C 
ATOM     29  C   UNL     1     145.624 141.996 137.073  1.00  0.00     0.114 C 
BRANCH  29  30
ATOM     30  O   UNL     1     145.109 143.301 137.118  1.00  0.00    -0.393 OA
ATOM     31  H   UNL     1     144.936 143.576 136.179  1.00  0.00     0.210 HD
ENDBRANCH  29  30
ENDBRANCH   1  11
TORSDOF 6
ENDMDL
