MODEL 1
REMARK VINA RESULT:    -2.381      0.000      0.000
REMARK INTER + INTRA:          -2.869
REMARK INTER:                  -2.799
REMARK INTRA:                  -0.070
REMARK UNBOUND:                -0.070
REMARK SMILES O=C([O-])CCC(=O)[O-]
REMARK SMILES IDX 4 1 2 2 1 3 3 4 5 5 6 6 7 7 8 8
REMARK H PARENT
REMARK Flexibility Score: inf
ROOT
ATOM      1  C   UNL     1       2.288  -7.853  10.910  1.00  0.00     0.059 C 
ENDROOT
BRANCH   1   2
ATOM      2  C   UNL     1       0.834  -7.878  11.268  1.00  0.00     0.042 C 
ATOM      3  O   UNL     1       0.419  -7.248  12.278  1.00  0.00    -0.550 OA
ATOM      4  O   UNL     1      -0.058  -8.628  10.511  1.00  0.00    -0.550 OA
ENDBRANCH   1   2
BRANCH   1   5
ATOM      5  C   UNL     1       3.076  -6.901  11.816  1.00  0.00     0.059 C 
BRANCH   5   6
ATOM      6  C   UNL     1       4.334  -7.537  12.324  1.00  0.00     0.042 C 
ATOM      7  O   UNL     1       4.278  -8.576  13.032  1.00  0.00    -0.550 OA
ATOM      8  O   UNL     1       5.570  -7.004  11.980  1.00  0.00    -0.550 OA
ENDBRANCH   5   6
ENDBRANCH   1   5
TORSDOF 3
ENDMDL
MODEL 2
REMARK VINA RESULT:    -2.344      0.057      4.177
REMARK INTER + INTRA:          -2.825
REMARK INTER:                  -2.757
REMARK INTRA:                  -0.068
REMARK UNBOUND:                -0.070
REMARK SMILES O=C([O-])CCC(=O)[O-]
REMARK SMILES IDX 4 1 2 2 1 3 3 4 5 5 6 6 7 7 8 8
REMARK H PARENT
REMARK Flexibility Score: inf
ROOT
ATOM      1  C   UNL     1       3.092  -6.891  11.810  1.00  0.00     0.059 C 
ENDROOT
BRANCH   1   2
ATOM      2  C   UNL     1       4.372  -7.504  12.289  1.00  0.00     0.042 C 
ATOM      3  O   UNL     1       4.351  -8.538  13.008  1.00  0.00    -0.550 OA
ATOM      4  O   UNL     1       5.589  -6.910  11.974  1.00  0.00    -0.550 OA
ENDBRANCH   1   2
BRANCH   1   5
ATOM      5  C   UNL     1       2.309  -7.852  10.908  1.00  0.00     0.059 C 
BRANCH   5   6
ATOM      6  C   UNL     1       0.862  -7.910  11.289  1.00  0.00     0.042 C 
ATOM      7  O   UNL     1       0.438  -7.252  12.276  1.00  0.00    -0.550 OA
ATOM      8  O   UNL     1      -0.028  -8.660  10.529  1.00  0.00    -0.550 OA
ENDBRANCH   5   6
ENDBRANCH   1   5
TORSDOF 3
ENDMDL
MODEL 3
REMARK VINA RESULT:    -2.290      0.113      4.126
REMARK INTER + INTRA:          -2.762
REMARK INTER:                  -2.687
REMARK INTRA:                  -0.074
REMARK UNBOUND:                -0.070
REMARK SMILES O=C([O-])CCC(=O)[O-]
REMARK SMILES IDX 4 1 2 2 1 3 3 4 5 5 6 6 7 7 8 8
REMARK H PARENT
REMARK Flexibility Score: inf
ROOT
ATOM      1  C   UNL     1       3.144  -6.908  11.646  1.00  0.00     0.059 C 
ENDROOT
BRANCH   1   2
ATOM      2  C   UNL     1       4.375  -7.477  12.281  1.00  0.00     0.042 C 
ATOM      3  O   UNL     1       5.504  -6.976  12.036  1.00  0.00    -0.550 OA
ATOM      4  O   UNL     1       4.280  -8.587  13.113  1.00  0.00    -0.550 OA
ENDBRANCH   1   2
BRANCH   1   5
ATOM      5  C   UNL     1       2.323  -7.989  10.935  1.00  0.00     0.059 C 
BRANCH   5   6
ATOM      6  C   UNL     1       0.871  -7.903  11.292  1.00  0.00     0.042 C 
ATOM      7  O   UNL     1       0.504  -7.253  12.305  1.00  0.00    -0.550 OA
ATOM      8  O   UNL     1      -0.081  -8.510  10.482  1.00  0.00    -0.550 OA
ENDBRANCH   5   6
ENDBRANCH   1   5
TORSDOF 3
ENDMDL
MODEL 4
REMARK VINA RESULT:    -1.348      1.152      4.228
REMARK INTER + INTRA:          -1.655
REMARK INTER:                  -1.608
REMARK INTRA:                  -0.047
REMARK UNBOUND:                -0.070
REMARK SMILES O=C([O-])CCC(=O)[O-]
REMARK SMILES IDX 4 1 2 2 1 3 3 4 5 5 6 6 7 7 8 8
REMARK H PARENT
REMARK Flexibility Score: inf
ROOT
ATOM      1  C   UNL     1       3.563  -7.973  11.252  1.00  0.00     0.059 C 
ENDROOT
BRANCH   1   2
ATOM      2  C   UNL     1       4.648  -7.856  12.277  1.00  0.00     0.042 C 
ATOM      3  O   UNL     1       4.594  -8.533  13.338  1.00  0.00    -0.550 OA
ATOM      4  O   UNL     1       5.700  -6.969  12.080  1.00  0.00    -0.550 OA
ENDBRANCH   1   2
BRANCH   1   5
ATOM      5  C   UNL     1       2.173  -7.952  11.897  1.00  0.00     0.059 C 
BRANCH   5   6
ATOM      6  C   UNL     1       1.195  -7.171  11.074  1.00  0.00     0.042 C 
ATOM      7  O   UNL     1       1.550  -6.102  10.512  1.00  0.00    -0.550 OA
ATOM      8  O   UNL     1      -0.099  -7.645  10.895  1.00  0.00    -0.550 OA
ENDBRANCH   5   6
ENDBRANCH   1   5
TORSDOF 3
ENDMDL
MODEL 5
REMARK VINA RESULT:    -0.919      1.343      1.595
REMARK INTER + INTRA:          -1.150
REMARK INTER:                  -1.060
REMARK INTRA:                  -0.090
REMARK UNBOUND:                -0.070
REMARK SMILES O=C([O-])CCC(=O)[O-]
REMARK SMILES IDX 4 1 2 2 1 3 3 4 5 5 6 6 7 7 8 8
REMARK H PARENT
REMARK Flexibility Score: inf
ROOT
ATOM      1  C   UNL     1       2.670  -8.239  11.713  1.00  0.00     0.059 C 
ENDROOT
BRANCH   1   2
ATOM      2  C   UNL     1       1.639  -7.269  11.224  1.00  0.00     0.042 C 
ATOM      3  O   UNL     1       0.425  -7.604  11.175  1.00  0.00    -0.550 OA
ATOM      4  O   UNL     1       2.022  -6.007  10.784  1.00  0.00    -0.550 OA
ENDBRANCH   1   2
BRANCH   1   5
ATOM      5  C   UNL     1       4.062  -7.908  11.163  1.00  0.00     0.059 C 
BRANCH   5   6
ATOM      6  C   UNL     1       4.920  -7.248  12.198  1.00  0.00     0.042 C 
ATOM      7  O   UNL     1       4.474  -7.045  13.358  1.00  0.00    -0.550 OA
ATOM      8  O   UNL     1       6.228  -6.892  11.893  1.00  0.00    -0.550 OA
ENDBRANCH   5   6
ENDBRANCH   1   5
TORSDOF 3
ENDMDL
