MODEL 1
REMARK VINA RESULT:    -1.821      0.000      0.000
REMARK INTER + INTRA:          -2.573
REMARK INTER:                  -2.460
REMARK INTRA:                  -0.113
REMARK UNBOUND:                -0.113
REMARK SMILES [NH3+]CCCC[C@@H]([NH3+])C(=O)[O-]
REMARK SMILES IDX 4 1 3 2 2 3 1 4 5 8 6 9 7 10 8 14 9 15 10 16
REMARK H PARENT 1 5 1 6 1 7 7 11 7 12 7 13
REMARK Flexibility Score: inf
ROOT
ATOM      1  C   UNL     1      -0.614  -3.896 -13.332  1.00  0.00     0.012 C 
ENDROOT
BRANCH   1   2
ATOM      2  C   UNL     1      -0.849  -3.749 -11.824  1.00  0.00     0.061 C 
BRANCH   2   3
ATOM      3  C   UNL     1      -1.425  -5.039 -11.227  1.00  0.00     0.258 C 
BRANCH   3   4
ATOM      4  N   UNL     1      -1.155  -6.185 -12.096  1.00  0.00    -0.358 N 
ATOM      5  H   UNL     1      -0.201  -6.565 -11.902  1.00  0.00     0.344 HD
ATOM      6  H   UNL     1      -1.199  -5.874 -13.094  1.00  0.00     0.344 HD
ATOM      7  H   UNL     1      -1.873  -6.930 -11.942  1.00  0.00     0.344 HD
ENDBRANCH   3   4
ENDBRANCH   2   3
ENDBRANCH   1   2
BRANCH   1   8
ATOM      8  C   UNL     1      -1.574  -3.000 -14.129  1.00  0.00     0.072 C 
BRANCH   8   9
ATOM      9  C   UNL     1      -0.956  -2.489 -15.449  1.00  0.00     0.227 C 
BRANCH   9  10
ATOM     10  N   UNL     1       0.126  -3.366 -15.920  1.00  0.00    -0.350 N 
ATOM     11  H   UNL     1       0.169  -3.355 -16.964  1.00  0.00     0.345 HD
ATOM     12  H   UNL     1       1.048  -3.062 -15.532  1.00  0.00     0.345 HD
ATOM     13  H   UNL     1      -0.060  -4.353 -15.624  1.00  0.00     0.345 HD
ENDBRANCH   9  10
BRANCH   9  14
ATOM     14  C   UNL     1      -2.028  -2.377 -16.500  1.00  0.00     0.099 C 
ATOM     15  O   UNL     1      -2.016  -1.424 -17.326  1.00  0.00    -0.544 OA
ATOM     16  O   UNL     1      -3.028  -3.338 -16.577  1.00  0.00    -0.544 OA
ENDBRANCH   9  14
ENDBRANCH   8   9
ENDBRANCH   1   8
TORSDOF 7
ENDMDL
MODEL 2
REMARK VINA RESULT:    -1.572      1.142      1.543
REMARK INTER + INTRA:          -2.236
REMARK INTER:                  -2.139
REMARK INTRA:                  -0.097
REMARK UNBOUND:                -0.113
REMARK SMILES [NH3+]CCCC[C@@H]([NH3+])C(=O)[O-]
REMARK SMILES IDX 4 1 3 2 2 3 1 4 5 8 6 9 7 10 8 14 9 15 10 16
REMARK H PARENT 1 5 1 6 1 7 7 11 7 12 7 13
REMARK Flexibility Score: inf
ROOT
ATOM      1  C   UNL     1      -0.481  -3.840 -13.276  1.00  0.00     0.012 C 
ENDROOT
BRANCH   1   2
ATOM      2  C   UNL     1      -1.185  -4.900 -12.420  1.00  0.00     0.061 C 
BRANCH   2   3
ATOM      3  C   UNL     1      -1.249  -4.468 -10.949  1.00  0.00     0.258 C 
BRANCH   3   4
ATOM      4  N   UNL     1      -0.502  -3.228 -10.735  1.00  0.00    -0.358 N 
ATOM      5  H   UNL     1       0.504  -3.443 -10.552  1.00  0.00     0.344 HD
ATOM      6  H   UNL     1      -0.898  -2.730  -9.904  1.00  0.00     0.344 HD
ATOM      7  H   UNL     1      -0.586  -2.608 -11.573  1.00  0.00     0.344 HD
ENDBRANCH   3   4
ENDBRANCH   2   3
ENDBRANCH   1   2
BRANCH   1   8
ATOM      8  C   UNL     1      -1.495  -3.052 -14.120  1.00  0.00     0.072 C 
BRANCH   8   9
ATOM      9  C   UNL     1      -0.895  -2.543 -15.449  1.00  0.00     0.227 C 
BRANCH   9  10
ATOM     10  N   UNL     1       0.170  -3.428 -15.942  1.00  0.00    -0.350 N 
ATOM     11  H   UNL     1      -0.127  -3.888 -16.832  1.00  0.00     0.345 HD
ATOM     12  H   UNL     1       1.053  -2.891 -16.107  1.00  0.00     0.345 HD
ATOM     13  H   UNL     1       0.357  -4.185 -15.244  1.00  0.00     0.345 HD
ENDBRANCH   9  10
BRANCH   9  14
ATOM     14  C   UNL     1      -1.985  -2.418 -16.481  1.00  0.00     0.099 C 
ATOM     15  O   UNL     1      -2.912  -3.270 -16.538  1.00  0.00    -0.544 OA
ATOM     16  O   UNL     1      -1.984  -1.347 -17.366  1.00  0.00    -0.544 OA
ENDBRANCH   9  14
ENDBRANCH   8   9
ENDBRANCH   1   8
TORSDOF 7
ENDMDL
MODEL 3
REMARK VINA RESULT:    -1.552      3.088      5.041
REMARK INTER + INTRA:          -2.209
REMARK INTER:                  -2.109
REMARK INTRA:                  -0.100
REMARK UNBOUND:                -0.113
REMARK SMILES [NH3+]CCCC[C@@H]([NH3+])C(=O)[O-]
REMARK SMILES IDX 4 1 3 2 2 3 1 4 5 8 6 9 7 10 8 14 9 15 10 16
REMARK H PARENT 1 5 1 6 1 7 7 11 7 12 7 13
REMARK Flexibility Score: inf
ROOT
ATOM      1  C   UNL     1      -1.462  -2.828 -14.386  1.00  0.00     0.012 C 
ENDROOT
BRANCH   1   2
ATOM      2  C   UNL     1      -0.981  -2.565 -15.818  1.00  0.00     0.061 C 
BRANCH   2   3
ATOM      3  C   UNL     1      -2.162  -2.284 -16.755  1.00  0.00     0.258 C 
BRANCH   3   4
ATOM      4  N   UNL     1      -3.206  -3.297 -16.599  1.00  0.00    -0.358 N 
ATOM      5  H   UNL     1      -3.197  -3.951 -17.416  1.00  0.00     0.344 HD
ATOM      6  H   UNL     1      -4.138  -2.824 -16.556  1.00  0.00     0.344 HD
ATOM      7  H   UNL     1      -3.058  -3.833 -15.714  1.00  0.00     0.344 HD
ENDBRANCH   3   4
ENDBRANCH   2   3
ENDBRANCH   1   2
BRANCH   1   8
ATOM      8  C   UNL     1      -0.489  -3.754 -13.640  1.00  0.00     0.072 C 
BRANCH   8   9
ATOM      9  C   UNL     1      -1.213  -4.762 -12.720  1.00  0.00     0.227 C 
BRANCH   9  10
ATOM     10  N   UNL     1      -0.628  -6.107 -12.816  1.00  0.00    -0.350 N 
ATOM     11  H   UNL     1      -1.266  -6.809 -12.378  1.00  0.00     0.345 HD
ATOM     12  H   UNL     1      -0.457  -6.368 -13.815  1.00  0.00     0.345 HD
ATOM     13  H   UNL     1       0.279  -6.139 -12.296  1.00  0.00     0.345 HD
ENDBRANCH   9  10
BRANCH   9  14
ATOM     14  C   UNL     1      -1.162  -4.275 -11.296  1.00  0.00     0.099 C 
ATOM     15  O   UNL     1      -1.567  -5.009 -10.355  1.00  0.00    -0.544 OA
ATOM     16  O   UNL     1      -0.647  -3.016 -11.011  1.00  0.00    -0.544 OA
ENDBRANCH   9  14
ENDBRANCH   8   9
ENDBRANCH   1   8
TORSDOF 7
ENDMDL
MODEL 4
REMARK VINA RESULT:    -1.488      1.633      1.939
REMARK INTER + INTRA:          -2.123
REMARK INTER:                  -1.993
REMARK INTRA:                  -0.130
REMARK UNBOUND:                -0.113
REMARK SMILES [NH3+]CCCC[C@@H]([NH3+])C(=O)[O-]
REMARK SMILES IDX 4 1 3 2 2 3 1 4 5 8 6 9 7 10 8 14 9 15 10 16
REMARK H PARENT 1 5 1 6 1 7 7 11 7 12 7 13
REMARK Flexibility Score: inf
ROOT
ATOM      1  C   UNL     1      -0.878  -3.655 -12.139  1.00  0.00     0.012 C 
ENDROOT
BRANCH   1   2
ATOM      2  C   UNL     1      -1.250  -5.010 -11.524  1.00  0.00     0.061 C 
BRANCH   2   3
ATOM      3  C   UNL     1      -0.875  -6.164 -12.462  1.00  0.00     0.258 C 
BRANCH   3   4
ATOM      4  N   UNL     1      -0.875  -7.440 -11.748  1.00  0.00    -0.358 N 
ATOM      5  H   UNL     1      -0.044  -7.497 -11.116  1.00  0.00     0.344 HD
ATOM      6  H   UNL     1      -0.825  -8.220 -12.443  1.00  0.00     0.344 HD
ATOM      7  H   UNL     1      -1.753  -7.540 -11.189  1.00  0.00     0.344 HD
ENDBRANCH   3   4
ENDBRANCH   2   3
ENDBRANCH   1   2
BRANCH   1   8
ATOM      8  C   UNL     1      -0.603  -3.790 -13.644  1.00  0.00     0.072 C 
BRANCH   8   9
ATOM      9  C   UNL     1      -1.619  -3.009 -14.507  1.00  0.00     0.227 C 
BRANCH   9  10
ATOM     10  N   UNL     1      -2.000  -1.734 -13.883  1.00  0.00    -0.350 N 
ATOM     11  H   UNL     1      -2.847  -1.342 -14.353  1.00  0.00     0.345 HD
ATOM     12  H   UNL     1      -2.198  -1.864 -12.863  1.00  0.00     0.345 HD
ATOM     13  H   UNL     1      -1.228  -1.037 -13.994  1.00  0.00     0.345 HD
ENDBRANCH   9  10
BRANCH   9  14
ATOM     14  C   UNL     1      -1.038  -2.763 -15.875  1.00  0.00     0.099 C 
ATOM     15  O   UNL     1       0.001  -3.372 -16.246  1.00  0.00    -0.544 OA
ATOM     16  O   UNL     1      -1.658  -1.875 -16.743  1.00  0.00    -0.544 OA
ENDBRANCH   9  14
ENDBRANCH   8   9
ENDBRANCH   1   8
TORSDOF 7
ENDMDL
MODEL 5
REMARK VINA RESULT:    -1.197      3.221      4.953
REMARK INTER + INTRA:          -1.730
REMARK INTER:                  -1.672
REMARK INTRA:                  -0.058
REMARK UNBOUND:                -0.113
REMARK SMILES [NH3+]CCCC[C@@H]([NH3+])C(=O)[O-]
REMARK SMILES IDX 4 1 3 2 2 3 1 4 5 8 6 9 7 10 8 14 9 15 10 16
REMARK H PARENT 1 5 1 6 1 7 7 11 7 12 7 13
REMARK Flexibility Score: inf
ROOT
ATOM      1  C   UNL     1      -0.768  -3.364 -14.715  1.00  0.00     0.012 C 
ENDROOT
BRANCH   1   2
ATOM      2  C   UNL     1      -1.153  -2.138 -15.552  1.00  0.00     0.061 C 
BRANCH   2   3
ATOM      3  C   UNL     1      -1.942  -2.548 -16.802  1.00  0.00     0.258 C 
BRANCH   3   4
ATOM      4  N   UNL     1      -3.152  -3.287 -16.439  1.00  0.00    -0.358 N 
ATOM      5  H   UNL     1      -3.144  -3.507 -15.416  1.00  0.00     0.344 HD
ATOM      6  H   UNL     1      -3.179  -4.183 -16.978  1.00  0.00     0.344 HD
ATOM      7  H   UNL     1      -4.001  -2.724 -16.674  1.00  0.00     0.344 HD
ENDBRANCH   3   4
ENDBRANCH   2   3
ENDBRANCH   1   2
BRANCH   1   8
ATOM      8  C   UNL     1      -1.558  -3.403 -13.398  1.00  0.00     0.072 C 
BRANCH   8   9
ATOM      9  C   UNL     1      -0.717  -3.927 -12.214  1.00  0.00     0.227 C 
BRANCH   9  10
ATOM     10  N   UNL     1      -0.785  -3.025 -11.055  1.00  0.00    -0.350 N 
ATOM     11  H   UNL     1      -0.471  -3.525 -10.192  1.00  0.00     0.345 HD
ATOM     12  H   UNL     1      -0.185  -2.181 -11.204  1.00  0.00     0.345 HD
ATOM     13  H   UNL     1      -1.773  -2.718 -10.899  1.00  0.00     0.345 HD
ENDBRANCH   9  10
BRANCH   9  14
ATOM     14  C   UNL     1      -1.189  -5.304 -11.828  1.00  0.00     0.099 C 
ATOM     15  O   UNL     1      -1.930  -5.467 -10.822  1.00  0.00    -0.544 OA
ATOM     16  O   UNL     1      -0.825  -6.403 -12.596  1.00  0.00    -0.544 OA
ENDBRANCH   9  14
ENDBRANCH   8   9
ENDBRANCH   1   8
TORSDOF 7
ENDMDL
MODEL 6
REMARK VINA RESULT:     0.678      2.173      2.813
REMARK INTER + INTRA:           0.803
REMARK INTER:                   0.511
REMARK INTRA:                   0.292
REMARK UNBOUND:                -0.113
REMARK SMILES [NH3+]CCCC[C@@H]([NH3+])C(=O)[O-]
REMARK SMILES IDX 4 1 3 2 2 3 1 4 5 8 6 9 7 10 8 14 9 15 10 16
REMARK H PARENT 1 5 1 6 1 7 7 11 7 12 7 13
REMARK Flexibility Score: inf
ROOT
ATOM      1  C   UNL     1      -0.841  -3.552 -13.452  1.00  0.00     0.012 C 
ENDROOT
BRANCH   1   2
ATOM      2  C   UNL     1      -0.173  -4.602 -14.349  1.00  0.00     0.061 C 
BRANCH   2   3
ATOM      3  C   UNL     1       1.007  -3.998 -15.121  1.00  0.00     0.258 C 
BRANCH   3   4
ATOM      4  N   UNL     1       1.938  -5.041 -15.554  1.00  0.00    -0.358 N 
ATOM      5  H   UNL     1       1.827  -5.891 -14.955  1.00  0.00     0.344 HD
ATOM      6  H   UNL     1       2.917  -4.685 -15.457  1.00  0.00     0.344 HD
ATOM      7  H   UNL     1       1.763  -5.286 -16.555  1.00  0.00     0.344 HD
ENDBRANCH   3   4
ENDBRANCH   2   3
ENDBRANCH   1   2
BRANCH   1   8
ATOM      8  C   UNL     1      -2.027  -2.889 -14.170  1.00  0.00     0.072 C 
BRANCH   8   9
ATOM      9  C   UNL     1      -1.980  -3.082 -15.701  1.00  0.00     0.227 C 
BRANCH   9  10
ATOM     10  N   UNL     1      -3.292  -3.461 -16.245  1.00  0.00    -0.350 N 
ATOM     11  H   UNL     1      -3.653  -4.310 -15.754  1.00  0.00     0.345 HD
ATOM     12  H   UNL     1      -3.979  -2.679 -16.137  1.00  0.00     0.345 HD
ATOM     13  H   UNL     1      -3.203  -3.699 -17.260  1.00  0.00     0.345 HD
ENDBRANCH   9  10
BRANCH   9  14
ATOM     14  C   UNL     1      -1.493  -1.817 -16.356  1.00  0.00     0.099 C 
ATOM     15  O   UNL     1      -2.074  -1.362 -17.378  1.00  0.00    -0.544 OA
ATOM     16  O   UNL     1      -0.408  -1.132 -15.823  1.00  0.00    -0.544 OA
ENDBRANCH   9  14
ENDBRANCH   8   9
ENDBRANCH   1   8
TORSDOF 7
ENDMDL
