MODEL 1
REMARK VINA RESULT:    -4.101      0.000      0.000
REMARK INTER + INTRA:          -4.651
REMARK INTER:                  -5.899
REMARK INTRA:                   1.248
REMARK UNBOUND:                 1.248
REMARK SMILES O=c1c(O[C@H]2O[C@H](CO)[C@H](O)[C@H](O)[C@@H]2O)c(-c2ccc(O)cc2)oc2cc(O)cc(O)c12
REMARK SMILES IDX 4 1 3 2 16 3 24 4 2 5 25 6 1 7 32 8 26 9 30 10 27 11 29 12
REMARK SMILES IDX 17 13 18 14 19 15 20 16 23 17 22 18 21 19 31 21 28 23 5 25
REMARK SMILES IDX 14 26 6 27 12 28 7 29 10 30 15 31 13 33 8 35 9 36 11 38
REMARK H PARENT 21 20 31 22 28 24 15 32 13 34 9 37 11 39
REMARK Flexibility Score: inf
ROOT
ATOM      1  O   UNL     1      47.638  33.316 100.027  1.00  0.00    -0.454 OA
ENDROOT
BRANCH   1   2
ATOM      2  C   UNL     1      47.405  34.680 100.290  1.00  0.00     0.214 A 
ATOM      3  C   UNL     1      46.895  35.483  99.249  1.00  0.00     0.180 A 
ATOM      4  O   UNL     1      46.625  36.765  99.468  1.00  0.00    -0.452 OA
ATOM      5  C   UNL     1      47.625  35.281 101.552  1.00  0.00     0.239 A 
ATOM      6  C   UNL     1      46.815  37.366 100.635  1.00  0.00     0.146 A 
ATOM      7  O   UNL     1      48.124  34.617 102.494  1.00  0.00    -0.285 OA
ATOM      8  C   UNL     1      47.313  36.643 101.741  1.00  0.00     0.111 A 
ATOM      9  C   UNL     1      46.528  38.732 100.759  1.00  0.00     0.094 A 
ATOM     10  C   UNL     1      47.482  37.307 102.978  1.00  0.00     0.134 A 
ATOM     11  C   UNL     1      46.730  39.390 101.970  1.00  0.00     0.123 A 
ATOM     12  C   UNL     1      47.194  38.677 103.080  1.00  0.00     0.093 A 
BRANCH   3  13
ATOM     13  C   UNL     1      46.598  34.936  97.901  1.00  0.00     0.021 A 
ATOM     14  C   UNL     1      46.903  33.602  97.559  1.00  0.00     0.016 A 
ATOM     15  C   UNL     1      46.634  33.127  96.273  1.00  0.00     0.047 A 
ATOM     16  C   UNL     1      46.059  33.972  95.317  1.00  0.00     0.115 A 
ATOM     17  C   UNL     1      46.056  35.785  96.922  1.00  0.00     0.016 A 
ATOM     18  C   UNL     1      45.777  35.299  95.644  1.00  0.00     0.047 A 
BRANCH  16  19
ATOM     19  O   UNL     1      45.779  33.510  94.031  1.00  0.00    -0.508 OA
ATOM     20  H   UNL     1      44.828  33.394  93.696  1.00  0.00     0.293 HD
ENDBRANCH  16  19
ENDBRANCH   3  13
BRANCH  10  21
ATOM     21  O   UNL     1      47.948  36.626 104.100  1.00  0.00    -0.507 OA
ATOM     22  H   UNL     1      48.882  36.233 104.127  1.00  0.00     0.293 HD
ENDBRANCH  10  21
BRANCH  11  23
ATOM     23  O   UNL     1      46.478  40.757 102.060  1.00  0.00    -0.508 OA
ATOM     24  H   UNL     1      45.578  41.103 102.367  1.00  0.00     0.293 HD
ENDBRANCH  11  23
ENDBRANCH   1   2
BRANCH   1  25
ATOM     25  C   UNL     1      47.128  32.202 100.765  1.00  0.00     0.339 C 
ATOM     26  C   UNL     1      46.129  31.409  99.858  1.00  0.00     0.214 C 
ATOM     27  O   UNL     1      46.621  32.692 101.993  1.00  0.00    -0.332 OA
ATOM     28  C   UNL     1      44.694  31.175 100.447  1.00  0.00     0.180 C 
ATOM     29  C   UNL     1      45.814  31.783 102.700  1.00  0.00     0.179 C 
ATOM     30  C   UNL     1      44.497  31.556 101.932  1.00  0.00     0.177 C 
BRANCH  26  31
ATOM     31  O   UNL     1      46.747  30.190  99.534  1.00  0.00    -0.384 OA
ATOM     32  H   UNL     1      46.079  29.446  99.649  1.00  0.00     0.211 HD
ENDBRANCH  26  31
BRANCH  28  33
ATOM     33  O   UNL     1      44.225  29.875 100.180  1.00  0.00    -0.387 OA
ATOM     34  H   UNL     1      44.946  29.231 100.414  1.00  0.00     0.211 HD
ENDBRANCH  28  33
BRANCH  29  35
ATOM     35  C   UNL     1      46.573  30.538 103.229  1.00  0.00     0.191 C 
BRANCH  35  36
ATOM     36  O   UNL     1      47.765  30.876 103.883  1.00  0.00    -0.394 OA
ATOM     37  H   UNL     1      48.286  30.037 103.990  1.00  0.00     0.210 HD
ENDBRANCH  35  36
ENDBRANCH  29  35
BRANCH  30  38
ATOM     38  O   UNL     1      43.595  30.697 102.598  1.00  0.00    -0.387 OA
ATOM     39  H   UNL     1      43.778  29.764 102.343  1.00  0.00     0.211 HD
ENDBRANCH  30  38
ENDBRANCH   1  25
TORSDOF 11
ENDMDL
MODEL 2
REMARK VINA RESULT:    -2.354      7.754     13.898
REMARK INTER + INTRA:          -2.137
REMARK INTER:                  -3.671
REMARK INTRA:                   1.533
REMARK UNBOUND:                 1.248
REMARK SMILES O=c1c(O[C@H]2O[C@H](CO)[C@H](O)[C@H](O)[C@@H]2O)c(-c2ccc(O)cc2)oc2cc(O)cc(O)c12
REMARK SMILES IDX 4 1 3 2 16 3 24 4 2 5 25 6 1 7 32 8 26 9 30 10 27 11 29 12
REMARK SMILES IDX 17 13 18 14 19 15 20 16 23 17 22 18 21 19 31 21 28 23 5 25
REMARK SMILES IDX 14 26 6 27 12 28 7 29 10 30 15 31 13 33 8 35 9 36 11 38
REMARK H PARENT 21 20 31 22 28 24 15 32 13 34 9 37 11 39
REMARK Flexibility Score: inf
ROOT
ATOM      1  O   UNL     1      44.605  47.002 103.060  1.00  0.00    -0.454 OA
ENDROOT
BRANCH   1   2
ATOM      2  C   UNL     1      44.665  45.729 102.460  1.00  0.00     0.214 A 
ATOM      3  C   UNL     1      43.528  45.261 101.770  1.00  0.00     0.180 A 
ATOM      4  O   UNL     1      43.558  44.083 101.158  1.00  0.00    -0.452 OA
ATOM      5  C   UNL     1      45.816  44.906 102.487  1.00  0.00     0.239 A 
ATOM      6  C   UNL     1      44.615  43.283 101.158  1.00  0.00     0.146 A 
ATOM      7  O   UNL     1      46.835  45.260 103.132  1.00  0.00    -0.285 OA
ATOM      8  C   UNL     1      45.806  43.667 101.814  1.00  0.00     0.111 A 
ATOM      9  C   UNL     1      44.540  42.044 100.508  1.00  0.00     0.094 A 
ATOM     10  C   UNL     1      46.924  42.803 101.774  1.00  0.00     0.134 A 
ATOM     11  C   UNL     1      45.632  41.179 100.503  1.00  0.00     0.123 A 
ATOM     12  C   UNL     1      46.825  41.563 101.124  1.00  0.00     0.093 A 
BRANCH   3  13
ATOM     13  C   UNL     1      42.286  46.066 101.656  1.00  0.00     0.021 A 
ATOM     14  C   UNL     1      42.321  47.469 101.514  1.00  0.00     0.016 A 
ATOM     15  C   UNL     1      41.133  48.199 101.436  1.00  0.00     0.047 A 
ATOM     16  C   UNL     1      39.899  47.541 101.497  1.00  0.00     0.115 A 
ATOM     17  C   UNL     1      41.041  45.422 101.754  1.00  0.00     0.016 A 
ATOM     18  C   UNL     1      39.858  46.156 101.660  1.00  0.00     0.047 A 
BRANCH  16  19
ATOM     19  O   UNL     1      38.704  48.256 101.414  1.00  0.00    -0.508 OA
ATOM     20  H   UNL     1      38.663  49.193 101.026  1.00  0.00     0.293 HD
ENDBRANCH  16  19
ENDBRANCH   3  13
BRANCH  10  21
ATOM     21  O   UNL     1      48.124  43.154 102.389  1.00  0.00    -0.507 OA
ATOM     22  H   UNL     1      48.215  43.166 103.397  1.00  0.00     0.293 HD
ENDBRANCH  10  21
BRANCH  11  23
ATOM     23  O   UNL     1      45.522  39.935  99.887  1.00  0.00    -0.508 OA
ATOM     24  H   UNL     1      44.958  39.811  99.057  1.00  0.00     0.293 HD
ENDBRANCH  11  23
ENDBRANCH   1   2
BRANCH   1  25
ATOM     25  C   UNL     1      45.342  48.165 102.674  1.00  0.00     0.339 C 
ATOM     26  C   UNL     1      44.738  48.727 101.344  1.00  0.00     0.214 C 
ATOM     27  O   UNL     1      46.715  47.822 102.654  1.00  0.00    -0.332 OA
ATOM     28  C   UNL     1      45.743  48.924 100.155  1.00  0.00     0.180 C 
ATOM     29  C   UNL     1      47.544  48.755 102.006  1.00  0.00     0.179 C 
ATOM     30  C   UNL     1      47.241  48.752 100.494  1.00  0.00     0.177 C 
BRANCH  26  31
ATOM     31  O   UNL     1      44.092  49.933 101.662  1.00  0.00    -0.384 OA
ATOM     32  H   UNL     1      43.891  50.430 100.810  1.00  0.00     0.211 HD
ENDBRANCH  26  31
BRANCH  28  33
ATOM     33  O   UNL     1      45.504  50.125  99.461  1.00  0.00    -0.387 OA
ATOM     34  H   UNL     1      44.562  50.399  99.631  1.00  0.00     0.211 HD
ENDBRANCH  28  33
BRANCH  29  35
ATOM     35  C   UNL     1      47.645  50.124 102.727  1.00  0.00     0.191 C 
BRANCH  35  36
ATOM     36  O   UNL     1      47.836  49.988 104.108  1.00  0.00    -0.394 OA
ATOM     37  H   UNL     1      47.247  49.247 104.411  1.00  0.00     0.210 HD
ENDBRANCH  35  36
ENDBRANCH  29  35
BRANCH  30  38
ATOM     38  O   UNL     1      48.070  49.621  99.751  1.00  0.00    -0.387 OA
ATOM     39  H   UNL     1      47.741  49.680  98.825  1.00  0.00     0.211 HD
ENDBRANCH  30  38
ENDBRANCH   1  25
TORSDOF 11
ENDMDL
MODEL 3
REMARK VINA RESULT:    -1.796      1.308      5.467
REMARK INTER + INTRA:          -1.335
REMARK INTER:                  -2.991
REMARK INTRA:                   1.656
REMARK UNBOUND:                 1.248
REMARK SMILES O=c1c(O[C@H]2O[C@H](CO)[C@H](O)[C@H](O)[C@@H]2O)c(-c2ccc(O)cc2)oc2cc(O)cc(O)c12
REMARK SMILES IDX 4 1 3 2 16 3 24 4 2 5 25 6 1 7 32 8 26 9 30 10 27 11 29 12
REMARK SMILES IDX 17 13 18 14 19 15 20 16 23 17 22 18 21 19 31 21 28 23 5 25
REMARK SMILES IDX 14 26 6 27 12 28 7 29 10 30 15 31 13 33 8 35 9 36 11 38
REMARK H PARENT 21 20 31 22 28 24 15 32 13 34 9 37 11 39
REMARK Flexibility Score: inf
ROOT
ATOM      1  O   UNL     1      48.125  34.079 100.699  1.00  0.00    -0.454 OA
ENDROOT
BRANCH   1   2
ATOM      2  C   UNL     1      47.484  34.319  99.467  1.00  0.00     0.214 A 
ATOM      3  C   UNL     1      46.850  35.564  99.276  1.00  0.00     0.180 A 
ATOM      4  O   UNL     1      46.268  35.844  98.115  1.00  0.00    -0.452 OA
ATOM      5  C   UNL     1      47.469  33.390  98.400  1.00  0.00     0.239 A 
ATOM      6  C   UNL     1      46.233  35.003  97.091  1.00  0.00     0.146 A 
ATOM      7  O   UNL     1      47.978  32.250  98.543  1.00  0.00    -0.285 OA
ATOM      8  C   UNL     1      46.849  33.735  97.182  1.00  0.00     0.111 A 
ATOM      9  C   UNL     1      45.568  35.379  95.916  1.00  0.00     0.094 A 
ATOM     10  C   UNL     1      46.814  32.871  96.063  1.00  0.00     0.134 A 
ATOM     11  C   UNL     1      45.506  34.509  94.829  1.00  0.00     0.123 A 
ATOM     12  C   UNL     1      46.137  33.264  94.898  1.00  0.00     0.093 A 
BRANCH   3  13
ATOM     13  C   UNL     1      46.842  36.616 100.323  1.00  0.00     0.021 A 
ATOM     14  C   UNL     1      46.619  37.974 100.009  1.00  0.00     0.016 A 
ATOM     15  C   UNL     1      46.645  38.942 101.015  1.00  0.00     0.047 A 
ATOM     16  C   UNL     1      46.890  38.571 102.342  1.00  0.00     0.115 A 
ATOM     17  C   UNL     1      47.125  36.261 101.653  1.00  0.00     0.016 A 
ATOM     18  C   UNL     1      47.134  37.233 102.655  1.00  0.00     0.047 A 
BRANCH  16  19
ATOM     19  O   UNL     1      46.913  39.526 103.359  1.00  0.00    -0.508 OA
ATOM     20  H   UNL     1      46.063  39.947 103.720  1.00  0.00     0.293 HD
ENDBRANCH  16  19
ENDBRANCH   3  13
BRANCH  10  21
ATOM     21  O   UNL     1      47.430  31.621  96.103  1.00  0.00    -0.507 OA
ATOM     22  H   UNL     1      48.410  31.524  96.339  1.00  0.00     0.293 HD
ENDBRANCH  10  21
BRANCH  11  23
ATOM     23  O   UNL     1      44.804  34.886  93.686  1.00  0.00    -0.508 OA
ATOM     24  H   UNL     1      45.232  35.469  92.979  1.00  0.00     0.293 HD
ENDBRANCH  11  23
ENDBRANCH   1   2
BRANCH   1  25
ATOM     25  C   UNL     1      47.936  32.950 101.556  1.00  0.00     0.339 C 
ATOM     26  C   UNL     1      46.900  31.981 100.893  1.00  0.00     0.214 C 
ATOM     27  O   UNL     1      47.618  33.434 102.847  1.00  0.00    -0.332 OA
ATOM     28  C   UNL     1      45.659  31.589 101.770  1.00  0.00     0.180 C 
ATOM     29  C   UNL     1      47.106  32.465 103.729  1.00  0.00     0.179 C 
ATOM     30  C   UNL     1      45.708  32.022 103.252  1.00  0.00     0.177 C 
BRANCH  26  31
ATOM     31  O   UNL     1      47.609  30.839 100.483  1.00  0.00    -0.384 OA
ATOM     32  H   UNL     1      47.267  30.042 100.994  1.00  0.00     0.211 HD
ENDBRANCH  26  31
BRANCH  28  33
ATOM     33  O   UNL     1      45.337  30.225 101.639  1.00  0.00    -0.387 OA
ATOM     34  H   UNL     1      45.611  29.927 100.730  1.00  0.00     0.211 HD
ENDBRANCH  28  33
BRANCH  29  35
ATOM     35  C   UNL     1      48.125  31.365 104.125  1.00  0.00     0.191 C 
BRANCH  35  36
ATOM     36  O   UNL     1      47.979  30.201 103.359  1.00  0.00    -0.394 OA
ATOM     37  H   UNL     1      47.447  29.561 103.902  1.00  0.00     0.210 HD
ENDBRANCH  35  36
ENDBRANCH  29  35
BRANCH  30  38
ATOM     38  O   UNL     1      45.089  31.087 104.112  1.00  0.00    -0.387 OA
ATOM     39  H   UNL     1      45.712  30.838 104.833  1.00  0.00     0.211 HD
ENDBRANCH  30  38
ENDBRANCH   1  25
TORSDOF 11
ENDMDL
MODEL 4
REMARK VINA RESULT:    -1.231      1.854      5.305
REMARK INTER + INTRA:          -0.523
REMARK INTER:                   0.024
REMARK INTRA:                  -0.547
REMARK UNBOUND:                 1.248
REMARK SMILES O=c1c(O[C@H]2O[C@H](CO)[C@H](O)[C@H](O)[C@@H]2O)c(-c2ccc(O)cc2)oc2cc(O)cc(O)c12
REMARK SMILES IDX 4 1 3 2 16 3 24 4 2 5 25 6 1 7 32 8 26 9 30 10 27 11 29 12
REMARK SMILES IDX 17 13 18 14 19 15 20 16 23 17 22 18 21 19 31 21 28 23 5 25
REMARK SMILES IDX 14 26 6 27 12 28 7 29 10 30 15 31 13 33 8 35 9 36 11 38
REMARK H PARENT 21 20 31 22 28 24 15 32 13 34 9 37 11 39
REMARK Flexibility Score: inf
ROOT
ATOM      1  O   UNL     1      45.598  35.839  98.442  1.00  0.00    -0.454 OA
ENDROOT
BRANCH   1   2
ATOM      2  C   UNL     1      46.073  36.600  99.528  1.00  0.00     0.214 A 
ATOM      3  C   UNL     1      46.619  35.917 100.634  1.00  0.00     0.180 A 
ATOM      4  O   UNL     1      47.113  36.600 101.661  1.00  0.00    -0.452 OA
ATOM      5  C   UNL     1      46.059  38.015  99.556  1.00  0.00     0.239 A 
ATOM      6  C   UNL     1      47.120  37.924 101.726  1.00  0.00     0.146 A 
ATOM      7  O   UNL     1      45.537  38.664  98.615  1.00  0.00    -0.285 OA
ATOM      8  C   UNL     1      46.604  38.697 100.662  1.00  0.00     0.111 A 
ATOM      9  C   UNL     1      47.637  38.554 102.866  1.00  0.00     0.094 A 
ATOM     10  C   UNL     1      46.649  40.108 100.752  1.00  0.00     0.134 A 
ATOM     11  C   UNL     1      47.646  39.943 102.965  1.00  0.00     0.123 A 
ATOM     12  C   UNL     1      47.165  40.718 101.906  1.00  0.00     0.093 A 
BRANCH   3  13
ATOM     13  C   UNL     1      46.710  34.436 100.683  1.00  0.00     0.021 A 
ATOM     14  C   UNL     1      45.572  33.617 100.525  1.00  0.00     0.016 A 
ATOM     15  C   UNL     1      45.689  32.228 100.602  1.00  0.00     0.047 A 
ATOM     16  C   UNL     1      46.937  31.639 100.836  1.00  0.00     0.115 A 
ATOM     17  C   UNL     1      47.950  33.835 100.955  1.00  0.00     0.016 A 
ATOM     18  C   UNL     1      48.061  32.445 101.016  1.00  0.00     0.047 A 
BRANCH  16  19
ATOM     19  O   UNL     1      47.070  30.253 100.910  1.00  0.00    -0.508 OA
ATOM     20  H   UNL     1      46.348  29.624 100.571  1.00  0.00     0.293 HD
ENDBRANCH  16  19
ENDBRANCH   3  13
BRANCH  10  21
ATOM     21  O   UNL     1      46.172  40.908  99.715  1.00  0.00    -0.507 OA
ATOM     22  H   UNL     1      46.699  41.029  98.858  1.00  0.00     0.293 HD
ENDBRANCH  10  21
BRANCH  11  23
ATOM     23  O   UNL     1      48.125  40.547 104.125  1.00  0.00    -0.508 OA
ATOM     24  H   UNL     1      47.556  40.599 104.960  1.00  0.00     0.293 HD
ENDBRANCH  11  23
ENDBRANCH   1   2
BRANCH   1  25
ATOM     25  C   UNL     1      46.388  35.113  97.496  1.00  0.00     0.339 C 
ATOM     26  C   UNL     1      46.448  35.925  96.159  1.00  0.00     0.214 C 
ATOM     27  O   UNL     1      45.870  33.797  97.418  1.00  0.00    -0.332 OA
ATOM     28  C   UNL     1      46.002  35.162  94.863  1.00  0.00     0.180 C 
ATOM     29  C   UNL     1      46.332  33.048  96.321  1.00  0.00     0.179 C 
ATOM     30  C   UNL     1      45.765  33.642  95.016  1.00  0.00     0.177 C 
BRANCH  26  31
ATOM     31  O   UNL     1      47.760  36.411  96.032  1.00  0.00    -0.384 OA
ATOM     32  H   UNL     1      48.314  35.728  95.543  1.00  0.00     0.211 HD
ENDBRANCH  26  31
BRANCH  28  33
ATOM     33  O   UNL     1      46.843  35.448  93.772  1.00  0.00    -0.387 OA
ATOM     34  H   UNL     1      47.652  34.873  93.845  1.00  0.00     0.211 HD
ENDBRANCH  28  33
BRANCH  29  35
ATOM     35  C   UNL     1      47.845  32.712  96.373  1.00  0.00     0.191 C 
BRANCH  35  36
ATOM     36  O   UNL     1      48.124  31.632  97.220  1.00  0.00    -0.394 OA
ATOM     37  H   UNL     1      47.254  31.315  97.582  1.00  0.00     0.210 HD
ENDBRANCH  35  36
ENDBRANCH  29  35
BRANCH  30  38
ATOM     38  O   UNL     1      46.132  32.916  93.860  1.00  0.00    -0.387 OA
ATOM     39  H   UNL     1      46.807  33.423  93.353  1.00  0.00     0.211 HD
ENDBRANCH  30  38
ENDBRANCH   1  25
TORSDOF 11
ENDMDL
