MODEL 1
REMARK VINA RESULT:     1.837      0.000      0.000
REMARK INTER + INTRA:           2.045
REMARK INTER:                   2.052
REMARK INTRA:                  -0.008
REMARK UNBOUND:                -0.008
REMARK SMILES CCc1ccc(O)cc1O
REMARK SMILES IDX 3 1 9 2 8 3 6 4 5 5 4 6 2 7 1 8 10 9 7 11
REMARK H PARENT 10 10 7 12
REMARK Flexibility Score: inf
ROOT
ATOM      1  C   UNL     1      14.970  53.738  61.834  1.00  0.00    -0.006 A 
ATOM      2  C   UNL     1      14.409  52.511  62.240  1.00  0.00     0.122 A 
ATOM      3  C   UNL     1      14.770  51.326  61.582  1.00  0.00     0.092 A 
ATOM      4  C   UNL     1      15.694  51.352  60.533  1.00  0.00     0.119 A 
ATOM      5  C   UNL     1      16.264  52.568  60.138  1.00  0.00     0.047 A 
ATOM      6  C   UNL     1      15.907  53.753  60.787  1.00  0.00     0.011 A 
ENDROOT
BRANCH   1   7
ATOM      7  C   UNL     1      14.622  55.023  62.542  1.00  0.00     0.036 C 
ATOM      8  C   UNL     1      15.342  55.114  63.883  1.00  0.00     0.009 C 
ENDBRANCH   1   7
BRANCH   2   9
ATOM      9  O   UNL     1      13.496  52.471  63.293  1.00  0.00    -0.508 OA
ATOM     10  H   UNL     1      13.787  52.257  64.241  1.00  0.00     0.293 HD
ENDBRANCH   2   9
BRANCH   4  11
ATOM     11  O   UNL     1      16.042  50.164  59.893  1.00  0.00    -0.508 OA
ATOM     12  H   UNL     1      16.015  50.080  58.883  1.00  0.00     0.293 HD
ENDBRANCH   4  11
TORSDOF 3
ENDMDL
MODEL 2
REMARK VINA RESULT:     2.092      1.930      2.212
REMARK INTER + INTRA:           2.330
REMARK INTER:                   2.423
REMARK INTRA:                  -0.093
REMARK UNBOUND:                -0.008
REMARK SMILES CCc1ccc(O)cc1O
REMARK SMILES IDX 3 1 9 2 8 3 6 4 5 5 4 6 2 7 1 8 10 9 7 11
REMARK H PARENT 10 10 7 12
REMARK Flexibility Score: inf
ROOT
ATOM      1  C   UNL     1      16.228  53.824  61.981  1.00  0.00    -0.006 A 
ATOM      2  C   UNL     1      17.362  52.988  62.001  1.00  0.00     0.122 A 
ATOM      3  C   UNL     1      17.368  51.801  61.254  1.00  0.00     0.092 A 
ATOM      4  C   UNL     1      16.260  51.446  60.479  1.00  0.00     0.119 A 
ATOM      5  C   UNL     1      15.138  52.283  60.446  1.00  0.00     0.047 A 
ATOM      6  C   UNL     1      15.124  53.466  61.189  1.00  0.00     0.011 A 
ENDROOT
BRANCH   1   7
ATOM      7  C   UNL     1      16.205  55.121  62.750  1.00  0.00     0.036 C 
ATOM      8  C   UNL     1      15.071  55.125  63.770  1.00  0.00     0.009 C 
ENDBRANCH   1   7
BRANCH   2   9
ATOM      9  O   UNL     1      18.478  53.338  62.761  1.00  0.00    -0.508 OA
ATOM     10  H   UNL     1      18.849  54.282  62.755  1.00  0.00     0.293 HD
ENDBRANCH   2   9
BRANCH   4  11
ATOM     11  O   UNL     1      16.286  50.263  59.743  1.00  0.00    -0.508 OA
ATOM     12  H   UNL     1      16.350  50.271  58.732  1.00  0.00     0.293 HD
ENDBRANCH   4  11
TORSDOF 3
ENDMDL
MODEL 3
REMARK VINA RESULT:     3.362      1.429      3.734
REMARK INTER + INTRA:           3.747
REMARK INTER:                   3.678
REMARK INTRA:                   0.069
REMARK UNBOUND:                -0.008
REMARK SMILES CCc1ccc(O)cc1O
REMARK SMILES IDX 3 1 9 2 8 3 6 4 5 5 4 6 2 7 1 8 10 9 7 11
REMARK H PARENT 10 10 7 12
REMARK Flexibility Score: inf
ROOT
ATOM      1  C   UNL     1      15.496  52.845  60.985  1.00  0.00    -0.006 A 
ATOM      2  C   UNL     1      14.720  52.264  62.008  1.00  0.00     0.122 A 
ATOM      3  C   UNL     1      14.338  53.033  63.116  1.00  0.00     0.092 A 
ATOM      4  C   UNL     1      14.712  54.377  63.210  1.00  0.00     0.119 A 
ATOM      5  C   UNL     1      15.471  54.959  62.188  1.00  0.00     0.047 A 
ATOM      6  C   UNL     1      15.857  54.200  61.080  1.00  0.00     0.011 A 
ENDROOT
BRANCH   1   7
ATOM      7  C   UNL     1      15.895  52.051  59.767  1.00  0.00     0.036 C 
ATOM      8  C   UNL     1      16.941  51.001  60.125  1.00  0.00     0.009 C 
ENDBRANCH   1   7
BRANCH   2   9
ATOM      9  O   UNL     1      14.329  50.928  61.919  1.00  0.00    -0.508 OA
ATOM     10  H   UNL     1      13.793  50.482  62.654  1.00  0.00     0.293 HD
ENDBRANCH   2   9
BRANCH   4  11
ATOM     11  O   UNL     1      14.322  55.124  64.320  1.00  0.00    -0.508 OA
ATOM     12  H   UNL     1      13.642  54.770  64.983  1.00  0.00     0.293 HD
ENDBRANCH   4  11
TORSDOF 3
ENDMDL
MODEL 4
REMARK VINA RESULT:     3.787      2.028      4.233
REMARK INTER + INTRA:           4.222
REMARK INTER:                   4.310
REMARK INTRA:                  -0.088
REMARK UNBOUND:                -0.008
REMARK SMILES CCc1ccc(O)cc1O
REMARK SMILES IDX 3 1 9 2 8 3 6 4 5 5 4 6 2 7 1 8 10 9 7 11
REMARK H PARENT 10 10 7 12
REMARK Flexibility Score: inf
ROOT
ATOM      1  C   UNL     1      15.136  52.924  60.758  1.00  0.00    -0.006 A 
ATOM      2  C   UNL     1      15.118  54.333  60.725  1.00  0.00     0.122 A 
ATOM      3  C   UNL     1      14.856  55.056  61.898  1.00  0.00     0.092 A 
ATOM      4  C   UNL     1      14.625  54.388  63.105  1.00  0.00     0.119 A 
ATOM      5  C   UNL     1      14.656  52.989  63.142  1.00  0.00     0.047 A 
ATOM      6  C   UNL     1      14.915  52.262  61.977  1.00  0.00     0.011 A 
ENDROOT
BRANCH   1   7
ATOM      7  C   UNL     1      15.445  52.122  59.519  1.00  0.00     0.036 C 
ATOM      8  C   UNL     1      16.191  50.841  59.875  1.00  0.00     0.009 C 
ENDBRANCH   1   7
BRANCH   2   9
ATOM      9  O   UNL     1      15.361  55.010  59.530  1.00  0.00    -0.508 OA
ATOM     10  H   UNL     1      16.301  55.258  59.242  1.00  0.00     0.293 HD
ENDBRANCH   2   9
BRANCH   4  11
ATOM     11  O   UNL     1      14.367  55.124  64.260  1.00  0.00    -0.508 OA
ATOM     12  H   UNL     1      14.887  55.967  64.477  1.00  0.00     0.293 HD
ENDBRANCH   4  11
TORSDOF 3
ENDMDL
MODEL 5
REMARK VINA RESULT:     4.654      1.825      2.294
REMARK INTER + INTRA:           5.191
REMARK INTER:                   4.667
REMARK INTRA:                   0.523
REMARK UNBOUND:                -0.008
REMARK SMILES CCc1ccc(O)cc1O
REMARK SMILES IDX 3 1 9 2 8 3 6 4 5 5 4 6 2 7 1 8 10 9 7 11
REMARK H PARENT 10 10 7 12
REMARK Flexibility Score: inf
ROOT
ATOM      1  C   UNL     1      15.316  52.893  62.013  1.00  0.00    -0.006 A 
ATOM      2  C   UNL     1      16.660  53.298  62.137  1.00  0.00     0.122 A 
ATOM      3  C   UNL     1      17.660  52.630  61.416  1.00  0.00     0.092 A 
ATOM      4  C   UNL     1      17.333  51.571  60.564  1.00  0.00     0.119 A 
ATOM      5  C   UNL     1      15.996  51.176  60.429  1.00  0.00     0.047 A 
ATOM      6  C   UNL     1      14.994  51.836  61.145  1.00  0.00     0.011 A 
ENDROOT
BRANCH   1   7
ATOM      7  C   UNL     1      14.217  53.612  62.753  1.00  0.00     0.036 C 
ATOM      8  C   UNL     1      14.376  55.123  62.623  1.00  0.00     0.009 C 
ENDBRANCH   1   7
BRANCH   2   9
ATOM      9  O   UNL     1      16.997  54.362  62.973  1.00  0.00    -0.508 OA
ATOM     10  H   UNL     1      16.663  55.303  62.796  1.00  0.00     0.293 HD
ENDBRANCH   2   9
BRANCH   4  11
ATOM     11  O   UNL     1      18.341  50.920  59.856  1.00  0.00    -0.508 OA
ATOM     12  H   UNL     1      18.792  50.090  60.222  1.00  0.00     0.293 HD
ENDBRANCH   4  11
TORSDOF 3
ENDMDL
