MODEL 1
REMARK VINA RESULT:    -3.633      0.000      0.000
REMARK INTER + INTRA:          -4.647
REMARK INTER:                  -4.376
REMARK INTRA:                  -0.271
REMARK UNBOUND:                -0.271
REMARK SMILES O=c1ccn([C@H]2O[C@H](CO)[C@H](O)[C@H]2O)c(=O)[nH]1
REMARK SMILES IDX 6 1 13 2 11 3 8 4 7 5 5 6 3 7 4 8 2 9 17 10 1 11 15 12 16 14
REMARK SMILES IDX 14 15 12 17 9 19 10 20
REMARK H PARENT 17 13 14 16 12 18 10 21
REMARK Flexibility Score: inf
ROOT
ATOM      1  C   UNL     1      71.979   0.216  33.905  1.00  0.00     0.255 C 
ATOM      2  C   UNL     1      73.346  -0.458  34.088  1.00  0.00     0.196 C 
ATOM      3  C   UNL     1      73.921   0.262  35.281  1.00  0.00     0.179 C 
ATOM      4  C   UNL     1      73.215   1.617  35.228  1.00  0.00     0.178 C 
ATOM      5  O   UNL     1      71.949   1.430  34.633  1.00  0.00    -0.347 OA
ENDROOT
BRANCH   1   6
ATOM      6  N   UNL     1      70.866  -0.662  34.334  1.00  0.00    -0.271 N 
ATOM      7  C   UNL     1      69.412  -1.464  36.067  1.00  0.00     0.090 A 
ATOM      8  C   UNL     1      70.437  -0.629  35.634  1.00  0.00     0.099 A 
ATOM      9  C   UNL     1      68.842  -2.347  35.156  1.00  0.00     0.253 A 
ATOM     10  N   UNL     1      69.293  -2.380  33.876  1.00  0.00    -0.274 N 
ATOM     11  O   UNL     1      67.911  -3.114  35.520  1.00  0.00    -0.269 OA
ATOM     12  C   UNL     1      70.299  -1.559  33.461  1.00  0.00     0.330 A 
ATOM     13  H   UNL     1      68.865  -3.052  33.198  1.00  0.00     0.175 HD
ATOM     14  O   UNL     1      70.702  -1.639  32.268  1.00  0.00    -0.248 OA
ENDBRANCH   1   6
BRANCH   2  15
ATOM     15  O   UNL     1      73.235  -1.838  34.327  1.00  0.00    -0.386 OA
ATOM     16  H   UNL     1      73.782  -2.030  35.134  1.00  0.00     0.211 HD
ENDBRANCH   2  15
BRANCH   3  17
ATOM     17  O   UNL     1      75.318   0.377  35.197  1.00  0.00    -0.387 OA
ATOM     18  H   UNL     1      75.695  -0.422  35.648  1.00  0.00     0.211 HD
ENDBRANCH   3  17
BRANCH   4  19
ATOM     19  C   UNL     1      73.991   2.687  34.442  1.00  0.00     0.191 C 
BRANCH  19  20
ATOM     20  O   UNL     1      75.126   3.073  35.165  1.00  0.00    -0.394 OA
ATOM     21  H   UNL     1      75.857   3.171  34.501  1.00  0.00     0.210 HD
ENDBRANCH  19  20
ENDBRANCH   4  19
TORSDOF 5
ENDMDL
MODEL 2
REMARK VINA RESULT:    -3.581     11.893     12.955
REMARK INTER + INTRA:          -4.585
REMARK INTER:                  -4.467
REMARK INTRA:                  -0.118
REMARK UNBOUND:                -0.271
REMARK SMILES O=c1ccn([C@H]2O[C@H](CO)[C@H](O)[C@H]2O)c(=O)[nH]1
REMARK SMILES IDX 6 1 13 2 11 3 8 4 7 5 5 6 3 7 4 8 2 9 17 10 1 11 15 12 16 14
REMARK SMILES IDX 14 15 12 17 9 19 10 20
REMARK H PARENT 17 13 14 16 12 18 10 21
REMARK Flexibility Score: inf
ROOT
ATOM      1  C   UNL     1      61.188   4.806  32.176  1.00  0.00     0.255 C 
ATOM      2  C   UNL     1      60.126   5.647  32.898  1.00  0.00     0.196 C 
ATOM      3  C   UNL     1      59.857   6.763  31.922  1.00  0.00     0.179 C 
ATOM      4  C   UNL     1      61.168   6.847  31.139  1.00  0.00     0.178 C 
ATOM      5  O   UNL     1      61.750   5.562  31.119  1.00  0.00    -0.347 OA
ENDROOT
BRANCH   1   6
ATOM      6  N   UNL     1      60.631   3.537  31.655  1.00  0.00    -0.271 N 
ATOM      7  C   UNL     1      59.589   2.310  29.875  1.00  0.00     0.090 A 
ATOM      8  C   UNL     1      60.142   3.484  30.377  1.00  0.00     0.099 A 
ATOM      9  C   UNL     1      59.528   1.194  30.703  1.00  0.00     0.253 A 
ATOM     10  N   UNL     1      60.000   1.271  31.974  1.00  0.00    -0.274 N 
ATOM     11  O   UNL     1      59.034   0.118  30.275  1.00  0.00    -0.269 OA
ATOM     12  C   UNL     1      60.539   2.425  32.458  1.00  0.00     0.330 A 
ATOM     13  H   UNL     1      59.943   0.431  32.594  1.00  0.00     0.175 HD
ATOM     14  O   UNL     1      60.946   2.458  33.652  1.00  0.00    -0.248 OA
ENDBRANCH   1   6
BRANCH   2  15
ATOM     15  O   UNL     1      58.959   4.914  33.171  1.00  0.00    -0.386 OA
ATOM     16  H   UNL     1      59.196   4.257  33.878  1.00  0.00     0.211 HD
ENDBRANCH   2  15
BRANCH   3  17
ATOM     17  O   UNL     1      59.543   7.964  32.579  1.00  0.00    -0.387 OA
ATOM     18  H   UNL     1      58.558   8.070  32.518  1.00  0.00     0.211 HD
ENDBRANCH   3  17
BRANCH   4  19
ATOM     19  C   UNL     1      62.175   7.850  31.725  1.00  0.00     0.191 C 
BRANCH  19  20
ATOM     20  O   UNL     1      63.035   8.298  30.715  1.00  0.00    -0.394 OA
ATOM     21  H   UNL     1      62.472   8.420  29.906  1.00  0.00     0.210 HD
ENDBRANCH  19  20
ENDBRANCH   4  19
TORSDOF 5
ENDMDL
MODEL 3
REMARK VINA RESULT:    -3.511      2.752      3.112
REMARK INTER + INTRA:          -4.501
REMARK INTER:                  -4.234
REMARK INTRA:                  -0.267
REMARK UNBOUND:                -0.271
REMARK SMILES O=c1ccn([C@H]2O[C@H](CO)[C@H](O)[C@H]2O)c(=O)[nH]1
REMARK SMILES IDX 6 1 13 2 11 3 8 4 7 5 5 6 3 7 4 8 2 9 17 10 1 11 15 12 16 14
REMARK SMILES IDX 14 15 12 17 9 19 10 20
REMARK H PARENT 17 13 14 16 12 18 10 21
REMARK Flexibility Score: inf
ROOT
ATOM      1  C   UNL     1      70.413   1.695  33.354  1.00  0.00     0.255 C 
ATOM      2  C   UNL     1      71.222   0.893  32.325  1.00  0.00     0.196 C 
ATOM      3  C   UNL     1      72.182   0.111  33.184  1.00  0.00     0.179 C 
ATOM      4  C   UNL     1      72.304   0.986  34.432  1.00  0.00     0.178 C 
ATOM      5  O   UNL     1      71.091   1.687  34.597  1.00  0.00    -0.347 OA
ENDROOT
BRANCH   1   6
ATOM      6  N   UNL     1      69.041   1.162  33.519  1.00  0.00    -0.271 N 
ATOM      7  C   UNL     1      67.516  -0.320  34.632  1.00  0.00     0.090 A 
ATOM      8  C   UNL     1      68.791   0.215  34.477  1.00  0.00     0.099 A 
ATOM      9  C   UNL     1      66.503   0.113  33.784  1.00  0.00     0.253 A 
ATOM     10  N   UNL     1      66.774   1.038  32.827  1.00  0.00    -0.274 N 
ATOM     11  O   UNL     1      65.339  -0.353  33.902  1.00  0.00    -0.269 OA
ATOM     12  C   UNL     1      68.026   1.556  32.681  1.00  0.00     0.330 A 
ATOM     13  H   UNL     1      66.010   1.353  32.187  1.00  0.00     0.175 HD
ATOM     14  O   UNL     1      68.238   2.397  31.764  1.00  0.00    -0.248 OA
ENDBRANCH   1   6
BRANCH   2  15
ATOM     15  O   UNL     1      70.412   0.039  31.556  1.00  0.00    -0.386 OA
ATOM     16  H   UNL     1      70.741  -0.884  31.717  1.00  0.00     0.211 HD
ENDBRANCH   2  15
BRANCH   3  17
ATOM     17  O   UNL     1      73.415  -0.086  32.540  1.00  0.00    -0.387 OA
ATOM     18  H   UNL     1      73.890   0.785  32.568  1.00  0.00     0.211 HD
ENDBRANCH   3  17
BRANCH   4  19
ATOM     19  C   UNL     1      73.466   1.991  34.371  1.00  0.00     0.191 C 
BRANCH  19  20
ATOM     20  O   UNL     1      74.570   1.478  35.063  1.00  0.00    -0.394 OA
ATOM     21  H   UNL     1      74.554   1.900  35.962  1.00  0.00     0.210 HD
ENDBRANCH  19  20
ENDBRANCH   4  19
TORSDOF 5
ENDMDL
MODEL 4
REMARK VINA RESULT:    -3.470      3.076      5.146
REMARK INTER + INTRA:          -4.451
REMARK INTER:                  -4.150
REMARK INTRA:                  -0.301
REMARK UNBOUND:                -0.271
REMARK SMILES O=c1ccn([C@H]2O[C@H](CO)[C@H](O)[C@H]2O)c(=O)[nH]1
REMARK SMILES IDX 6 1 13 2 11 3 8 4 7 5 5 6 3 7 4 8 2 9 17 10 1 11 15 12 16 14
REMARK SMILES IDX 14 15 12 17 9 19 10 20
REMARK H PARENT 17 13 14 16 12 18 10 21
REMARK Flexibility Score: inf
ROOT
ATOM      1  C   UNL     1      69.719   1.204  34.679  1.00  0.00     0.255 C 
ATOM      2  C   UNL     1      68.722   0.561  33.705  1.00  0.00     0.196 C 
ATOM      3  C   UNL     1      68.556   1.619  32.644  1.00  0.00     0.179 C 
ATOM      4  C   UNL     1      68.878   2.907  33.401  1.00  0.00     0.178 C 
ATOM      5  O   UNL     1      69.793   2.595  34.429  1.00  0.00    -0.347 OA
ENDROOT
BRANCH   1   6
ATOM      6  N   UNL     1      71.065   0.595  34.577  1.00  0.00    -0.271 N 
ATOM      7  C   UNL     1      73.275   0.603  33.642  1.00  0.00     0.090 A 
ATOM      8  C   UNL     1      72.012   1.173  33.775  1.00  0.00     0.099 A 
ATOM      9  C   UNL     1      73.551  -0.574  34.327  1.00  0.00     0.253 A 
ATOM     10  N   UNL     1      72.593  -1.144  35.103  1.00  0.00    -0.274 N 
ATOM     11  O   UNL     1      74.686  -1.111  34.227  1.00  0.00    -0.269 OA
ATOM     12  C   UNL     1      71.358  -0.580  35.227  1.00  0.00     0.330 A 
ATOM     13  H   UNL     1      72.804  -2.034  35.610  1.00  0.00     0.175 HD
ATOM     14  O   UNL     1      70.491  -1.154  35.941  1.00  0.00    -0.248 OA
ENDBRANCH   1   6
BRANCH   2  15
ATOM     15  O   UNL     1      69.206  -0.640  33.159  1.00  0.00    -0.386 OA
ATOM     16  H   UNL     1      69.847  -0.387  32.444  1.00  0.00     0.211 HD
ENDBRANCH   2  15
BRANCH   3  17
ATOM     17  O   UNL     1      67.258   1.619  32.107  1.00  0.00    -0.387 OA
ATOM     18  H   UNL     1      66.775   2.373  32.535  1.00  0.00     0.211 HD
ENDBRANCH   3  17
BRANCH   4  19
ATOM     19  C   UNL     1      67.643   3.590  34.014  1.00  0.00     0.191 C 
BRANCH  19  20
ATOM     20  O   UNL     1      67.100   4.494  33.093  1.00  0.00    -0.394 OA
ATOM     21  H   UNL     1      66.637   5.190  33.628  1.00  0.00     0.210 HD
ENDBRANCH  19  20
ENDBRANCH   4  19
TORSDOF 5
ENDMDL
MODEL 5
REMARK VINA RESULT:    -3.459      3.976      4.443
REMARK INTER + INTRA:          -4.438
REMARK INTER:                  -4.155
REMARK INTRA:                  -0.284
REMARK UNBOUND:                -0.271
REMARK SMILES O=c1ccn([C@H]2O[C@H](CO)[C@H](O)[C@H]2O)c(=O)[nH]1
REMARK SMILES IDX 6 1 13 2 11 3 8 4 7 5 5 6 3 7 4 8 2 9 17 10 1 11 15 12 16 14
REMARK SMILES IDX 14 15 12 17 9 19 10 20
REMARK H PARENT 17 13 14 16 12 18 10 21
REMARK Flexibility Score: inf
ROOT
ATOM      1  C   UNL     1      70.991   4.387  32.702  1.00  0.00     0.255 C 
ATOM      2  C   UNL     1      72.252   3.560  32.415  1.00  0.00     0.196 C 
ATOM      3  C   UNL     1      72.965   3.559  33.743  1.00  0.00     0.179 C 
ATOM      4  C   UNL     1      72.462   4.847  34.395  1.00  0.00     0.178 C 
ATOM      5  O   UNL     1      71.163   5.106  33.910  1.00  0.00    -0.347 OA
ENDROOT
BRANCH   1   6
ATOM      6  N   UNL     1      69.778   3.541  32.782  1.00  0.00    -0.271 N 
ATOM      7  C   UNL     1      68.251   2.231  34.089  1.00  0.00     0.090 A 
ATOM      8  C   UNL     1      69.371   3.050  33.994  1.00  0.00     0.099 A 
ATOM      9  C   UNL     1      67.561   1.906  32.926  1.00  0.00     0.253 A 
ATOM     10  N   UNL     1      67.991   2.385  31.731  1.00  0.00    -0.274 N 
ATOM     11  O   UNL     1      66.543   1.167  32.983  1.00  0.00    -0.269 OA
ATOM     12  C   UNL     1      69.090   3.187  31.646  1.00  0.00     0.330 A 
ATOM     13  H   UNL     1      67.473   2.130  30.859  1.00  0.00     0.175 HD
ATOM     14  O   UNL     1      69.467   3.592  30.513  1.00  0.00    -0.248 OA
ENDBRANCH   1   6
BRANCH   2  15
ATOM     15  O   UNL     1      71.950   2.253  31.996  1.00  0.00    -0.386 OA
ATOM     16  H   UNL     1      72.606   2.026  31.285  1.00  0.00     0.211 HD
ENDBRANCH   2  15
BRANCH   3  17
ATOM     17  O   UNL     1      74.361   3.544  33.584  1.00  0.00    -0.387 OA
ATOM     18  H   UNL     1      74.570   2.768  33.002  1.00  0.00     0.211 HD
ENDBRANCH   3  17
BRANCH   4  19
ATOM     19  C   UNL     1      73.357   6.068  34.124  1.00  0.00     0.191 C 
BRANCH  19  20
ATOM     20  O   UNL     1      74.561   5.936  34.828  1.00  0.00    -0.394 OA
ATOM     21  H   UNL     1      74.420   5.202  35.482  1.00  0.00     0.210 HD
ENDBRANCH  19  20
ENDBRANCH   4  19
TORSDOF 5
ENDMDL
MODEL 6
REMARK VINA RESULT:    -3.457      3.828      5.764
REMARK INTER + INTRA:          -4.436
REMARK INTER:                  -4.149
REMARK INTRA:                  -0.286
REMARK UNBOUND:                -0.271
REMARK SMILES O=c1ccn([C@H]2O[C@H](CO)[C@H](O)[C@H]2O)c(=O)[nH]1
REMARK SMILES IDX 6 1 13 2 11 3 8 4 7 5 5 6 3 7 4 8 2 9 17 10 1 11 15 12 16 14
REMARK SMILES IDX 14 15 12 17 9 19 10 20
REMARK H PARENT 17 13 14 16 12 18 10 21
REMARK Flexibility Score: inf
ROOT
ATOM      1  C   UNL     1      67.084   0.075  35.473  1.00  0.00     0.255 C 
ATOM      2  C   UNL     1      67.248  -0.163  33.965  1.00  0.00     0.196 C 
ATOM      3  C   UNL     1      67.492   1.224  33.428  1.00  0.00     0.179 C 
ATOM      4  C   UNL     1      66.802   2.111  34.464  1.00  0.00     0.178 C 
ATOM      5  O   UNL     1      66.854   1.452  35.710  1.00  0.00    -0.347 OA
ENDROOT
BRANCH   1   6
ATOM      6  N   UNL     1      68.266  -0.383  36.239  1.00  0.00    -0.271 N 
ATOM      7  C   UNL     1      70.415   0.080  37.201  1.00  0.00     0.090 A 
ATOM      8  C   UNL     1      69.283   0.495  36.507  1.00  0.00     0.099 A 
ATOM      9  C   UNL     1      70.502  -1.249  37.603  1.00  0.00     0.253 A 
ATOM     10  N   UNL     1      69.493  -2.109  37.311  1.00  0.00    -0.274 N 
ATOM     11  O   UNL     1      71.515  -1.651  38.234  1.00  0.00    -0.269 OA
ATOM     12  C   UNL     1      68.387  -1.695  36.630  1.00  0.00     0.330 A 
ATOM     13  H   UNL     1      69.568  -3.108  37.609  1.00  0.00     0.175 HD
ATOM     14  O   UNL     1      67.484  -2.533  36.360  1.00  0.00    -0.248 OA
ENDBRANCH   1   6
BRANCH   2  15
ATOM     15  O   UNL     1      68.322  -1.021  33.673  1.00  0.00    -0.386 OA
ATOM     16  H   UNL     1      69.121  -0.634  34.118  1.00  0.00     0.211 HD
ENDBRANCH   2  15
BRANCH   3  17
ATOM     17  O   UNL     1      66.957   1.384  32.139  1.00  0.00    -0.387 OA
ATOM     18  H   UNL     1      67.729   1.413  31.515  1.00  0.00     0.211 HD
ENDBRANCH   3  17
BRANCH   4  19
ATOM     19  C   UNL     1      65.338   2.436  34.123  1.00  0.00     0.191 C 
BRANCH  19  20
ATOM     20  O   UNL     1      65.292   3.317  33.035  1.00  0.00    -0.394 OA
ATOM     21  H   UNL     1      64.332   3.421  32.804  1.00  0.00     0.210 HD
ENDBRANCH  19  20
ENDBRANCH   4  19
TORSDOF 5
ENDMDL
MODEL 7
REMARK VINA RESULT:    -3.454      3.194      5.125
REMARK INTER + INTRA:          -4.432
REMARK INTER:                  -4.109
REMARK INTRA:                  -0.323
REMARK UNBOUND:                -0.271
REMARK SMILES O=c1ccn([C@H]2O[C@H](CO)[C@H](O)[C@H]2O)c(=O)[nH]1
REMARK SMILES IDX 6 1 13 2 11 3 8 4 7 5 5 6 3 7 4 8 2 9 17 10 1 11 15 12 16 14
REMARK SMILES IDX 14 15 12 17 9 19 10 20
REMARK H PARENT 17 13 14 16 12 18 10 21
REMARK Flexibility Score: inf
ROOT
ATOM      1  C   UNL     1      70.797  -0.021  37.445  1.00  0.00     0.255 C 
ATOM      2  C   UNL     1      71.129  -0.956  38.616  1.00  0.00     0.196 C 
ATOM      3  C   UNL     1      69.769  -1.395  39.095  1.00  0.00     0.179 C 
ATOM      4  C   UNL     1      68.871  -0.235  38.665  1.00  0.00     0.178 C 
ATOM      5  O   UNL     1      69.431   0.349  37.509  1.00  0.00    -0.347 OA
ENDROOT
BRANCH   1   6
ATOM      6  N   UNL     1      71.095  -0.644  36.135  1.00  0.00    -0.271 N 
ATOM      7  C   UNL     1      70.381  -1.957  34.257  1.00  0.00     0.090 A 
ATOM      8  C   UNL     1      70.116  -1.339  35.475  1.00  0.00     0.099 A 
ATOM      9  C   UNL     1      71.664  -1.868  33.729  1.00  0.00     0.253 A 
ATOM     10  N   UNL     1      72.627  -1.192  34.407  1.00  0.00    -0.274 N 
ATOM     11  O   UNL     1      71.932  -2.416  32.627  1.00  0.00    -0.269 OA
ATOM     12  C   UNL     1      72.360  -0.591  35.600  1.00  0.00     0.330 A 
ATOM     13  H   UNL     1      73.592  -1.136  34.008  1.00  0.00     0.175 HD
ATOM     14  O   UNL     1      73.290   0.009  36.206  1.00  0.00    -0.248 OA
ENDBRANCH   1   6
BRANCH   2  15
ATOM     15  O   UNL     1      71.910  -2.054  38.218  1.00  0.00    -0.386 OA
ATOM     16  H   UNL     1      72.378  -2.378  39.032  1.00  0.00     0.211 HD
ENDBRANCH   2  15
BRANCH   3  17
ATOM     17  O   UNL     1      69.749  -1.607  40.483  1.00  0.00    -0.387 OA
ATOM     18  H   UNL     1      70.352  -2.375  40.660  1.00  0.00     0.211 HD
ENDBRANCH   3  17
BRANCH   4  19
ATOM     19  C   UNL     1      68.698   0.847  39.744  1.00  0.00     0.191 C 
BRANCH  19  20
ATOM     20  O   UNL     1      67.699   0.458  40.645  1.00  0.00    -0.394 OA
ATOM     21  H   UNL     1      67.233  -0.313  40.226  1.00  0.00     0.210 HD
ENDBRANCH  19  20
ENDBRANCH   4  19
TORSDOF 5
ENDMDL
MODEL 8
REMARK VINA RESULT:    -3.393      2.606      4.689
REMARK INTER + INTRA:          -4.359
REMARK INTER:                  -4.049
REMARK INTRA:                  -0.310
REMARK UNBOUND:                -0.271
REMARK SMILES O=c1ccn([C@H]2O[C@H](CO)[C@H](O)[C@H]2O)c(=O)[nH]1
REMARK SMILES IDX 6 1 13 2 11 3 8 4 7 5 5 6 3 7 4 8 2 9 17 10 1 11 15 12 16 14
REMARK SMILES IDX 14 15 12 17 9 19 10 20
REMARK H PARENT 17 13 14 16 12 18 10 21
REMARK Flexibility Score: inf
ROOT
ATOM      1  C   UNL     1      71.275   0.875  36.015  1.00  0.00     0.255 C 
ATOM      2  C   UNL     1      72.045  -0.344  36.543  1.00  0.00     0.196 C 
ATOM      3  C   UNL     1      70.945  -1.263  37.008  1.00  0.00     0.179 C 
ATOM      4  C   UNL     1      69.810  -0.292  37.332  1.00  0.00     0.178 C 
ATOM      5  O   UNL     1      69.942   0.834  36.491  1.00  0.00    -0.347 OA
ENDROOT
BRANCH   1   6
ATOM      6  N   UNL     1      71.286   0.939  34.535  1.00  0.00    -0.271 N 
ATOM      7  C   UNL     1      70.258   0.407  32.433  1.00  0.00     0.090 A 
ATOM      8  C   UNL     1      70.256   0.383  33.824  1.00  0.00     0.099 A 
ATOM      9  C   UNL     1      71.335   0.994  31.778  1.00  0.00     0.253 A 
ATOM     10  N   UNL     1      72.357   1.523  32.499  1.00  0.00    -0.274 N 
ATOM     11  O   UNL     1      71.363   1.031  30.519  1.00  0.00    -0.269 OA
ATOM     12  C   UNL     1      72.348   1.494  33.861  1.00  0.00     0.330 A 
ATOM     13  H   UNL     1      73.168   1.955  32.000  1.00  0.00     0.175 HD
ATOM     14  O   UNL     1      73.328   1.977  34.491  1.00  0.00    -0.248 OA
ENDBRANCH   1   6
BRANCH   2  15
ATOM     15  O   UNL     1      72.833  -0.950  35.550  1.00  0.00    -0.386 OA
ATOM     16  H   UNL     1      72.206  -1.418  34.939  1.00  0.00     0.211 HD
ENDBRANCH   2  15
BRANCH   3  17
ATOM     17  O   UNL     1      71.338  -2.024  38.121  1.00  0.00    -0.387 OA
ATOM     18  H   UNL     1      71.146  -1.471  38.923  1.00  0.00     0.211 HD
ENDBRANCH   3  17
BRANCH   4  19
ATOM     19  C   UNL     1      69.791   0.171  38.798  1.00  0.00     0.191 C 
BRANCH  19  20
ATOM     20  O   UNL     1      69.029  -0.720  39.564  1.00  0.00    -0.394 OA
ATOM     21  H   UNL     1      68.710  -1.421  38.936  1.00  0.00     0.210 HD
ENDBRANCH  19  20
ENDBRANCH   4  19
TORSDOF 5
ENDMDL
MODEL 9
REMARK VINA RESULT:    -3.393      1.747      2.022
REMARK INTER + INTRA:          -4.358
REMARK INTER:                  -4.037
REMARK INTRA:                  -0.321
REMARK UNBOUND:                -0.271
REMARK SMILES O=c1ccn([C@H]2O[C@H](CO)[C@H](O)[C@H]2O)c(=O)[nH]1
REMARK SMILES IDX 6 1 13 2 11 3 8 4 7 5 5 6 3 7 4 8 2 9 17 10 1 11 15 12 16 14
REMARK SMILES IDX 14 15 12 17 9 19 10 20
REMARK H PARENT 17 13 14 16 12 18 10 21
REMARK Flexibility Score: inf
ROOT
ATOM      1  C   UNL     1      71.498   1.808  34.401  1.00  0.00     0.255 C 
ATOM      2  C   UNL     1      72.962   1.842  33.940  1.00  0.00     0.196 C 
ATOM      3  C   UNL     1      73.727   1.802  35.238  1.00  0.00     0.179 C 
ATOM      4  C   UNL     1      72.736   2.411  36.230  1.00  0.00     0.178 C 
ATOM      5  O   UNL     1      71.431   2.123  35.780  1.00  0.00    -0.347 OA
ENDROOT
BRANCH   1   6
ATOM      6  N   UNL     1      70.867   0.493  34.147  1.00  0.00    -0.271 N 
ATOM      7  C   UNL     1      70.335  -1.726  34.892  1.00  0.00     0.090 A 
ATOM      8  C   UNL     1      70.897  -0.473  35.118  1.00  0.00     0.099 A 
ATOM      9  C   UNL     1      69.756  -1.984  33.655  1.00  0.00     0.253 A 
ATOM     10  N   UNL     1      69.753  -1.021  32.698  1.00  0.00    -0.274 N 
ATOM     11  O   UNL     1      69.238  -3.109  33.423  1.00  0.00    -0.269 OA
ATOM     12  C   UNL     1      70.306   0.203  32.926  1.00  0.00     0.330 A 
ATOM     13  H   UNL     1      69.323  -1.224  31.766  1.00  0.00     0.175 HD
ATOM     14  O   UNL     1      70.301   1.061  32.001  1.00  0.00    -0.248 OA
ENDBRANCH   1   6
BRANCH   2  15
ATOM     15  O   UNL     1      73.290   0.749  33.119  1.00  0.00    -0.386 OA
ATOM     16  H   UNL     1      72.430   0.369  32.799  1.00  0.00     0.211 HD
ENDBRANCH   2  15
BRANCH   3  17
ATOM     17  O   UNL     1      74.926   2.528  35.158  1.00  0.00    -0.387 OA
ATOM     18  H   UNL     1      74.686   3.437  34.841  1.00  0.00     0.211 HD
ENDBRANCH   3  17
BRANCH   4  19
ATOM     19  C   UNL     1      72.889   3.932  36.400  1.00  0.00     0.191 C 
BRANCH  19  20
ATOM     20  O   UNL     1      73.934   4.203  37.293  1.00  0.00    -0.394 OA
ATOM     21  H   UNL     1      73.505   4.488  38.142  1.00  0.00     0.210 HD
ENDBRANCH  19  20
ENDBRANCH   4  19
TORSDOF 5
ENDMDL
