MODEL 1
REMARK VINA RESULT:    -2.590      0.000      0.000
REMARK INTER + INTRA:          -2.926
REMARK INTER:                  -2.817
REMARK INTRA:                  -0.108
REMARK UNBOUND:                -0.108
REMARK SMILES CC1(C)CC[C@@]2(C(=O)[O-])CC[C@@]3(C)C(=CC[C@@H]4[C@]5(C)CC[C@H](O)C(C)(C)[C@@H]5CC[C@@]43C)[C@H]2C1
REMARK SMILES IDX 6 1 5 2 10 3 32 4 4 5 11 6 14 7 33 8 2 9 12 10 15 11 1 12
REMARK SMILES IDX 3 13 13 14 30 15 16 16 17 17 29 18 31 19 18 20 28 21 27 22
REMARK SMILES IDX 20 23 19 24 24 25 21 26 22 27 25 28 26 29 7 30 8 31 9 32
REMARK SMILES IDX 23 33
REMARK H PARENT 23 34
REMARK Flexibility Score: inf
ROOT
ATOM      1  C   UNL     1     101.011 -66.171   4.750  1.00  0.00     0.017 C 
ATOM      2  C   UNL     1     102.022 -67.254   5.229  1.00  0.00     0.014 C 
ATOM      3  C   UNL     1     101.778 -65.186   3.801  1.00  0.00     0.014 C 
ATOM      4  C   UNL     1      99.780 -66.868   4.043  1.00  0.00     0.028 C 
ATOM      5  C   UNL     1     101.393 -68.310   6.147  1.00  0.00     0.007 C 
ATOM      6  C   UNL     1     101.016 -64.875   2.512  1.00  0.00     0.013 C 
ATOM      7  C   UNL     1     100.038 -67.200   2.557  1.00  0.00    -0.064 C 
ATOM      8  C   UNL     1      99.184 -67.999   4.939  1.00  0.00     0.015 C 
ATOM      9  C   UNL     1     100.202 -69.042   5.485  1.00  0.00    -0.035 C 
ATOM     10  C   UNL     1     100.738 -66.161   1.659  1.00  0.00    -0.006 C 
ATOM     11  C   UNL     1      99.492 -68.280   1.959  1.00  0.00    -0.027 C 
ATOM     12  C   UNL     1      99.495 -69.900   6.558  1.00  0.00     0.011 C 
ATOM     13  C   UNL     1     100.706 -70.004   4.385  1.00  0.00     0.011 C 
ATOM     14  C   UNL     1     102.125 -66.757   1.238  1.00  0.00     0.017 C 
ATOM     15  C   UNL     1      99.823 -65.830   0.361  1.00  0.00    -0.020 C 
ATOM     16  C   UNL     1      99.571 -68.463   0.476  1.00  0.00     0.032 C 
ATOM     17  C   UNL     1      99.124 -67.159  -0.237  1.00  0.00     0.006 C 
ATOM     18  C   UNL     1     100.667 -65.023  -0.690  1.00  0.00     0.008 C 
ATOM     19  C   UNL     1      98.643 -64.886   0.773  1.00  0.00     0.012 C 
ATOM     20  C   UNL     1      98.897 -67.308  -1.839  1.00  0.00    -0.025 C 
ATOM     21  C   UNL     1     100.856 -65.717  -2.020  1.00  0.00     0.005 C 
ATOM     22  C   UNL     1      99.480 -66.069  -2.634  1.00  0.00     0.003 C 
ATOM     23  C   UNL     1      99.561 -68.617  -2.399  1.00  0.00     0.010 C 
ATOM     24  C   UNL     1      97.352 -67.429  -2.045  1.00  0.00     0.012 C 
ATOM     25  C   UNL     1      99.536 -66.211  -4.227  1.00  0.00    -0.006 C 
ATOM     26  C   UNL     1      99.523 -68.761  -3.926  1.00  0.00     0.033 C 
ATOM     27  C   UNL     1     100.177 -67.569  -4.643  1.00  0.00     0.120 C 
ATOM     28  C   UNL     1     100.347 -65.047  -4.881  1.00  0.00     0.014 C 
ATOM     29  C   UNL     1      98.115 -66.074  -4.855  1.00  0.00     0.014 C 
ENDROOT
BRANCH   1  30
ATOM     30  C   UNL     1     100.523 -65.356   5.951  1.00  0.00     0.048 C 
ATOM     31  O   UNL     1      99.358 -64.876   5.971  1.00  0.00    -0.550 OA
ATOM     32  O   UNL     1     101.395 -65.022   6.981  1.00  0.00    -0.550 OA
ENDBRANCH   1  30
BRANCH  27  33
ATOM     33  O   UNL     1     101.558 -67.570  -4.368  1.00  0.00    -0.393 OA
ATOM     34  H   UNL     1     101.661 -67.382  -3.399  1.00  0.00     0.210 HD
ENDBRANCH  27  33
TORSDOF 2
ENDMDL
MODEL 2
REMARK VINA RESULT:    -0.317      2.176      8.168
REMARK INTER + INTRA:          -0.454
REMARK INTER:                  -0.346
REMARK INTRA:                  -0.107
REMARK UNBOUND:                -0.108
REMARK SMILES CC1(C)CC[C@@]2(C(=O)[O-])CC[C@@]3(C)C(=CC[C@@H]4[C@]5(C)CC[C@H](O)C(C)(C)[C@@H]5CC[C@@]43C)[C@H]2C1
REMARK SMILES IDX 6 1 5 2 10 3 32 4 4 5 11 6 14 7 33 8 2 9 12 10 15 11 1 12
REMARK SMILES IDX 3 13 13 14 30 15 16 16 17 17 29 18 31 19 18 20 28 21 27 22
REMARK SMILES IDX 20 23 19 24 24 25 21 26 22 27 25 28 26 29 7 30 8 31 9 32
REMARK SMILES IDX 23 33
REMARK H PARENT 23 34
REMARK Flexibility Score: inf
ROOT
ATOM      1  C   UNL     1      98.289 -67.121  -3.082  1.00  0.00     0.017 C 
ATOM      2  C   UNL     1      98.926 -68.186  -4.021  1.00  0.00     0.014 C 
ATOM      3  C   UNL     1      97.214 -67.842  -2.198  1.00  0.00     0.014 C 
ATOM      4  C   UNL     1      99.421 -66.425  -2.224  1.00  0.00     0.028 C 
ATOM      5  C   UNL     1     100.025 -67.619  -4.928  1.00  0.00     0.007 C 
ATOM      6  C   UNL     1      97.307 -67.474  -0.716  1.00  0.00     0.013 C 
ATOM      7  C   UNL     1      99.805 -67.224  -0.960  1.00  0.00    -0.064 C 
ATOM      8  C   UNL     1     100.583 -65.916  -3.134  1.00  0.00     0.015 C 
ATOM      9  C   UNL     1     101.172 -66.956  -4.130  1.00  0.00    -0.035 C 
ATOM     10  C   UNL     1      98.696 -67.854  -0.094  1.00  0.00    -0.006 C 
ATOM     11  C   UNL     1     101.061 -67.221  -0.464  1.00  0.00    -0.027 C 
ATOM     12  C   UNL     1     102.096 -66.214  -5.122  1.00  0.00     0.011 C 
ATOM     13  C   UNL     1     102.027 -68.032  -3.421  1.00  0.00     0.011 C 
ATOM     14  C   UNL     1      98.846 -69.410  -0.189  1.00  0.00     0.017 C 
ATOM     15  C   UNL     1      98.822 -67.344   1.441  1.00  0.00    -0.020 C 
ATOM     16  C   UNL     1     101.364 -67.815   0.875  1.00  0.00     0.032 C 
ATOM     17  C   UNL     1     100.361 -67.273   1.927  1.00  0.00     0.006 C 
ATOM     18  C   UNL     1      97.899 -68.218   2.365  1.00  0.00     0.008 C 
ATOM     19  C   UNL     1      98.276 -65.881   1.559  1.00  0.00     0.012 C 
ATOM     20  C   UNL     1     100.744 -67.618   3.468  1.00  0.00    -0.025 C 
ATOM     21  C   UNL     1      98.629 -69.007   3.429  1.00  0.00     0.005 C 
ATOM     22  C   UNL     1      99.474 -68.053   4.308  1.00  0.00     0.003 C 
ATOM     23  C   UNL     1     101.816 -68.764   3.555  1.00  0.00     0.010 C 
ATOM     24  C   UNL     1     101.384 -66.318   4.054  1.00  0.00     0.012 C 
ATOM     25  C   UNL     1      99.758 -68.651   5.765  1.00  0.00    -0.006 C 
ATOM     26  C   UNL     1     102.125 -69.255   4.976  1.00  0.00     0.033 C 
ATOM     27  C   UNL     1     100.868 -69.742   5.713  1.00  0.00     0.120 C 
ATOM     28  C   UNL     1      98.469 -69.268   6.395  1.00  0.00     0.014 C 
ATOM     29  C   UNL     1     100.159 -67.525   6.766  1.00  0.00     0.014 C 
ENDROOT
BRANCH   1  30
ATOM     30  C   UNL     1      97.556 -66.069  -3.919  1.00  0.00     0.048 C 
ATOM     31  O   UNL     1      97.402 -64.895  -3.486  1.00  0.00    -0.550 OA
ATOM     32  O   UNL     1      96.936 -66.420  -5.113  1.00  0.00    -0.550 OA
ENDBRANCH   1  30
BRANCH  27  33
ATOM     33  O   UNL     1     100.388 -70.907   5.082  1.00  0.00    -0.393 OA
ATOM     34  H   UNL     1     100.690 -71.677   5.629  1.00  0.00     0.210 HD
ENDBRANCH  27  33
TORSDOF 2
ENDMDL
