MODEL 1
REMARK VINA RESULT:     6.983      0.000      0.000
REMARK INTER + INTRA:           9.571
REMARK INTER:                  10.250
REMARK INTRA:                  -0.678
REMARK UNBOUND:                -0.678
REMARK SMILES O=c1c(O[C@@H]2O[C@@H](CO)[C@H](O)[C@@H](O)[C@H]2O)c(-c2ccc(O)c(O)c2)oc2cc(O)cc(O)c12
REMARK SMILES IDX 4 1 3 2 16 3 25 4 2 5 26 6 1 7 33 8 27 9 31 10 28 11 30 12
REMARK SMILES IDX 17 13 18 14 19 15 20 16 24 17 22 18 21 19 23 21 32 23 29 25
REMARK SMILES IDX 5 27 14 28 6 29 12 30 7 31 10 32 15 33 13 35 8 37 9 38 11 40
REMARK H PARENT 21 20 23 22 32 24 29 26 15 34 13 36 9 39 11 41
REMARK Flexibility Score: inf
ROOT
ATOM      1  O   UNL     1     -24.453  25.386 -30.378  1.00  0.00    -0.454 OA
ENDROOT
BRANCH   1   2
ATOM      2  C   UNL     1     -23.925  26.120 -31.447  1.00  0.00     0.214 A 
ATOM      3  C   UNL     1     -23.100  27.242 -31.236  1.00  0.00     0.180 A 
ATOM      4  O   UNL     1     -22.708  27.971 -32.273  1.00  0.00    -0.452 OA
ATOM      5  C   UNL     1     -24.241  25.744 -32.757  1.00  0.00     0.239 A 
ATOM      6  C   UNL     1     -23.002  27.668 -33.532  1.00  0.00     0.146 A 
ATOM      7  O   UNL     1     -25.003  24.756 -32.926  1.00  0.00    -0.285 OA
ATOM      8  C   UNL     1     -23.749  26.502 -33.847  1.00  0.00     0.111 A 
ATOM      9  C   UNL     1     -22.559  28.522 -34.545  1.00  0.00     0.094 A 
ATOM     10  C   UNL     1     -23.990  26.197 -35.220  1.00  0.00     0.134 A 
ATOM     11  C   UNL     1     -22.849  28.245 -35.879  1.00  0.00     0.123 A 
ATOM     12  C   UNL     1     -23.562  27.090 -36.210  1.00  0.00     0.093 A 
BRANCH   3  13
ATOM     13  C   UNL     1     -22.650  27.645 -29.886  1.00  0.00     0.025 A 
ATOM     14  C   UNL     1     -21.305  27.520 -29.502  1.00  0.00     0.016 A 
ATOM     15  C   UNL     1     -20.897  27.906 -28.223  1.00  0.00     0.051 A 
ATOM     16  C   UNL     1     -21.819  28.437 -27.317  1.00  0.00     0.157 A 
ATOM     17  C   UNL     1     -23.571  28.202 -28.984  1.00  0.00     0.062 A 
ATOM     18  C   UNL     1     -23.163  28.590 -27.699  1.00  0.00     0.158 A 
BRANCH  16  19
ATOM     19  O   UNL     1     -21.384  28.810 -26.046  1.00  0.00    -0.504 OA
ATOM     20  H   UNL     1     -20.588  29.419 -25.908  1.00  0.00     0.293 HD
ENDBRANCH  16  19
BRANCH  18  21
ATOM     21  O   UNL     1     -24.088  29.125 -26.803  1.00  0.00    -0.504 OA
ATOM     22  H   UNL     1     -24.758  28.540 -26.318  1.00  0.00     0.293 HD
ENDBRANCH  18  21
ENDBRANCH   3  13
BRANCH  10  23
ATOM     23  O   UNL     1     -24.617  25.029 -35.663  1.00  0.00    -0.507 OA
ATOM     24  H   UNL     1     -25.476  25.001 -36.190  1.00  0.00     0.293 HD
ENDBRANCH  10  23
BRANCH  11  25
ATOM     25  O   UNL     1     -22.415  29.122 -36.872  1.00  0.00    -0.508 OA
ATOM     26  H   UNL     1     -21.450  29.137 -37.180  1.00  0.00     0.293 HD
ENDBRANCH  11  25
ENDBRANCH   1   2
BRANCH   1  27
ATOM     27  C   UNL     1     -24.468  23.954 -30.352  1.00  0.00     0.339 C 
ATOM     28  C   UNL     1     -23.048  23.396 -30.538  1.00  0.00     0.214 C 
ATOM     29  O   UNL     1     -25.056  23.474 -29.153  1.00  0.00    -0.332 OA
ATOM     30  C   UNL     1     -22.180  23.762 -29.317  1.00  0.00     0.180 C 
ATOM     31  C   UNL     1     -24.345  23.911 -28.005  1.00  0.00     0.179 C 
ATOM     32  C   UNL     1     -22.896  23.354 -28.016  1.00  0.00     0.177 C 
BRANCH  28  33
ATOM     33  O   UNL     1     -23.119  22.002 -30.692  1.00  0.00    -0.384 OA
ATOM     34  H   UNL     1     -23.189  21.613 -29.782  1.00  0.00     0.211 HD
ENDBRANCH  28  33
BRANCH  30  35
ATOM     35  O   UNL     1     -20.932  23.122 -29.387  1.00  0.00    -0.387 OA
ATOM     36  H   UNL     1     -21.089  22.239 -29.812  1.00  0.00     0.211 HD
ENDBRANCH  30  35
BRANCH  31  37
ATOM     37  C   UNL     1     -25.121  23.432 -26.766  1.00  0.00     0.191 C 
BRANCH  37  38
ATOM     38  O   UNL     1     -24.667  22.179 -26.331  1.00  0.00    -0.394 OA
ATOM     39  H   UNL     1     -24.513  21.634 -27.147  1.00  0.00     0.210 HD
ENDBRANCH  37  38
ENDBRANCH  31  37
BRANCH  32  40
ATOM     40  O   UNL     1     -22.165  23.792 -26.898  1.00  0.00    -0.387 OA
ATOM     41  H   UNL     1     -22.817  24.077 -26.204  1.00  0.00     0.211 HD
ENDBRANCH  32  40
ENDBRANCH   1  27
TORSDOF 12
ENDMDL
