MODEL 1
REMARK VINA RESULT:    -3.613      0.000      0.000
REMARK INTER + INTRA:          -4.575
REMARK INTER:                  -4.353
REMARK INTRA:                  -0.222
REMARK UNBOUND:                -0.222
REMARK SMILES OCC(O)CO
REMARK SMILES IDX 3 1 5 2 6 3 2 5 1 6 4 8
REMARK H PARENT 6 4 1 7 4 9
REMARK Flexibility Score: inf
ROOT
ATOM      1  C   UNL     1    -103.479 183.302  -1.781  1.00  0.00     0.165 C 
ENDROOT
BRANCH   1   2
ATOM      2  C   UNL     1    -102.478 183.594  -0.648  1.00  0.00     0.190 C 
BRANCH   2   3
ATOM      3  O   UNL     1    -101.347 184.267  -1.133  1.00  0.00    -0.394 OA
ATOM      4  H   UNL     1    -101.531 184.489  -2.083  1.00  0.00     0.210 HD
ENDBRANCH   2   3
ENDBRANCH   1   2
BRANCH   1   5
ATOM      5  C   UNL     1    -103.136 181.991  -2.501  1.00  0.00     0.190 C 
BRANCH   5   6
ATOM      6  O   UNL     1    -101.912 181.486  -2.039  1.00  0.00    -0.394 OA
ATOM      7  H   UNL     1    -101.403 181.194  -2.841  1.00  0.00     0.210 HD
ENDBRANCH   5   6
ENDBRANCH   1   5
BRANCH   1   8
ATOM      8  O   UNL     1    -103.485 184.357  -2.708  1.00  0.00    -0.388 OA
ATOM      9  H   UNL     1    -103.986 185.103  -2.289  1.00  0.00     0.211 HD
ENDBRANCH   1   8
TORSDOF 5
ENDMDL
MODEL 2
REMARK VINA RESULT:    -3.604      0.622      2.600
REMARK INTER + INTRA:          -4.564
REMARK INTER:                  -4.347
REMARK INTRA:                  -0.217
REMARK UNBOUND:                -0.222
REMARK SMILES OCC(O)CO
REMARK SMILES IDX 3 1 5 2 6 3 2 5 1 6 4 8
REMARK H PARENT 6 4 1 7 4 9
REMARK Flexibility Score: inf
ROOT
ATOM      1  C   UNL     1    -103.012 182.440  -1.574  1.00  0.00     0.165 C 
ENDROOT
BRANCH   1   2
ATOM      2  C   UNL     1    -103.714 183.018  -2.816  1.00  0.00     0.190 C 
BRANCH   2   3
ATOM      3  O   UNL     1    -103.612 184.416  -2.852  1.00  0.00    -0.394 OA
ATOM      4  H   UNL     1    -103.640 184.729  -1.910  1.00  0.00     0.210 HD
ENDBRANCH   2   3
ENDBRANCH   1   2
BRANCH   1   5
ATOM      5  C   UNL     1    -102.564 183.556  -0.620  1.00  0.00     0.190 C 
BRANCH   5   6
ATOM      6  O   UNL     1    -101.392 184.163  -1.094  1.00  0.00    -0.394 OA
ATOM      7  H   UNL     1    -100.672 183.482  -1.027  1.00  0.00     0.210 HD
ENDBRANCH   5   6
ENDBRANCH   1   5
BRANCH   1   8
ATOM      8  O   UNL     1    -101.897 181.677  -1.957  1.00  0.00    -0.388 OA
ATOM      9  H   UNL     1    -101.529 182.099  -2.776  1.00  0.00     0.211 HD
ENDBRANCH   1   8
TORSDOF 5
ENDMDL
MODEL 3
REMARK VINA RESULT:    -3.448     13.629     14.501
REMARK INTER + INTRA:          -4.376
REMARK INTER:                  -4.171
REMARK INTRA:                  -0.205
REMARK UNBOUND:                -0.222
REMARK SMILES OCC(O)CO
REMARK SMILES IDX 3 1 5 2 6 3 2 5 1 6 4 8
REMARK H PARENT 6 4 1 7 4 9
REMARK Flexibility Score: inf
ROOT
ATOM      1  C   UNL     1    -104.485 197.677  -0.942  1.00  0.00     0.165 C 
ENDROOT
BRANCH   1   2
ATOM      2  C   UNL     1    -104.361 196.143  -0.988  1.00  0.00     0.190 C 
BRANCH   2   3
ATOM      3  O   UNL     1    -103.162 195.750  -1.601  1.00  0.00    -0.394 OA
ATOM      4  H   UNL     1    -102.424 196.136  -1.060  1.00  0.00     0.210 HD
ENDBRANCH   2   3
ENDBRANCH   1   2
BRANCH   1   5
ATOM      5  C   UNL     1    -104.766 198.254  -2.335  1.00  0.00     0.190 C 
BRANCH   5   6
ATOM      6  O   UNL     1    -103.566 198.450  -3.034  1.00  0.00    -0.394 OA
ATOM      7  H   UNL     1    -103.618 197.889  -3.852  1.00  0.00     0.210 HD
ENDBRANCH   5   6
ENDBRANCH   1   5
BRANCH   1   8
ATOM      8  O   UNL     1    -103.306 198.244  -0.430  1.00  0.00    -0.388 OA
ATOM      9  H   UNL     1    -103.351 199.217  -0.620  1.00  0.00     0.211 HD
ENDBRANCH   1   8
TORSDOF 5
ENDMDL
MODEL 4
REMARK VINA RESULT:    -3.396      1.218      3.023
REMARK INTER + INTRA:          -4.313
REMARK INTER:                  -4.292
REMARK INTRA:                  -0.021
REMARK UNBOUND:                -0.222
REMARK SMILES OCC(O)CO
REMARK SMILES IDX 3 1 5 2 6 3 2 5 1 6 4 8
REMARK H PARENT 6 4 1 7 4 9
REMARK Flexibility Score: inf
ROOT
ATOM      1  C   UNL     1    -103.166 182.218  -2.315  1.00  0.00     0.165 C 
ENDROOT
BRANCH   1   2
ATOM      2  C   UNL     1    -103.239 181.611  -3.727  1.00  0.00     0.190 C 
BRANCH   2   3
ATOM      3  O   UNL     1    -101.957 181.412  -4.260  1.00  0.00    -0.394 OA
ATOM      4  H   UNL     1    -101.798 180.432  -4.264  1.00  0.00     0.210 HD
ENDBRANCH   2   3
ENDBRANCH   1   2
BRANCH   1   5
ATOM      5  C   UNL     1    -103.359 183.740  -2.354  1.00  0.00     0.190 C 
BRANCH   5   6
ATOM      6  O   UNL     1    -102.182 184.392  -1.958  1.00  0.00    -0.394 OA
ATOM      7  H   UNL     1    -101.531 183.682  -1.715  1.00  0.00     0.210 HD
ENDBRANCH   5   6
ENDBRANCH   1   5
BRANCH   1   8
ATOM      8  O   UNL     1    -101.930 181.919  -1.720  1.00  0.00    -0.388 OA
ATOM      9  H   UNL     1    -102.112 181.275  -0.988  1.00  0.00     0.211 HD
ENDBRANCH   1   8
TORSDOF 5
ENDMDL
MODEL 5
REMARK VINA RESULT:    -3.305      0.780      2.391
REMARK INTER + INTRA:          -4.203
REMARK INTER:                  -4.011
REMARK INTRA:                  -0.192
REMARK UNBOUND:                -0.222
REMARK SMILES OCC(O)CO
REMARK SMILES IDX 3 1 5 2 6 3 2 5 1 6 4 8
REMARK H PARENT 6 4 1 7 4 9
REMARK Flexibility Score: inf
ROOT
ATOM      1  C   UNL     1    -103.379 183.754  -2.305  1.00  0.00     0.165 C 
ENDROOT
BRANCH   1   2
ATOM      2  C   UNL     1    -103.354 182.401  -3.037  1.00  0.00     0.190 C 
BRANCH   2   3
ATOM      3  O   UNL     1    -102.182 181.688  -2.745  1.00  0.00    -0.394 OA
ATOM      4  H   UNL     1    -101.436 182.170  -3.190  1.00  0.00     0.210 HD
ENDBRANCH   2   3
ENDBRANCH   1   2
BRANCH   1   5
ATOM      5  C   UNL     1    -102.641 183.673  -0.962  1.00  0.00     0.190 C 
BRANCH   5   6
ATOM      6  O   UNL     1    -101.349 184.206  -1.080  1.00  0.00    -0.394 OA
ATOM      7  H   UNL     1    -101.067 184.061  -2.021  1.00  0.00     0.210 HD
ENDBRANCH   5   6
ENDBRANCH   1   5
BRANCH   1   8
ATOM      8  O   UNL     1    -104.704 184.165  -2.086  1.00  0.00    -0.388 OA
ATOM      9  H   UNL     1    -104.698 185.157  -2.079  1.00  0.00     0.211 HD
ENDBRANCH   1   8
TORSDOF 5
ENDMDL
MODEL 6
REMARK VINA RESULT:    -3.232     17.751     18.361
REMARK INTER + INTRA:          -4.116
REMARK INTER:                  -3.894
REMARK INTRA:                  -0.222
REMARK UNBOUND:                -0.222
REMARK SMILES OCC(O)CO
REMARK SMILES IDX 3 1 5 2 6 3 2 5 1 6 4 8
REMARK H PARENT 6 4 1 7 4 9
REMARK Flexibility Score: inf
ROOT
ATOM      1  C   UNL     1     -97.468 192.096 -16.184  1.00  0.00     0.165 C 
ENDROOT
BRANCH   1   2
ATOM      2  C   UNL     1     -97.793 192.207 -17.684  1.00  0.00     0.190 C 
BRANCH   2   3
ATOM      3  O   UNL     1     -98.902 193.038 -17.901  1.00  0.00    -0.394 OA
ATOM      4  H   UNL     1     -99.259 193.279 -17.006  1.00  0.00     0.210 HD
ENDBRANCH   2   3
ENDBRANCH   1   2
BRANCH   1   5
ATOM      5  C   UNL     1     -97.285 193.482 -15.550  1.00  0.00     0.190 C 
BRANCH   5   6
ATOM      6  O   UNL     1     -98.515 193.976 -15.094  1.00  0.00    -0.394 OA
ATOM      7  H   UNL     1     -98.914 194.487 -15.846  1.00  0.00     0.210 HD
ENDBRANCH   5   6
ENDBRANCH   1   5
BRANCH   1   8
ATOM      8  O   UNL     1     -96.300 191.338 -15.995  1.00  0.00    -0.388 OA
ATOM      9  H   UNL     1     -96.577 190.490 -15.561  1.00  0.00     0.211 HD
ENDBRANCH   1   8
TORSDOF 5
ENDMDL
MODEL 7
REMARK VINA RESULT:    -3.204      1.862      2.513
REMARK INTER + INTRA:          -4.082
REMARK INTER:                  -3.861
REMARK INTRA:                  -0.221
REMARK UNBOUND:                -0.222
REMARK SMILES OCC(O)CO
REMARK SMILES IDX 3 1 5 2 6 3 2 5 1 6 4 8
REMARK H PARENT 6 4 1 7 4 9
REMARK Flexibility Score: inf
ROOT
ATOM      1  C   UNL     1    -103.198 181.344  -3.601  1.00  0.00     0.165 C 
ENDROOT
BRANCH   1   2
ATOM      2  C   UNL     1    -103.754 182.757  -3.347  1.00  0.00     0.190 C 
BRANCH   2   3
ATOM      3  O   UNL     1    -102.785 183.585  -2.762  1.00  0.00    -0.394 OA
ATOM      4  H   UNL     1    -101.927 183.087  -2.792  1.00  0.00     0.210 HD
ENDBRANCH   2   3
ENDBRANCH   1   2
BRANCH   1   5
ATOM      5  C   UNL     1    -103.054 180.561  -2.289  1.00  0.00     0.190 C 
BRANCH   5   6
ATOM      6  O   UNL     1    -101.902 180.967  -1.601  1.00  0.00    -0.394 OA
ATOM      7  H   UNL     1    -101.249 180.222  -1.673  1.00  0.00     0.210 HD
ENDBRANCH   5   6
ENDBRANCH   1   5
BRANCH   1   8
ATOM      8  O   UNL     1    -101.949 181.421  -4.239  1.00  0.00    -0.388 OA
ATOM      9  H   UNL     1    -102.043 180.952  -5.109  1.00  0.00     0.211 HD
ENDBRANCH   1   8
TORSDOF 5
ENDMDL
MODEL 8
REMARK VINA RESULT:    -3.194     13.506     14.413
REMARK INTER + INTRA:          -4.069
REMARK INTER:                  -3.846
REMARK INTRA:                  -0.224
REMARK UNBOUND:                -0.222
REMARK SMILES OCC(O)CO
REMARK SMILES IDX 3 1 5 2 6 3 2 5 1 6 4 8
REMARK H PARENT 6 4 1 7 4 9
REMARK Flexibility Score: inf
ROOT
ATOM      1  C   UNL     1    -104.461 196.588  -1.149  1.00  0.00     0.165 C 
ENDROOT
BRANCH   1   2
ATOM      2  C   UNL     1    -104.881 197.691  -2.137  1.00  0.00     0.190 C 
BRANCH   2   3
ATOM      3  O   UNL     1    -103.771 198.424  -2.581  1.00  0.00    -0.394 OA
ATOM      4  H   UNL     1    -103.708 198.283  -3.562  1.00  0.00     0.210 HD
ENDBRANCH   2   3
ENDBRANCH   1   2
BRANCH   1   5
ATOM      5  C   UNL     1    -104.191 197.166   0.246  1.00  0.00     0.190 C 
BRANCH   5   6
ATOM      6  O   UNL     1    -103.067 198.005   0.219  1.00  0.00    -0.394 OA
ATOM      7  H   UNL     1    -102.668 197.975   1.128  1.00  0.00     0.210 HD
ENDBRANCH   5   6
ENDBRANCH   1   5
BRANCH   1   8
ATOM      8  O   UNL     1    -103.309 195.932  -1.614  1.00  0.00    -0.388 OA
ATOM      9  H   UNL     1    -102.783 196.603  -2.122  1.00  0.00     0.211 HD
ENDBRANCH   1   8
TORSDOF 5
ENDMDL
MODEL 9
REMARK VINA RESULT:    -3.190     13.783     14.591
REMARK INTER + INTRA:          -4.065
REMARK INTER:                  -3.857
REMARK INTRA:                  -0.209
REMARK UNBOUND:                -0.222
REMARK SMILES OCC(O)CO
REMARK SMILES IDX 3 1 5 2 6 3 2 5 1 6 4 8
REMARK H PARENT 6 4 1 7 4 9
REMARK Flexibility Score: inf
ROOT
ATOM      1  C   UNL     1    -104.431 197.909  -1.017  1.00  0.00     0.165 C 
ENDROOT
BRANCH   1   2
ATOM      2  C   UNL     1    -104.711 198.170  -2.508  1.00  0.00     0.190 C 
BRANCH   2   3
ATOM      3  O   UNL     1    -103.543 198.557  -3.181  1.00  0.00    -0.394 OA
ATOM      4  H   UNL     1    -103.707 198.406  -4.149  1.00  0.00     0.210 HD
ENDBRANCH   2   3
ENDBRANCH   1   2
BRANCH   1   5
ATOM      5  C   UNL     1    -104.174 196.419  -0.753  1.00  0.00     0.190 C 
BRANCH   5   6
ATOM      6  O   UNL     1    -103.209 195.925  -1.642  1.00  0.00    -0.394 OA
ATOM      7  H   UNL     1    -103.340 196.405  -2.501  1.00  0.00     0.210 HD
ENDBRANCH   5   6
ENDBRANCH   1   5
BRANCH   1   8
ATOM      8  O   UNL     1    -105.516 198.341  -0.236  1.00  0.00    -0.388 OA
ATOM      9  H   UNL     1    -105.416 197.915   0.654  1.00  0.00     0.211 HD
ENDBRANCH   1   8
TORSDOF 5
ENDMDL
