MODEL 1
REMARK VINA RESULT:    -6.338      0.000      0.000
REMARK INTER + INTRA:          -7.084
REMARK INTER:                  -6.894
REMARK INTRA:                  -0.191
REMARK UNBOUND:                -0.191
REMARK SMILES CC1=CCC[C@]2(C)CC[C@H](C(C)(C)O)C[C@H]12
REMARK SMILES IDX 11 1 12 2 13 3 10 4 1 5 2 6 3 7 16 8 4 9 6 10 15 11 5 12
REMARK SMILES IDX 7 13 8 14 9 15 14 16
REMARK H PARENT 14 17
REMARK Flexibility Score: inf
ROOT
ATOM      1  C   UNL     1      -3.683  22.601  47.570  1.00  0.00     0.062 C 
ATOM      2  C   UNL     1      -2.826  23.601  48.372  1.00  0.00     0.042 C 
ATOM      3  C   UNL     1      -5.174  22.985  47.762  1.00  0.00     0.042 C 
ENDROOT
BRANCH   1   4
ATOM      4  C   UNL     1      -3.365  21.126  48.022  1.00  0.00     0.021 C 
ATOM      5  C   UNL     1       0.768  19.078  47.281  1.00  0.00     0.039 C 
ATOM      6  C   UNL     1      -0.621  18.568  47.003  1.00  0.00    -0.074 C 
ATOM      7  C   UNL     1      -0.805  17.711  45.975  1.00  0.00    -0.028 C 
ATOM      8  C   UNL     1      -1.791  19.109  47.814  1.00  0.00     0.021 C 
ATOM      9  C   UNL     1      -2.121  17.041  45.668  1.00  0.00     0.028 C 
ATOM     10  C   UNL     1      -2.999  18.121  47.829  1.00  0.00    -0.026 C 
ATOM     11  C   UNL     1      -2.164  20.508  47.270  1.00  0.00     0.015 C 
ATOM     12  C   UNL     1      -3.325  17.681  46.375  1.00  0.00     0.011 C 
ATOM     13  C   UNL     1      -2.645  16.875  48.683  1.00  0.00     0.012 C 
ATOM     14  C   UNL     1      -4.240  18.789  48.487  1.00  0.00     0.008 C 
ATOM     15  C   UNL     1      -4.575  20.172  47.918  1.00  0.00     0.007 C 
ENDBRANCH   1   4
BRANCH   1  16
ATOM     16  O   UNL     1      -3.313  22.764  46.218  1.00  0.00    -0.390 OA
ATOM     17  H   UNL     1      -2.558  22.153  46.013  1.00  0.00     0.211 HD
ENDBRANCH   1  16
TORSDOF 2
ENDMDL
MODEL 2
REMARK VINA RESULT:    -6.267      1.958      4.945
REMARK INTER + INTRA:          -7.008
REMARK INTER:                  -6.789
REMARK INTRA:                  -0.219
REMARK UNBOUND:                -0.191
REMARK SMILES CC1=CCC[C@]2(C)CC[C@H](C(C)(C)O)C[C@H]12
REMARK SMILES IDX 11 1 12 2 13 3 10 4 1 5 2 6 3 7 16 8 4 9 6 10 15 11 5 12
REMARK SMILES IDX 7 13 8 14 9 15 14 16
REMARK H PARENT 14 17
REMARK Flexibility Score: inf
ROOT
ATOM      1  C   UNL     1      -1.541  17.768  46.596  1.00  0.00     0.062 C 
ATOM      2  C   UNL     1      -0.131  18.390  46.659  1.00  0.00     0.042 C 
ATOM      3  C   UNL     1      -1.663  16.990  45.260  1.00  0.00     0.042 C 
ENDROOT
BRANCH   1   4
ATOM      4  C   UNL     1      -2.637  18.889  46.757  1.00  0.00     0.021 C 
ATOM      5  C   UNL     1      -1.982  23.303  45.377  1.00  0.00     0.039 C 
ATOM      6  C   UNL     1      -2.499  22.772  46.689  1.00  0.00    -0.074 C 
ATOM      7  C   UNL     1      -2.279  23.488  47.811  1.00  0.00    -0.028 C 
ATOM      8  C   UNL     1      -3.161  21.401  46.729  1.00  0.00     0.021 C 
ATOM      9  C   UNL     1      -2.845  23.125  49.162  1.00  0.00     0.028 C 
ATOM     10  C   UNL     1      -4.119  21.251  47.950  1.00  0.00    -0.026 C 
ATOM     11  C   UNL     1      -2.056  20.319  46.694  1.00  0.00     0.015 C 
ATOM     12  C   UNL     1      -3.381  21.688  49.245  1.00  0.00     0.011 C 
ATOM     13  C   UNL     1      -5.375  22.138  47.742  1.00  0.00     0.012 C 
ATOM     14  C   UNL     1      -4.615  19.781  48.075  1.00  0.00     0.008 C 
ATOM     15  C   UNL     1      -3.489  18.742  48.037  1.00  0.00     0.007 C 
ENDBRANCH   1   4
BRANCH   1  16
ATOM     16  O   UNL     1      -1.625  16.875  47.685  1.00  0.00    -0.390 OA
ATOM     17  H   UNL     1      -1.121  17.254  48.453  1.00  0.00     0.211 HD
ENDBRANCH   1  16
TORSDOF 2
ENDMDL
MODEL 3
REMARK VINA RESULT:    -6.043      2.273      5.854
REMARK INTER + INTRA:          -6.764
REMARK INTER:                  -6.546
REMARK INTRA:                  -0.218
REMARK UNBOUND:                -0.191
REMARK SMILES CC1=CCC[C@]2(C)CC[C@H](C(C)(C)O)C[C@H]12
REMARK SMILES IDX 11 1 12 2 13 3 10 4 1 5 2 6 3 7 16 8 4 9 6 10 15 11 5 12
REMARK SMILES IDX 7 13 8 14 9 15 14 16
REMARK H PARENT 14 17
REMARK Flexibility Score: inf
ROOT
ATOM      1  C   UNL     1      -3.745  19.745  47.785  1.00  0.00     0.062 C 
ATOM      2  C   UNL     1      -3.188  19.103  49.072  1.00  0.00     0.042 C 
ATOM      3  C   UNL     1      -2.899  19.236  46.589  1.00  0.00     0.042 C 
ENDROOT
BRANCH   1   4
ATOM      4  C   UNL     1      -3.743  21.315  47.915  1.00  0.00     0.021 C 
ATOM      5  C   UNL     1      -0.849  23.625  50.763  1.00  0.00     0.039 C 
ATOM      6  C   UNL     1      -2.339  23.759  50.592  1.00  0.00    -0.074 C 
ATOM      7  C   UNL     1      -3.082  24.144  51.652  1.00  0.00    -0.028 C 
ATOM      8  C   UNL     1      -2.977  23.357  49.269  1.00  0.00     0.021 C 
ATOM      9  C   UNL     1      -4.563  24.427  51.578  1.00  0.00     0.028 C 
ATOM     10  C   UNL     1      -4.349  24.065  49.043  1.00  0.00    -0.026 C 
ATOM     11  C   UNL     1      -3.081  21.814  49.219  1.00  0.00     0.015 C 
ATOM     12  C   UNL     1      -5.236  23.891  50.305  1.00  0.00     0.011 C 
ATOM     13  C   UNL     1      -4.119  25.576  48.771  1.00  0.00     0.012 C 
ATOM     14  C   UNL     1      -5.063  23.481  47.791  1.00  0.00     0.008 C 
ATOM     15  C   UNL     1      -5.145  21.950  47.782  1.00  0.00     0.007 C 
ENDBRANCH   1   4
BRANCH   1  16
ATOM     16  O   UNL     1      -5.076  19.290  47.664  1.00  0.00    -0.390 OA
ATOM     17  H   UNL     1      -5.070  18.305  47.537  1.00  0.00     0.211 HD
ENDBRANCH   1  16
TORSDOF 2
ENDMDL
MODEL 4
REMARK VINA RESULT:    -5.851      2.381      6.340
REMARK INTER + INTRA:          -6.555
REMARK INTER:                  -6.318
REMARK INTRA:                  -0.237
REMARK UNBOUND:                -0.191
REMARK SMILES CC1=CCC[C@]2(C)CC[C@H](C(C)(C)O)C[C@H]12
REMARK SMILES IDX 11 1 12 2 13 3 10 4 1 5 2 6 3 7 16 8 4 9 6 10 15 11 5 12
REMARK SMILES IDX 7 13 8 14 9 15 14 16
REMARK H PARENT 14 17
REMARK Flexibility Score: inf
ROOT
ATOM      1  C   UNL     1      -3.494  21.141  47.339  1.00  0.00     0.062 C 
ATOM      2  C   UNL     1      -4.293  20.084  48.128  1.00  0.00     0.042 C 
ATOM      3  C   UNL     1      -1.984  20.845  47.534  1.00  0.00     0.042 C 
ENDROOT
BRANCH   1   4
ATOM      4  C   UNL     1      -3.902  22.590  47.803  1.00  0.00     0.021 C 
ATOM      5  C   UNL     1      -1.007  25.419  50.137  1.00  0.00     0.039 C 
ATOM      6  C   UNL     1      -2.437  25.049  50.434  1.00  0.00    -0.074 C 
ATOM      7  C   UNL     1      -2.850  25.032  51.719  1.00  0.00    -0.028 C 
ATOM      8  C   UNL     1      -3.344  24.604  49.294  1.00  0.00     0.021 C 
ATOM      9  C   UNL     1      -4.280  24.794  52.136  1.00  0.00     0.028 C 
ATOM     10  C   UNL     1      -4.852  24.816  49.631  1.00  0.00    -0.026 C 
ATOM     11  C   UNL     1      -3.007  23.136  48.939  1.00  0.00     0.015 C 
ATOM     12  C   UNL     1      -5.163  24.206  51.025  1.00  0.00     0.011 C 
ATOM     13  C   UNL     1      -5.178  26.333  49.643  1.00  0.00     0.012 C 
ATOM     14  C   UNL     1      -5.751  24.167  48.540  1.00  0.00     0.008 C 
ATOM     15  C   UNL     1      -5.384  22.713  48.219  1.00  0.00     0.007 C 
ENDBRANCH   1   4
BRANCH   1  16
ATOM     16  O   UNL     1      -3.849  20.969  45.984  1.00  0.00    -0.390 OA
ATOM     17  H   UNL     1      -3.419  20.143  45.639  1.00  0.00     0.211 HD
ENDBRANCH   1  16
TORSDOF 2
ENDMDL
MODEL 5
REMARK VINA RESULT:    -5.843      2.054      5.303
REMARK INTER + INTRA:          -6.546
REMARK INTER:                  -6.310
REMARK INTRA:                  -0.236
REMARK UNBOUND:                -0.191
REMARK SMILES CC1=CCC[C@]2(C)CC[C@H](C(C)(C)O)C[C@H]12
REMARK SMILES IDX 11 1 12 2 13 3 10 4 1 5 2 6 3 7 16 8 4 9 6 10 15 11 5 12
REMARK SMILES IDX 7 13 8 14 9 15 14 16
REMARK H PARENT 14 17
REMARK Flexibility Score: inf
ROOT
ATOM      1  C   UNL     1      -1.952  18.239  47.877  1.00  0.00     0.062 C 
ATOM      2  C   UNL     1      -2.549  17.339  46.776  1.00  0.00     0.042 C 
ATOM      3  C   UNL     1      -2.669  17.905  49.211  1.00  0.00     0.042 C 
ENDROOT
BRANCH   1   4
ATOM      4  C   UNL     1      -2.084  19.756  47.471  1.00  0.00     0.021 C 
ATOM      5  C   UNL     1      -2.177  23.224  50.599  1.00  0.00     0.039 C 
ATOM      6  C   UNL     1      -3.094  22.955  49.435  1.00  0.00    -0.074 C 
ATOM      7  C   UNL     1      -4.381  23.353  49.517  1.00  0.00    -0.028 C 
ATOM      8  C   UNL     1      -2.577  22.152  48.249  1.00  0.00     0.021 C 
ATOM      9  C   UNL     1      -5.365  23.248  48.378  1.00  0.00     0.028 C 
ATOM     10  C   UNL     1      -3.386  22.446  46.948  1.00  0.00    -0.026 C 
ATOM     11  C   UNL     1      -2.573  20.653  48.631  1.00  0.00     0.015 C 
ATOM     12  C   UNL     1      -4.905  22.319  47.243  1.00  0.00     0.011 C 
ATOM     13  C   UNL     1      -3.071  23.880  46.447  1.00  0.00     0.012 C 
ATOM     14  C   UNL     1      -2.969  21.465  45.814  1.00  0.00     0.008 C 
ATOM     15  C   UNL     1      -2.980  19.991  46.235  1.00  0.00     0.007 C 
ENDBRANCH   1   4
BRANCH   1  16
ATOM     16  O   UNL     1      -0.586  17.898  47.964  1.00  0.00    -0.390 OA
ATOM     17  H   UNL     1      -0.047  18.731  48.012  1.00  0.00     0.211 HD
ENDBRANCH   1  16
TORSDOF 2
ENDMDL
MODEL 6
REMARK VINA RESULT:    -5.806      3.636      5.295
REMARK INTER + INTRA:          -6.506
REMARK INTER:                  -6.271
REMARK INTRA:                  -0.235
REMARK UNBOUND:                -0.191
REMARK SMILES CC1=CCC[C@]2(C)CC[C@H](C(C)(C)O)C[C@H]12
REMARK SMILES IDX 11 1 12 2 13 3 10 4 1 5 2 6 3 7 16 8 4 9 6 10 15 11 5 12
REMARK SMILES IDX 7 13 8 14 9 15 14 16
REMARK H PARENT 14 17
REMARK Flexibility Score: inf
ROOT
ATOM      1  C   UNL     1      -5.804  26.450  50.071  1.00  0.00     0.062 C 
ATOM      2  C   UNL     1      -5.699  27.229  48.744  1.00  0.00     0.042 C 
ATOM      3  C   UNL     1      -4.940  27.185  51.129  1.00  0.00     0.042 C 
ENDROOT
BRANCH   1   4
ATOM      4  C   UNL     1      -5.370  24.950  49.858  1.00  0.00     0.021 C 
ATOM      5  C   UNL     1      -1.311  23.234  51.408  1.00  0.00     0.039 C 
ATOM      6  C   UNL     1      -1.946  23.121  50.047  1.00  0.00    -0.074 C 
ATOM      7  C   UNL     1      -1.146  23.012  48.965  1.00  0.00    -0.028 C 
ATOM      8  C   UNL     1      -3.459  23.238  49.917  1.00  0.00     0.021 C 
ATOM      9  C   UNL     1      -1.657  22.775  47.565  1.00  0.00     0.028 C 
ATOM     10  C   UNL     1      -3.989  22.549  48.622  1.00  0.00    -0.026 C 
ATOM     11  C   UNL     1      -3.847  24.733  50.006  1.00  0.00     0.015 C 
ATOM     12  C   UNL     1      -3.162  23.036  47.401  1.00  0.00     0.011 C 
ATOM     13  C   UNL     1      -3.860  21.009  48.758  1.00  0.00     0.012 C 
ATOM     14  C   UNL     1      -5.499  22.863  48.418  1.00  0.00     0.008 C 
ATOM     15  C   UNL     1      -5.840  24.355  48.513  1.00  0.00     0.007 C 
ENDBRANCH   1   4
BRANCH   1  16
ATOM     16  O   UNL     1      -7.164  26.492  50.444  1.00  0.00    -0.390 OA
ATOM     17  H   UNL     1      -7.524  27.398  50.252  1.00  0.00     0.211 HD
ENDBRANCH   1  16
TORSDOF 2
ENDMDL
MODEL 7
REMARK VINA RESULT:    -5.774      3.635      7.851
REMARK INTER + INTRA:          -6.471
REMARK INTER:                  -6.251
REMARK INTRA:                  -0.220
REMARK UNBOUND:                -0.191
REMARK SMILES CC1=CCC[C@]2(C)CC[C@H](C(C)(C)O)C[C@H]12
REMARK SMILES IDX 11 1 12 2 13 3 10 4 1 5 2 6 3 7 16 8 4 9 6 10 15 11 5 12
REMARK SMILES IDX 7 13 8 14 9 15 14 16
REMARK H PARENT 14 17
REMARK Flexibility Score: inf
ROOT
ATOM      1  C   UNL     1      -4.719  22.572  48.192  1.00  0.00     0.062 C 
ATOM      2  C   UNL     1      -4.307  21.112  48.465  1.00  0.00     0.042 C 
ATOM      3  C   UNL     1      -3.795  23.132  47.079  1.00  0.00     0.042 C 
ENDROOT
BRANCH   1   4
ATOM      4  C   UNL     1      -4.657  23.414  49.523  1.00  0.00     0.021 C 
ATOM      5  C   UNL     1      -7.051  27.378  50.136  1.00  0.00     0.039 C 
ATOM      6  C   UNL     1      -5.597  27.084  50.393  1.00  0.00    -0.074 C 
ATOM      7  C   UNL     1      -4.700  28.086  50.275  1.00  0.00    -0.028 C 
ATOM      8  C   UNL     1      -5.164  25.651  50.675  1.00  0.00     0.021 C 
ATOM      9  C   UNL     1      -3.238  27.947  50.619  1.00  0.00     0.028 C 
ATOM     10  C   UNL     1      -3.818  25.590  51.462  1.00  0.00    -0.026 C 
ATOM     11  C   UNL     1      -5.114  24.878  49.335  1.00  0.00     0.015 C 
ATOM     12  C   UNL     1      -2.767  26.492  50.759  1.00  0.00     0.011 C 
ATOM     13  C   UNL     1      -4.040  26.084  52.916  1.00  0.00     0.012 C 
ATOM     14  C   UNL     1      -3.306  24.124  51.551  1.00  0.00     0.008 C 
ATOM     15  C   UNL     1      -3.271  23.396  50.202  1.00  0.00     0.007 C 
ENDBRANCH   1   4
BRANCH   1  16
ATOM     16  O   UNL     1      -6.053  22.524  47.734  1.00  0.00    -0.390 OA
ATOM     17  H   UNL     1      -6.409  23.449  47.678  1.00  0.00     0.211 HD
ENDBRANCH   1  16
TORSDOF 2
ENDMDL
MODEL 8
REMARK VINA RESULT:    -5.650      4.342      6.886
REMARK INTER + INTRA:          -6.336
REMARK INTER:                  -6.110
REMARK INTRA:                  -0.226
REMARK UNBOUND:                -0.191
REMARK SMILES CC1=CCC[C@]2(C)CC[C@H](C(C)(C)O)C[C@H]12
REMARK SMILES IDX 11 1 12 2 13 3 10 4 1 5 2 6 3 7 16 8 4 9 6 10 15 11 5 12
REMARK SMILES IDX 7 13 8 14 9 15 14 16
REMARK H PARENT 14 17
REMARK Flexibility Score: inf
ROOT
ATOM      1  C   UNL     1      -2.054  24.160  52.206  1.00  0.00     0.062 C 
ATOM      2  C   UNL     1      -1.880  25.157  53.370  1.00  0.00     0.042 C 
ATOM      3  C   UNL     1      -0.880  24.371  51.214  1.00  0.00     0.042 C 
ENDROOT
BRANCH   1   4
ATOM      4  C   UNL     1      -3.467  24.347  51.535  1.00  0.00     0.021 C 
ATOM      5  C   UNL     1      -4.979  21.678  48.011  1.00  0.00     0.039 C 
ATOM      6  C   UNL     1      -4.977  23.178  48.149  1.00  0.00    -0.074 C 
ATOM      7  C   UNL     1      -4.871  23.932  47.034  1.00  0.00    -0.028 C 
ATOM      8  C   UNL     1      -4.986  23.800  49.539  1.00  0.00     0.021 C 
ATOM      9  C   UNL     1      -4.975  25.438  47.028  1.00  0.00     0.028 C 
ATOM     10  C   UNL     1      -5.551  25.254  49.525  1.00  0.00    -0.026 C 
ATOM     11  C   UNL     1      -3.558  23.714  50.128  1.00  0.00     0.015 C 
ATOM     12  C   UNL     1      -4.837  26.076  48.418  1.00  0.00     0.011 C 
ATOM     13  C   UNL     1      -7.077  25.220  49.247  1.00  0.00     0.012 C 
ATOM     14  C   UNL     1      -5.356  25.926  50.914  1.00  0.00     0.008 C 
ATOM     15  C   UNL     1      -3.927  25.820  51.460  1.00  0.00     0.007 C 
ENDBRANCH   1   4
BRANCH   1  16
ATOM     16  O   UNL     1      -1.977  22.872  52.778  1.00  0.00    -0.390 OA
ATOM     17  H   UNL     1      -1.306  22.337  52.280  1.00  0.00     0.211 HD
ENDBRANCH   1  16
TORSDOF 2
ENDMDL
MODEL 9
REMARK VINA RESULT:    -5.572      2.382      6.744
REMARK INTER + INTRA:          -6.252
REMARK INTER:                  -6.036
REMARK INTRA:                  -0.216
REMARK UNBOUND:                -0.191
REMARK SMILES CC1=CCC[C@]2(C)CC[C@H](C(C)(C)O)C[C@H]12
REMARK SMILES IDX 11 1 12 2 13 3 10 4 1 5 2 6 3 7 16 8 4 9 6 10 15 11 5 12
REMARK SMILES IDX 7 13 8 14 9 15 14 16
REMARK H PARENT 14 17
REMARK Flexibility Score: inf
ROOT
ATOM      1  C   UNL     1      -3.294  21.115  47.234  1.00  0.00     0.062 C 
ATOM      2  C   UNL     1      -4.223  20.326  48.179  1.00  0.00     0.042 C 
ATOM      3  C   UNL     1      -1.890  20.458  47.282  1.00  0.00     0.042 C 
ENDROOT
BRANCH   1   4
ATOM      4  C   UNL     1      -3.274  22.638  47.638  1.00  0.00     0.021 C 
ATOM      5  C   UNL     1      -4.625  24.172  51.838  1.00  0.00     0.039 C 
ATOM      6  C   UNL     1      -5.010  24.661  50.467  1.00  0.00    -0.074 C 
ATOM      7  C   UNL     1      -6.231  25.210  50.292  1.00  0.00    -0.028 C 
ATOM      8  C   UNL     1      -4.060  24.430  49.299  1.00  0.00     0.021 C 
ATOM      9  C   UNL     1      -6.688  25.842  49.000  1.00  0.00     0.028 C 
ATOM     10  C   UNL     1      -4.298  25.449  48.142  1.00  0.00    -0.026 C 
ATOM     11  C   UNL     1      -4.189  22.958  48.842  1.00  0.00     0.015 C 
ATOM     12  C   UNL     1      -5.810  25.489  47.790  1.00  0.00     0.011 C 
ATOM     13  C   UNL     1      -3.828  26.860  48.582  1.00  0.00     0.012 C 
ATOM     14  C   UNL     1      -3.458  25.058  46.892  1.00  0.00     0.008 C 
ATOM     15  C   UNL     1      -3.616  23.592  46.472  1.00  0.00     0.007 C 
ENDBRANCH   1   4
BRANCH   1  16
ATOM     16  O   UNL     1      -3.846  20.983  45.942  1.00  0.00    -0.390 OA
ATOM     17  H   UNL     1      -3.290  21.497  45.299  1.00  0.00     0.211 HD
ENDBRANCH   1  16
TORSDOF 2
ENDMDL
