MODEL 1
REMARK VINA RESULT:    10.281      0.000      0.000
REMARK INTER + INTRA:          14.421
REMARK INTER:                  13.888
REMARK INTRA:                   0.533
REMARK UNBOUND:                 0.533
REMARK SMILES CC[C@H](CC[C@@H](C)[C@H]1CC[C@@H]2[C@H]3CC(=O)C4=CC(=O)CC[C@@]4(C)[C@H]3CC[C@@]21C)C(C)C
REMARK SMILES IDX 4 1 3 2 2 3 1 4 29 5 30 6 31 7 5 8 6 9 7 10 8 11 9 12 27 13
REMARK SMILES IDX 10 14 11 15 26 16 28 17 12 18 25 19 24 20 13 21 22 22 14 23
REMARK SMILES IDX 16 24 21 25 23 26 15 27 17 28 20 29 18 30 19 31
REMARK H PARENT
REMARK Flexibility Score: inf
ROOT
ATOM      1  C   UNL     1      72.190  33.011  55.163  1.00  0.00     0.004 C 
ENDROOT
BRANCH   1   2
ATOM      2  C   UNL     1      71.676  33.827  56.388  1.00  0.00    -0.009 C 
BRANCH   2   3
ATOM      3  C   UNL     1      70.182  34.196  56.169  1.00  0.00     0.000 C 
ATOM      4  C   UNL     1      69.536  34.921  57.350  1.00  0.00     0.004 C 
ENDBRANCH   2   3
BRANCH   2   5
ATOM      5  C   UNL     1      71.993  33.072  57.727  1.00  0.00    -0.014 C 
ATOM      6  C   UNL     1      73.367  32.383  57.754  1.00  0.00     0.007 C 
ATOM      7  C   UNL     1      70.880  32.090  58.131  1.00  0.00     0.007 C 
ENDBRANCH   2   5
ENDBRANCH   1   2
BRANCH   1   8
ATOM      8  C   UNL     1      71.778  33.626  53.809  1.00  0.00     0.004 C 
BRANCH   8   9
ATOM      9  C   UNL     1      72.560  34.932  53.483  1.00  0.00    -0.011 C 
ATOM     10  C   UNL     1      73.008  35.676  54.756  1.00  0.00     0.008 C 
BRANCH   9  11
ATOM     11  C   UNL     1      73.671  34.727  52.390  1.00  0.00    -0.002 C 
ATOM     12  C   UNL     1      73.704  35.931  51.429  1.00  0.00     0.005 C 
ATOM     13  C   UNL     1      75.184  34.419  52.773  1.00  0.00    -0.026 C 
ATOM     14  C   UNL     1      75.147  36.125  51.022  1.00  0.00     0.005 C 
ATOM     15  C   UNL     1      75.952  35.661  52.230  1.00  0.00    -0.001 C 
ATOM     16  C   UNL     1      75.635  33.129  52.020  1.00  0.00     0.007 C 
ATOM     17  C   UNL     1      75.444  34.221  54.292  1.00  0.00     0.012 C 
ATOM     18  C   UNL     1      77.464  35.483  51.890  1.00  0.00     0.004 C 
ATOM     19  C   UNL     1      77.157  32.966  51.882  1.00  0.00     0.005 C 
ATOM     20  C   UNL     1      77.771  34.164  51.121  1.00  0.00     0.003 C 
ATOM     21  C   UNL     1      78.339  35.649  53.148  1.00  0.00     0.085 C 
ATOM     22  C   UNL     1      79.308  34.023  50.742  1.00  0.00    -0.000 C 
ATOM     23  C   UNL     1      79.789  35.451  52.858  1.00  0.00     0.159 C 
ATOM     24  C   UNL     1      80.226  34.410  51.903  1.00  0.00     0.005 C 
ATOM     25  C   UNL     1      79.646  32.567  50.286  1.00  0.00     0.020 C 
ATOM     26  C   UNL     1      79.613  34.989  49.563  1.00  0.00     0.017 C 
ATOM     27  O   UNL     1      80.638  36.125  53.504  1.00  0.00    -0.295 OA
ATOM     28  C   UNL     1      81.485  33.930  51.976  1.00  0.00     0.055 C 
ATOM     29  C   UNL     1      81.127  32.376  49.936  1.00  0.00     0.081 C 
ATOM     30  C   UNL     1      81.998  32.929  51.024  1.00  0.00     0.156 C 
ATOM     31  O   UNL     1      83.197  32.553  51.109  1.00  0.00    -0.295 OA
ENDBRANCH   9  11
ENDBRANCH   8   9
ENDBRANCH   1   8
TORSDOF 6
ENDMDL
MODEL 2
REMARK VINA RESULT:    10.459      1.567      2.390
REMARK INTER + INTRA:          14.660
REMARK INTER:                  15.617
REMARK INTRA:                  -0.957
REMARK UNBOUND:                 0.533
REMARK SMILES CC[C@H](CC[C@@H](C)[C@H]1CC[C@@H]2[C@H]3CC(=O)C4=CC(=O)CC[C@@]4(C)[C@H]3CC[C@@]21C)C(C)C
REMARK SMILES IDX 4 1 3 2 2 3 1 4 29 5 30 6 31 7 5 8 6 9 7 10 8 11 9 12 27 13
REMARK SMILES IDX 10 14 11 15 26 16 28 17 12 18 25 19 24 20 13 21 22 22 14 23
REMARK SMILES IDX 16 24 21 25 23 26 15 27 17 28 20 29 18 30 19 31
REMARK H PARENT
REMARK Flexibility Score: inf
ROOT
ATOM      1  C   UNL     1      72.494  33.824  55.692  1.00  0.00     0.004 C 
ENDROOT
BRANCH   1   2
ATOM      2  C   UNL     1      71.765  33.812  57.070  1.00  0.00    -0.009 C 
BRANCH   2   3
ATOM      3  C   UNL     1      70.228  33.783  56.838  1.00  0.00     0.000 C 
ATOM      4  C   UNL     1      69.457  32.935  57.850  1.00  0.00     0.004 C 
ENDBRANCH   2   3
BRANCH   2   5
ATOM      5  C   UNL     1      72.329  32.668  57.984  1.00  0.00    -0.014 C 
ATOM      6  C   UNL     1      72.581  33.090  59.440  1.00  0.00     0.007 C 
ATOM      7  C   UNL     1      73.574  31.992  57.387  1.00  0.00     0.007 C 
ENDBRANCH   2   5
ENDBRANCH   1   2
BRANCH   1   8
ATOM      8  C   UNL     1      72.295  35.140  54.912  1.00  0.00     0.004 C 
BRANCH   8   9
ATOM      9  C   UNL     1      72.599  34.987  53.393  1.00  0.00    -0.011 C 
ATOM     10  C   UNL     1      71.405  35.410  52.515  1.00  0.00     0.008 C 
BRANCH   9  11
ATOM     11  C   UNL     1      73.991  35.587  52.980  1.00  0.00    -0.002 C 
ATOM     12  C   UNL     1      74.732  36.122  54.221  1.00  0.00     0.005 C 
ATOM     13  C   UNL     1      75.058  34.748  52.150  1.00  0.00    -0.026 C 
ATOM     14  C   UNL     1      76.206  35.885  53.985  1.00  0.00     0.005 C 
ATOM     15  C   UNL     1      76.260  34.623  53.133  1.00  0.00    -0.001 C 
ATOM     16  C   UNL     1      75.469  35.574  50.892  1.00  0.00     0.007 C 
ATOM     17  C   UNL     1      74.567  33.349  51.685  1.00  0.00     0.012 C 
ATOM     18  C   UNL     1      77.675  34.393  52.518  1.00  0.00     0.004 C 
ATOM     19  C   UNL     1      76.808  35.158  50.262  1.00  0.00     0.005 C 
ATOM     20  C   UNL     1      77.962  35.295  51.281  1.00  0.00     0.003 C 
ATOM     21  C   UNL     1      77.918  32.899  52.228  1.00  0.00     0.085 C 
ATOM     22  C   UNL     1      79.425  35.082  50.698  1.00  0.00    -0.000 C 
ATOM     23  C   UNL     1      79.253  32.655  51.607  1.00  0.00     0.159 C 
ATOM     24  C   UNL     1      79.801  33.601  50.613  1.00  0.00     0.005 C 
ATOM     25  C   UNL     1      79.568  35.729  49.283  1.00  0.00     0.020 C 
ATOM     26  C   UNL     1      80.440  35.768  51.656  1.00  0.00     0.017 C 
ATOM     27  O   UNL     1      79.866  31.586  51.879  1.00  0.00    -0.295 OA
ATOM     28  C   UNL     1      80.744  33.178  49.744  1.00  0.00     0.055 C 
ATOM     29  C   UNL     1      80.958  35.524  48.667  1.00  0.00     0.081 C 
ATOM     30  C   UNL     1      81.366  34.084  48.762  1.00  0.00     0.156 C 
ATOM     31  O   UNL     1      82.275  33.647  48.008  1.00  0.00    -0.295 OA
ENDBRANCH   9  11
ENDBRANCH   8   9
ENDBRANCH   1   8
TORSDOF 6
ENDMDL
MODEL 3
REMARK VINA RESULT:    12.942      2.999      8.649
REMARK INTER + INTRA:          18.014
REMARK INTER:                  17.351
REMARK INTRA:                   0.663
REMARK UNBOUND:                 0.533
REMARK SMILES CC[C@H](CC[C@@H](C)[C@H]1CC[C@@H]2[C@H]3CC(=O)C4=CC(=O)CC[C@@]4(C)[C@H]3CC[C@@]21C)C(C)C
REMARK SMILES IDX 4 1 3 2 2 3 1 4 29 5 30 6 31 7 5 8 6 9 7 10 8 11 9 12 27 13
REMARK SMILES IDX 10 14 11 15 26 16 28 17 12 18 25 19 24 20 13 21 22 22 14 23
REMARK SMILES IDX 16 24 21 25 23 26 15 27 17 28 20 29 18 30 19 31
REMARK H PARENT
REMARK Flexibility Score: inf
ROOT
ATOM      1  C   UNL     1      79.385  35.130  51.649  1.00  0.00     0.004 C 
ENDROOT
BRANCH   1   2
ATOM      2  C   UNL     1      80.725  34.408  51.315  1.00  0.00    -0.009 C 
BRANCH   2   3
ATOM      3  C   UNL     1      81.431  33.996  52.637  1.00  0.00     0.000 C 
ATOM      4  C   UNL     1      81.749  35.165  53.570  1.00  0.00     0.004 C 
ENDBRANCH   2   3
BRANCH   2   5
ATOM      5  C   UNL     1      80.486  33.244  50.289  1.00  0.00    -0.014 C 
ATOM      6  C   UNL     1      80.548  31.837  50.906  1.00  0.00     0.007 C 
ATOM      7  C   UNL     1      81.400  33.343  49.057  1.00  0.00     0.007 C 
ENDBRANCH   2   5
ENDBRANCH   1   2
BRANCH   1   8
ATOM      8  C   UNL     1      78.240  34.760  50.683  1.00  0.00     0.004 C 
BRANCH   8   9
ATOM      9  C   UNL     1      77.400  35.997  50.251  1.00  0.00    -0.011 C 
ATOM     10  C   UNL     1      77.296  36.125  48.719  1.00  0.00     0.008 C 
BRANCH   9  11
ATOM     11  C   UNL     1      76.044  36.124  51.036  1.00  0.00    -0.002 C 
ATOM     12  C   UNL     1      74.854  36.093  50.057  1.00  0.00     0.005 C 
ATOM     13  C   UNL     1      75.666  35.144  52.230  1.00  0.00    -0.026 C 
ATOM     14  C   UNL     1      73.721  35.393  50.770  1.00  0.00     0.005 C 
ATOM     15  C   UNL     1      74.407  34.397  51.696  1.00  0.00    -0.001 C 
ATOM     16  C   UNL     1      75.299  36.002  53.481  1.00  0.00     0.007 C 
ATOM     17  C   UNL     1      76.784  34.141  52.629  1.00  0.00     0.012 C 
ATOM     18  C   UNL     1      73.421  33.802  52.748  1.00  0.00     0.004 C 
ATOM     19  C   UNL     1      74.459  35.267  54.537  1.00  0.00     0.005 C 
ATOM     20  C   UNL     1      73.126  34.769  53.932  1.00  0.00     0.003 C 
ATOM     21  C   UNL     1      73.889  32.412  53.224  1.00  0.00     0.085 C 
ATOM     22  C   UNL     1      72.083  34.165  54.968  1.00  0.00    -0.000 C 
ATOM     23  C   UNL     1      72.980  31.834  54.257  1.00  0.00     0.159 C 
ATOM     24  C   UNL     1      72.376  32.699  55.292  1.00  0.00     0.005 C 
ATOM     25  C   UNL     1      72.065  34.990  56.296  1.00  0.00     0.020 C 
ATOM     26  C   UNL     1      70.666  34.230  54.331  1.00  0.00     0.017 C 
ATOM     27  O   UNL     1      72.805  30.584  54.285  1.00  0.00    -0.295 OA
ATOM     28  C   UNL     1      71.948  32.150  56.448  1.00  0.00     0.055 C 
ATOM     29  C   UNL     1      71.091  34.426  57.338  1.00  0.00     0.081 C 
ATOM     30  C   UNL     1      71.292  32.948  57.499  1.00  0.00     0.156 C 
ATOM     31  O   UNL     1      70.869  32.375  58.537  1.00  0.00    -0.295 OA
ENDBRANCH   9  11
ENDBRANCH   8   9
ENDBRANCH   1   8
TORSDOF 6
ENDMDL
