MODEL 1
REMARK VINA RESULT:    -3.711      0.000      0.000
REMARK INTER + INTRA:          -6.874
REMARK INTER:                  -5.013
REMARK INTRA:                  -1.861
REMARK UNBOUND:                -1.861
REMARK SMILES C=CC(C)=CCC=C(C)CCC=C(C)C
REMARK SMILES IDX 8 1 7 2 9 3 10 4 11 5 12 6 14 7 13 8 15 9 6 10 5 11 3 12
REMARK SMILES IDX 4 13 2 14 1 15
REMARK H PARENT
REMARK Flexibility Score: inf
ROOT
ATOM      1  C   UNL     1      11.722   5.724  18.650  1.00  0.00    -0.077 C 
ATOM      2  C   UNL     1      12.211   4.467  18.552  1.00  0.00    -0.024 C 
ATOM      3  C   UNL     1      11.967   6.578  19.873  1.00  0.00     0.039 C 
ENDROOT
BRANCH   1   4
ATOM      4  C   UNL     1      10.897   6.287  17.511  1.00  0.00     0.034 C 
BRANCH   4   5
ATOM      5  C   UNL     1      11.697   6.353  16.202  1.00  0.00     0.032 C 
BRANCH   5   6
ATOM      6  C   UNL     1      12.935   7.206  16.343  1.00  0.00    -0.028 C 
ATOM      7  C   UNL     1      14.504   5.305  15.901  1.00  0.00     0.039 C 
ATOM      8  C   UNL     1      14.201   6.741  16.251  1.00  0.00    -0.080 C 
ATOM      9  C   UNL     1      15.361   7.683  16.442  1.00  0.00     0.039 C 
ENDBRANCH   5   6
ENDBRANCH   4   5
ENDBRANCH   1   4
BRANCH   2  10
ATOM     10  C   UNL     1      13.045   3.798  19.616  1.00  0.00     0.055 C 
BRANCH  10  11
ATOM     11  C   UNL     1      14.343   3.283  19.053  1.00  0.00    -0.020 C 
ATOM     12  C   UNL     1      15.495   3.981  19.070  1.00  0.00    -0.055 C 
ATOM     13  C   UNL     1      15.571   5.368  19.669  1.00  0.00     0.044 C 
BRANCH  12  14
ATOM     14  C   UNL     1      16.685   3.380  18.415  1.00  0.00    -0.005 C 
ATOM     15  C   UNL     1      17.546   4.072  17.670  1.00  0.00     0.009 C 
ENDBRANCH  12  14
ENDBRANCH  10  11
ENDBRANCH   2  10
TORSDOF 6
ENDMDL
MODEL 2
REMARK VINA RESULT:    -3.707      1.653      5.273
REMARK INTER + INTRA:          -6.868
REMARK INTER:                  -5.283
REMARK INTRA:                  -1.586
REMARK UNBOUND:                -1.861
REMARK SMILES C=CC(C)=CCC=C(C)CCC=C(C)C
REMARK SMILES IDX 8 1 7 2 9 3 10 4 11 5 12 6 14 7 13 8 15 9 6 10 5 11 3 12
REMARK SMILES IDX 4 13 2 14 1 15
REMARK H PARENT
REMARK Flexibility Score: inf
ROOT
ATOM      1  C   UNL     1      15.328   6.068  16.362  1.00  0.00    -0.077 C 
ATOM      2  C   UNL     1      14.146   6.652  16.057  1.00  0.00    -0.024 C 
ATOM      3  C   UNL     1      16.457   6.844  17.000  1.00  0.00     0.039 C 
ENDROOT
BRANCH   1   4
ATOM      4  C   UNL     1      15.529   4.600  16.044  1.00  0.00     0.034 C 
BRANCH   4   5
ATOM      5  C   UNL     1      14.348   3.743  16.520  1.00  0.00     0.032 C 
BRANCH   5   6
ATOM      6  C   UNL     1      14.229   3.737  18.026  1.00  0.00    -0.028 C 
ATOM      7  C   UNL     1      11.844   4.501  18.012  1.00  0.00     0.039 C 
ATOM      8  C   UNL     1      13.125   4.114  18.709  1.00  0.00    -0.080 C 
ATOM      9  C   UNL     1      13.135   4.096  20.216  1.00  0.00     0.039 C 
ENDBRANCH   5   6
ENDBRANCH   4   5
ENDBRANCH   1   4
BRANCH   2  10
ATOM     10  C   UNL     1      13.827   8.102  16.326  1.00  0.00     0.055 C 
BRANCH  10  11
ATOM     11  C   UNL     1      13.135   8.274  17.653  1.00  0.00    -0.020 C 
ATOM     12  C   UNL     1      11.800   8.188  17.817  1.00  0.00    -0.055 C 
ATOM     13  C   UNL     1      10.876   7.910  16.652  1.00  0.00     0.044 C 
BRANCH  12  14
ATOM     14  C   UNL     1      11.246   8.449  19.170  1.00  0.00    -0.005 C 
ATOM     15  C   UNL     1      11.618   7.780  20.262  1.00  0.00     0.009 C 
ENDBRANCH  12  14
ENDBRANCH  10  11
ENDBRANCH   2  10
TORSDOF 6
ENDMDL
MODEL 3
REMARK VINA RESULT:    -3.627      1.629      2.768
REMARK INTER + INTRA:          -6.760
REMARK INTER:                  -4.994
REMARK INTRA:                  -1.767
REMARK UNBOUND:                -1.861
REMARK SMILES C=CC(C)=CCC=C(C)CCC=C(C)C
REMARK SMILES IDX 8 1 7 2 9 3 10 4 11 5 12 6 14 7 13 8 15 9 6 10 5 11 3 12
REMARK SMILES IDX 4 13 2 14 1 15
REMARK H PARENT
REMARK Flexibility Score: inf
ROOT
ATOM      1  C   UNL     1      11.009   7.283  17.551  1.00  0.00    -0.077 C 
ATOM      2  C   UNL     1      11.256   6.198  18.320  1.00  0.00    -0.024 C 
ATOM      3  C   UNL     1      10.875   7.179  16.050  1.00  0.00     0.039 C 
ENDROOT
BRANCH   1   4
ATOM      4  C   UNL     1      10.875   8.640  18.212  1.00  0.00     0.034 C 
BRANCH   4   5
ATOM      5  C   UNL     1      12.223   9.163  18.727  1.00  0.00     0.032 C 
BRANCH   5   6
ATOM      6  C   UNL     1      13.311   9.032  17.688  1.00  0.00    -0.028 C 
ATOM      7  C   UNL     1      14.660   7.424  19.054  1.00  0.00     0.039 C 
ATOM      8  C   UNL     1      14.430   8.287  17.838  1.00  0.00    -0.080 C 
ATOM      9  C   UNL     1      15.463   8.259  16.742  1.00  0.00     0.039 C 
ENDBRANCH   5   6
ENDBRANCH   4   5
ENDBRANCH   1   4
BRANCH   2  10
ATOM     10  C   UNL     1      11.407   4.797  17.781  1.00  0.00     0.055 C 
BRANCH  10  11
ATOM     11  C   UNL     1      12.715   4.184  18.206  1.00  0.00    -0.020 C 
ATOM     12  C   UNL     1      13.837   4.225  17.461  1.00  0.00    -0.055 C 
ATOM     13  C   UNL     1      13.866   4.903  16.109  1.00  0.00     0.044 C 
BRANCH  12  14
ATOM     14  C   UNL     1      15.040   3.518  17.972  1.00  0.00    -0.005 C 
ATOM     15  C   UNL     1      15.094   2.920  19.162  1.00  0.00     0.009 C 
ENDBRANCH  12  14
ENDBRANCH  10  11
ENDBRANCH   2  10
TORSDOF 6
ENDMDL
MODEL 4
REMARK VINA RESULT:    -3.612      2.104      3.492
REMARK INTER + INTRA:          -6.739
REMARK INTER:                  -4.784
REMARK INTRA:                  -1.955
REMARK UNBOUND:                -1.861
REMARK SMILES C=CC(C)=CCC=C(C)CCC=C(C)C
REMARK SMILES IDX 8 1 7 2 9 3 10 4 11 5 12 6 14 7 13 8 15 9 6 10 5 11 3 12
REMARK SMILES IDX 4 13 2 14 1 15
REMARK H PARENT
REMARK Flexibility Score: inf
ROOT
ATOM      1  C   UNL     1      11.699   8.495  17.847  1.00  0.00    -0.077 C 
ATOM      2  C   UNL     1      11.098   7.995  18.951  1.00  0.00    -0.024 C 
ATOM      3  C   UNL     1      13.041   9.186  17.919  1.00  0.00     0.039 C 
ENDROOT
BRANCH   1   4
ATOM      4  C   UNL     1      11.004   8.369  16.507  1.00  0.00     0.034 C 
BRANCH   4   5
ATOM      5  C   UNL     1      10.886   6.907  16.056  1.00  0.00     0.032 C 
BRANCH   5   6
ATOM      6  C   UNL     1      12.211   6.186  16.134  1.00  0.00    -0.028 C 
ATOM      7  C   UNL     1      11.419   4.558  17.865  1.00  0.00     0.039 C 
ATOM      8  C   UNL     1      12.476   5.157  16.971  1.00  0.00    -0.080 C 
ATOM      9  C   UNL     1      13.849   4.537  16.982  1.00  0.00     0.039 C 
ENDBRANCH   5   6
ENDBRANCH   4   5
ENDBRANCH   1   4
BRANCH   2  10
ATOM     10  C   UNL     1      11.689   8.057  20.337  1.00  0.00     0.055 C 
BRANCH  10  11
ATOM     11  C   UNL     1      11.868   6.679  20.919  1.00  0.00    -0.020 C 
ATOM     12  C   UNL     1      13.021   5.985  20.855  1.00  0.00    -0.055 C 
ATOM     13  C   UNL     1      14.249   6.551  20.177  1.00  0.00     0.044 C 
BRANCH  12  14
ATOM     14  C   UNL     1      13.037   4.607  21.410  1.00  0.00    -0.005 C 
ATOM     15  C   UNL     1      13.446   3.540  20.723  1.00  0.00     0.009 C 
ENDBRANCH  12  14
ENDBRANCH  10  11
ENDBRANCH   2  10
TORSDOF 6
ENDMDL
MODEL 5
REMARK VINA RESULT:    -3.581      1.357      3.444
REMARK INTER + INTRA:          -6.698
REMARK INTER:                  -5.168
REMARK INTRA:                  -1.530
REMARK UNBOUND:                -1.861
REMARK SMILES C=CC(C)=CCC=C(C)CCC=C(C)C
REMARK SMILES IDX 8 1 7 2 9 3 10 4 11 5 12 6 14 7 13 8 15 9 6 10 5 11 3 12
REMARK SMILES IDX 4 13 2 14 1 15
REMARK H PARENT
REMARK Flexibility Score: inf
ROOT
ATOM      1  C   UNL     1      13.262   6.468  16.271  1.00  0.00    -0.077 C 
ATOM      2  C   UNL     1      13.110   5.141  16.487  1.00  0.00    -0.024 C 
ATOM      3  C   UNL     1      14.603   7.148  16.426  1.00  0.00     0.039 C 
ENDROOT
BRANCH   1   4
ATOM      4  C   UNL     1      12.056   7.295  15.876  1.00  0.00     0.034 C 
BRANCH   4   5
ATOM      5  C   UNL     1      10.875   7.082  16.834  1.00  0.00     0.032 C 
BRANCH   5   6
ATOM      6  C   UNL     1      10.897   8.065  17.980  1.00  0.00    -0.028 C 
ATOM      7  C   UNL     1      11.761   6.387  19.627  1.00  0.00     0.039 C 
ATOM      8  C   UNL     1      11.253   7.756  19.247  1.00  0.00    -0.080 C 
ATOM      9  C   UNL     1      11.205   8.816  20.317  1.00  0.00     0.039 C 
ENDBRANCH   5   6
ENDBRANCH   4   5
ENDBRANCH   1   4
BRANCH   2  10
ATOM     10  C   UNL     1      14.232   4.214  16.882  1.00  0.00     0.055 C 
BRANCH  10  11
ATOM     11  C   UNL     1      13.932   3.510  18.179  1.00  0.00    -0.020 C 
ATOM     12  C   UNL     1      14.550   3.791  19.343  1.00  0.00    -0.055 C 
ATOM     13  C   UNL     1      15.620   4.856  19.434  1.00  0.00     0.044 C 
BRANCH  12  14
ATOM     14  C   UNL     1      14.205   2.970  20.532  1.00  0.00    -0.005 C 
ATOM     15  C   UNL     1      13.122   3.174  21.281  1.00  0.00     0.009 C 
ENDBRANCH  12  14
ENDBRANCH  10  11
ENDBRANCH   2  10
TORSDOF 6
ENDMDL
MODEL 6
REMARK VINA RESULT:    -3.570      1.442      2.907
REMARK INTER + INTRA:          -6.684
REMARK INTER:                  -4.836
REMARK INTRA:                  -1.848
REMARK UNBOUND:                -1.861
REMARK SMILES C=CC(C)=CCC=C(C)CCC=C(C)C
REMARK SMILES IDX 8 1 7 2 9 3 10 4 11 5 12 6 14 7 13 8 15 9 6 10 5 11 3 12
REMARK SMILES IDX 4 13 2 14 1 15
REMARK H PARENT
REMARK Flexibility Score: inf
ROOT
ATOM      1  C   UNL     1      11.646   7.929  16.862  1.00  0.00    -0.077 C 
ATOM      2  C   UNL     1      11.632   6.643  16.445  1.00  0.00    -0.024 C 
ATOM      3  C   UNL     1      10.988   8.352  18.155  1.00  0.00     0.039 C 
ENDROOT
BRANCH   1   4
ATOM      4  C   UNL     1      12.329   8.976  16.005  1.00  0.00     0.034 C 
BRANCH   4   5
ATOM      5  C   UNL     1      13.842   8.737  15.905  1.00  0.00     0.032 C 
BRANCH   5   6
ATOM      6  C   UNL     1      14.444   8.381  17.244  1.00  0.00    -0.028 C 
ATOM      7  C   UNL     1      15.252   6.138  16.478  1.00  0.00     0.039 C 
ATOM      8  C   UNL     1      15.043   7.202  17.526  1.00  0.00    -0.080 C 
ATOM      9  C   UNL     1      15.579   6.948  18.911  1.00  0.00     0.039 C 
ENDBRANCH   5   6
ENDBRANCH   4   5
ENDBRANCH   1   4
BRANCH   2  10
ATOM     10  C   UNL     1      10.987   5.513  17.210  1.00  0.00     0.055 C 
BRANCH  10  11
ATOM     11  C   UNL     1      12.020   4.578  17.780  1.00  0.00    -0.020 C 
ATOM     12  C   UNL     1      12.525   4.690  19.024  1.00  0.00    -0.055 C 
ATOM     13  C   UNL     1      12.083   5.791  19.961  1.00  0.00     0.044 C 
BRANCH  12  14
ATOM     14  C   UNL     1      13.590   3.739  19.433  1.00  0.00    -0.005 C 
ATOM     15  C   UNL     1      14.512   3.259  18.597  1.00  0.00     0.009 C 
ENDBRANCH  12  14
ENDBRANCH  10  11
ENDBRANCH   2  10
TORSDOF 6
ENDMDL
MODEL 7
REMARK VINA RESULT:    -3.553      1.212      1.631
REMARK INTER + INTRA:          -6.660
REMARK INTER:                  -5.156
REMARK INTRA:                  -1.505
REMARK UNBOUND:                -1.861
REMARK SMILES C=CC(C)=CCC=C(C)CCC=C(C)C
REMARK SMILES IDX 8 1 7 2 9 3 10 4 11 5 12 6 14 7 13 8 15 9 6 10 5 11 3 12
REMARK SMILES IDX 4 13 2 14 1 15
REMARK H PARENT
REMARK Flexibility Score: inf
ROOT
ATOM      1  C   UNL     1      12.156   5.257  18.471  1.00  0.00    -0.077 C 
ATOM      2  C   UNL     1      12.802   4.140  18.064  1.00  0.00    -0.024 C 
ATOM      3  C   UNL     1      12.672   6.101  19.613  1.00  0.00     0.039 C 
ENDROOT
BRANCH   1   4
ATOM      4  C   UNL     1      10.876   5.666  17.771  1.00  0.00     0.034 C 
BRANCH   4   5
ATOM      5  C   UNL     1      11.120   6.046  16.304  1.00  0.00     0.032 C 
BRANCH   5   6
ATOM      6  C   UNL     1      11.452   7.511  16.151  1.00  0.00    -0.028 C 
ATOM      7  C   UNL     1      13.923   7.116  16.049  1.00  0.00     0.039 C 
ATOM      8  C   UNL     1      12.707   8.009  16.077  1.00  0.00    -0.080 C 
ATOM      9  C   UNL     1      12.916   9.496  15.958  1.00  0.00     0.039 C 
ENDBRANCH   5   6
ENDBRANCH   4   5
ENDBRANCH   1   4
BRANCH   2  10
ATOM     10  C   UNL     1      14.082   3.633  18.679  1.00  0.00     0.055 C 
BRANCH  10  11
ATOM     11  C   UNL     1      15.203   3.612  17.673  1.00  0.00    -0.020 C 
ATOM     12  C   UNL     1      16.183   4.536  17.627  1.00  0.00    -0.055 C 
ATOM     13  C   UNL     1      16.230   5.689  18.604  1.00  0.00     0.044 C 
BRANCH  12  14
ATOM     14  C   UNL     1      17.187   4.433  16.537  1.00  0.00    -0.005 C 
ATOM     15  C   UNL     1      18.185   5.300  16.369  1.00  0.00     0.009 C 
ENDBRANCH  12  14
ENDBRANCH  10  11
ENDBRANCH   2  10
TORSDOF 6
ENDMDL
