MODEL 1
REMARK VINA RESULT:    -7.249      0.000      0.000
REMARK INTER + INTRA:          -8.835
REMARK INTER:                  -8.520
REMARK INTRA:                  -0.315
REMARK UNBOUND:                -0.315
REMARK SMILES O=c1cc(-c2ccc(O)c(O)c2)oc2cc(O)cc(O)c12
REMARK SMILES IDX 4 1 3 2 2 3 1 4 21 5 19 6 18 7 16 8 15 9 14 10 13 11 5 12
REMARK SMILES IDX 6 13 7 14 8 15 12 16 10 17 9 18 11 20 20 22 17 24
REMARK H PARENT 9 19 11 21 20 23 17 25
REMARK Flexibility Score: inf
ROOT
ATOM      1  C   UNL     1      59.706  -1.743   4.286  1.00  0.00     0.138 A 
ATOM      2  C   UNL     1      60.634  -0.884   4.892  1.00  0.00     0.100 A 
ATOM      3  C   UNL     1      61.735  -0.432   4.164  1.00  0.00     0.197 A 
ATOM      4  O   UNL     1      62.578   0.293   4.753  1.00  0.00    -0.289 OA
ATOM      5  C   UNL     1      61.887  -0.813   2.809  1.00  0.00     0.107 A 
ATOM      6  C   UNL     1      62.951  -0.384   1.958  1.00  0.00     0.134 A 
ATOM      7  C   UNL     1      63.051  -0.908   0.663  1.00  0.00     0.093 A 
ATOM      8  C   UNL     1      62.096  -1.795   0.168  1.00  0.00     0.123 A 
ATOM      9  C   UNL     1      61.024  -2.181   0.973  1.00  0.00     0.094 A 
ATOM     10  C   UNL     1      60.915  -1.705   2.282  1.00  0.00     0.146 A 
ATOM     11  O   UNL     1      59.890  -2.111   3.022  1.00  0.00    -0.456 OA
ENDROOT
BRANCH   1  12
ATOM     12  C   UNL     1      58.517  -2.253   5.013  1.00  0.00     0.021 A 
ATOM     13  C   UNL     1      58.433  -2.212   6.416  1.00  0.00     0.016 A 
ATOM     14  C   UNL     1      57.305  -2.708   7.072  1.00  0.00     0.051 A 
ATOM     15  C   UNL     1      56.242  -3.261   6.350  1.00  0.00     0.157 A 
ATOM     16  C   UNL     1      57.455  -2.820   4.289  1.00  0.00     0.062 A 
ATOM     17  C   UNL     1      56.319  -3.320   4.939  1.00  0.00     0.158 A 
BRANCH  15  18
ATOM     18  O   UNL     1      55.143  -3.736   7.067  1.00  0.00    -0.504 OA
ATOM     19  H   UNL     1      54.547  -3.155   7.639  1.00  0.00     0.293 HD
ENDBRANCH  15  18
BRANCH  17  20
ATOM     20  O   UNL     1      55.302  -3.861   4.150  1.00  0.00    -0.504 OA
ATOM     21  H   UNL     1      55.161  -4.851   4.012  1.00  0.00     0.293 HD
ENDBRANCH  17  20
ENDBRANCH   1  12
BRANCH   6  22
ATOM     22  O   UNL     1      63.915   0.560   2.322  1.00  0.00    -0.507 OA
ATOM     23  H   UNL     1      64.602   0.957   1.700  1.00  0.00     0.293 HD
ENDBRANCH   6  22
BRANCH   8  24
ATOM     24  O   UNL     1      62.219  -2.282  -1.132  1.00  0.00    -0.508 OA
ATOM     25  H   UNL     1      63.116  -2.568  -1.509  1.00  0.00     0.293 HD
ENDBRANCH   8  24
TORSDOF 5
ENDMDL
MODEL 2
REMARK VINA RESULT:    -7.165      1.264      2.819
REMARK INTER + INTRA:          -8.736
REMARK INTER:                  -8.452
REMARK INTRA:                  -0.284
REMARK UNBOUND:                -0.315
REMARK SMILES O=c1cc(-c2ccc(O)c(O)c2)oc2cc(O)cc(O)c12
REMARK SMILES IDX 4 1 3 2 2 3 1 4 21 5 19 6 18 7 16 8 15 9 14 10 13 11 5 12
REMARK SMILES IDX 6 13 7 14 8 15 12 16 10 17 9 18 11 20 20 22 17 24
REMARK H PARENT 9 19 11 21 20 23 17 25
REMARK Flexibility Score: inf
ROOT
ATOM      1  C   UNL     1      59.545  -1.706   4.240  1.00  0.00     0.138 A 
ATOM      2  C   UNL     1      59.844  -2.210   2.967  1.00  0.00     0.100 A 
ATOM      3  C   UNL     1      60.942  -1.710   2.265  1.00  0.00     0.197 A 
ATOM      4  O   UNL     1      61.151  -2.144   1.103  1.00  0.00    -0.289 OA
ATOM      5  C   UNL     1      61.767  -0.725   2.860  1.00  0.00     0.107 A 
ATOM      6  C   UNL     1      62.933  -0.166   2.254  1.00  0.00     0.134 A 
ATOM      7  C   UNL     1      63.613   0.876   2.897  1.00  0.00     0.093 A 
ATOM      8  C   UNL     1      63.206   1.338   4.148  1.00  0.00     0.123 A 
ATOM      9  C   UNL     1      62.097   0.765   4.773  1.00  0.00     0.094 A 
ATOM     10  C   UNL     1      61.376  -0.251   4.141  1.00  0.00     0.146 A 
ATOM     11  O   UNL     1      60.316  -0.757   4.761  1.00  0.00    -0.456 OA
ENDROOT
BRANCH   1  12
ATOM     12  C   UNL     1      58.391  -2.202   5.031  1.00  0.00     0.021 A 
ATOM     13  C   UNL     1      58.428  -2.264   6.435  1.00  0.00     0.016 A 
ATOM     14  C   UNL     1      57.330  -2.745   7.151  1.00  0.00     0.051 A 
ATOM     15  C   UNL     1      56.177  -3.180   6.488  1.00  0.00     0.157 A 
ATOM     16  C   UNL     1      57.239  -2.652   4.364  1.00  0.00     0.062 A 
ATOM     17  C   UNL     1      56.133  -3.136   5.075  1.00  0.00     0.158 A 
BRANCH  15  18
ATOM     18  O   UNL     1      55.115  -3.647   7.263  1.00  0.00    -0.504 OA
ATOM     19  H   UNL     1      54.694  -4.558   7.155  1.00  0.00     0.293 HD
ENDBRANCH  15  18
BRANCH  17  20
ATOM     20  O   UNL     1      55.021  -3.556   4.342  1.00  0.00    -0.504 OA
ATOM     21  H   UNL     1      54.065  -3.371   4.610  1.00  0.00     0.293 HD
ENDBRANCH  17  20
ENDBRANCH   1  12
BRANCH   6  22
ATOM     22  O   UNL     1      63.475  -0.607   1.043  1.00  0.00    -0.507 OA
ATOM     23  H   UNL     1      63.408  -1.547   0.686  1.00  0.00     0.293 HD
ENDBRANCH   6  22
BRANCH   8  24
ATOM     24  O   UNL     1      63.916   2.365   4.766  1.00  0.00    -0.508 OA
ATOM     25  H   UNL     1      64.056   2.384   5.770  1.00  0.00     0.293 HD
ENDBRANCH   8  24
TORSDOF 5
ENDMDL
MODEL 3
REMARK VINA RESULT:    -7.007      1.466      6.794
REMARK INTER + INTRA:          -8.550
REMARK INTER:                  -8.232
REMARK INTRA:                  -0.318
REMARK UNBOUND:                -0.315
REMARK SMILES O=c1cc(-c2ccc(O)c(O)c2)oc2cc(O)cc(O)c12
REMARK SMILES IDX 4 1 3 2 2 3 1 4 21 5 19 6 18 7 16 8 15 9 14 10 13 11 5 12
REMARK SMILES IDX 6 13 7 14 8 15 12 16 10 17 9 18 11 20 20 22 17 24
REMARK H PARENT 9 19 11 21 20 23 17 25
REMARK Flexibility Score: inf
ROOT
ATOM      1  C   UNL     1      59.482  -2.043   3.929  1.00  0.00     0.138 A 
ATOM      2  C   UNL     1      59.363  -2.017   5.326  1.00  0.00     0.100 A 
ATOM      3  C   UNL     1      58.135  -2.311   5.920  1.00  0.00     0.197 A 
ATOM      4  O   UNL     1      58.047  -2.224   7.172  1.00  0.00    -0.289 OA
ATOM      5  C   UNL     1      57.030  -2.670   5.111  1.00  0.00     0.107 A 
ATOM      6  C   UNL     1      55.739  -3.024   5.609  1.00  0.00     0.134 A 
ATOM      7  C   UNL     1      54.695  -3.264   4.707  1.00  0.00     0.093 A 
ATOM      8  C   UNL     1      54.907  -3.221   3.330  1.00  0.00     0.123 A 
ATOM      9  C   UNL     1      56.177  -2.925   2.832  1.00  0.00     0.094 A 
ATOM     10  C   UNL     1      57.231  -2.646   3.705  1.00  0.00     0.146 A 
ATOM     11  O   UNL     1      58.420  -2.351   3.192  1.00  0.00    -0.456 OA
ENDROOT
BRANCH   1  12
ATOM     12  C   UNL     1      60.763  -1.740   3.244  1.00  0.00     0.021 A 
ATOM     13  C   UNL     1      61.929  -1.421   3.963  1.00  0.00     0.016 A 
ATOM     14  C   UNL     1      63.118  -1.132   3.290  1.00  0.00     0.051 A 
ATOM     15  C   UNL     1      63.171  -1.147   1.892  1.00  0.00     0.157 A 
ATOM     16  C   UNL     1      60.814  -1.741   1.840  1.00  0.00     0.062 A 
ATOM     17  C   UNL     1      62.003  -1.453   1.158  1.00  0.00     0.158 A 
BRANCH  15  18
ATOM     18  O   UNL     1      64.392  -0.851   1.283  1.00  0.00    -0.504 OA
ATOM     19  H   UNL     1      64.934  -0.022   1.478  1.00  0.00     0.293 HD
ENDBRANCH  15  18
BRANCH  17  20
ATOM     20  O   UNL     1      61.976  -1.482  -0.239  1.00  0.00    -0.504 OA
ATOM     21  H   UNL     1      62.482  -2.153  -0.798  1.00  0.00     0.293 HD
ENDBRANCH  17  20
ENDBRANCH   1  12
BRANCH   6  22
ATOM     22  O   UNL     1      55.435  -3.174   6.965  1.00  0.00    -0.507 OA
ATOM     23  H   UNL     1      56.034  -3.610   7.649  1.00  0.00     0.293 HD
ENDBRANCH   6  22
BRANCH   8  24
ATOM     24  O   UNL     1      53.848  -3.481   2.462  1.00  0.00    -0.508 OA
ATOM     25  H   UNL     1      53.889  -3.222   1.483  1.00  0.00     0.293 HD
ENDBRANCH   8  24
TORSDOF 5
ENDMDL
MODEL 4
REMARK VINA RESULT:    -6.991      4.320      6.135
REMARK INTER + INTRA:          -8.532
REMARK INTER:                  -8.240
REMARK INTRA:                  -0.292
REMARK UNBOUND:                -0.315
REMARK SMILES O=c1cc(-c2ccc(O)c(O)c2)oc2cc(O)cc(O)c12
REMARK SMILES IDX 4 1 3 2 2 3 1 4 21 5 19 6 18 7 16 8 15 9 14 10 13 11 5 12
REMARK SMILES IDX 6 13 7 14 8 15 12 16 10 17 9 18 11 20 20 22 17 24
REMARK H PARENT 9 19 11 21 20 23 17 25
REMARK Flexibility Score: inf
ROOT
ATOM      1  C   UNL     1      62.099   1.804   4.256  1.00  0.00     0.138 A 
ATOM      2  C   UNL     1      61.804   2.535   3.096  1.00  0.00     0.100 A 
ATOM      3  C   UNL     1      61.678   1.873   1.875  1.00  0.00     0.197 A 
ATOM      4  O   UNL     1      61.468   2.564   0.845  1.00  0.00    -0.289 OA
ATOM      5  C   UNL     1      61.813   0.465   1.821  1.00  0.00     0.107 A 
ATOM      6  C   UNL     1      61.671  -0.322   0.637  1.00  0.00     0.134 A 
ATOM      7  C   UNL     1      61.925  -1.698   0.689  1.00  0.00     0.093 A 
ATOM      8  C   UNL     1      62.257  -2.325   1.889  1.00  0.00     0.123 A 
ATOM      9  C   UNL     1      62.350  -1.575   3.062  1.00  0.00     0.094 A 
ATOM     10  C   UNL     1      62.137  -0.194   3.037  1.00  0.00     0.146 A 
ATOM     11  O   UNL     1      62.252   0.487   4.172  1.00  0.00    -0.456 OA
ENDROOT
BRANCH   1  12
ATOM     12  C   UNL     1      62.242   2.457   5.581  1.00  0.00     0.021 A 
ATOM     13  C   UNL     1      61.319   3.415   6.037  1.00  0.00     0.016 A 
ATOM     14  C   UNL     1      61.485   4.019   7.285  1.00  0.00     0.051 A 
ATOM     15  C   UNL     1      62.572   3.689   8.101  1.00  0.00     0.157 A 
ATOM     16  C   UNL     1      63.341   2.136   6.395  1.00  0.00     0.062 A 
ATOM     17  C   UNL     1      63.514   2.737   7.648  1.00  0.00     0.158 A 
BRANCH  15  18
ATOM     18  O   UNL     1      62.677   4.328   9.338  1.00  0.00    -0.504 OA
ATOM     19  H   UNL     1      63.033   5.265   9.461  1.00  0.00     0.293 HD
ENDBRANCH  15  18
BRANCH  17  20
ATOM     20  O   UNL     1      64.627   2.360   8.403  1.00  0.00    -0.504 OA
ATOM     21  H   UNL     1      65.376   2.988   8.657  1.00  0.00     0.293 HD
ENDBRANCH  17  20
ENDBRANCH   1  12
BRANCH   6  22
ATOM     22  O   UNL     1      61.265   0.189  -0.600  1.00  0.00    -0.507 OA
ATOM     23  H   UNL     1      61.749   0.046  -1.473  1.00  0.00     0.293 HD
ENDBRANCH   6  22
BRANCH   8  24
ATOM     24  O   UNL     1      62.487  -3.699   1.906  1.00  0.00    -0.508 OA
ATOM     25  H   UNL     1      63.163  -4.116   2.537  1.00  0.00     0.293 HD
ENDBRANCH   8  24
TORSDOF 5
ENDMDL
MODEL 5
REMARK VINA RESULT:    -6.808      2.283      7.040
REMARK INTER + INTRA:          -8.316
REMARK INTER:                  -8.046
REMARK INTRA:                  -0.271
REMARK UNBOUND:                -0.315
REMARK SMILES O=c1cc(-c2ccc(O)c(O)c2)oc2cc(O)cc(O)c12
REMARK SMILES IDX 4 1 3 2 2 3 1 4 21 5 19 6 18 7 16 8 15 9 14 10 13 11 5 12
REMARK SMILES IDX 6 13 7 14 8 15 12 16 10 17 9 18 11 20 20 22 17 24
REMARK H PARENT 9 19 11 21 20 23 17 25
REMARK Flexibility Score: inf
ROOT
ATOM      1  C   UNL     1      59.941  -1.616   4.251  1.00  0.00     0.138 A 
ATOM      2  C   UNL     1      59.628  -2.233   3.032  1.00  0.00     0.100 A 
ATOM      3  C   UNL     1      58.379  -2.832   2.861  1.00  0.00     0.197 A 
ATOM      4  O   UNL     1      58.150  -3.425   1.776  1.00  0.00    -0.289 OA
ATOM      5  C   UNL     1      57.425  -2.779   3.906  1.00  0.00     0.107 A 
ATOM      6  C   UNL     1      56.107  -3.324   3.832  1.00  0.00     0.134 A 
ATOM      7  C   UNL     1      55.286  -3.298   4.966  1.00  0.00     0.093 A 
ATOM      8  C   UNL     1      55.711  -2.697   6.150  1.00  0.00     0.123 A 
ATOM      9  C   UNL     1      56.978  -2.117   6.218  1.00  0.00     0.094 A 
ATOM     10  C   UNL     1      57.835  -2.157   5.115  1.00  0.00     0.146 A 
ATOM     11  O   UNL     1      59.039  -1.609   5.227  1.00  0.00    -0.456 OA
ENDROOT
BRANCH   1  12
ATOM     12  C   UNL     1      61.253  -0.962   4.486  1.00  0.00     0.021 A 
ATOM     13  C   UNL     1      62.431  -1.710   4.663  1.00  0.00     0.016 A 
ATOM     14  C   UNL     1      63.649  -1.067   4.892  1.00  0.00     0.051 A 
ATOM     15  C   UNL     1      63.721   0.329   4.957  1.00  0.00     0.157 A 
ATOM     16  C   UNL     1      61.323   0.438   4.566  1.00  0.00     0.062 A 
ATOM     17  C   UNL     1      62.542   1.091   4.795  1.00  0.00     0.158 A 
BRANCH  15  18
ATOM     18  O   UNL     1      64.970   0.908   5.187  1.00  0.00    -0.504 OA
ATOM     19  H   UNL     1      65.512   0.767   6.027  1.00  0.00     0.293 HD
ENDBRANCH  15  18
BRANCH  17  20
ATOM     20  O   UNL     1      62.532   2.487   4.852  1.00  0.00    -0.504 OA
ATOM     21  H   UNL     1      61.832   3.026   5.339  1.00  0.00     0.293 HD
ENDBRANCH  17  20
ENDBRANCH   1  12
BRANCH   6  22
ATOM     22  O   UNL     1      55.551  -3.878   2.675  1.00  0.00    -0.507 OA
ATOM     23  H   UNL     1      55.143  -3.351   1.918  1.00  0.00     0.293 HD
ENDBRANCH   6  22
BRANCH   8  24
ATOM     24  O   UNL     1      54.861  -2.676   7.254  1.00  0.00    -0.508 OA
ATOM     25  H   UNL     1      54.532  -1.804   7.654  1.00  0.00     0.293 HD
ENDBRANCH   8  24
TORSDOF 5
ENDMDL
MODEL 6
REMARK VINA RESULT:    -6.613      4.171      6.331
REMARK INTER + INTRA:          -8.087
REMARK INTER:                  -7.825
REMARK INTRA:                  -0.262
REMARK UNBOUND:                -0.315
REMARK SMILES O=c1cc(-c2ccc(O)c(O)c2)oc2cc(O)cc(O)c12
REMARK SMILES IDX 4 1 3 2 2 3 1 4 21 5 19 6 18 7 16 8 15 9 14 10 13 11 5 12
REMARK SMILES IDX 6 13 7 14 8 15 12 16 10 17 9 18 11 20 20 22 17 24
REMARK H PARENT 9 19 11 21 20 23 17 25
REMARK Flexibility Score: inf
ROOT
ATOM      1  C   UNL     1      62.166   1.853   4.067  1.00  0.00     0.138 A 
ATOM      2  C   UNL     1      61.572   0.601   3.855  1.00  0.00     0.100 A 
ATOM      3  C   UNL     1      61.500   0.080   2.562  1.00  0.00     0.197 A 
ATOM      4  O   UNL     1      60.912  -1.020   2.399  1.00  0.00    -0.289 OA
ATOM      5  C   UNL     1      62.059   0.802   1.480  1.00  0.00     0.107 A 
ATOM      6  C   UNL     1      62.074   0.354   0.125  1.00  0.00     0.134 A 
ATOM      7  C   UNL     1      62.567   1.201  -0.876  1.00  0.00     0.093 A 
ATOM      8  C   UNL     1      63.098   2.452  -0.565  1.00  0.00     0.123 A 
ATOM      9  C   UNL     1      63.133   2.880   0.763  1.00  0.00     0.094 A 
ATOM     10  C   UNL     1      62.617   2.074   1.780  1.00  0.00     0.146 A 
ATOM     11  O   UNL     1      62.653   2.525   3.029  1.00  0.00    -0.456 OA
ENDROOT
BRANCH   1  12
ATOM     12  C   UNL     1      62.271   2.454   5.420  1.00  0.00     0.021 A 
ATOM     13  C   UNL     1      61.355   3.418   5.875  1.00  0.00     0.016 A 
ATOM     14  C   UNL     1      61.485   3.972   7.150  1.00  0.00     0.051 A 
ATOM     15  C   UNL     1      62.531   3.585   7.995  1.00  0.00     0.157 A 
ATOM     16  C   UNL     1      63.329   2.076   6.263  1.00  0.00     0.062 A 
ATOM     17  C   UNL     1      63.467   2.626   7.544  1.00  0.00     0.158 A 
BRANCH  15  18
ATOM     18  O   UNL     1      62.602   4.176   9.258  1.00  0.00    -0.504 OA
ATOM     19  H   UNL     1      61.925   4.835   9.611  1.00  0.00     0.293 HD
ENDBRANCH  15  18
BRANCH  17  20
ATOM     20  O   UNL     1      64.540   2.194   8.327  1.00  0.00    -0.504 OA
ATOM     21  H   UNL     1      65.122   2.809   8.876  1.00  0.00     0.293 HD
ENDBRANCH  17  20
ENDBRANCH   1  12
BRANCH   6  22
ATOM     22  O   UNL     1      61.644  -0.910  -0.289  1.00  0.00    -0.507 OA
ATOM     23  H   UNL     1      61.060  -1.529   0.252  1.00  0.00     0.293 HD
ENDBRANCH   6  22
BRANCH   8  24
ATOM     24  O   UNL     1      63.594   3.262  -1.584  1.00  0.00    -0.508 OA
ATOM     25  H   UNL     1      62.992   3.619  -2.318  1.00  0.00     0.293 HD
ENDBRANCH   8  24
TORSDOF 5
ENDMDL
MODEL 7
REMARK VINA RESULT:    -6.605      1.692      6.815
REMARK INTER + INTRA:          -8.078
REMARK INTER:                  -7.792
REMARK INTRA:                  -0.286
REMARK UNBOUND:                -0.315
REMARK SMILES O=c1cc(-c2ccc(O)c(O)c2)oc2cc(O)cc(O)c12
REMARK SMILES IDX 4 1 3 2 2 3 1 4 21 5 19 6 18 7 16 8 15 9 14 10 13 11 5 12
REMARK SMILES IDX 6 13 7 14 8 15 12 16 10 17 9 18 11 20 20 22 17 24
REMARK H PARENT 9 19 11 21 20 23 17 25
REMARK Flexibility Score: inf
ROOT
ATOM      1  C   UNL     1      60.716  -2.173   2.246  1.00  0.00     0.138 A 
ATOM      2  C   UNL     1      61.135  -1.452   3.373  1.00  0.00     0.100 A 
ATOM      3  C   UNL     1      60.286  -1.336   4.474  1.00  0.00     0.197 A 
ATOM      4  O   UNL     1      60.669  -0.637   5.447  1.00  0.00    -0.289 OA
ATOM      5  C   UNL     1      59.024  -1.979   4.460  1.00  0.00     0.107 A 
ATOM      6  C   UNL     1      58.090  -1.959   5.540  1.00  0.00     0.134 A 
ATOM      7  C   UNL     1      56.830  -2.548   5.372  1.00  0.00     0.093 A 
ATOM      8  C   UNL     1      56.493  -3.205   4.190  1.00  0.00     0.123 A 
ATOM      9  C   UNL     1      57.417  -3.274   3.146  1.00  0.00     0.094 A 
ATOM     10  C   UNL     1      58.669  -2.666   3.269  1.00  0.00     0.146 A 
ATOM     11  O   UNL     1      59.513  -2.739   2.246  1.00  0.00    -0.456 OA
ENDROOT
BRANCH   1  12
ATOM     12  C   UNL     1      61.579  -2.330   1.048  1.00  0.00     0.021 A 
ATOM     13  C   UNL     1      62.149  -1.221   0.397  1.00  0.00     0.016 A 
ATOM     14  C   UNL     1      62.949  -1.399  -0.733  1.00  0.00     0.051 A 
ATOM     15  C   UNL     1      63.192  -2.679  -1.244  1.00  0.00     0.157 A 
ATOM     16  C   UNL     1      61.812  -3.613   0.527  1.00  0.00     0.062 A 
ATOM     17  C   UNL     1      62.613  -3.800  -0.607  1.00  0.00     0.158 A 
BRANCH  15  18
ATOM     18  O   UNL     1      64.003  -2.787  -2.375  1.00  0.00    -0.504 OA
ATOM     19  H   UNL     1      64.989  -2.998  -2.344  1.00  0.00     0.293 HD
ENDBRANCH  15  18
BRANCH  17  20
ATOM     20  O   UNL     1      62.806  -5.107  -1.059  1.00  0.00    -0.504 OA
ATOM     21  H   UNL     1      62.865  -5.364  -2.034  1.00  0.00     0.293 HD
ENDBRANCH  17  20
ENDBRANCH   1  12
BRANCH   6  22
ATOM     22  O   UNL     1      58.352  -1.400   6.795  1.00  0.00    -0.507 OA
ATOM     23  H   UNL     1      59.270  -1.230   7.173  1.00  0.00     0.293 HD
ENDBRANCH   6  22
BRANCH   8  24
ATOM     24  O   UNL     1      55.237  -3.794   4.064  1.00  0.00    -0.508 OA
ATOM     25  H   UNL     1      54.507  -3.372   3.501  1.00  0.00     0.293 HD
ENDBRANCH   8  24
TORSDOF 5
ENDMDL
MODEL 8
REMARK VINA RESULT:    -6.528      1.861      2.631
REMARK INTER + INTRA:          -7.988
REMARK INTER:                  -7.715
REMARK INTRA:                  -0.273
REMARK UNBOUND:                -0.315
REMARK SMILES O=c1cc(-c2ccc(O)c(O)c2)oc2cc(O)cc(O)c12
REMARK SMILES IDX 4 1 3 2 2 3 1 4 21 5 19 6 18 7 16 8 15 9 14 10 13 11 5 12
REMARK SMILES IDX 6 13 7 14 8 15 12 16 10 17 9 18 11 20 20 22 17 24
REMARK H PARENT 9 19 11 21 20 23 17 25
REMARK Flexibility Score: inf
ROOT
ATOM      1  C   UNL     1      60.348  -2.128   2.707  1.00  0.00     0.138 A 
ATOM      2  C   UNL     1      61.039  -0.912   2.612  1.00  0.00     0.100 A 
ATOM      3  C   UNL     1      62.143  -0.809   1.765  1.00  0.00     0.197 A 
ATOM      4  O   UNL     1      62.775   0.278   1.744  1.00  0.00    -0.289 OA
ATOM      5  C   UNL     1      62.533  -1.920   0.979  1.00  0.00     0.107 A 
ATOM      6  C   UNL     1      63.620  -1.920   0.053  1.00  0.00     0.134 A 
ATOM      7  C   UNL     1      63.974  -3.111  -0.595  1.00  0.00     0.093 A 
ATOM      8  C   UNL     1      63.245  -4.283  -0.398  1.00  0.00     0.123 A 
ATOM      9  C   UNL     1      62.150  -4.282   0.466  1.00  0.00     0.094 A 
ATOM     10  C   UNL     1      61.793  -3.120   1.155  1.00  0.00     0.146 A 
ATOM     11  O   UNL     1      60.755  -3.166   1.982  1.00  0.00    -0.456 OA
ENDROOT
BRANCH   1  12
ATOM     12  C   UNL     1      59.167  -2.294   3.590  1.00  0.00     0.021 A 
ATOM     13  C   UNL     1      57.966  -2.856   3.123  1.00  0.00     0.016 A 
ATOM     14  C   UNL     1      56.868  -2.991   3.975  1.00  0.00     0.051 A 
ATOM     15  C   UNL     1      56.939  -2.563   5.306  1.00  0.00     0.157 A 
ATOM     16  C   UNL     1      59.233  -1.852   4.922  1.00  0.00     0.062 A 
ATOM     17  C   UNL     1      58.136  -1.983   5.784  1.00  0.00     0.158 A 
BRANCH  15  18
ATOM     18  O   UNL     1      55.807  -2.729   6.106  1.00  0.00    -0.504 OA
ATOM     19  H   UNL     1      55.589  -3.577   6.607  1.00  0.00     0.293 HD
ENDBRANCH  15  18
BRANCH  17  20
ATOM     20  O   UNL     1      58.282  -1.528   7.097  1.00  0.00    -0.504 OA
ATOM     21  H   UNL     1      59.129  -1.627   7.637  1.00  0.00     0.293 HD
ENDBRANCH  17  20
ENDBRANCH   1  12
BRANCH   6  22
ATOM     22  O   UNL     1      64.367  -0.786  -0.281  1.00  0.00    -0.507 OA
ATOM     23  H   UNL     1      64.008   0.155  -0.312  1.00  0.00     0.293 HD
ENDBRANCH   6  22
BRANCH   8  24
ATOM     24  O   UNL     1      63.616  -5.444  -1.072  1.00  0.00    -0.508 OA
ATOM     25  H   UNL     1      64.590  -5.680  -1.228  1.00  0.00     0.293 HD
ENDBRANCH   8  24
TORSDOF 5
ENDMDL
MODEL 9
REMARK VINA RESULT:    -6.413      5.645      6.884
REMARK INTER + INTRA:          -7.852
REMARK INTER:                  -7.582
REMARK INTRA:                  -0.270
REMARK UNBOUND:                -0.315
REMARK SMILES O=c1cc(-c2ccc(O)c(O)c2)oc2cc(O)cc(O)c12
REMARK SMILES IDX 4 1 3 2 2 3 1 4 21 5 19 6 18 7 16 8 15 9 14 10 13 11 5 12
REMARK SMILES IDX 6 13 7 14 8 15 12 16 10 17 9 18 11 20 20 22 17 24
REMARK H PARENT 9 19 11 21 20 23 17 25
REMARK Flexibility Score: inf
ROOT
ATOM      1  C   UNL     1      63.276   3.486   3.328  1.00  0.00     0.138 A 
ATOM      2  C   UNL     1      63.618   4.582   2.524  1.00  0.00     0.100 A 
ATOM      3  C   UNL     1      63.666   4.434   1.137  1.00  0.00     0.197 A 
ATOM      4  O   UNL     1      64.030   5.421   0.448  1.00  0.00    -0.289 OA
ATOM      5  C   UNL     1      63.332   3.189   0.551  1.00  0.00     0.107 A 
ATOM      6  C   UNL     1      63.313   2.930  -0.853  1.00  0.00     0.134 A 
ATOM      7  C   UNL     1      63.064   1.630  -1.311  1.00  0.00     0.093 A 
ATOM      8  C   UNL     1      62.777   0.595  -0.422  1.00  0.00     0.123 A 
ATOM      9  C   UNL     1      62.744   0.847   0.950  1.00  0.00     0.094 A 
ATOM     10  C   UNL     1      63.023   2.125   1.441  1.00  0.00     0.146 A 
ATOM     11  O   UNL     1      62.999   2.320   2.754  1.00  0.00    -0.456 OA
ENDROOT
BRANCH   1  12
ATOM     12  C   UNL     1      63.208   3.588   4.807  1.00  0.00     0.021 A 
ATOM     13  C   UNL     1      64.364   3.744   5.592  1.00  0.00     0.016 A 
ATOM     14  C   UNL     1      64.269   3.828   6.983  1.00  0.00     0.051 A 
ATOM     15  C   UNL     1      63.027   3.751   7.622  1.00  0.00     0.157 A 
ATOM     16  C   UNL     1      61.962   3.497   5.450  1.00  0.00     0.062 A 
ATOM     17  C   UNL     1      61.858   3.581   6.845  1.00  0.00     0.158 A 
BRANCH  15  18
ATOM     18  O   UNL     1      63.002   3.844   9.014  1.00  0.00    -0.504 OA
ATOM     19  H   UNL     1      63.822   3.986   9.585  1.00  0.00     0.293 HD
ENDBRANCH  15  18
BRANCH  17  20
ATOM     20  O   UNL     1      60.584   3.491   7.409  1.00  0.00    -0.504 OA
ATOM     21  H   UNL     1      59.728   3.484   6.873  1.00  0.00     0.293 HD
ENDBRANCH  17  20
ENDBRANCH   1  12
BRANCH   6  22
ATOM     22  O   UNL     1      63.506   3.908  -1.834  1.00  0.00    -0.507 OA
ATOM     23  H   UNL     1      63.361   3.774  -2.822  1.00  0.00     0.293 HD
ENDBRANCH   6  22
BRANCH   8  24
ATOM     24  O   UNL     1      62.518  -0.682  -0.915  1.00  0.00    -0.508 OA
ATOM     25  H   UNL     1      61.584  -1.076  -0.905  1.00  0.00     0.293 HD
ENDBRANCH   8  24
TORSDOF 5
ENDMDL
