MODEL 1
REMARK VINA RESULT:    30.327      0.000      0.000
REMARK INTER + INTRA:          36.279
REMARK INTER:                  36.532
REMARK INTRA:                  -0.253
REMARK UNBOUND:                -0.253
REMARK SMILES O=c1ccn([C@H]2O[C@@H](CO)[C@@H](O)[C@H]2O)c(=O)[nH]1
REMARK SMILES IDX 6 1 13 2 11 3 8 4 7 5 5 6 3 7 4 8 2 9 17 10 1 11 15 12 16 14
REMARK SMILES IDX 14 15 12 17 9 19 10 20
REMARK H PARENT 17 13 14 16 12 18 10 21
REMARK Flexibility Score: inf
ROOT
ATOM      1  C   UNL     1      24.912  -8.706  12.829  1.00  0.00     0.255 C 
ATOM      2  C   UNL     1      26.283  -8.311  13.424  1.00  0.00     0.196 C 
ATOM      3  C   UNL     1      27.052  -9.624  13.479  1.00  0.00     0.179 C 
ATOM      4  C   UNL     1      25.913 -10.649  13.421  1.00  0.00     0.178 C 
ATOM      5  O   UNL     1      24.899 -10.105  12.608  1.00  0.00    -0.347 OA
ENDROOT
BRANCH   1   6
ATOM      6  N   UNL     1      24.600  -7.973  11.577  1.00  0.00    -0.271 N 
ATOM      7  C   UNL     1      25.088  -7.463   9.283  1.00  0.00     0.090 A 
ATOM      8  C   UNL     1      25.357  -8.172  10.452  1.00  0.00     0.099 A 
ATOM      9  C   UNL     1      24.050  -6.536   9.288  1.00  0.00     0.253 A 
ATOM     10  N   UNL     1      23.316  -6.351  10.414  1.00  0.00    -0.274 N 
ATOM     11  O   UNL     1      23.792  -5.875   8.247  1.00  0.00    -0.269 OA
ATOM     12  C   UNL     1      23.583  -7.052  11.551  1.00  0.00     0.330 A 
ATOM     13  H   UNL     1      22.536  -5.650  10.413  1.00  0.00     0.175 HD
ATOM     14  O   UNL     1      22.876  -6.846  12.576  1.00  0.00    -0.248 OA
ENDBRANCH   1   6
BRANCH   2  15
ATOM     15  O   UNL     1      26.961  -7.279  12.739  1.00  0.00    -0.386 OA
ATOM     16  H   UNL     1      26.409  -6.455  12.764  1.00  0.00     0.211 HD
ENDBRANCH   2  15
BRANCH   3  17
ATOM     17  O   UNL     1      27.965  -9.763  12.413  1.00  0.00    -0.387 OA
ATOM     18  H   UNL     1      28.018 -10.725  12.173  1.00  0.00     0.211 HD
ENDBRANCH   3  17
BRANCH   4  19
ATOM     19  C   UNL     1      26.327 -12.032  12.896  1.00  0.00     0.191 C 
BRANCH  19  20
ATOM     20  O   UNL     1      26.671 -11.962  11.538  1.00  0.00    -0.394 OA
ATOM     21  H   UNL     1      26.268 -11.126  11.184  1.00  0.00     0.210 HD
ENDBRANCH  19  20
ENDBRANCH   4  19
TORSDOF 5
ENDMDL
MODEL 2
REMARK VINA RESULT:    33.032      1.571      2.415
REMARK INTER + INTRA:          39.537
REMARK INTER:                  39.289
REMARK INTRA:                   0.248
REMARK UNBOUND:                -0.253
REMARK SMILES O=c1ccn([C@H]2O[C@@H](CO)[C@@H](O)[C@H]2O)c(=O)[nH]1
REMARK SMILES IDX 6 1 13 2 11 3 8 4 7 5 5 6 3 7 4 8 2 9 17 10 1 11 15 12 16 14
REMARK SMILES IDX 14 15 12 17 9 19 10 20
REMARK H PARENT 17 13 14 16 12 18 10 21
REMARK Flexibility Score: inf
ROOT
ATOM      1  C   UNL     1      25.503  -9.173  13.503  1.00  0.00     0.255 C 
ATOM      2  C   UNL     1      26.806  -9.993  13.358  1.00  0.00     0.196 C 
ATOM      3  C   UNL     1      26.348 -11.437  13.504  1.00  0.00     0.179 C 
ATOM      4  C   UNL     1      25.002 -11.262  14.217  1.00  0.00     0.178 C 
ATOM      5  O   UNL     1      24.430 -10.064  13.746  1.00  0.00    -0.347 OA
ENDROOT
BRANCH   1   6
ATOM      6  N   UNL     1      25.225  -8.325  12.317  1.00  0.00    -0.271 N 
ATOM      7  C   UNL     1      23.878  -7.797  10.402  1.00  0.00     0.090 A 
ATOM      8  C   UNL     1      24.127  -8.569  11.534  1.00  0.00     0.099 A 
ATOM      9  C   UNL     1      24.778  -6.789  10.071  1.00  0.00     0.253 A 
ATOM     10  N   UNL     1      25.863  -6.567  10.856  1.00  0.00    -0.274 N 
ATOM     11  O   UNL     1      24.582  -6.081   9.047  1.00  0.00    -0.269 OA
ATOM     12  C   UNL     1      26.095  -7.323  11.965  1.00  0.00     0.330 A 
ATOM     13  H   UNL     1      26.538  -5.807  10.601  1.00  0.00     0.175 HD
ATOM     14  O   UNL     1      27.117  -7.083  12.665  1.00  0.00    -0.248 OA
ENDBRANCH   1   6
BRANCH   2  15
ATOM     15  O   UNL     1      27.544  -9.743  12.180  1.00  0.00    -0.386 OA
ATOM     16  H   UNL     1      27.381 -10.475  11.533  1.00  0.00     0.211 HD
ENDBRANCH   2  15
BRANCH   3  17
ATOM     17  O   UNL     1      26.226 -12.097  12.264  1.00  0.00    -0.387 OA
ATOM     18  H   UNL     1      25.427 -12.684  12.301  1.00  0.00     0.211 HD
ENDBRANCH   3  17
BRANCH   4  19
ATOM     19  C   UNL     1      24.021 -12.429  14.023  1.00  0.00     0.191 C 
BRANCH  19  20
ATOM     20  O   UNL     1      22.912 -12.288  14.869  1.00  0.00    -0.394 OA
ATOM     21  H   UNL     1      23.000 -12.984  15.573  1.00  0.00     0.210 HD
ENDBRANCH  19  20
ENDBRANCH   4  19
TORSDOF 5
ENDMDL
