MODEL 1
REMARK VINA RESULT:    77.307      0.000      0.000
REMARK INTER + INTRA:         103.686
REMARK INTER:                 104.423
REMARK INTRA:                  -0.738
REMARK UNBOUND:                -0.738
REMARK SMILES O=c1c(-c2ccc(O)cc2)coc2c([C@H]3O[C@@H](CO)[C@H](O)[C@@H](O)[C@@H]3O)c(O)ccc12
REMARK SMILES IDX 3 1 11 2 12 3 13 4 30 5 2 6 1 7 29 8 28 9 26 10 14 11 4 12
REMARK SMILES IDX 5 13 6 14 7 15 10 16 9 17 8 18 15 20 24 21 16 22 22 23 17 24
REMARK SMILES IDX 20 25 25 26 23 28 18 30 19 31 21 33 27 35
REMARK H PARENT 8 19 25 27 23 29 19 32 21 34 27 36
REMARK Flexibility Score: inf
ROOT
ATOM      1  C   UNL     1       7.330   0.478  30.493  1.00  0.00     0.065 A 
ATOM      2  C   UNL     1       8.640   0.740  30.920  1.00  0.00     0.208 A 
ATOM      3  O   UNL     1       9.495   1.385  30.136  1.00  0.00    -0.463 OA
ATOM      4  C   UNL     1       9.182   1.820  28.917  1.00  0.00     0.147 A 
ATOM      5  C   UNL     1       7.882   1.597  28.408  1.00  0.00     0.066 A 
ATOM      6  C   UNL     1       6.952   0.910  29.209  1.00  0.00     0.200 A 
ATOM      7  O   UNL     1       5.793   0.665  28.772  1.00  0.00    -0.288 OA
ATOM      8  C   UNL     1       7.550   2.064  27.126  1.00  0.00     0.020 A 
ATOM      9  C   UNL     1       8.490   2.755  26.366  1.00  0.00     0.047 A 
ATOM     10  C   UNL     1       9.779   2.985  26.862  1.00  0.00     0.125 A 
ATOM     11  C   UNL     1      10.146   2.502  28.139  1.00  0.00     0.069 A 
ENDROOT
BRANCH   1  12
ATOM     12  C   UNL     1       6.390  -0.240  31.390  1.00  0.00    -0.011 A 
ATOM     13  C   UNL     1       5.681   0.459  32.382  1.00  0.00     0.013 A 
ATOM     14  C   UNL     1       4.789  -0.214  33.223  1.00  0.00     0.047 A 
ATOM     15  C   UNL     1       4.590  -1.592  33.078  1.00  0.00     0.115 A 
ATOM     16  C   UNL     1       6.179  -1.624  31.248  1.00  0.00     0.013 A 
ATOM     17  C   UNL     1       5.286  -2.293  32.089  1.00  0.00     0.047 A 
BRANCH  15  18
ATOM     18  O   UNL     1       3.703  -2.273  33.910  1.00  0.00    -0.508 OA
ATOM     19  H   UNL     1       2.702  -2.248  33.749  1.00  0.00     0.293 HD
ENDBRANCH  15  18
ENDBRANCH   1  12
BRANCH  11  20
ATOM     20  C   UNL     1      11.539   2.765  28.696  1.00  0.00     0.188 C 
ATOM     21  C   UNL     1      11.863   4.275  28.628  1.00  0.00     0.179 C 
ATOM     22  O   UNL     1      12.487   2.013  27.955  1.00  0.00    -0.362 OA
ATOM     23  C   UNL     1      13.292   4.523  29.144  1.00  0.00     0.177 C 
ATOM     24  C   UNL     1      13.783   2.131  28.519  1.00  0.00     0.176 C 
ATOM     25  C   UNL     1      14.283   3.591  28.427  1.00  0.00     0.177 C 
BRANCH  21  26
ATOM     26  O   UNL     1      10.943   4.984  29.419  1.00  0.00    -0.387 OA
ATOM     27  H   UNL     1      10.976   5.931  29.124  1.00  0.00     0.211 HD
ENDBRANCH  21  26
BRANCH  23  28
ATOM     28  O   UNL     1      13.661   5.859  28.908  1.00  0.00    -0.387 OA
ATOM     29  H   UNL     1      14.081   6.194  29.743  1.00  0.00     0.211 HD
ENDBRANCH  23  28
BRANCH  24  30
ATOM     30  C   UNL     1      14.726   1.165  27.783  1.00  0.00     0.191 C 
BRANCH  30  31
ATOM     31  O   UNL     1      15.701   1.863  27.053  1.00  0.00    -0.394 OA
ATOM     32  H   UNL     1      15.607   2.821  27.293  1.00  0.00     0.210 HD
ENDBRANCH  30  31
ENDBRANCH  24  30
BRANCH  25  33
ATOM     33  O   UNL     1      15.548   3.694  29.030  1.00  0.00    -0.388 OA
ATOM     34  H   UNL     1      15.701   2.849  29.528  1.00  0.00     0.211 HD
ENDBRANCH  25  33
ENDBRANCH  11  20
BRANCH  10  35
ATOM     35  O   UNL     1      10.694   3.698  26.086  1.00  0.00    -0.507 OA
ATOM     36  H   UNL     1      10.636   3.714  25.074  1.00  0.00     0.293 HD
ENDBRANCH  10  35
TORSDOF 9
ENDMDL
MODEL 2
REMARK VINA RESULT:    77.634      4.733      9.204
REMARK INTER + INTRA:         104.127
REMARK INTER:                 104.699
REMARK INTRA:                  -0.572
REMARK UNBOUND:                -0.738
REMARK SMILES O=c1c(-c2ccc(O)cc2)coc2c([C@H]3O[C@@H](CO)[C@H](O)[C@@H](O)[C@@H]3O)c(O)ccc12
REMARK SMILES IDX 3 1 11 2 12 3 13 4 30 5 2 6 1 7 29 8 28 9 26 10 14 11 4 12
REMARK SMILES IDX 5 13 6 14 7 15 10 16 9 17 8 18 15 20 24 21 16 22 22 23 17 24
REMARK SMILES IDX 20 25 25 26 23 28 18 30 19 31 21 33 27 35
REMARK H PARENT 8 19 25 27 23 29 19 32 21 34 27 36
REMARK Flexibility Score: inf
ROOT
ATOM      1  C   UNL     1      16.873   0.798  26.984  1.00  0.00     0.065 A 
ATOM      2  C   UNL     1      16.469   1.611  28.053  1.00  0.00     0.208 A 
ATOM      3  O   UNL     1      15.300   2.239  28.028  1.00  0.00    -0.463 OA
ATOM      4  C   UNL     1      14.444   2.146  27.011  1.00  0.00     0.147 A 
ATOM      5  C   UNL     1      14.773   1.347  25.892  1.00  0.00     0.066 A 
ATOM      6  C   UNL     1      16.007   0.674  25.882  1.00  0.00     0.200 A 
ATOM      7  O   UNL     1      16.347  -0.021  24.884  1.00  0.00    -0.288 OA
ATOM      8  C   UNL     1      13.866   1.243  24.825  1.00  0.00     0.020 A 
ATOM      9  C   UNL     1      12.645   1.910  24.874  1.00  0.00     0.047 A 
ATOM     10  C   UNL     1      12.307   2.700  25.979  1.00  0.00     0.125 A 
ATOM     11  C   UNL     1      13.214   2.843  27.055  1.00  0.00     0.069 A 
ENDROOT
BRANCH   1  12
ATOM     12  C   UNL     1      18.183   0.102  27.039  1.00  0.00    -0.011 A 
ATOM     13  C   UNL     1      18.279  -1.186  27.592  1.00  0.00     0.013 A 
ATOM     14  C   UNL     1      19.511  -1.848  27.637  1.00  0.00     0.047 A 
ATOM     15  C   UNL     1      20.659  -1.232  27.123  1.00  0.00     0.115 A 
ATOM     16  C   UNL     1      19.340   0.710  26.519  1.00  0.00     0.013 A 
ATOM     17  C   UNL     1      20.569   0.046  26.565  1.00  0.00     0.047 A 
BRANCH  15  18
ATOM     18  O   UNL     1      21.891  -1.882  27.162  1.00  0.00    -0.508 OA
ATOM     19  H   UNL     1      22.276  -2.334  26.341  1.00  0.00     0.293 HD
ENDBRANCH  15  18
ENDBRANCH   1  12
BRANCH  11  20
ATOM     20  C   UNL     1      12.848   3.683  28.271  1.00  0.00     0.188 C 
ATOM     21  C   UNL     1      11.404   3.368  28.721  1.00  0.00     0.179 C 
ATOM     22  O   UNL     1      12.986   5.058  27.947  1.00  0.00    -0.362 OA
ATOM     23  C   UNL     1      11.025   4.260  29.917  1.00  0.00     0.177 C 
ATOM     24  C   UNL     1      12.775   5.873  29.087  1.00  0.00     0.176 C 
ATOM     25  C   UNL     1      11.321   5.734  29.592  1.00  0.00     0.177 C 
BRANCH  21  26
ATOM     26  O   UNL     1      11.316   2.015  29.091  1.00  0.00    -0.387 OA
ATOM     27  H   UNL     1      10.832   1.546  28.362  1.00  0.00     0.211 HD
ENDBRANCH  21  26
BRANCH  23  28
ATOM     28  O   UNL     1       9.657   4.117  30.208  1.00  0.00    -0.387 OA
ATOM     29  H   UNL     1       9.304   3.420  29.595  1.00  0.00     0.211 HD
ENDBRANCH  23  28
BRANCH  24  30
ATOM     30  C   UNL     1      13.106   7.328  28.715  1.00  0.00     0.191 C 
BRANCH  30  31
ATOM     31  O   UNL     1      11.944   8.049  28.398  1.00  0.00    -0.394 OA
ATOM     32  H   UNL     1      11.188   7.581  28.839  1.00  0.00     0.210 HD
ENDBRANCH  30  31
ENDBRANCH  24  30
BRANCH  25  33
ATOM     33  O   UNL     1      11.146   6.516  30.747  1.00  0.00    -0.388 OA
ATOM     34  H   UNL     1      11.408   7.444  30.510  1.00  0.00     0.211 HD
ENDBRANCH  25  33
ENDBRANCH  11  20
BRANCH  10  35
ATOM     35  O   UNL     1      11.068   3.341  26.010  1.00  0.00    -0.507 OA
ATOM     36  H   UNL     1      10.359   3.165  25.308  1.00  0.00     0.293 HD
ENDBRANCH  10  35
TORSDOF 9
ENDMDL
MODEL 3
REMARK VINA RESULT:    78.481      3.965      8.436
REMARK INTER + INTRA:         105.271
REMARK INTER:                 105.112
REMARK INTRA:                   0.159
REMARK UNBOUND:                -0.738
REMARK SMILES O=c1c(-c2ccc(O)cc2)coc2c([C@H]3O[C@@H](CO)[C@H](O)[C@@H](O)[C@@H]3O)c(O)ccc12
REMARK SMILES IDX 3 1 11 2 12 3 13 4 30 5 2 6 1 7 29 8 28 9 26 10 14 11 4 12
REMARK SMILES IDX 5 13 6 14 7 15 10 16 9 17 8 18 15 20 24 21 16 22 22 23 17 24
REMARK SMILES IDX 20 25 25 26 23 28 18 30 19 31 21 33 27 35
REMARK H PARENT 8 19 25 27 23 29 19 32 21 34 27 36
REMARK Flexibility Score: inf
ROOT
ATOM      1  C   UNL     1      15.204   1.961  27.675  1.00  0.00     0.065 A 
ATOM      2  C   UNL     1      14.909   3.326  27.562  1.00  0.00     0.208 A 
ATOM      3  O   UNL     1      13.726   3.801  27.933  1.00  0.00    -0.463 OA
ATOM      4  C   UNL     1      12.755   3.035  28.427  1.00  0.00     0.147 A 
ATOM      5  C   UNL     1      12.969   1.645  28.574  1.00  0.00     0.066 A 
ATOM      6  C   UNL     1      14.208   1.107  28.184  1.00  0.00     0.200 A 
ATOM      7  O   UNL     1      14.420  -0.134  28.271  1.00  0.00    -0.288 OA
ATOM      8  C   UNL     1      11.948   0.839  29.104  1.00  0.00     0.020 A 
ATOM      9  C   UNL     1      10.738   1.407  29.495  1.00  0.00     0.047 A 
ATOM     10  C   UNL     1      10.518   2.783  29.358  1.00  0.00     0.125 A 
ATOM     11  C   UNL     1      11.520   3.612  28.803  1.00  0.00     0.069 A 
ENDROOT
BRANCH   1  12
ATOM     12  C   UNL     1      16.536   1.455  27.259  1.00  0.00    -0.011 A 
ATOM     13  C   UNL     1      17.557   2.353  26.904  1.00  0.00     0.013 A 
ATOM     14  C   UNL     1      18.816   1.880  26.520  1.00  0.00     0.047 A 
ATOM     15  C   UNL     1      19.070   0.503  26.491  1.00  0.00     0.115 A 
ATOM     16  C   UNL     1      16.803   0.074  27.233  1.00  0.00     0.013 A 
ATOM     17  C   UNL     1      18.062  -0.396  26.849  1.00  0.00     0.047 A 
BRANCH  15  18
ATOM     18  O   UNL     1      20.321   0.020  26.110  1.00  0.00    -0.508 OA
ATOM     19  H   UNL     1      20.650   0.097  25.155  1.00  0.00     0.293 HD
ENDBRANCH  15  18
ENDBRANCH   1  12
BRANCH  11  20
ATOM     20  C   UNL     1      11.298   5.112  28.669  1.00  0.00     0.188 C 
ATOM     21  C   UNL     1      11.502   5.552  27.202  1.00  0.00     0.179 C 
ATOM     22  O   UNL     1      12.196   5.795  29.530  1.00  0.00    -0.362 OA
ATOM     23  C   UNL     1      11.328   7.078  27.087  1.00  0.00     0.177 C 
ATOM     24  C   UNL     1      11.939   7.190  29.530  1.00  0.00     0.176 C 
ATOM     25  C   UNL     1      12.204   7.790  28.131  1.00  0.00     0.177 C 
BRANCH  21  26
ATOM     26  O   UNL     1      10.560   4.903  26.386  1.00  0.00    -0.387 OA
ATOM     27  H   UNL     1       9.775   5.506  26.314  1.00  0.00     0.211 HD
ENDBRANCH  21  26
BRANCH  23  28
ATOM     28  O   UNL     1      11.699   7.507  25.801  1.00  0.00    -0.387 OA
ATOM     29  H   UNL     1      11.649   6.713  25.207  1.00  0.00     0.211 HD
ENDBRANCH  23  28
BRANCH  24  30
ATOM     30  C   UNL     1      12.822   7.849  30.603  1.00  0.00     0.191 C 
BRANCH  30  31
ATOM     31  O   UNL     1      14.079   8.198  30.084  1.00  0.00    -0.394 OA
ATOM     32  H   UNL     1      14.279   9.113  30.412  1.00  0.00     0.210 HD
ENDBRANCH  30  31
ENDBRANCH  24  30
BRANCH  25  33
ATOM     33  O   UNL     1      11.903   9.163  28.142  1.00  0.00    -0.388 OA
ATOM     34  H   UNL     1      11.597   9.384  29.061  1.00  0.00     0.211 HD
ENDBRANCH  25  33
ENDBRANCH  11  20
BRANCH  10  35
ATOM     35  O   UNL     1       9.303   3.327  29.778  1.00  0.00    -0.507 OA
ATOM     36  H   UNL     1       9.187   3.719  30.706  1.00  0.00     0.293 HD
ENDBRANCH  10  35
TORSDOF 9
ENDMDL
MODEL 4
REMARK VINA RESULT:    79.411      4.285      8.866
REMARK INTER + INTRA:         106.528
REMARK INTER:                 107.406
REMARK INTRA:                  -0.878
REMARK UNBOUND:                -0.738
REMARK SMILES O=c1c(-c2ccc(O)cc2)coc2c([C@H]3O[C@@H](CO)[C@H](O)[C@@H](O)[C@@H]3O)c(O)ccc12
REMARK SMILES IDX 3 1 11 2 12 3 13 4 30 5 2 6 1 7 29 8 28 9 26 10 14 11 4 12
REMARK SMILES IDX 5 13 6 14 7 15 10 16 9 17 8 18 15 20 24 21 16 22 22 23 17 24
REMARK SMILES IDX 20 25 25 26 23 28 18 30 19 31 21 33 27 35
REMARK H PARENT 8 19 25 27 23 29 19 32 21 34 27 36
REMARK Flexibility Score: inf
ROOT
ATOM      1  C   UNL     1      11.877   8.844  28.957  1.00  0.00     0.065 A 
ATOM      2  C   UNL     1      11.936   7.743  29.823  1.00  0.00     0.208 A 
ATOM      3  O   UNL     1      11.800   6.506  29.363  1.00  0.00    -0.463 OA
ATOM      4  C   UNL     1      11.601   6.224  28.077  1.00  0.00     0.147 A 
ATOM      5  C   UNL     1      11.527   7.276  27.134  1.00  0.00     0.066 A 
ATOM      6  C   UNL     1      11.660   8.600  27.589  1.00  0.00     0.200 A 
ATOM      7  O   UNL     1      11.566   9.564  26.779  1.00  0.00    -0.288 OA
ATOM      8  C   UNL     1      11.327   6.977  25.777  1.00  0.00     0.020 A 
ATOM      9  C   UNL     1      11.215   5.653  25.359  1.00  0.00     0.047 A 
ATOM     10  C   UNL     1      11.291   4.604  26.283  1.00  0.00     0.125 A 
ATOM     11  C   UNL     1      11.466   4.879  27.659  1.00  0.00     0.069 A 
ENDROOT
BRANCH   1  12
ATOM     12  C   UNL     1      12.038  10.218  29.495  1.00  0.00    -0.011 A 
ATOM     13  C   UNL     1      13.315  10.797  29.591  1.00  0.00     0.013 A 
ATOM     14  C   UNL     1      13.468  12.095  30.090  1.00  0.00     0.047 A 
ATOM     15  C   UNL     1      12.347  12.831  30.493  1.00  0.00     0.115 A 
ATOM     16  C   UNL     1      10.917  10.967  29.896  1.00  0.00     0.013 A 
ATOM     17  C   UNL     1      11.074  12.264  30.394  1.00  0.00     0.047 A 
BRANCH  15  18
ATOM     18  O   UNL     1      12.488  14.125  30.991  1.00  0.00    -0.508 OA
ATOM     19  H   UNL     1      11.710  14.774  31.005  1.00  0.00     0.293 HD
ENDBRANCH  15  18
ENDBRANCH   1  12
BRANCH  11  20
ATOM     20  C   UNL     1      11.571   3.745  28.669  1.00  0.00     0.188 C 
ATOM     21  C   UNL     1      12.723   2.791  28.281  1.00  0.00     0.179 C 
ATOM     22  O   UNL     1      10.335   3.048  28.718  1.00  0.00    -0.362 OA
ATOM     23  C   UNL     1      12.787   1.619  29.278  1.00  0.00     0.177 C 
ATOM     24  C   UNL     1      10.348   2.062  29.736  1.00  0.00     0.176 C 
ATOM     25  C   UNL     1      11.400   0.973  29.423  1.00  0.00     0.177 C 
BRANCH  21  26
ATOM     26  O   UNL     1      13.938   3.497  28.300  1.00  0.00    -0.387 OA
ATOM     27  H   UNL     1      13.856   4.198  28.997  1.00  0.00     0.211 HD
ENDBRANCH  21  26
BRANCH  23  28
ATOM     28  O   UNL     1      13.702   0.654  28.825  1.00  0.00    -0.387 OA
ATOM     29  H   UNL     1      14.540   1.135  28.596  1.00  0.00     0.211 HD
ENDBRANCH  23  28
BRANCH  24  30
ATOM     30  C   UNL     1       8.936   1.464  29.855  1.00  0.00     0.191 C 
BRANCH  30  31
ATOM     31  O   UNL     1       8.907   0.133  29.411  1.00  0.00    -0.394 OA
ATOM     32  H   UNL     1       9.754  -0.022  28.917  1.00  0.00     0.210 HD
ENDBRANCH  30  31
ENDBRANCH  24  30
BRANCH  25  33
ATOM     33  O   UNL     1      11.425   0.029  30.465  1.00  0.00    -0.388 OA
ATOM     34  H   UNL     1      11.885  -0.778  30.112  1.00  0.00     0.211 HD
ENDBRANCH  25  33
ENDBRANCH  11  20
BRANCH  10  35
ATOM     35  O   UNL     1      11.197   3.287  25.833  1.00  0.00    -0.507 OA
ATOM     36  H   UNL     1      12.001   2.789  25.466  1.00  0.00     0.293 HD
ENDBRANCH  10  35
TORSDOF 9
ENDMDL
MODEL 5
REMARK VINA RESULT:    80.055      4.516      8.794
REMARK INTER + INTRA:         107.398
REMARK INTER:                 106.404
REMARK INTRA:                   0.994
REMARK UNBOUND:                -0.738
REMARK SMILES O=c1c(-c2ccc(O)cc2)coc2c([C@H]3O[C@@H](CO)[C@H](O)[C@@H](O)[C@@H]3O)c(O)ccc12
REMARK SMILES IDX 3 1 11 2 12 3 13 4 30 5 2 6 1 7 29 8 28 9 26 10 14 11 4 12
REMARK SMILES IDX 5 13 6 14 7 15 10 16 9 17 8 18 15 20 24 21 16 22 22 23 17 24
REMARK SMILES IDX 20 25 25 26 23 28 18 30 19 31 21 33 27 35
REMARK H PARENT 8 19 25 27 23 29 19 32 21 34 27 36
REMARK Flexibility Score: inf
ROOT
ATOM      1  C   UNL     1      15.811   1.769  27.476  1.00  0.00     0.065 A 
ATOM      2  C   UNL     1      15.782   3.165  27.351  1.00  0.00     0.208 A 
ATOM      3  O   UNL     1      14.690   3.854  27.657  1.00  0.00    -0.463 OA
ATOM      4  C   UNL     1      13.567   3.285  28.093  1.00  0.00     0.147 A 
ATOM      5  C   UNL     1      13.509   1.880  28.247  1.00  0.00     0.066 A 
ATOM      6  C   UNL     1      14.647   1.119  27.925  1.00  0.00     0.200 A 
ATOM      7  O   UNL     1      14.619  -0.140  28.020  1.00  0.00    -0.288 OA
ATOM      8  C   UNL     1      12.329   1.283  28.716  1.00  0.00     0.020 A 
ATOM      9  C   UNL     1      11.226   2.068  29.040  1.00  0.00     0.047 A 
ATOM     10  C   UNL     1      11.273   3.460  28.896  1.00  0.00     0.125 A 
ATOM     11  C   UNL     1      12.441   4.084  28.401  1.00  0.00     0.069 A 
ENDROOT
BRANCH   1  12
ATOM     12  C   UNL     1      17.047   1.021  27.134  1.00  0.00    -0.011 A 
ATOM     13  C   UNL     1      18.254   1.708  26.915  1.00  0.00     0.013 A 
ATOM     14  C   UNL     1      19.422   1.005  26.601  1.00  0.00     0.047 A 
ATOM     15  C   UNL     1      19.398  -0.392  26.507  1.00  0.00     0.115 A 
ATOM     16  C   UNL     1      17.035  -0.383  27.044  1.00  0.00     0.013 A 
ATOM     17  C   UNL     1      18.204  -1.082  26.730  1.00  0.00     0.047 A 
BRANCH  15  18
ATOM     18  O   UNL     1      20.556  -1.102  26.195  1.00  0.00    -0.508 OA
ATOM     19  H   UNL     1      21.424  -0.944  26.693  1.00  0.00     0.293 HD
ENDBRANCH  15  18
ENDBRANCH   1  12
BRANCH  11  20
ATOM     20  C   UNL     1      12.510   5.599  28.260  1.00  0.00     0.188 C 
ATOM     21  C   UNL     1      13.428   6.194  29.350  1.00  0.00     0.179 C 
ATOM     22  O   UNL     1      11.200   6.136  28.355  1.00  0.00    -0.362 OA
ATOM     23  C   UNL     1      13.449   7.729  29.232  1.00  0.00     0.177 C 
ATOM     24  C   UNL     1      11.203   7.532  28.105  1.00  0.00     0.176 C 
ATOM     25  C   UNL     1      12.013   8.276  29.191  1.00  0.00     0.177 C 
BRANCH  21  26
ATOM     26  O   UNL     1      14.730   5.688  29.191  1.00  0.00    -0.387 OA
ATOM     27  H   UNL     1      14.642   4.717  29.002  1.00  0.00     0.211 HD
ENDBRANCH  21  26
BRANCH  23  28
ATOM     28  O   UNL     1      14.124   8.285  30.332  1.00  0.00    -0.387 OA
ATOM     29  H   UNL     1      13.931   7.704  31.113  1.00  0.00     0.211 HD
ENDBRANCH  23  28
BRANCH  24  30
ATOM     30  C   UNL     1       9.747   8.022  28.052  1.00  0.00     0.191 C 
BRANCH  30  31
ATOM     31  O   UNL     1       9.433   8.809  29.171  1.00  0.00    -0.394 OA
ATOM     32  H   UNL     1       8.944   8.223  29.805  1.00  0.00     0.210 HD
ENDBRANCH  30  31
ENDBRANCH  24  30
BRANCH  25  33
ATOM     33  O   UNL     1      12.039   9.650  28.900  1.00  0.00    -0.388 OA
ATOM     34  H   UNL     1      12.689   9.777  28.160  1.00  0.00     0.211 HD
ENDBRANCH  25  33
ENDBRANCH  11  20
BRANCH  10  35
ATOM     35  O   UNL     1      10.160   4.223  29.248  1.00  0.00    -0.507 OA
ATOM     36  H   UNL     1      10.253   5.134  29.685  1.00  0.00     0.293 HD
ENDBRANCH  10  35
TORSDOF 9
ENDMDL
