MODEL 1
REMARK VINA RESULT:    -4.209      0.000      0.000
REMARK INTER + INTRA:          -8.010
REMARK INTER:                  -7.162
REMARK INTRA:                  -0.848
REMARK UNBOUND:                -0.848
REMARK SMILES CCCCCCCCCCCCCC(=O)[O-]
REMARK SMILES IDX 8 1 9 2 10 3 11 4 12 5 13 6 14 7 15 8 16 9 7 10 6 11 5 12
REMARK SMILES IDX 4 13 3 14 2 15 1 16
REMARK H PARENT
REMARK Flexibility Score: inf
ROOT
ATOM      1  C   UNL     1      26.335  -0.160  43.243  1.00  0.00     0.000 C 
ENDROOT
BRANCH   1   2
ATOM      2  C   UNL     1      26.671   1.010  44.181  1.00  0.00     0.000 C 
BRANCH   2   3
ATOM      3  C   UNL     1      26.548   2.352  43.450  1.00  0.00     0.000 C 
BRANCH   3   4
ATOM      4  C   UNL     1      25.410   2.315  42.420  1.00  0.00     0.000 C 
BRANCH   4   5
ATOM      5  C   UNL     1      25.844   2.821  41.031  1.00  0.00     0.006 C 
BRANCH   5   6
ATOM      6  C   UNL     1      26.335   1.716  40.081  1.00  0.00     0.053 C 
BRANCH   6   7
ATOM      7  C   UNL     1      25.593   1.724  38.780  1.00  0.00     0.041 C 
ATOM      8  O   UNL     1      26.006   1.035  37.810  1.00  0.00    -0.550 OA
ATOM      9  O   UNL     1      24.463   2.519  38.627  1.00  0.00    -0.550 OA
ENDBRANCH   6   7
ENDBRANCH   5   6
ENDBRANCH   4   5
ENDBRANCH   3   4
ENDBRANCH   2   3
ENDBRANCH   1   2
BRANCH   1  10
ATOM     10  C   UNL     1      27.491  -1.166  43.102  1.00  0.00     0.000 C 
BRANCH  10  11
ATOM     11  C   UNL     1      28.053  -1.701  44.432  1.00  0.00    -0.000 C 
BRANCH  11  12
ATOM     12  C   UNL     1      27.733  -3.180  44.726  1.00  0.00    -0.000 C 
BRANCH  12  13
ATOM     13  C   UNL     1      27.125  -3.934  43.524  1.00  0.00    -0.000 C 
BRANCH  13  14
ATOM     14  C   UNL     1      25.654  -4.319  43.757  1.00  0.00    -0.000 C 
BRANCH  14  15
ATOM     15  C   UNL     1      25.502  -5.684  44.446  1.00  0.00    -0.003 C 
ATOM     16  C   UNL     1      25.407  -5.572  45.968  1.00  0.00     0.004 C 
ENDBRANCH  14  15
ENDBRANCH  13  14
ENDBRANCH  12  13
ENDBRANCH  11  12
ENDBRANCH  10  11
ENDBRANCH   1  10
TORSDOF 12
ENDMDL
MODEL 2
REMARK VINA RESULT:    -4.207      2.591      5.029
REMARK INTER + INTRA:          -8.006
REMARK INTER:                  -6.542
REMARK INTRA:                  -1.464
REMARK UNBOUND:                -0.848
REMARK SMILES CCCCCCCCCCCCCC(=O)[O-]
REMARK SMILES IDX 8 1 9 2 10 3 11 4 12 5 13 6 14 7 15 8 16 9 7 10 6 11 5 12
REMARK SMILES IDX 4 13 3 14 2 15 1 16
REMARK H PARENT
REMARK Flexibility Score: inf
ROOT
ATOM      1  C   UNL     1      25.770  -4.604  43.903  1.00  0.00     0.000 C 
ENDROOT
BRANCH   1   2
ATOM      2  C   UNL     1      27.119  -4.777  43.187  1.00  0.00     0.000 C 
BRANCH   2   3
ATOM      3  C   UNL     1      27.870  -3.443  43.104  1.00  0.00     0.000 C 
BRANCH   3   4
ATOM      4  C   UNL     1      27.486  -2.521  44.271  1.00  0.00     0.000 C 
BRANCH   4   5
ATOM      5  C   UNL     1      27.644  -1.028  43.929  1.00  0.00     0.006 C 
BRANCH   5   6
ATOM      6  C   UNL     1      26.445  -0.420  43.182  1.00  0.00     0.053 C 
BRANCH   6   7
ATOM      7  C   UNL     1      26.270   1.035  43.491  1.00  0.00     0.041 C 
ATOM      8  O   UNL     1      25.621   1.776  42.706  1.00  0.00    -0.550 OA
ATOM      9  O   UNL     1      26.852   1.581  44.629  1.00  0.00    -0.550 OA
ENDBRANCH   6   7
ENDBRANCH   5   6
ENDBRANCH   4   5
ENDBRANCH   3   4
ENDBRANCH   2   3
ENDBRANCH   1   2
BRANCH   1  10
ATOM     10  C   UNL     1      25.340  -5.859  44.683  1.00  0.00     0.000 C 
BRANCH  10  11
ATOM     11  C   UNL     1      25.337  -5.704  46.215  1.00  0.00    -0.000 C 
BRANCH  11  12
ATOM     12  C   UNL     1      26.582  -5.010  46.801  1.00  0.00    -0.000 C 
BRANCH  12  13
ATOM     13  C   UNL     1      27.771  -5.966  47.036  1.00  0.00    -0.000 C 
BRANCH  13  14
ATOM     14  C   UNL     1      28.881  -5.788  45.986  1.00  0.00    -0.000 C 
BRANCH  14  15
ATOM     15  C   UNL     1      30.163  -5.180  46.578  1.00  0.00    -0.003 C 
ATOM     16  C   UNL     1      30.093  -3.658  46.705  1.00  0.00     0.004 C 
ENDBRANCH  14  15
ENDBRANCH  13  14
ENDBRANCH  12  13
ENDBRANCH  11  12
ENDBRANCH  10  11
ENDBRANCH   1  10
TORSDOF 12
ENDMDL
MODEL 3
REMARK VINA RESULT:    -4.169      3.502      7.371
REMARK INTER + INTRA:          -7.942
REMARK INTER:                  -7.052
REMARK INTRA:                  -0.889
REMARK UNBOUND:                -0.848
REMARK SMILES CCCCCCCCCCCCCC(=O)[O-]
REMARK SMILES IDX 8 1 9 2 10 3 11 4 12 5 13 6 14 7 15 8 16 9 7 10 6 11 5 12
REMARK SMILES IDX 4 13 3 14 2 15 1 16
REMARK H PARENT
REMARK Flexibility Score: inf
ROOT
ATOM      1  C   UNL     1      26.415   0.243  42.692  1.00  0.00     0.000 C 
ENDROOT
BRANCH   1   2
ATOM      2  C   UNL     1      26.526  -0.906  43.706  1.00  0.00     0.000 C 
BRANCH   2   3
ATOM      3  C   UNL     1      27.891  -1.597  43.605  1.00  0.00     0.000 C 
BRANCH   3   4
ATOM      4  C   UNL     1      28.263  -2.275  44.932  1.00  0.00     0.000 C 
BRANCH   4   5
ATOM      5  C   UNL     1      28.161  -3.810  44.869  1.00  0.00     0.006 C 
BRANCH   5   6
ATOM      6  C   UNL     1      27.189  -4.422  45.891  1.00  0.00     0.053 C 
BRANCH   6   7
ATOM      7  C   UNL     1      25.923  -4.897  45.247  1.00  0.00     0.041 C 
ATOM      8  O   UNL     1      25.152  -5.678  45.865  1.00  0.00    -0.550 OA
ATOM      9  O   UNL     1      25.611  -4.506  43.951  1.00  0.00    -0.550 OA
ENDBRANCH   6   7
ENDBRANCH   5   6
ENDBRANCH   4   5
ENDBRANCH   3   4
ENDBRANCH   2   3
ENDBRANCH   1   2
BRANCH   1  10
ATOM     10  C   UNL     1      25.941   1.561  43.329  1.00  0.00     0.000 C 
BRANCH  10  11
ATOM     11  C   UNL     1      26.051   2.799  42.419  1.00  0.00    -0.000 C 
BRANCH  11  12
ATOM     12  C   UNL     1      24.864   3.009  41.459  1.00  0.00    -0.000 C 
BRANCH  12  13
ATOM     13  C   UNL     1      25.147   2.550  40.013  1.00  0.00    -0.000 C 
BRANCH  13  14
ATOM     14  C   UNL     1      26.646   2.588  39.669  1.00  0.00    -0.000 C 
BRANCH  14  15
ATOM     15  C   UNL     1      27.069   1.440  38.738  1.00  0.00    -0.003 C 
ATOM     16  C   UNL     1      25.903   0.528  38.356  1.00  0.00     0.004 C 
ENDBRANCH  14  15
ENDBRANCH  13  14
ENDBRANCH  12  13
ENDBRANCH  11  12
ENDBRANCH  10  11
ENDBRANCH   1  10
TORSDOF 12
ENDMDL
MODEL 4
REMARK VINA RESULT:    -4.165      4.221      7.479
REMARK INTER + INTRA:          -7.934
REMARK INTER:                  -6.824
REMARK INTRA:                  -1.110
REMARK UNBOUND:                -0.848
REMARK SMILES CCCCCCCCCCCCCC(=O)[O-]
REMARK SMILES IDX 8 1 9 2 10 3 11 4 12 5 13 6 14 7 15 8 16 9 7 10 6 11 5 12
REMARK SMILES IDX 4 13 3 14 2 15 1 16
REMARK H PARENT
REMARK Flexibility Score: inf
ROOT
ATOM      1  C   UNL     1      26.276   0.534  43.928  1.00  0.00     0.000 C 
ENDROOT
BRANCH   1   2
ATOM      2  C   UNL     1      26.404  -0.757  43.105  1.00  0.00     0.000 C 
BRANCH   2   3
ATOM      3  C   UNL     1      27.844  -1.283  43.130  1.00  0.00     0.000 C 
BRANCH   3   4
ATOM      4  C   UNL     1      28.202  -1.841  44.516  1.00  0.00     0.000 C 
BRANCH   4   5
ATOM      5  C   UNL     1      27.527  -3.194  44.808  1.00  0.00     0.006 C 
BRANCH   5   6
ATOM      6  C   UNL     1      27.922  -3.820  46.155  1.00  0.00     0.053 C 
BRANCH   6   7
ATOM      7  C   UNL     1      29.368  -4.208  46.192  1.00  0.00     0.041 C 
ATOM      8  O   UNL     1      29.762  -5.246  45.597  1.00  0.00    -0.550 OA
ATOM      9  O   UNL     1      30.277  -3.441  46.911  1.00  0.00    -0.550 OA
ENDBRANCH   6   7
ENDBRANCH   5   6
ENDBRANCH   4   5
ENDBRANCH   3   4
ENDBRANCH   2   3
ENDBRANCH   1   2
BRANCH   1  10
ATOM     10  C   UNL     1      25.622   1.684  43.142  1.00  0.00     0.000 C 
BRANCH  10  11
ATOM     11  C   UNL     1      26.543   2.887  42.862  1.00  0.00    -0.000 C 
BRANCH  11  12
ATOM     12  C   UNL     1      26.165   3.721  41.622  1.00  0.00    -0.000 C 
BRANCH  12  13
ATOM     13  C   UNL     1      25.588   2.881  40.463  1.00  0.00    -0.000 C 
BRANCH  13  14
ATOM     14  C   UNL     1      26.688   2.262  39.584  1.00  0.00    -0.000 C 
BRANCH  14  15
ATOM     15  C   UNL     1      26.610   0.727  39.534  1.00  0.00    -0.003 C 
ATOM     16  C   UNL     1      27.983   0.070  39.385  1.00  0.00     0.004 C 
ENDBRANCH  14  15
ENDBRANCH  13  14
ENDBRANCH  12  13
ENDBRANCH  11  12
ENDBRANCH  10  11
ENDBRANCH   1  10
TORSDOF 12
ENDMDL
MODEL 5
REMARK VINA RESULT:    -4.153      1.562      2.826
REMARK INTER + INTRA:          -7.914
REMARK INTER:                  -6.954
REMARK INTRA:                  -0.961
REMARK UNBOUND:                -0.848
REMARK SMILES CCCCCCCCCCCCCC(=O)[O-]
REMARK SMILES IDX 8 1 9 2 10 3 11 4 12 5 13 6 14 7 15 8 16 9 7 10 6 11 5 12
REMARK SMILES IDX 4 13 3 14 2 15 1 16
REMARK H PARENT
REMARK Flexibility Score: inf
ROOT
ATOM      1  C   UNL     1      27.937  -2.224  44.727  1.00  0.00     0.000 C 
ENDROOT
BRANCH   1   2
ATOM      2  C   UNL     1      27.874  -1.634  43.310  1.00  0.00     0.000 C 
BRANCH   2   3
ATOM      3  C   UNL     1      26.625  -0.762  43.133  1.00  0.00     0.000 C 
BRANCH   3   4
ATOM      4  C   UNL     1      26.664   0.450  44.075  1.00  0.00     0.000 C 
BRANCH   4   5
ATOM      5  C   UNL     1      26.103   1.730  43.426  1.00  0.00     0.006 C 
BRANCH   5   6
ATOM      6  C   UNL     1      26.005   1.670  41.892  1.00  0.00     0.053 C 
BRANCH   6   7
ATOM      7  C   UNL     1      25.869   3.032  41.285  1.00  0.00     0.041 C 
ATOM      8  O   UNL     1      26.711   3.436  40.440  1.00  0.00    -0.550 OA
ATOM      9  O   UNL     1      24.831   3.869  41.676  1.00  0.00    -0.550 OA
ENDBRANCH   6   7
ENDBRANCH   5   6
ENDBRANCH   4   5
ENDBRANCH   3   4
ENDBRANCH   2   3
ENDBRANCH   1   2
BRANCH   1  10
ATOM     10  C   UNL     1      28.106  -3.754  44.733  1.00  0.00     0.000 C 
BRANCH  10  11
ATOM     11  C   UNL     1      27.305  -4.501  43.650  1.00  0.00    -0.000 C 
BRANCH  11  12
ATOM     12  C   UNL     1      25.780  -4.529  43.872  1.00  0.00    -0.000 C 
BRANCH  12  13
ATOM     13  C   UNL     1      25.211  -5.947  44.094  1.00  0.00    -0.000 C 
BRANCH  13  14
ATOM     14  C   UNL     1      25.709  -6.578  45.405  1.00  0.00    -0.000 C 
BRANCH  14  15
ATOM     15  C   UNL     1      25.041  -5.966  46.647  1.00  0.00    -0.003 C 
ATOM     16  C   UNL     1      26.024  -5.195  47.529  1.00  0.00     0.004 C 
ENDBRANCH  14  15
ENDBRANCH  13  14
ENDBRANCH  12  13
ENDBRANCH  11  12
ENDBRANCH  10  11
ENDBRANCH   1  10
TORSDOF 12
ENDMDL
MODEL 6
REMARK VINA RESULT:    -4.136      6.183      8.046
REMARK INTER + INTRA:          -7.885
REMARK INTER:                  -6.431
REMARK INTRA:                  -1.454
REMARK UNBOUND:                -0.848
REMARK SMILES CCCCCCCCCCCCCC(=O)[O-]
REMARK SMILES IDX 8 1 9 2 10 3 11 4 12 5 13 6 14 7 15 8 16 9 7 10 6 11 5 12
REMARK SMILES IDX 4 13 3 14 2 15 1 16
REMARK H PARENT
REMARK Flexibility Score: inf
ROOT
ATOM      1  C   UNL     1      22.243  -4.089  36.171  1.00  0.00     0.000 C 
ENDROOT
BRANCH   1   2
ATOM      2  C   UNL     1      23.026  -2.907  36.763  1.00  0.00     0.000 C 
BRANCH   2   3
ATOM      3  C   UNL     1      24.232  -2.554  35.886  1.00  0.00     0.000 C 
BRANCH   3   4
ATOM      4  C   UNL     1      25.350  -1.911  36.720  1.00  0.00     0.000 C 
BRANCH   4   5
ATOM      5  C   UNL     1      25.034  -0.458  37.124  1.00  0.00     0.006 C 
BRANCH   5   6
ATOM      6  C   UNL     1      26.022   0.147  38.135  1.00  0.00     0.053 C 
BRANCH   6   7
ATOM      7  C   UNL     1      25.728   1.588  38.414  1.00  0.00     0.041 C 
ATOM      8  O   UNL     1      24.561   2.038  38.265  1.00  0.00    -0.550 OA
ATOM      9  O   UNL     1      26.750   2.444  38.806  1.00  0.00    -0.550 OA
ENDBRANCH   6   7
ENDBRANCH   5   6
ENDBRANCH   4   5
ENDBRANCH   3   4
ENDBRANCH   2   3
ENDBRANCH   1   2
BRANCH   1  10
ATOM     10  C   UNL     1      22.874  -4.641  34.880  1.00  0.00     0.000 C 
BRANCH  10  11
ATOM     11  C   UNL     1      22.944  -6.177  34.796  1.00  0.00    -0.000 C 
BRANCH  11  12
ATOM     12  C   UNL     1      24.360  -6.772  34.920  1.00  0.00    -0.000 C 
BRANCH  12  13
ATOM     13  C   UNL     1      24.933  -6.716  36.353  1.00  0.00    -0.000 C 
BRANCH  13  14
ATOM     14  C   UNL     1      26.106  -5.728  36.476  1.00  0.00    -0.000 C 
BRANCH  14  15
ATOM     15  C   UNL     1      26.604  -5.229  35.110  1.00  0.00    -0.003 C 
ATOM     16  C   UNL     1      27.852  -4.352  35.220  1.00  0.00     0.004 C 
ENDBRANCH  14  15
ENDBRANCH  13  14
ENDBRANCH  12  13
ENDBRANCH  11  12
ENDBRANCH  10  11
ENDBRANCH   1  10
TORSDOF 12
ENDMDL
MODEL 7
REMARK VINA RESULT:    -4.131      7.739      9.458
REMARK INTER + INTRA:          -7.877
REMARK INTER:                  -6.460
REMARK INTRA:                  -1.417
REMARK UNBOUND:                -0.848
REMARK SMILES CCCCCCCCCCCCCC(=O)[O-]
REMARK SMILES IDX 8 1 9 2 10 3 11 4 12 5 13 6 14 7 15 8 16 9 7 10 6 11 5 12
REMARK SMILES IDX 4 13 3 14 2 15 1 16
REMARK H PARENT
REMARK Flexibility Score: inf
ROOT
ATOM      1  C   UNL     1      26.326  -5.422  36.395  1.00  0.00     0.000 C 
ENDROOT
BRANCH   1   2
ATOM      2  C   UNL     1      26.883  -4.837  35.088  1.00  0.00     0.000 C 
BRANCH   2   3
ATOM      3  C   UNL     1      27.928  -3.753  35.374  1.00  0.00     0.000 C 
BRANCH   3   4
ATOM      4  C   UNL     1      27.952  -3.392  36.867  1.00  0.00     0.000 C 
BRANCH   4   5
ATOM      5  C   UNL     1      29.380  -3.193  37.411  1.00  0.00     0.006 C 
BRANCH   5   6
ATOM      6  C   UNL     1      30.457  -3.053  36.323  1.00  0.00     0.053 C 
BRANCH   6   7
ATOM      7  C   UNL     1      31.510  -4.112  36.436  1.00  0.00     0.041 C 
ATOM      8  O   UNL     1      31.602  -4.806  37.483  1.00  0.00    -0.550 OA
ATOM      9  O   UNL     1      32.413  -4.310  35.399  1.00  0.00    -0.550 OA
ENDBRANCH   6   7
ENDBRANCH   5   6
ENDBRANCH   4   5
ENDBRANCH   3   4
ENDBRANCH   2   3
ENDBRANCH   1   2
BRANCH   1  10
ATOM     10  C   UNL     1      25.184  -6.428  36.162  1.00  0.00     0.000 C 
BRANCH  10  11
ATOM     11  C   UNL     1      24.704  -6.541  34.704  1.00  0.00    -0.000 C 
BRANCH  11  12
ATOM     12  C   UNL     1      23.220  -6.190  34.477  1.00  0.00    -0.000 C 
BRANCH  12  13
ATOM     13  C   UNL     1      22.526  -5.601  35.724  1.00  0.00    -0.000 C 
BRANCH  13  14
ATOM     14  C   UNL     1      22.224  -4.101  35.573  1.00  0.00    -0.000 C 
BRANCH  14  15
ATOM     15  C   UNL     1      22.896  -3.249  36.662  1.00  0.00    -0.003 C 
ATOM     16  C   UNL     1      24.115  -2.484  36.147  1.00  0.00     0.004 C 
ENDBRANCH  14  15
ENDBRANCH  13  14
ENDBRANCH  12  13
ENDBRANCH  11  12
ENDBRANCH  10  11
ENDBRANCH   1  10
TORSDOF 12
ENDMDL
MODEL 8
REMARK VINA RESULT:    -4.114      7.627      9.662
REMARK INTER + INTRA:          -7.848
REMARK INTER:                  -6.287
REMARK INTRA:                  -1.561
REMARK UNBOUND:                -0.848
REMARK SMILES CCCCCCCCCCCCCC(=O)[O-]
REMARK SMILES IDX 8 1 9 2 10 3 11 4 12 5 13 6 14 7 15 8 16 9 7 10 6 11 5 12
REMARK SMILES IDX 4 13 3 14 2 15 1 16
REMARK H PARENT
REMARK Flexibility Score: inf
ROOT
ATOM      1  C   UNL     1      24.827  -6.613  36.326  1.00  0.00     0.000 C 
ENDROOT
BRANCH   1   2
ATOM      2  C   UNL     1      26.247  -6.064  36.119  1.00  0.00     0.000 C 
BRANCH   2   3
ATOM      3  C   UNL     1      26.445  -5.583  34.677  1.00  0.00     0.000 C 
BRANCH   3   4
ATOM      4  C   UNL     1      27.927  -5.638  34.277  1.00  0.00     0.000 C 
BRANCH   4   5
ATOM      5  C   UNL     1      28.836  -4.857  35.245  1.00  0.00     0.006 C 
BRANCH   5   6
ATOM      6  C   UNL     1      29.134  -3.414  34.807  1.00  0.00     0.053 C 
BRANCH   6   7
ATOM      7  C   UNL     1      30.321  -2.844  35.520  1.00  0.00     0.041 C 
ATOM      8  O   UNL     1      31.302  -2.402  34.865  1.00  0.00    -0.550 OA
ATOM      9  O   UNL     1      30.359  -2.831  36.909  1.00  0.00    -0.550 OA
ENDBRANCH   6   7
ENDBRANCH   5   6
ENDBRANCH   4   5
ENDBRANCH   3   4
ENDBRANCH   2   3
ENDBRANCH   1   2
BRANCH   1  10
ATOM     10  C   UNL     1      24.054  -6.787  35.006  1.00  0.00     0.000 C 
BRANCH  10  11
ATOM     11  C   UNL     1      22.748  -5.977  34.906  1.00  0.00    -0.000 C 
BRANCH  11  12
ATOM     12  C   UNL     1      22.323  -5.264  36.206  1.00  0.00    -0.000 C 
BRANCH  12  13
ATOM     13  C   UNL     1      22.166  -3.736  36.051  1.00  0.00    -0.000 C 
BRANCH  13  14
ATOM     14  C   UNL     1      23.324  -2.960  36.700  1.00  0.00    -0.000 C 
BRANCH  14  15
ATOM     15  C   UNL     1      24.448  -2.633  35.703  1.00  0.00    -0.003 C 
ATOM     16  C   UNL     1      25.803  -2.435  36.383  1.00  0.00     0.004 C 
ENDBRANCH  14  15
ENDBRANCH  13  14
ENDBRANCH  12  13
ENDBRANCH  11  12
ENDBRANCH  10  11
ENDBRANCH   1  10
TORSDOF 12
ENDMDL
MODEL 9
REMARK VINA RESULT:    -4.087      6.500      9.054
REMARK INTER + INTRA:          -7.801
REMARK INTER:                  -6.516
REMARK INTRA:                  -1.285
REMARK UNBOUND:                -0.848
REMARK SMILES CCCCCCCCCCCCCC(=O)[O-]
REMARK SMILES IDX 8 1 9 2 10 3 11 4 12 5 13 6 14 7 15 8 16 9 7 10 6 11 5 12
REMARK SMILES IDX 4 13 3 14 2 15 1 16
REMARK H PARENT
REMARK Flexibility Score: inf
ROOT
ATOM      1  C   UNL     1      25.404  -5.913  44.254  1.00  0.00     0.000 C 
ENDROOT
BRANCH   1   2
ATOM      2  C   UNL     1      25.367  -6.785  45.518  1.00  0.00     0.000 C 
BRANCH   2   3
ATOM      3  C   UNL     1      24.821  -5.996  46.714  1.00  0.00     0.000 C 
BRANCH   3   4
ATOM      4  C   UNL     1      25.868  -5.900  47.834  1.00  0.00     0.000 C 
BRANCH   4   5
ATOM      5  C   UNL     1      25.369  -5.099  49.051  1.00  0.00     0.006 C 
BRANCH   5   6
ATOM      6  C   UNL     1      24.728  -5.958  50.154  1.00  0.00     0.053 C 
BRANCH   6   7
ATOM      7  C   UNL     1      23.309  -5.562  50.422  1.00  0.00     0.041 C 
ATOM      8  O   UNL     1      22.812  -4.558  49.846  1.00  0.00    -0.550 OA
ATOM      9  O   UNL     1      22.545  -6.280  51.333  1.00  0.00    -0.550 OA
ENDBRANCH   6   7
ENDBRANCH   5   6
ENDBRANCH   4   5
ENDBRANCH   3   4
ENDBRANCH   2   3
ENDBRANCH   1   2
BRANCH   1  10
ATOM     10  C   UNL     1      26.753  -5.983  43.516  1.00  0.00     0.000 C 
BRANCH  10  11
ATOM     11  C   UNL     1      27.584  -4.687  43.555  1.00  0.00    -0.000 C 
BRANCH  11  12
ATOM     12  C   UNL     1      27.155  -3.671  44.632  1.00  0.00    -0.000 C 
BRANCH  12  13
ATOM     13  C   UNL     1      28.101  -3.623  45.851  1.00  0.00    -0.000 C 
BRANCH  13  14
ATOM     14  C   UNL     1      28.936  -4.908  45.995  1.00  0.00    -0.000 C 
BRANCH  14  15
ATOM     15  C   UNL     1      30.298  -4.656  46.661  1.00  0.00    -0.003 C 
ATOM     16  C   UNL     1      30.540  -3.179  46.975  1.00  0.00     0.004 C 
ENDBRANCH  14  15
ENDBRANCH  13  14
ENDBRANCH  12  13
ENDBRANCH  11  12
ENDBRANCH  10  11
ENDBRANCH   1  10
TORSDOF 12
ENDMDL
