MODEL 1
REMARK VINA RESULT:    -3.417      0.000      0.000
REMARK INTER + INTRA:          -8.489
REMARK INTER:                  -6.214
REMARK INTRA:                  -2.275
REMARK UNBOUND:                -2.275
REMARK SMILES CCCCCCCCCCCCCCCC(=O)[O-]
REMARK SMILES IDX 9 1 10 2 11 3 12 4 13 5 14 6 15 7 16 8 17 9 18 10 8 11 7 12
REMARK SMILES IDX 6 13 5 14 4 15 3 16 2 17 1 18
REMARK H PARENT
REMARK Flexibility Score: inf
ROOT
ATOM      1  C   UNL     1      61.587  31.832  59.399  1.00  0.00     0.000 C 
ENDROOT
BRANCH   1   2
ATOM      2  C   UNL     1      61.166  32.073  60.854  1.00  0.00     0.000 C 
BRANCH   2   3
ATOM      3  C   UNL     1      60.940  30.743  61.589  1.00  0.00     0.000 C 
BRANCH   3   4
ATOM      4  C   UNL     1      61.100  29.521  60.669  1.00  0.00     0.000 C 
BRANCH   4   5
ATOM      5  C   UNL     1      62.203  28.562  61.148  1.00  0.00     0.000 C 
BRANCH   5   6
ATOM      6  C   UNL     1      63.609  29.190  61.086  1.00  0.00     0.006 C 
BRANCH   6   7
ATOM      7  C   UNL     1      64.288  29.065  59.711  1.00  0.00     0.053 C 
BRANCH   7   8
ATOM      8  C   UNL     1      65.702  29.557  59.719  1.00  0.00     0.041 C 
ATOM      9  O   UNL     1      66.061  30.472  58.929  1.00  0.00    -0.550 OA
ATOM     10  O   UNL     1      66.627  29.004  60.596  1.00  0.00    -0.550 OA
ENDBRANCH   7   8
ENDBRANCH   6   7
ENDBRANCH   5   6
ENDBRANCH   4   5
ENDBRANCH   3   4
ENDBRANCH   2   3
ENDBRANCH   1   2
BRANCH   1  11
ATOM     11  C   UNL     1      62.901  32.561  59.078  1.00  0.00     0.000 C 
BRANCH  11  12
ATOM     12  C   UNL     1      63.789  32.761  60.317  1.00  0.00    -0.000 C 
BRANCH  12  13
ATOM     13  C   UNL     1      64.510  34.121  60.313  1.00  0.00    -0.000 C 
BRANCH  13  14
ATOM     14  C   UNL     1      64.346  34.880  61.639  1.00  0.00    -0.000 C 
BRANCH  14  15
ATOM     15  C   UNL     1      63.809  36.306  61.446  1.00  0.00    -0.000 C 
BRANCH  15  16
ATOM     16  C   UNL     1      62.762  36.349  60.323  1.00  0.00    -0.000 C 
BRANCH  16  17
ATOM     17  C   UNL     1      61.366  35.917  60.800  1.00  0.00    -0.003 C 
ATOM     18  C   UNL     1      60.433  35.554  59.644  1.00  0.00     0.004 C 
ENDBRANCH  16  17
ENDBRANCH  15  16
ENDBRANCH  14  15
ENDBRANCH  13  14
ENDBRANCH  12  13
ENDBRANCH  11  12
ENDBRANCH   1  11
TORSDOF 14
ENDMDL
MODEL 2
REMARK VINA RESULT:    -3.261      1.461      2.288
REMARK INTER + INTRA:          -8.204
REMARK INTER:                  -6.176
REMARK INTRA:                  -2.028
REMARK UNBOUND:                -2.275
REMARK SMILES CCCCCCCCCCCCCCCC(=O)[O-]
REMARK SMILES IDX 9 1 10 2 11 3 12 4 13 5 14 6 15 7 16 8 17 9 18 10 8 11 7 12
REMARK SMILES IDX 6 13 5 14 4 15 3 16 2 17 1 18
REMARK H PARENT
REMARK Flexibility Score: inf
ROOT
ATOM      1  C   UNL     1      60.873  31.577  58.834  1.00  0.00     0.000 C 
ENDROOT
BRANCH   1   2
ATOM      2  C   UNL     1      60.463  30.436  59.774  1.00  0.00     0.000 C 
BRANCH   2   3
ATOM      3  C   UNL     1      60.918  30.720  61.214  1.00  0.00     0.000 C 
BRANCH   3   4
ATOM      4  C   UNL     1      62.089  29.825  61.654  1.00  0.00     0.000 C 
BRANCH   4   5
ATOM      5  C   UNL     1      61.948  28.378  61.149  1.00  0.00     0.000 C 
BRANCH   5   6
ATOM      6  C   UNL     1      63.253  27.827  60.543  1.00  0.00     0.006 C 
BRANCH   6   7
ATOM      7  C   UNL     1      64.460  28.768  60.701  1.00  0.00     0.053 C 
BRANCH   7   8
ATOM      8  C   UNL     1      65.769  28.055  60.560  1.00  0.00     0.041 C 
ATOM      9  O   UNL     1      66.783  28.456  61.193  1.00  0.00    -0.550 OA
ATOM     10  O   UNL     1      65.874  26.949  59.725  1.00  0.00    -0.550 OA
ENDBRANCH   7   8
ENDBRANCH   6   7
ENDBRANCH   5   6
ENDBRANCH   4   5
ENDBRANCH   3   4
ENDBRANCH   2   3
ENDBRANCH   1   2
BRANCH   1  11
ATOM     11  C   UNL     1      62.250  31.309  58.209  1.00  0.00     0.000 C 
BRANCH  11  12
ATOM     12  C   UNL     1      63.244  32.459  58.441  1.00  0.00    -0.000 C 
BRANCH  12  13
ATOM     13  C   UNL     1      64.171  32.206  59.643  1.00  0.00    -0.000 C 
BRANCH  13  14
ATOM     14  C   UNL     1      63.779  33.035  60.876  1.00  0.00    -0.000 C 
BRANCH  14  15
ATOM     15  C   UNL     1      62.765  34.142  60.551  1.00  0.00    -0.000 C 
BRANCH  15  16
ATOM     16  C   UNL     1      63.235  35.494  61.108  1.00  0.00    -0.000 C 
BRANCH  16  17
ATOM     17  C   UNL     1      64.606  35.406  61.796  1.00  0.00    -0.003 C 
ATOM     18  C   UNL     1      65.725  36.040  60.969  1.00  0.00     0.004 C 
ENDBRANCH  16  17
ENDBRANCH  15  16
ENDBRANCH  14  15
ENDBRANCH  13  14
ENDBRANCH  12  13
ENDBRANCH  11  12
ENDBRANCH   1  11
TORSDOF 14
ENDMDL
MODEL 3
REMARK VINA RESULT:    -3.242      1.316      2.647
REMARK INTER + INTRA:          -8.171
REMARK INTER:                  -6.007
REMARK INTRA:                  -2.164
REMARK UNBOUND:                -2.275
REMARK SMILES CCCCCCCCCCCCCCCC(=O)[O-]
REMARK SMILES IDX 9 1 10 2 11 3 12 4 13 5 14 6 15 7 16 8 17 9 18 10 8 11 7 12
REMARK SMILES IDX 6 13 5 14 4 15 3 16 2 17 1 18
REMARK H PARENT
REMARK Flexibility Score: inf
ROOT
ATOM      1  C   UNL     1      60.998  33.726  58.943  1.00  0.00     0.000 C 
ENDROOT
BRANCH   1   2
ATOM      2  C   UNL     1      61.142  32.254  59.349  1.00  0.00     0.000 C 
BRANCH   2   3
ATOM      3  C   UNL     1      61.305  32.117  60.870  1.00  0.00     0.000 C 
BRANCH   3   4
ATOM      4  C   UNL     1      60.766  30.781  61.407  1.00  0.00     0.000 C 
BRANCH   4   5
ATOM      5  C   UNL     1      61.699  29.599  61.090  1.00  0.00     0.000 C 
BRANCH   5   6
ATOM      6  C   UNL     1      63.175  29.898  61.417  1.00  0.00     0.006 C 
BRANCH   6   7
ATOM      7  C   UNL     1      64.108  29.843  60.195  1.00  0.00     0.053 C 
BRANCH   7   8
ATOM      8  C   UNL     1      64.336  28.446  59.705  1.00  0.00     0.041 C 
ATOM      9  O   UNL     1      64.088  28.145  58.507  1.00  0.00    -0.550 OA
ATOM     10  O   UNL     1      64.818  27.474  60.573  1.00  0.00    -0.550 OA
ENDBRANCH   7   8
ENDBRANCH   6   7
ENDBRANCH   5   6
ENDBRANCH   4   5
ENDBRANCH   3   4
ENDBRANCH   2   3
ENDBRANCH   1   2
BRANCH   1  11
ATOM     11  C   UNL     1      60.811  34.622  60.176  1.00  0.00     0.000 C 
BRANCH  11  12
ATOM     12  C   UNL     1      61.508  35.985  60.034  1.00  0.00    -0.000 C 
BRANCH  12  13
ATOM     13  C   UNL     1      62.373  36.336  61.257  1.00  0.00    -0.000 C 
BRANCH  13  14
ATOM     14  C   UNL     1      63.878  36.225  60.967  1.00  0.00    -0.000 C 
BRANCH  14  15
ATOM     15  C   UNL     1      64.510  34.964  61.576  1.00  0.00    -0.000 C 
BRANCH  15  16
ATOM     16  C   UNL     1      64.384  33.772  60.615  1.00  0.00    -0.000 C 
BRANCH  16  17
ATOM     17  C   UNL     1      64.678  34.154  59.157  1.00  0.00    -0.003 C 
ATOM     18  C   UNL     1      64.685  32.946  58.219  1.00  0.00     0.004 C 
ENDBRANCH  16  17
ENDBRANCH  15  16
ENDBRANCH  14  15
ENDBRANCH  13  14
ENDBRANCH  12  13
ENDBRANCH  11  12
ENDBRANCH   1  11
TORSDOF 14
ENDMDL
MODEL 4
REMARK VINA RESULT:    -3.222     10.306     12.264
REMARK INTER + INTRA:          -8.135
REMARK INTER:                  -5.726
REMARK INTRA:                  -2.409
REMARK UNBOUND:                -2.275
REMARK SMILES CCCCCCCCCCCCCCCC(=O)[O-]
REMARK SMILES IDX 9 1 10 2 11 3 12 4 13 5 14 6 15 7 16 8 17 9 18 10 8 11 7 12
REMARK SMILES IDX 6 13 5 14 4 15 3 16 2 17 1 18
REMARK H PARENT
REMARK Flexibility Score: inf
ROOT
ATOM      1  C   UNL     1      57.298  27.803  53.544  1.00  0.00     0.000 C 
ENDROOT
BRANCH   1   2
ATOM      2  C   UNL     1      57.003  29.286  53.286  1.00  0.00     0.000 C 
BRANCH   2   3
ATOM      3  C   UNL     1      58.138  29.942  52.486  1.00  0.00     0.000 C 
BRANCH   3   4
ATOM      4  C   UNL     1      59.050  28.914  51.797  1.00  0.00     0.000 C 
BRANCH   4   5
ATOM      5  C   UNL     1      59.079  29.082  50.267  1.00  0.00     0.000 C 
BRANCH   5   6
ATOM      6  C   UNL     1      59.791  27.917  49.552  1.00  0.00     0.006 C 
BRANCH   6   7
ATOM      7  C   UNL     1      60.422  26.890  50.508  1.00  0.00     0.053 C 
BRANCH   7   8
ATOM      8  C   UNL     1      61.904  26.771  50.329  1.00  0.00     0.041 C 
ATOM      9  O   UNL     1      62.569  27.738  49.870  1.00  0.00    -0.550 OA
ATOM     10  O   UNL     1      62.553  25.589  50.666  1.00  0.00    -0.550 OA
ENDBRANCH   7   8
ENDBRANCH   6   7
ENDBRANCH   5   6
ENDBRANCH   4   5
ENDBRANCH   3   4
ENDBRANCH   2   3
ENDBRANCH   1   2
BRANCH   1  11
ATOM     11  C   UNL     1      55.997  26.996  53.669  1.00  0.00     0.000 C 
BRANCH  11  12
ATOM     12  C   UNL     1      56.023  25.693  52.853  1.00  0.00    -0.000 C 
BRANCH  12  13
ATOM     13  C   UNL     1      57.046  25.735  51.704  1.00  0.00    -0.000 C 
BRANCH  13  14
ATOM     14  C   UNL     1      56.472  26.364  50.425  1.00  0.00    -0.000 C 
BRANCH  14  15
ATOM     15  C   UNL     1      55.003  25.985  50.183  1.00  0.00    -0.000 C 
BRANCH  15  16
ATOM     16  C   UNL     1      54.117  27.238  50.129  1.00  0.00    -0.000 C 
BRANCH  16  17
ATOM     17  C   UNL     1      54.878  28.517  50.510  1.00  0.00    -0.003 C 
ATOM     18  C   UNL     1      53.960  29.609  51.060  1.00  0.00     0.004 C 
ENDBRANCH  16  17
ENDBRANCH  15  16
ENDBRANCH  14  15
ENDBRANCH  13  14
ENDBRANCH  12  13
ENDBRANCH  11  12
ENDBRANCH   1  11
TORSDOF 14
ENDMDL
MODEL 5
REMARK VINA RESULT:    -3.222     11.419     13.254
REMARK INTER + INTRA:          -8.134
REMARK INTER:                  -5.658
REMARK INTRA:                  -2.476
REMARK UNBOUND:                -2.275
REMARK SMILES CCCCCCCCCCCCCCCC(=O)[O-]
REMARK SMILES IDX 9 1 10 2 11 3 12 4 13 5 14 6 15 7 16 8 17 9 18 10 8 11 7 12
REMARK SMILES IDX 6 13 5 14 4 15 3 16 2 17 1 18
REMARK H PARENT
REMARK Flexibility Score: inf
ROOT
ATOM      1  C   UNL     1      56.274  26.481  51.764  1.00  0.00     0.000 C 
ENDROOT
BRANCH   1   2
ATOM      2  C   UNL     1      56.117  26.273  50.253  1.00  0.00     0.000 C 
BRANCH   2   3
ATOM      3  C   UNL     1      54.670  25.900  49.896  1.00  0.00     0.000 C 
BRANCH   3   4
ATOM      4  C   UNL     1      53.635  26.741  50.659  1.00  0.00     0.000 C 
BRANCH   4   5
ATOM      5  C   UNL     1      53.407  28.122  50.018  1.00  0.00     0.000 C 
BRANCH   5   6
ATOM      6  C   UNL     1      53.469  29.273  51.040  1.00  0.00     0.006 C 
BRANCH   6   7
ATOM      7  C   UNL     1      53.434  28.807  52.506  1.00  0.00     0.053 C 
BRANCH   7   8
ATOM      8  C   UNL     1      54.370  29.582  53.380  1.00  0.00     0.041 C 
ATOM      9  O   UNL     1      54.772  30.724  53.026  1.00  0.00    -0.550 OA
ATOM     10  O   UNL     1      54.806  29.044  54.585  1.00  0.00    -0.550 OA
ENDBRANCH   7   8
ENDBRANCH   6   7
ENDBRANCH   5   6
ENDBRANCH   4   5
ENDBRANCH   3   4
ENDBRANCH   2   3
ENDBRANCH   1   2
BRANCH   1  11
ATOM     11  C   UNL     1      57.173  27.690  52.063  1.00  0.00     0.000 C 
BRANCH  11  12
ATOM     12  C   UNL     1      57.109  28.767  50.967  1.00  0.00    -0.000 C 
BRANCH  12  13
ATOM     13  C   UNL     1      58.491  29.356  50.635  1.00  0.00    -0.000 C 
BRANCH  13  14
ATOM     14  C   UNL     1      59.185  28.618  49.479  1.00  0.00    -0.000 C 
BRANCH  14  15
ATOM     15  C   UNL     1      60.484  27.922  49.912  1.00  0.00    -0.000 C 
BRANCH  15  16
ATOM     16  C   UNL     1      60.313  26.396  49.906  1.00  0.00    -0.000 C 
BRANCH  16  17
ATOM     17  C   UNL     1      60.268  25.800  51.322  1.00  0.00    -0.003 C 
ATOM     18  C   UNL     1      59.347  24.584  51.423  1.00  0.00     0.004 C 
ENDBRANCH  16  17
ENDBRANCH  15  16
ENDBRANCH  14  15
ENDBRANCH  13  14
ENDBRANCH  12  13
ENDBRANCH  11  12
ENDBRANCH   1  11
TORSDOF 14
ENDMDL
MODEL 6
REMARK VINA RESULT:    -3.181     11.254     13.077
REMARK INTER + INTRA:          -8.060
REMARK INTER:                  -6.175
REMARK INTRA:                  -1.885
REMARK UNBOUND:                -2.275
REMARK SMILES CCCCCCCCCCCCCCCC(=O)[O-]
REMARK SMILES IDX 9 1 10 2 11 3 12 4 13 5 14 6 15 7 16 8 17 9 18 10 8 11 7 12
REMARK SMILES IDX 6 13 5 14 4 15 3 16 2 17 1 18
REMARK H PARENT
REMARK Flexibility Score: inf
ROOT
ATOM      1  C   UNL     1      56.207  26.248  50.357  1.00  0.00     0.000 C 
ENDROOT
BRANCH   1   2
ATOM      2  C   UNL     1      57.346  26.247  51.384  1.00  0.00     0.000 C 
BRANCH   2   3
ATOM      3  C   UNL     1      57.813  27.679  51.688  1.00  0.00     0.000 C 
BRANCH   3   4
ATOM      4  C   UNL     1      57.924  28.548  50.425  1.00  0.00     0.000 C 
BRANCH   4   5
ATOM      5  C   UNL     1      59.343  29.106  50.215  1.00  0.00     0.000 C 
BRANCH   5   6
ATOM      6  C   UNL     1      60.278  28.108  49.505  1.00  0.00     0.006 C 
BRANCH   6   7
ATOM      7  C   UNL     1      61.437  27.606  50.383  1.00  0.00     0.053 C 
BRANCH   7   8
ATOM      8  C   UNL     1      61.518  26.112  50.432  1.00  0.00     0.041 C 
ATOM      9  O   UNL     1      62.623  25.542  50.642  1.00  0.00    -0.550 OA
ATOM     10  O   UNL     1      60.374  25.345  50.243  1.00  0.00    -0.550 OA
ENDBRANCH   7   8
ENDBRANCH   6   7
ENDBRANCH   5   6
ENDBRANCH   4   5
ENDBRANCH   3   4
ENDBRANCH   2   3
ENDBRANCH   1   2
BRANCH   1  11
ATOM     11  C   UNL     1      54.934  25.621  50.945  1.00  0.00     0.000 C 
BRANCH  11  12
ATOM     12  C   UNL     1      53.883  25.290  49.874  1.00  0.00    -0.000 C 
BRANCH  12  13
ATOM     13  C   UNL     1      52.976  26.489  49.545  1.00  0.00    -0.000 C 
BRANCH  13  14
ATOM     14  C   UNL     1      52.875  27.490  50.708  1.00  0.00    -0.000 C 
BRANCH  14  15
ATOM     15  C   UNL     1      53.105  28.942  50.265  1.00  0.00    -0.000 C 
BRANCH  15  16
ATOM     16  C   UNL     1      54.387  29.509  50.894  1.00  0.00    -0.000 C 
BRANCH  16  17
ATOM     17  C   UNL     1      54.505  29.184  52.391  1.00  0.00    -0.003 C 
ATOM     18  C   UNL     1      55.422  30.154  53.137  1.00  0.00     0.004 C 
ENDBRANCH  16  17
ENDBRANCH  15  16
ENDBRANCH  14  15
ENDBRANCH  13  14
ENDBRANCH  12  13
ENDBRANCH  11  12
ENDBRANCH   1  11
TORSDOF 14
ENDMDL
MODEL 7
REMARK VINA RESULT:    -3.103     11.401     12.969
REMARK INTER + INTRA:          -7.917
REMARK INTER:                  -6.191
REMARK INTRA:                  -1.726
REMARK UNBOUND:                -2.275
REMARK SMILES CCCCCCCCCCCCCCCC(=O)[O-]
REMARK SMILES IDX 9 1 10 2 11 3 12 4 13 5 14 6 15 7 16 8 17 9 18 10 8 11 7 12
REMARK SMILES IDX 6 13 5 14 4 15 3 16 2 17 1 18
REMARK H PARENT
REMARK Flexibility Score: inf
ROOT
ATOM      1  C   UNL     1      56.969  28.594  50.704  1.00  0.00     0.000 C 
ENDROOT
BRANCH   1   2
ATOM      2  C   UNL     1      58.295  29.263  51.088  1.00  0.00     0.000 C 
BRANCH   2   3
ATOM      3  C   UNL     1      59.206  29.423  49.862  1.00  0.00     0.000 C 
BRANCH   3   4
ATOM      4  C   UNL     1      59.839  28.096  49.415  1.00  0.00     0.000 C 
BRANCH   4   5
ATOM      5  C   UNL     1      61.015  27.671  50.313  1.00  0.00     0.000 C 
BRANCH   5   6
ATOM      6  C   UNL     1      61.230  26.145  50.334  1.00  0.00     0.006 C 
BRANCH   6   7
ATOM      7  C   UNL     1      60.092  25.363  51.013  1.00  0.00     0.053 C 
BRANCH   7   8
ATOM      8  C   UNL     1      60.313  23.883  50.987  1.00  0.00     0.041 C 
ATOM      9  O   UNL     1      61.129  23.377  50.170  1.00  0.00    -0.550 OA
ATOM     10  O   UNL     1      59.617  23.059  51.863  1.00  0.00    -0.550 OA
ENDBRANCH   7   8
ENDBRANCH   6   7
ENDBRANCH   5   6
ENDBRANCH   4   5
ENDBRANCH   3   4
ENDBRANCH   2   3
ENDBRANCH   1   2
BRANCH   1  11
ATOM     11  C   UNL     1      56.854  27.197  51.332  1.00  0.00     0.000 C 
BRANCH  11  12
ATOM     12  C   UNL     1      56.211  26.170  50.387  1.00  0.00    -0.000 C 
BRANCH  12  13
ATOM     13  C   UNL     1      54.742  25.880  50.740  1.00  0.00    -0.000 C 
BRANCH  13  14
ATOM     14  C   UNL     1      53.760  26.758  49.947  1.00  0.00    -0.000 C 
BRANCH  14  15
ATOM     15  C   UNL     1      53.005  27.758  50.836  1.00  0.00    -0.000 C 
BRANCH  15  16
ATOM     16  C   UNL     1      53.449  29.197  50.537  1.00  0.00    -0.000 C 
BRANCH  16  17
ATOM     17  C   UNL     1      53.555  30.060  51.804  1.00  0.00    -0.003 C 
ATOM     18  C   UNL     1      54.193  29.313  52.976  1.00  0.00     0.004 C 
ENDBRANCH  16  17
ENDBRANCH  15  16
ENDBRANCH  14  15
ENDBRANCH  13  14
ENDBRANCH  12  13
ENDBRANCH  11  12
ENDBRANCH   1  11
TORSDOF 14
ENDMDL
MODEL 8
REMARK VINA RESULT:    -3.102      2.663      5.732
REMARK INTER + INTRA:          -7.916
REMARK INTER:                  -5.457
REMARK INTRA:                  -2.459
REMARK UNBOUND:                -2.275
REMARK SMILES CCCCCCCCCCCCCCCC(=O)[O-]
REMARK SMILES IDX 9 1 10 2 11 3 12 4 13 5 14 6 15 7 16 8 17 9 18 10 8 11 7 12
REMARK SMILES IDX 6 13 5 14 4 15 3 16 2 17 1 18
REMARK H PARENT
REMARK Flexibility Score: inf
ROOT
ATOM      1  C   UNL     1      64.394  33.173  59.534  1.00  0.00     0.000 C 
ENDROOT
BRANCH   1   2
ATOM      2  C   UNL     1      63.659  33.628  60.801  1.00  0.00     0.000 C 
BRANCH   2   3
ATOM      3  C   UNL     1      63.868  35.130  61.048  1.00  0.00     0.000 C 
BRANCH   3   4
ATOM      4  C   UNL     1      62.544  35.907  61.130  1.00  0.00     0.000 C 
BRANCH   4   5
ATOM      5  C   UNL     1      61.364  35.131  60.518  1.00  0.00     0.000 C 
BRANCH   5   6
ATOM      6  C   UNL     1      60.936  35.680  59.143  1.00  0.00     0.006 C 
BRANCH   6   7
ATOM      7  C   UNL     1      61.472  34.867  57.953  1.00  0.00     0.053 C 
BRANCH   7   8
ATOM      8  C   UNL     1      62.614  35.544  57.260  1.00  0.00     0.041 C 
ATOM      9  O   UNL     1      63.149  36.567  57.766  1.00  0.00    -0.550 OA
ATOM     10  O   UNL     1      63.088  35.048  56.051  1.00  0.00    -0.550 OA
ENDBRANCH   7   8
ENDBRANCH   6   7
ENDBRANCH   5   6
ENDBRANCH   4   5
ENDBRANCH   3   4
ENDBRANCH   2   3
ENDBRANCH   1   2
BRANCH   1  11
ATOM     11  C   UNL     1      64.530  31.643  59.495  1.00  0.00     0.000 C 
BRANCH  11  12
ATOM     12  C   UNL     1      64.170  30.979  60.834  1.00  0.00    -0.000 C 
BRANCH  12  13
ATOM     13  C   UNL     1      63.955  29.461  60.702  1.00  0.00    -0.000 C 
BRANCH  13  14
ATOM     14  C   UNL     1      62.572  29.015  61.205  1.00  0.00    -0.000 C 
BRANCH  14  15
ATOM     15  C   UNL     1      61.686  30.195  61.633  1.00  0.00    -0.000 C 
BRANCH  15  16
ATOM     16  C   UNL     1      60.517  30.383  60.654  1.00  0.00    -0.000 C 
BRANCH  16  17
ATOM     17  C   UNL     1      60.722  31.578  59.711  1.00  0.00    -0.003 C 
ATOM     18  C   UNL     1      61.006  31.153  58.270  1.00  0.00     0.004 C 
ENDBRANCH  16  17
ENDBRANCH  15  16
ENDBRANCH  14  15
ENDBRANCH  13  14
ENDBRANCH  12  13
ENDBRANCH  11  12
ENDBRANCH   1  11
TORSDOF 14
ENDMDL
MODEL 9
REMARK VINA RESULT:    -3.055      2.154      2.876
REMARK INTER + INTRA:          -7.831
REMARK INTER:                  -5.552
REMARK INTRA:                  -2.279
REMARK UNBOUND:                -2.275
REMARK SMILES CCCCCCCCCCCCCCCC(=O)[O-]
REMARK SMILES IDX 9 1 10 2 11 3 12 4 13 5 14 6 15 7 16 8 17 9 18 10 8 11 7 12
REMARK SMILES IDX 6 13 5 14 4 15 3 16 2 17 1 18
REMARK H PARENT
REMARK Flexibility Score: inf
ROOT
ATOM      1  C   UNL     1      62.786  33.596  57.972  1.00  0.00     0.000 C 
ENDROOT
BRANCH   1   2
ATOM      2  C   UNL     1      62.490  32.110  58.211  1.00  0.00     0.000 C 
BRANCH   2   3
ATOM      3  C   UNL     1      61.005  31.799  57.972  1.00  0.00     0.000 C 
BRANCH   3   4
ATOM      4  C   UNL     1      60.264  31.416  59.263  1.00  0.00     0.000 C 
BRANCH   4   5
ATOM      5  C   UNL     1      61.063  31.770  60.530  1.00  0.00     0.000 C 
BRANCH   5   6
ATOM      6  C   UNL     1      61.044  30.645  61.583  1.00  0.00     0.006 C 
BRANCH   6   7
ATOM      7  C   UNL     1      62.244  29.686  61.491  1.00  0.00     0.053 C 
BRANCH   7   8
ATOM      8  C   UNL     1      61.849  28.308  61.058  1.00  0.00     0.041 C 
ATOM      9  O   UNL     1      60.766  28.122  60.441  1.00  0.00    -0.550 OA
ATOM     10  O   UNL     1      62.675  27.226  61.339  1.00  0.00    -0.550 OA
ENDBRANCH   7   8
ENDBRANCH   6   7
ENDBRANCH   5   6
ENDBRANCH   4   5
ENDBRANCH   3   4
ENDBRANCH   2   3
ENDBRANCH   1   2
BRANCH   1  11
ATOM     11  C   UNL     1      64.179  33.972  58.500  1.00  0.00     0.000 C 
BRANCH  11  12
ATOM     12  C   UNL     1      64.520  33.278  59.829  1.00  0.00    -0.000 C 
BRANCH  12  13
ATOM     13  C   UNL     1      63.919  34.003  61.046  1.00  0.00    -0.000 C 
BRANCH  13  14
ATOM     14  C   UNL     1      64.021  35.533  60.930  1.00  0.00    -0.000 C 
BRANCH  14  15
ATOM     15  C   UNL     1      62.741  36.250  61.387  1.00  0.00    -0.000 C 
BRANCH  15  16
ATOM     16  C   UNL     1      61.771  36.436  60.211  1.00  0.00    -0.000 C 
BRANCH  16  17
ATOM     17  C   UNL     1      60.571  35.479  60.277  1.00  0.00    -0.003 C 
ATOM     18  C   UNL     1      59.787  35.422  58.965  1.00  0.00     0.004 C 
ENDBRANCH  16  17
ENDBRANCH  15  16
ENDBRANCH  14  15
ENDBRANCH  13  14
ENDBRANCH  12  13
ENDBRANCH  11  12
ENDBRANCH   1  11
TORSDOF 14
ENDMDL
