MODEL 1
REMARK VINA RESULT:    -3.753      0.000      0.000
REMARK INTER + INTRA:          -4.264
REMARK INTER:                  -4.082
REMARK INTRA:                  -0.182
REMARK UNBOUND:                -0.182
REMARK SMILES C=C(C)[C@@H]1CC[C@@H](C)C[C@@H]1O
REMARK SMILES IDX 8 1 7 2 6 3 5 4 4 5 10 6 9 7 11 8 2 10 1 11 3 12
REMARK H PARENT 11 9
REMARK Flexibility Score: inf
ROOT
ATOM      1  C   UNL     1       9.905  -0.568  24.265  1.00  0.00     0.008 C 
ATOM      2  C   UNL     1       8.628  -1.333  24.628  1.00  0.00    -0.012 C 
ATOM      3  C   UNL     1       8.612  -2.713  23.941  1.00  0.00     0.004 C 
ATOM      4  C   UNL     1       7.326  -3.481  24.270  1.00  0.00     0.011 C 
ATOM      5  C   UNL     1       6.081  -2.659  23.875  1.00  0.00     0.043 C 
ATOM      6  C   UNL     1       6.078  -1.276  24.566  1.00  0.00     0.121 C 
ATOM      7  C   UNL     1       7.379  -0.515  24.238  1.00  0.00     0.035 C 
ENDROOT
BRANCH   6   8
ATOM      8  O   UNL     1       5.946  -1.415  25.959  1.00  0.00    -0.392 OA
ATOM      9  H   UNL     1       5.722  -2.366  26.133  1.00  0.00     0.210 HD
ENDBRANCH   6   8
BRANCH   5  10
ATOM     10  C   UNL     1       4.783  -3.426  24.113  1.00  0.00    -0.075 C 
ATOM     11  C   UNL     1       4.781  -4.706  24.521  1.00  0.00     0.008 C 
ATOM     12  C   UNL     1       3.456  -2.747  23.884  1.00  0.00     0.039 C 
ENDBRANCH   5  10
TORSDOF 2
ENDMDL
MODEL 2
REMARK VINA RESULT:    -3.541     20.254     22.359
REMARK INTER + INTRA:          -4.033
REMARK INTER:                  -3.919
REMARK INTRA:                  -0.114
REMARK UNBOUND:                -0.182
REMARK SMILES C=C(C)[C@@H]1CC[C@@H](C)C[C@@H]1O
REMARK SMILES IDX 8 1 7 2 6 3 5 4 4 5 10 6 9 7 11 8 2 10 1 11 3 12
REMARK H PARENT 11 9
REMARK Flexibility Score: inf
ROOT
ATOM      1  C   UNL     1      15.921  14.082  41.121  1.00  0.00     0.008 C 
ATOM      2  C   UNL     1      15.616  14.124  39.620  1.00  0.00    -0.012 C 
ATOM      3  C   UNL     1      14.094  14.113  39.377  1.00  0.00     0.004 C 
ATOM      4  C   UNL     1      13.771  14.124  37.878  1.00  0.00     0.011 C 
ATOM      5  C   UNL     1      14.447  12.936  37.163  1.00  0.00     0.043 C 
ATOM      6  C   UNL     1      15.977  12.941  37.389  1.00  0.00     0.121 C 
ATOM      7  C   UNL     1      16.292  12.940  38.898  1.00  0.00     0.035 C 
ENDROOT
BRANCH   6   8
ATOM      8  O   UNL     1      16.567  14.063  36.780  1.00  0.00    -0.392 OA
ATOM      9  H   UNL     1      17.298  14.364  37.379  1.00  0.00     0.210 HD
ENDBRANCH   6   8
BRANCH   5  10
ATOM     10  C   UNL     1      14.082  12.868  35.683  1.00  0.00    -0.075 C 
ATOM     11  C   UNL     1      13.746  13.966  34.985  1.00  0.00     0.008 C 
ATOM     12  C   UNL     1      14.087  11.540  34.967  1.00  0.00     0.039 C 
ENDBRANCH   5  10
TORSDOF 2
ENDMDL
MODEL 3
REMARK VINA RESULT:    -3.182     18.915     21.214
REMARK INTER + INTRA:          -3.643
REMARK INTER:                  -3.678
REMARK INTRA:                   0.036
REMARK UNBOUND:                -0.182
REMARK SMILES C=C(C)[C@@H]1CC[C@@H](C)C[C@@H]1O
REMARK SMILES IDX 8 1 7 2 6 3 5 4 4 5 10 6 9 7 11 8 2 10 1 11 3 12
REMARK H PARENT 11 9
REMARK Flexibility Score: inf
ROOT
ATOM      1  C   UNL     1      14.050  11.727  33.109  1.00  0.00     0.008 C 
ATOM      2  C   UNL     1      13.874  12.203  34.555  1.00  0.00    -0.012 C 
ATOM      3  C   UNL     1      14.499  13.599  34.743  1.00  0.00     0.004 C 
ATOM      4  C   UNL     1      14.358  14.079  36.193  1.00  0.00     0.011 C 
ATOM      5  C   UNL     1      14.987  13.063  37.169  1.00  0.00     0.043 C 
ATOM      6  C   UNL     1      14.362  11.658  36.999  1.00  0.00     0.121 C 
ATOM      7  C   UNL     1      14.499  11.189  35.537  1.00  0.00     0.035 C 
ENDROOT
BRANCH   6   8
ATOM      8  O   UNL     1      13.006  11.668  37.372  1.00  0.00    -0.392 OA
ATOM      9  H   UNL     1      12.488  11.370  36.580  1.00  0.00     0.210 HD
ENDBRANCH   6   8
BRANCH   5  10
ATOM     10  C   UNL     1      14.938  13.545  38.617  1.00  0.00    -0.075 C 
ATOM     11  C   UNL     1      13.841  14.125  39.133  1.00  0.00     0.008 C 
ATOM     12  C   UNL     1      16.146  13.381  39.505  1.00  0.00     0.039 C 
ENDBRANCH   5  10
TORSDOF 2
ENDMDL
MODEL 4
REMARK VINA RESULT:    -3.021     18.432     20.552
REMARK INTER + INTRA:          -3.468
REMARK INTER:                  -3.952
REMARK INTRA:                   0.484
REMARK UNBOUND:                -0.182
REMARK SMILES C=C(C)[C@@H]1CC[C@@H](C)C[C@@H]1O
REMARK SMILES IDX 8 1 7 2 6 3 5 4 4 5 10 6 9 7 11 8 2 10 1 11 3 12
REMARK H PARENT 11 9
REMARK Flexibility Score: inf
ROOT
ATOM      1  C   UNL     1      15.967  13.067  39.197  1.00  0.00     0.008 C 
ATOM      2  C   UNL     1      15.566  12.799  37.743  1.00  0.00    -0.012 C 
ATOM      3  C   UNL     1      15.284  14.125  37.008  1.00  0.00     0.004 C 
ATOM      4  C   UNL     1      14.853  13.874  35.558  1.00  0.00     0.011 C 
ATOM      5  C   UNL     1      13.620  12.947  35.506  1.00  0.00     0.043 C 
ATOM      6  C   UNL     1      13.894  11.608  36.230  1.00  0.00     0.121 C 
ATOM      7  C   UNL     1      14.336  11.870  37.683  1.00  0.00     0.035 C 
ENDROOT
BRANCH   6   8
ATOM      8  O   UNL     1      14.883  10.870  35.556  1.00  0.00    -0.392 OA
ATOM      9  H   UNL     1      15.347  11.501  34.947  1.00  0.00     0.210 HD
ENDBRANCH   6   8
BRANCH   5  10
ATOM     10  C   UNL     1      13.113  12.740  34.081  1.00  0.00    -0.075 C 
ATOM     11  C   UNL     1      13.308  11.586  33.421  1.00  0.00     0.008 C 
ATOM     12  C   UNL     1      12.376  13.852  33.377  1.00  0.00     0.039 C 
ENDBRANCH   5  10
TORSDOF 2
ENDMDL
MODEL 5
REMARK VINA RESULT:    -2.899     18.480     20.628
REMARK INTER + INTRA:          -3.335
REMARK INTER:                  -3.878
REMARK INTRA:                   0.543
REMARK UNBOUND:                -0.182
REMARK SMILES C=C(C)[C@@H]1CC[C@@H](C)C[C@@H]1O
REMARK SMILES IDX 8 1 7 2 6 3 5 4 4 5 10 6 9 7 11 8 2 10 1 11 3 12
REMARK H PARENT 11 9
REMARK Flexibility Score: inf
ROOT
ATOM      1  C   UNL     1      16.015  13.117  39.244  1.00  0.00     0.008 C 
ATOM      2  C   UNL     1      15.598  12.811  37.801  1.00  0.00    -0.012 C 
ATOM      3  C   UNL     1      15.452  14.115  36.993  1.00  0.00     0.004 C 
ATOM      4  C   UNL     1      15.007  13.829  35.554  1.00  0.00     0.011 C 
ATOM      5  C   UNL     1      13.689  13.025  35.538  1.00  0.00     0.043 C 
ATOM      6  C   UNL     1      13.825  11.707  36.337  1.00  0.00     0.121 C 
ATOM      7  C   UNL     1      14.283  12.004  37.778  1.00  0.00     0.035 C 
ENDROOT
BRANCH   6   8
ATOM      8  O   UNL     1      14.741  10.840  35.715  1.00  0.00    -0.392 OA
ATOM      9  H   UNL     1      14.246  10.366  34.997  1.00  0.00     0.210 HD
ENDBRANCH   6   8
BRANCH   5  10
ATOM     10  C   UNL     1      13.172  12.791  34.121  1.00  0.00    -0.075 C 
ATOM     11  C   UNL     1      12.419  13.702  33.483  1.00  0.00     0.008 C 
ATOM     12  C   UNL     1      13.499  11.504  33.405  1.00  0.00     0.039 C 
ENDBRANCH   5  10
TORSDOF 2
ENDMDL
MODEL 6
REMARK VINA RESULT:    -2.849     19.427     21.633
REMARK INTER + INTRA:          -3.281
REMARK INTER:                  -3.403
REMARK INTRA:                   0.123
REMARK UNBOUND:                -0.182
REMARK SMILES C=C(C)[C@@H]1CC[C@@H](C)C[C@@H]1O
REMARK SMILES IDX 8 1 7 2 6 3 5 4 4 5 10 6 9 7 11 8 2 10 1 11 3 12
REMARK H PARENT 11 9
REMARK Flexibility Score: inf
ROOT
ATOM      1  C   UNL     1      13.501  11.958  33.588  1.00  0.00     0.008 C 
ATOM      2  C   UNL     1      14.247  12.293  34.884  1.00  0.00    -0.012 C 
ATOM      3  C   UNL     1      13.803  11.352  36.021  1.00  0.00     0.004 C 
ATOM      4  C   UNL     1      14.519  11.693  37.334  1.00  0.00     0.011 C 
ATOM      5  C   UNL     1      14.280  13.168  37.721  1.00  0.00     0.043 C 
ATOM      6  C   UNL     1      14.731  14.125  36.592  1.00  0.00     0.121 C 
ATOM      7  C   UNL     1      14.015  13.768  35.275  1.00  0.00     0.035 C 
ENDROOT
BRANCH   6   8
ATOM      8  O   UNL     1      16.124  14.059  36.411  1.00  0.00    -0.392 OA
ATOM      9  H   UNL     1      16.389  13.115  36.562  1.00  0.00     0.210 HD
ENDBRANCH   6   8
BRANCH   5  10
ATOM     10  C   UNL     1      14.910  13.523  39.065  1.00  0.00    -0.075 C 
ATOM     11  C   UNL     1      14.206  14.120  40.042  1.00  0.00     0.008 C 
ATOM     12  C   UNL     1      16.363  13.209  39.320  1.00  0.00     0.039 C 
ENDBRANCH   5  10
TORSDOF 2
ENDMDL
MODEL 7
REMARK VINA RESULT:    -2.694     19.161     21.269
REMARK INTER + INTRA:          -3.112
REMARK INTER:                  -2.924
REMARK INTRA:                  -0.188
REMARK UNBOUND:                -0.182
REMARK SMILES C=C(C)[C@@H]1CC[C@@H](C)C[C@@H]1O
REMARK SMILES IDX 8 1 7 2 6 3 5 4 4 5 10 6 9 7 11 8 2 10 1 11 3 12
REMARK H PARENT 11 9
REMARK Flexibility Score: inf
ROOT
ATOM      1  C   UNL     1      16.052  13.730  39.942  1.00  0.00     0.008 C 
ATOM      2  C   UNL     1      15.372  13.142  38.701  1.00  0.00    -0.012 C 
ATOM      3  C   UNL     1      16.408  12.881  37.591  1.00  0.00     0.004 C 
ATOM      4  C   UNL     1      15.740  12.319  36.329  1.00  0.00     0.011 C 
ATOM      5  C   UNL     1      14.630  13.268  35.829  1.00  0.00     0.043 C 
ATOM      6  C   UNL     1      13.577  13.530  36.931  1.00  0.00     0.121 C 
ATOM      7  C   UNL     1      14.258  14.084  38.198  1.00  0.00     0.035 C 
ENDROOT
BRANCH   6   8
ATOM      8  O   UNL     1      12.878  12.350  37.243  1.00  0.00    -0.392 OA
ATOM      9  H   UNL     1      13.534  11.607  37.195  1.00  0.00     0.210 HD
ENDBRANCH   6   8
BRANCH   5  10
ATOM     10  C   UNL     1      13.997  12.782  34.529  1.00  0.00    -0.075 C 
ATOM     11  C   UNL     1      14.215  11.543  34.055  1.00  0.00     0.008 C 
ATOM     12  C   UNL     1      13.105  13.704  33.736  1.00  0.00     0.039 C 
ENDBRANCH   5  10
TORSDOF 2
ENDMDL
