MODEL 1
REMARK VINA RESULT:    -1.534      0.000      0.000
REMARK INTER + INTRA:          -3.891
REMARK INTER:                  -4.046
REMARK INTRA:                   0.155
REMARK UNBOUND:                 0.155
REMARK SMILES CCCCCCCCCCCCCCCCCCCCCCCCCCCCCC(=O)[O-]
REMARK SMILES IDX 16 1 17 2 18 3 19 4 20 5 21 6 22 7 23 8 24 9 25 10 26 11
REMARK SMILES IDX 27 12 28 13 29 14 30 15 31 16 32 17 15 18 14 19 13 20 12 21
REMARK SMILES IDX 11 22 10 23 9 24 8 25 7 26 6 27 5 28 4 29 3 30 2 31 1 32
REMARK H PARENT
REMARK Flexibility Score: inf
ROOT
ATOM      1  C   UNL     1      14.541 -12.371  13.261  1.00  0.00     0.000 C 
ENDROOT
BRANCH   1   2
ATOM      2  C   UNL     1      16.012 -12.810  13.211  1.00  0.00     0.000 C 
BRANCH   2   3
ATOM      3  C   UNL     1      16.884 -11.872  12.361  1.00  0.00     0.000 C 
BRANCH   3   4
ATOM      4  C   UNL     1      16.105 -10.608  11.964  1.00  0.00     0.000 C 
BRANCH   4   5
ATOM      5  C   UNL     1      16.902  -9.312  12.204  1.00  0.00     0.000 C 
BRANCH   5   6
ATOM      6  C   UNL     1      18.080  -9.438  13.189  1.00  0.00     0.000 C 
BRANCH   6   7
ATOM      7  C   UNL     1      18.645  -8.077  13.630  1.00  0.00     0.000 C 
BRANCH   7   8
ATOM      8  C   UNL     1      17.760  -7.377  14.678  1.00  0.00     0.000 C 
BRANCH   8   9
ATOM      9  C   UNL     1      16.607  -6.530  14.100  1.00  0.00     0.000 C 
BRANCH   9  10
ATOM     10  C   UNL     1      16.481  -6.553  12.564  1.00  0.00     0.000 C 
BRANCH  10  11
ATOM     11  C   UNL     1      15.184  -5.940  12.003  1.00  0.00     0.000 C 
BRANCH  11  12
ATOM     12  C   UNL     1      15.142  -4.409  12.137  1.00  0.00     0.000 C 
BRANCH  12  13
ATOM     13  C   UNL     1      13.761  -3.886  12.573  1.00  0.00     0.006 C 
BRANCH  13  14
ATOM     14  C   UNL     1      13.019  -4.797  13.563  1.00  0.00     0.053 C 
BRANCH  14  15
ATOM     15  C   UNL     1      13.573  -4.689  14.951  1.00  0.00     0.041 C 
ATOM     16  O   UNL     1      13.065  -3.884  15.775  1.00  0.00    -0.550 OA
ATOM     17  O   UNL     1      14.661  -5.468  15.329  1.00  0.00    -0.550 OA
ENDBRANCH  14  15
ENDBRANCH  13  14
ENDBRANCH  12  13
ENDBRANCH  11  12
ENDBRANCH  10  11
ENDBRANCH   9  10
ENDBRANCH   8   9
ENDBRANCH   7   8
ENDBRANCH   6   7
ENDBRANCH   5   6
ENDBRANCH   4   5
ENDBRANCH   3   4
ENDBRANCH   2   3
ENDBRANCH   1   2
BRANCH   1  18
ATOM     18  C   UNL     1      13.603 -13.367  12.557  1.00  0.00     0.000 C 
BRANCH  18  19
ATOM     19  C   UNL     1      12.411 -12.675  11.877  1.00  0.00     0.000 C 
BRANCH  19  20
ATOM     20  C   UNL     1      11.059 -13.279  12.297  1.00  0.00     0.000 C 
BRANCH  20  21
ATOM     21  C   UNL     1      10.026 -12.202  12.669  1.00  0.00     0.000 C 
BRANCH  21  22
ATOM     22  C   UNL     1       8.603 -12.490  12.156  1.00  0.00     0.000 C 
BRANCH  22  23
ATOM     23  C   UNL     1       7.590 -12.690  13.299  1.00  0.00     0.000 C 
BRANCH  23  24
ATOM     24  C   UNL     1       6.599 -13.842  13.023  1.00  0.00    -0.000 C 
BRANCH  24  25
ATOM     25  C   UNL     1       5.503 -13.498  11.996  1.00  0.00    -0.000 C 
BRANCH  25  26
ATOM     26  C   UNL     1       4.310 -14.470  11.958  1.00  0.00    -0.000 C 
BRANCH  26  27
ATOM     27  C   UNL     1       3.990 -15.166  13.297  1.00  0.00    -0.000 C 
BRANCH  27  28
ATOM     28  C   UNL     1       4.619 -16.560  13.473  1.00  0.00    -0.000 C 
BRANCH  28  29
ATOM     29  C   UNL     1       5.104 -17.167  12.149  1.00  0.00    -0.000 C 
BRANCH  29  30
ATOM     30  C   UNL     1       6.139 -18.274  12.402  1.00  0.00    -0.000 C 
BRANCH  30  31
ATOM     31  C   UNL     1       5.561 -19.682  12.189  1.00  0.00    -0.003 C 
ATOM     32  C   UNL     1       6.601 -20.783  12.397  1.00  0.00     0.004 C 
ENDBRANCH  30  31
ENDBRANCH  29  30
ENDBRANCH  28  29
ENDBRANCH  27  28
ENDBRANCH  26  27
ENDBRANCH  25  26
ENDBRANCH  24  25
ENDBRANCH  23  24
ENDBRANCH  22  23
ENDBRANCH  21  22
ENDBRANCH  20  21
ENDBRANCH  19  20
ENDBRANCH  18  19
ENDBRANCH   1  18
TORSDOF 28
ENDMDL
MODEL 2
REMARK VINA RESULT:    -1.156      4.246      8.329
REMARK INTER + INTRA:          -2.894
REMARK INTER:                  -1.699
REMARK INTRA:                  -1.195
REMARK UNBOUND:                 0.155
REMARK SMILES CCCCCCCCCCCCCCCCCCCCCCCCCCCCCC(=O)[O-]
REMARK SMILES IDX 16 1 17 2 18 3 19 4 20 5 21 6 22 7 23 8 24 9 25 10 26 11
REMARK SMILES IDX 27 12 28 13 29 14 30 15 31 16 32 17 15 18 14 19 13 20 12 21
REMARK SMILES IDX 11 22 10 23 9 24 8 25 7 26 6 27 5 28 4 29 3 30 2 31 1 32
REMARK H PARENT
REMARK Flexibility Score: inf
ROOT
ATOM      1  C   UNL     1      13.517  -8.044  13.272  1.00  0.00     0.000 C 
ENDROOT
BRANCH   1   2
ATOM      2  C   UNL     1      13.769  -6.528  13.304  1.00  0.00     0.000 C 
BRANCH   2   3
ATOM      3  C   UNL     1      14.346  -5.994  11.983  1.00  0.00     0.000 C 
BRANCH   3   4
ATOM      4  C   UNL     1      14.432  -4.459  12.003  1.00  0.00     0.000 C 
BRANCH   4   5
ATOM      5  C   UNL     1      15.880  -3.939  11.924  1.00  0.00     0.000 C 
BRANCH   5   6
ATOM      6  C   UNL     1      16.868  -4.595  12.907  1.00  0.00     0.000 C 
BRANCH   6   7
ATOM      7  C   UNL     1      18.160  -5.080  12.227  1.00  0.00     0.000 C 
BRANCH   7   8
ATOM      8  C   UNL     1      18.430  -6.577  12.463  1.00  0.00     0.000 C 
BRANCH   8   9
ATOM      9  C   UNL     1      17.322  -7.331  13.227  1.00  0.00     0.000 C 
BRANCH   9  10
ATOM     10  C   UNL     1      17.368  -7.187  14.761  1.00  0.00     0.000 C 
BRANCH  10  11
ATOM     11  C   UNL     1      16.951  -5.808  15.304  1.00  0.00     0.000 C 
BRANCH  11  12
ATOM     12  C   UNL     1      15.998  -5.904  16.507  1.00  0.00     0.000 C 
BRANCH  12  13
ATOM     13  C   UNL     1      16.740  -6.105  17.841  1.00  0.00     0.006 C 
BRANCH  13  14
ATOM     14  C   UNL     1      17.130  -4.801  18.555  1.00  0.00     0.053 C 
BRANCH  14  15
ATOM     15  C   UNL     1      15.984  -4.215  19.322  1.00  0.00     0.041 C 
ATOM     16  O   UNL     1      16.132  -3.885  20.529  1.00  0.00    -0.550 OA
ATOM     17  O   UNL     1      14.749  -4.046  18.708  1.00  0.00    -0.550 OA
ENDBRANCH  14  15
ENDBRANCH  13  14
ENDBRANCH  12  13
ENDBRANCH  11  12
ENDBRANCH  10  11
ENDBRANCH   9  10
ENDBRANCH   8   9
ENDBRANCH   7   8
ENDBRANCH   6   7
ENDBRANCH   5   6
ENDBRANCH   4   5
ENDBRANCH   3   4
ENDBRANCH   2   3
ENDBRANCH   1   2
BRANCH   1  18
ATOM     18  C   UNL     1      12.784  -8.494  11.997  1.00  0.00     0.000 C 
BRANCH  18  19
ATOM     19  C   UNL     1      12.631 -10.022  11.913  1.00  0.00     0.000 C 
BRANCH  19  20
ATOM     20  C   UNL     1      11.689 -10.581  12.993  1.00  0.00     0.000 C 
BRANCH  20  21
ATOM     21  C   UNL     1      10.803 -11.723  12.464  1.00  0.00     0.000 C 
BRANCH  21  22
ATOM     22  C   UNL     1      11.557 -13.043  12.217  1.00  0.00     0.000 C 
BRANCH  22  23
ATOM     23  C   UNL     1      12.807 -13.186  13.105  1.00  0.00     0.000 C 
BRANCH  23  24
ATOM     24  C   UNL     1      14.036 -13.699  12.325  1.00  0.00    -0.000 C 
BRANCH  24  25
ATOM     25  C   UNL     1      15.294 -12.823  12.484  1.00  0.00    -0.000 C 
BRANCH  25  26
ATOM     26  C   UNL     1      15.126 -11.351  12.062  1.00  0.00    -0.000 C 
BRANCH  26  27
ATOM     27  C   UNL     1      16.221 -10.393  12.576  1.00  0.00    -0.000 C 
BRANCH  27  28
ATOM     28  C   UNL     1      17.548 -11.069  12.963  1.00  0.00    -0.000 C 
BRANCH  28  29
ATOM     29  C   UNL     1      17.859 -10.958  14.462  1.00  0.00    -0.000 C 
BRANCH  29  30
ATOM     30  C   UNL     1      18.942  -9.898  14.719  1.00  0.00    -0.000 C 
BRANCH  30  31
ATOM     31  C   UNL     1      19.274  -9.743  16.211  1.00  0.00    -0.003 C 
ATOM     32  C   UNL     1      20.694 -10.196  16.549  1.00  0.00     0.004 C 
ENDBRANCH  30  31
ENDBRANCH  29  30
ENDBRANCH  28  29
ENDBRANCH  27  28
ENDBRANCH  26  27
ENDBRANCH  25  26
ENDBRANCH  24  25
ENDBRANCH  23  24
ENDBRANCH  22  23
ENDBRANCH  21  22
ENDBRANCH  20  21
ENDBRANCH  19  20
ENDBRANCH  18  19
ENDBRANCH   1  18
TORSDOF 28
ENDMDL
MODEL 3
REMARK VINA RESULT:    -0.500      2.280      4.028
REMARK INTER + INTRA:          -1.165
REMARK INTER:                   0.535
REMARK INTRA:                  -1.699
REMARK UNBOUND:                 0.155
REMARK SMILES CCCCCCCCCCCCCCCCCCCCCCCCCCCCCC(=O)[O-]
REMARK SMILES IDX 16 1 17 2 18 3 19 4 20 5 21 6 22 7 23 8 24 9 25 10 26 11
REMARK SMILES IDX 27 12 28 13 29 14 30 15 31 16 32 17 15 18 14 19 13 20 12 21
REMARK SMILES IDX 11 22 10 23 9 24 8 25 7 26 6 27 5 28 4 29 3 30 2 31 1 32
REMARK H PARENT
REMARK Flexibility Score: inf
ROOT
ATOM      1  C   UNL     1      16.721 -12.267  13.730  1.00  0.00     0.000 C 
ENDROOT
BRANCH   1   2
ATOM      2  C   UNL     1      17.632 -11.684  14.822  1.00  0.00     0.000 C 
BRANCH   2   3
ATOM      3  C   UNL     1      18.423 -10.457  14.343  1.00  0.00     0.000 C 
BRANCH   3   4
ATOM      4  C   UNL     1      17.956  -9.184  15.067  1.00  0.00     0.000 C 
BRANCH   4   5
ATOM      5  C   UNL     1      18.027  -7.928  14.179  1.00  0.00     0.000 C 
BRANCH   5   6
ATOM      6  C   UNL     1      17.716  -8.159  12.688  1.00  0.00     0.000 C 
BRANCH   6   7
ATOM      7  C   UNL     1      16.490  -7.367  12.199  1.00  0.00     0.000 C 
BRANCH   7   8
ATOM      8  C   UNL     1      15.164  -7.933  12.736  1.00  0.00     0.000 C 
BRANCH   8   9
ATOM      9  C   UNL     1      13.958  -6.975  12.645  1.00  0.00     0.000 C 
BRANCH   9  10
ATOM     10  C   UNL     1      14.239  -5.523  13.081  1.00  0.00     0.000 C 
BRANCH  10  11
ATOM     11  C   UNL     1      13.246  -4.940  14.103  1.00  0.00     0.000 C 
BRANCH  11  12
ATOM     12  C   UNL     1      13.799  -4.942  15.538  1.00  0.00     0.000 C 
BRANCH  12  13
ATOM     13  C   UNL     1      15.307  -5.247  15.596  1.00  0.00     0.006 C 
BRANCH  13  14
ATOM     14  C   UNL     1      15.725  -6.169  16.753  1.00  0.00     0.053 C 
BRANCH  14  15
ATOM     15  C   UNL     1      16.192  -5.396  17.949  1.00  0.00     0.041 C 
ATOM     16  O   UNL     1      17.412  -5.387  18.260  1.00  0.00    -0.550 OA
ATOM     17  O   UNL     1      15.276  -4.700  18.728  1.00  0.00    -0.550 OA
ENDBRANCH  14  15
ENDBRANCH  13  14
ENDBRANCH  12  13
ENDBRANCH  11  12
ENDBRANCH  10  11
ENDBRANCH   9  10
ENDBRANCH   8   9
ENDBRANCH   7   8
ENDBRANCH   6   7
ENDBRANCH   5   6
ENDBRANCH   4   5
ENDBRANCH   3   4
ENDBRANCH   2   3
ENDBRANCH   1   2
BRANCH   1  18
ATOM     18  C   UNL     1      16.011 -11.177  12.909  1.00  0.00     0.000 C 
BRANCH  18  19
ATOM     19  C   UNL     1      14.949 -11.753  11.958  1.00  0.00     0.000 C 
BRANCH  19  20
ATOM     20  C   UNL     1      14.980 -13.290  11.900  1.00  0.00     0.000 C 
BRANCH  20  21
ATOM     21  C   UNL     1      13.697 -13.924  12.465  1.00  0.00     0.000 C 
BRANCH  21  22
ATOM     22  C   UNL     1      12.854 -12.972  13.333  1.00  0.00     0.000 C 
BRANCH  22  23
ATOM     23  C   UNL     1      12.314 -11.768  12.539  1.00  0.00     0.000 C 
BRANCH  23  24
ATOM     24  C   UNL     1      10.950 -12.054  11.875  1.00  0.00    -0.000 C 
BRANCH  24  25
ATOM     25  C   UNL     1       9.782 -12.198  12.870  1.00  0.00    -0.000 C 
BRANCH  25  26
ATOM     26  C   UNL     1       8.406 -12.463  12.233  1.00  0.00    -0.000 C 
BRANCH  26  27
ATOM     27  C   UNL     1       7.605 -13.623  12.860  1.00  0.00    -0.000 C 
BRANCH  27  28
ATOM     28  C   UNL     1       6.398 -13.194  13.713  1.00  0.00    -0.000 C 
BRANCH  28  29
ATOM     29  C   UNL     1       5.508 -14.376  14.123  1.00  0.00    -0.000 C 
BRANCH  29  30
ATOM     30  C   UNL     1       4.351 -14.560  13.130  1.00  0.00    -0.000 C 
BRANCH  30  31
ATOM     31  C   UNL     1       2.990 -14.175  13.729  1.00  0.00    -0.003 C 
ATOM     32  C   UNL     1       2.019 -13.626  12.684  1.00  0.00     0.004 C 
ENDBRANCH  30  31
ENDBRANCH  29  30
ENDBRANCH  28  29
ENDBRANCH  27  28
ENDBRANCH  26  27
ENDBRANCH  25  26
ENDBRANCH  24  25
ENDBRANCH  23  24
ENDBRANCH  22  23
ENDBRANCH  21  22
ENDBRANCH  20  21
ENDBRANCH  19  20
ENDBRANCH  18  19
ENDBRANCH   1  18
TORSDOF 28
ENDMDL
MODEL 4
REMARK VINA RESULT:    -0.113      1.717      2.374
REMARK INTER + INTRA:          -0.143
REMARK INTER:                  -0.858
REMARK INTRA:                   0.716
REMARK UNBOUND:                 0.155
REMARK SMILES CCCCCCCCCCCCCCCCCCCCCCCCCCCCCC(=O)[O-]
REMARK SMILES IDX 16 1 17 2 18 3 19 4 20 5 21 6 22 7 23 8 24 9 25 10 26 11
REMARK SMILES IDX 27 12 28 13 29 14 30 15 31 16 32 17 15 18 14 19 13 20 12 21
REMARK SMILES IDX 11 22 10 23 9 24 8 25 7 26 6 27 5 28 4 29 3 30 2 31 1 32
REMARK H PARENT
REMARK Flexibility Score: inf
ROOT
ATOM      1  C   UNL     1      13.742 -10.430  12.563  1.00  0.00     0.000 C 
ENDROOT
BRANCH   1   2
ATOM      2  C   UNL     1      14.443 -11.785  12.380  1.00  0.00     0.000 C 
BRANCH   2   3
ATOM      3  C   UNL     1      15.914 -11.641  11.957  1.00  0.00     0.000 C 
BRANCH   3   4
ATOM      4  C   UNL     1      16.841 -11.643  13.184  1.00  0.00     0.000 C 
BRANCH   4   5
ATOM      5  C   UNL     1      17.706 -10.373  13.283  1.00  0.00     0.000 C 
BRANCH   5   6
ATOM      6  C   UNL     1      17.624  -9.425  12.071  1.00  0.00     0.000 C 
BRANCH   6   7
ATOM      7  C   UNL     1      16.986  -8.068  12.409  1.00  0.00     0.000 C 
BRANCH   7   8
ATOM      8  C   UNL     1      17.173  -7.673  13.886  1.00  0.00     0.000 C 
BRANCH   8   9
ATOM      9  C   UNL     1      16.198  -6.597  14.405  1.00  0.00     0.000 C 
BRANCH   9  10
ATOM     10  C   UNL     1      15.973  -5.403  13.457  1.00  0.00     0.000 C 
BRANCH  10  11
ATOM     11  C   UNL     1      14.635  -4.662  13.641  1.00  0.00     0.000 C 
BRANCH  11  12
ATOM     12  C   UNL     1      13.833  -5.170  14.851  1.00  0.00     0.000 C 
BRANCH  12  13
ATOM     13  C   UNL     1      14.713  -5.892  15.888  1.00  0.00     0.006 C 
BRANCH  13  14
ATOM     14  C   UNL     1      15.497  -4.954  16.820  1.00  0.00     0.053 C 
BRANCH  14  15
ATOM     15  C   UNL     1      16.147  -5.694  17.949  1.00  0.00     0.041 C 
ATOM     16  O   UNL     1      15.444  -6.349  18.764  1.00  0.00    -0.550 OA
ATOM     17  O   UNL     1      17.526  -5.648  18.109  1.00  0.00    -0.550 OA
ENDBRANCH  14  15
ENDBRANCH  13  14
ENDBRANCH  12  13
ENDBRANCH  11  12
ENDBRANCH  10  11
ENDBRANCH   9  10
ENDBRANCH   8   9
ENDBRANCH   7   8
ENDBRANCH   6   7
ENDBRANCH   5   6
ENDBRANCH   4   5
ENDBRANCH   3   4
ENDBRANCH   2   3
ENDBRANCH   1   2
BRANCH   1  18
ATOM     18  C   UNL     1      12.304 -10.430  12.019  1.00  0.00     0.000 C 
BRANCH  18  19
ATOM     19  C   UNL     1      11.375 -11.369  12.807  1.00  0.00     0.000 C 
BRANCH  19  20
ATOM     20  C   UNL     1      10.669 -12.394  11.904  1.00  0.00     0.000 C 
BRANCH  20  21
ATOM     21  C   UNL     1       9.582 -13.185  12.654  1.00  0.00     0.000 C 
BRANCH  21  22
ATOM     22  C   UNL     1       8.150 -12.670  12.414  1.00  0.00     0.000 C 
BRANCH  22  23
ATOM     23  C   UNL     1       7.390 -12.399  13.725  1.00  0.00     0.000 C 
BRANCH  23  24
ATOM     24  C   UNL     1       6.246 -13.407  13.971  1.00  0.00    -0.000 C 
BRANCH  24  25
ATOM     25  C   UNL     1       6.089 -14.465  12.861  1.00  0.00    -0.000 C 
BRANCH  25  26
ATOM     26  C   UNL     1       5.469 -15.800  13.311  1.00  0.00    -0.000 C 
BRANCH  26  27
ATOM     27  C   UNL     1       4.977 -16.712  12.168  1.00  0.00    -0.000 C 
BRANCH  27  28
ATOM     28  C   UNL     1       5.872 -17.929  11.875  1.00  0.00    -0.000 C 
BRANCH  28  29
ATOM     29  C   UNL     1       5.278 -19.246  12.394  1.00  0.00    -0.000 C 
BRANCH  29  30
ATOM     30  C   UNL     1       6.197 -20.430  12.059  1.00  0.00    -0.000 C 
BRANCH  30  31
ATOM     31  C   UNL     1       7.686 -20.084  12.211  1.00  0.00    -0.003 C 
ATOM     32  C   UNL     1       8.121 -19.976  13.672  1.00  0.00     0.004 C 
ENDBRANCH  30  31
ENDBRANCH  29  30
ENDBRANCH  28  29
ENDBRANCH  27  28
ENDBRANCH  26  27
ENDBRANCH  25  26
ENDBRANCH  24  25
ENDBRANCH  23  24
ENDBRANCH  22  23
ENDBRANCH  21  22
ENDBRANCH  20  21
ENDBRANCH  19  20
ENDBRANCH  18  19
ENDBRANCH   1  18
TORSDOF 28
ENDMDL
MODEL 5
REMARK VINA RESULT:     0.291      3.182      7.392
REMARK INTER + INTRA:           0.923
REMARK INTER:                   3.597
REMARK INTRA:                  -2.674
REMARK UNBOUND:                 0.155
REMARK SMILES CCCCCCCCCCCCCCCCCCCCCCCCCCCCCC(=O)[O-]
REMARK SMILES IDX 16 1 17 2 18 3 19 4 20 5 21 6 22 7 23 8 24 9 25 10 26 11
REMARK SMILES IDX 27 12 28 13 29 14 30 15 31 16 32 17 15 18 14 19 13 20 12 21
REMARK SMILES IDX 11 22 10 23 9 24 8 25 7 26 6 27 5 28 4 29 3 30 2 31 1 32
REMARK H PARENT
REMARK Flexibility Score: inf
ROOT
ATOM      1  C   UNL     1      16.950  -7.152  17.283  1.00  0.00     0.000 C 
ENDROOT
BRANCH   1   2
ATOM      2  C   UNL     1      15.697  -6.554  16.624  1.00  0.00     0.000 C 
BRANCH   2   3
ATOM      3  C   UNL     1      15.778  -5.026  16.473  1.00  0.00     0.000 C 
BRANCH   3   4
ATOM      4  C   UNL     1      14.640  -4.338  17.245  1.00  0.00     0.000 C 
BRANCH   4   5
ATOM      5  C   UNL     1      13.281  -4.441  16.527  1.00  0.00     0.000 C 
BRANCH   5   6
ATOM      6  C   UNL     1      13.350  -4.458  14.988  1.00  0.00     0.000 C 
BRANCH   6   7
ATOM      7  C   UNL     1      12.651  -5.680  14.367  1.00  0.00     0.000 C 
BRANCH   7   8
ATOM      8  C   UNL     1      13.642  -6.676  13.738  1.00  0.00     0.000 C 
BRANCH   8   9
ATOM      9  C   UNL     1      13.981  -6.414  12.256  1.00  0.00     0.000 C 
BRANCH   9  10
ATOM     10  C   UNL     1      14.437  -4.978  11.930  1.00  0.00     0.000 C 
BRANCH  10  11
ATOM     11  C   UNL     1      15.962  -4.770  11.875  1.00  0.00     0.000 C 
BRANCH  11  12
ATOM     12  C   UNL     1      16.567  -4.432  13.248  1.00  0.00     0.000 C 
BRANCH  12  13
ATOM     13  C   UNL     1      18.107  -4.419  13.234  1.00  0.00     0.006 C 
BRANCH  13  14
ATOM     14  C   UNL     1      18.740  -5.232  12.094  1.00  0.00     0.053 C 
BRANCH  14  15
ATOM     15  C   UNL     1      20.236  -5.227  12.162  1.00  0.00     0.041 C 
ATOM     16  O   UNL     1      20.887  -6.269  11.883  1.00  0.00    -0.550 OA
ATOM     17  O   UNL     1      20.911  -4.075  12.548  1.00  0.00    -0.550 OA
ENDBRANCH  14  15
ENDBRANCH  13  14
ENDBRANCH  12  13
ENDBRANCH  11  12
ENDBRANCH  10  11
ENDBRANCH   9  10
ENDBRANCH   8   9
ENDBRANCH   7   8
ENDBRANCH   6   7
ENDBRANCH   5   6
ENDBRANCH   4   5
ENDBRANCH   3   4
ENDBRANCH   2   3
ENDBRANCH   1   2
BRANCH   1  18
ATOM     18  C   UNL     1      18.091  -7.387  16.280  1.00  0.00     0.000 C 
BRANCH  18  19
ATOM     19  C   UNL     1      17.654  -8.239  15.077  1.00  0.00     0.000 C 
BRANCH  19  20
ATOM     20  C   UNL     1      18.181  -9.683  15.155  1.00  0.00     0.000 C 
BRANCH  20  21
ATOM     21  C   UNL     1      18.313 -10.333  13.766  1.00  0.00     0.000 C 
BRANCH  21  22
ATOM     22  C   UNL     1      17.743  -9.483  12.615  1.00  0.00     0.000 C 
BRANCH  22  23
ATOM     23  C   UNL     1      16.272  -9.813  12.307  1.00  0.00     0.000 C 
BRANCH  23  24
ATOM     24  C   UNL     1      16.034 -11.322  12.080  1.00  0.00    -0.000 C 
BRANCH  24  25
ATOM     25  C   UNL     1      14.554 -11.703  11.876  1.00  0.00    -0.000 C 
BRANCH  25  26
ATOM     26  C   UNL     1      14.183 -13.139  12.289  1.00  0.00    -0.000 C 
BRANCH  26  27
ATOM     27  C   UNL     1      12.671 -13.441  12.325  1.00  0.00    -0.000 C 
BRANCH  27  28
ATOM     28  C   UNL     1      11.765 -12.209  12.499  1.00  0.00    -0.000 C 
BRANCH  28  29
ATOM     29  C   UNL     1      10.367 -12.406  11.897  1.00  0.00    -0.000 C 
BRANCH  29  30
ATOM     30  C   UNL     1       9.307 -12.525  13.003  1.00  0.00    -0.000 C 
BRANCH  30  31
ATOM     31  C   UNL     1       7.880 -12.299  12.480  1.00  0.00    -0.003 C 
ATOM     32  C   UNL     1       7.031 -13.570  12.518  1.00  0.00     0.004 C 
ENDBRANCH  30  31
ENDBRANCH  29  30
ENDBRANCH  28  29
ENDBRANCH  27  28
ENDBRANCH  26  27
ENDBRANCH  25  26
ENDBRANCH  24  25
ENDBRANCH  23  24
ENDBRANCH  22  23
ENDBRANCH  21  22
ENDBRANCH  20  21
ENDBRANCH  19  20
ENDBRANCH  18  19
ENDBRANCH   1  18
TORSDOF 28
ENDMDL
MODEL 6
REMARK VINA RESULT:     0.364      1.541      2.075
REMARK INTER + INTRA:           1.115
REMARK INTER:                   2.306
REMARK INTRA:                  -1.191
REMARK UNBOUND:                 0.155
REMARK SMILES CCCCCCCCCCCCCCCCCCCCCCCCCCCCCC(=O)[O-]
REMARK SMILES IDX 16 1 17 2 18 3 19 4 20 5 21 6 22 7 23 8 24 9 25 10 26 11
REMARK SMILES IDX 27 12 28 13 29 14 30 15 31 16 32 17 15 18 14 19 13 20 12 21
REMARK SMILES IDX 11 22 10 23 9 24 8 25 7 26 6 27 5 28 4 29 3 30 2 31 1 32
REMARK H PARENT
REMARK Flexibility Score: inf
ROOT
ATOM      1  C   UNL     1      13.613 -10.723  11.879  1.00  0.00     0.000 C 
ENDROOT
BRANCH   1   2
ATOM      2  C   UNL     1      14.668 -10.118  12.818  1.00  0.00     0.000 C 
BRANCH   2   3
ATOM      3  C   UNL     1      15.946  -9.691  12.079  1.00  0.00     0.000 C 
BRANCH   3   4
ATOM      4  C   UNL     1      17.199 -10.218  12.798  1.00  0.00     0.000 C 
BRANCH   4   5
ATOM      5  C   UNL     1      17.866  -9.158  13.695  1.00  0.00     0.000 C 
BRANCH   5   6
ATOM      6  C   UNL     1      19.166  -8.549  13.137  1.00  0.00     0.000 C 
BRANCH   6   7
ATOM      7  C   UNL     1      18.916  -7.419  12.124  1.00  0.00     0.000 C 
BRANCH   7   8
ATOM      8  C   UNL     1      19.780  -6.174  12.396  1.00  0.00     0.000 C 
BRANCH   8   9
ATOM      9  C   UNL     1      19.133  -4.830  12.005  1.00  0.00     0.000 C 
BRANCH   9  10
ATOM     10  C   UNL     1      17.618  -4.727  12.273  1.00  0.00     0.000 C 
BRANCH  10  11
ATOM     11  C   UNL     1      17.107  -5.544  13.474  1.00  0.00     0.000 C 
BRANCH  11  12
ATOM     12  C   UNL     1      15.620  -5.295  13.775  1.00  0.00     0.000 C 
BRANCH  12  13
ATOM     13  C   UNL     1      14.740  -6.528  13.500  1.00  0.00     0.006 C 
BRANCH  13  14
ATOM     14  C   UNL     1      13.258  -6.345  13.860  1.00  0.00     0.053 C 
BRANCH  14  15
ATOM     15  C   UNL     1      12.923  -4.916  14.161  1.00  0.00     0.041 C 
ATOM     16  O   UNL     1      12.577  -4.137  13.234  1.00  0.00    -0.550 OA
ATOM     17  O   UNL     1      13.009  -4.442  15.464  1.00  0.00    -0.550 OA
ENDBRANCH  14  15
ENDBRANCH  13  14
ENDBRANCH  12  13
ENDBRANCH  11  12
ENDBRANCH  10  11
ENDBRANCH   9  10
ENDBRANCH   8   9
ENDBRANCH   7   8
ENDBRANCH   6   7
ENDBRANCH   5   6
ENDBRANCH   4   5
ENDBRANCH   3   4
ENDBRANCH   2   3
ENDBRANCH   1   2
BRANCH   1  18
ATOM     18  C   UNL     1      12.351 -11.186  12.628  1.00  0.00     0.000 C 
BRANCH  18  19
ATOM     19  C   UNL     1      11.237 -10.126  12.616  1.00  0.00     0.000 C 
BRANCH  19  20
ATOM     20  C   UNL     1       9.975 -10.606  11.878  1.00  0.00     0.000 C 
BRANCH  20  21
ATOM     21  C   UNL     1       9.638 -12.076  12.187  1.00  0.00     0.000 C 
BRANCH  21  22
ATOM     22  C   UNL     1       8.342 -12.268  12.996  1.00  0.00     0.000 C 
BRANCH  22  23
ATOM     23  C   UNL     1       7.604 -13.569  12.632  1.00  0.00     0.000 C 
BRANCH  23  24
ATOM     24  C   UNL     1       6.125 -13.560  13.075  1.00  0.00    -0.000 C 
BRANCH  24  25
ATOM     25  C   UNL     1       5.858 -14.302  14.400  1.00  0.00    -0.000 C 
BRANCH  25  26
ATOM     26  C   UNL     1       4.548 -15.109  14.448  1.00  0.00    -0.000 C 
BRANCH  26  27
ATOM     27  C   UNL     1       4.307 -16.039  13.241  1.00  0.00    -0.000 C 
BRANCH  27  28
ATOM     28  C   UNL     1       5.535 -16.848  12.787  1.00  0.00    -0.000 C 
BRANCH  28  29
ATOM     29  C   UNL     1       5.170 -18.247  12.272  1.00  0.00    -0.000 C 
BRANCH  29  30
ATOM     30  C   UNL     1       6.430 -19.105  12.079  1.00  0.00    -0.000 C 
BRANCH  30  31
ATOM     31  C   UNL     1       6.107 -20.593  11.875  1.00  0.00    -0.003 C 
ATOM     32  C   UNL     1       6.593 -21.466  13.033  1.00  0.00     0.004 C 
ENDBRANCH  30  31
ENDBRANCH  29  30
ENDBRANCH  28  29
ENDBRANCH  27  28
ENDBRANCH  26  27
ENDBRANCH  25  26
ENDBRANCH  24  25
ENDBRANCH  23  24
ENDBRANCH  22  23
ENDBRANCH  21  22
ENDBRANCH  20  21
ENDBRANCH  19  20
ENDBRANCH  18  19
ENDBRANCH   1  18
TORSDOF 28
ENDMDL
MODEL 7
REMARK VINA RESULT:     0.406      1.162      2.104
REMARK INTER + INTRA:           1.226
REMARK INTER:                   2.842
REMARK INTRA:                  -1.615
REMARK UNBOUND:                 0.155
REMARK SMILES CCCCCCCCCCCCCCCCCCCCCCCCCCCCCC(=O)[O-]
REMARK SMILES IDX 16 1 17 2 18 3 19 4 20 5 21 6 22 7 23 8 24 9 25 10 26 11
REMARK SMILES IDX 27 12 28 13 29 14 30 15 31 16 32 17 15 18 14 19 13 20 12 21
REMARK SMILES IDX 11 22 10 23 9 24 8 25 7 26 6 27 5 28 4 29 3 30 2 31 1 32
REMARK H PARENT
REMARK Flexibility Score: inf
ROOT
ATOM      1  C   UNL     1      13.090 -11.050  12.875  1.00  0.00     0.000 C 
ENDROOT
BRANCH   1   2
ATOM      2  C   UNL     1      13.508 -12.481  13.246  1.00  0.00     0.000 C 
BRANCH   2   3
ATOM      3  C   UNL     1      14.778 -12.938  12.511  1.00  0.00     0.000 C 
BRANCH   3   4
ATOM      4  C   UNL     1      15.896 -13.281  13.509  1.00  0.00     0.000 C 
BRANCH   4   5
ATOM      5  C   UNL     1      17.262 -12.697  13.103  1.00  0.00     0.000 C 
BRANCH   5   6
ATOM      6  C   UNL     1      17.240 -11.764  11.877  1.00  0.00     0.000 C 
BRANCH   6   7
ATOM      7  C   UNL     1      17.032 -10.286  12.249  1.00  0.00     0.000 C 
BRANCH   7   8
ATOM      8  C   UNL     1      18.017  -9.800  13.327  1.00  0.00     0.000 C 
BRANCH   8   9
ATOM      9  C   UNL     1      18.315  -8.287  13.308  1.00  0.00     0.000 C 
BRANCH   9  10
ATOM     10  C   UNL     1      17.317  -7.432  12.501  1.00  0.00     0.000 C 
BRANCH  10  11
ATOM     11  C   UNL     1      17.808  -6.018  12.137  1.00  0.00     0.000 C 
BRANCH  11  12
ATOM     12  C   UNL     1      16.768  -4.928  12.447  1.00  0.00     0.000 C 
BRANCH  12  13
ATOM     13  C   UNL     1      15.512  -5.483  13.142  1.00  0.00     0.006 C 
BRANCH  13  14
ATOM     14  C   UNL     1      14.266  -4.592  13.012  1.00  0.00     0.053 C 
BRANCH  14  15
ATOM     15  C   UNL     1      13.288  -4.824  14.123  1.00  0.00     0.041 C 
ATOM     16  O   UNL     1      12.155  -4.276  14.094  1.00  0.00    -0.550 OA
ATOM     17  O   UNL     1      13.635  -5.634  15.198  1.00  0.00    -0.550 OA
ENDBRANCH  14  15
ENDBRANCH  13  14
ENDBRANCH  12  13
ENDBRANCH  11  12
ENDBRANCH  10  11
ENDBRANCH   9  10
ENDBRANCH   8   9
ENDBRANCH   7   8
ENDBRANCH   6   7
ENDBRANCH   5   6
ENDBRANCH   4   5
ENDBRANCH   3   4
ENDBRANCH   2   3
ENDBRANCH   1   2
BRANCH   1  18
ATOM     18  C   UNL     1      11.607 -10.771  13.174  1.00  0.00     0.000 C 
BRANCH  18  19
ATOM     19  C   UNL     1      10.762 -12.055  13.214  1.00  0.00     0.000 C 
BRANCH  19  20
ATOM     20  C   UNL     1      10.061 -12.341  11.875  1.00  0.00     0.000 C 
BRANCH  20  21
ATOM     21  C   UNL     1       8.827 -13.246  12.041  1.00  0.00     0.000 C 
BRANCH  21  22
ATOM     22  C   UNL     1       7.502 -12.480  12.206  1.00  0.00     0.000 C 
BRANCH  22  23
ATOM     23  C   UNL     1       7.097 -12.306  13.681  1.00  0.00     0.000 C 
BRANCH  23  24
ATOM     24  C   UNL     1       6.315 -13.518  14.232  1.00  0.00    -0.000 C 
BRANCH  24  25
ATOM     25  C   UNL     1       6.117 -14.657  13.212  1.00  0.00    -0.000 C 
BRANCH  25  26
ATOM     26  C   UNL     1       5.242 -15.828  13.698  1.00  0.00    -0.000 C 
BRANCH  26  27
ATOM     27  C   UNL     1       4.133 -16.267  12.720  1.00  0.00    -0.000 C 
BRANCH  27  28
ATOM     28  C   UNL     1       4.461 -17.516  11.882  1.00  0.00    -0.000 C 
BRANCH  28  29
ATOM     29  C   UNL     1       4.959 -18.691  12.734  1.00  0.00    -0.000 C 
BRANCH  29  30
ATOM     30  C   UNL     1       6.426 -19.015  12.413  1.00  0.00    -0.000 C 
BRANCH  30  31
ATOM     31  C   UNL     1       6.776 -20.489  12.671  1.00  0.00    -0.003 C 
ATOM     32  C   UNL     1       8.241 -20.688  13.062  1.00  0.00     0.004 C 
ENDBRANCH  30  31
ENDBRANCH  29  30
ENDBRANCH  28  29
ENDBRANCH  27  28
ENDBRANCH  26  27
ENDBRANCH  25  26
ENDBRANCH  24  25
ENDBRANCH  23  24
ENDBRANCH  22  23
ENDBRANCH  21  22
ENDBRANCH  20  21
ENDBRANCH  19  20
ENDBRANCH  18  19
ENDBRANCH   1  18
TORSDOF 28
ENDMDL
MODEL 8
REMARK VINA RESULT:     1.077      4.640      8.534
REMARK INTER + INTRA:           2.994
REMARK INTER:                   0.833
REMARK INTRA:                   2.162
REMARK UNBOUND:                 0.155
REMARK SMILES CCCCCCCCCCCCCCCCCCCCCCCCCCCCCC(=O)[O-]
REMARK SMILES IDX 16 1 17 2 18 3 19 4 20 5 21 6 22 7 23 8 24 9 25 10 26 11
REMARK SMILES IDX 27 12 28 13 29 14 30 15 31 16 32 17 15 18 14 19 13 20 12 21
REMARK SMILES IDX 11 22 10 23 9 24 8 25 7 26 6 27 5 28 4 29 3 30 2 31 1 32
REMARK H PARENT
REMARK Flexibility Score: inf
ROOT
ATOM      1  C   UNL     1      13.054 -10.442  12.844  1.00  0.00     0.000 C 
ENDROOT
BRANCH   1   2
ATOM      2  C   UNL     1      14.087  -9.843  11.876  1.00  0.00     0.000 C 
BRANCH   2   3
ATOM      3  C   UNL     1      14.681  -8.519  12.385  1.00  0.00     0.000 C 
BRANCH   3   4
ATOM      4  C   UNL     1      13.570  -7.557  12.838  1.00  0.00     0.000 C 
BRANCH   4   5
ATOM      5  C   UNL     1      14.109  -6.352  13.631  1.00  0.00     0.000 C 
BRANCH   5   6
ATOM      6  C   UNL     1      13.094  -5.218  13.873  1.00  0.00     0.000 C 
BRANCH   6   7
ATOM      7  C   UNL     1      13.323  -4.478  15.202  1.00  0.00     0.000 C 
BRANCH   7   8
ATOM      8  C   UNL     1      14.766  -4.618  15.719  1.00  0.00     0.000 C 
BRANCH   8   9
ATOM      9  C   UNL     1      15.061  -5.919  16.494  1.00  0.00     0.000 C 
BRANCH   9  10
ATOM     10  C   UNL     1      16.543  -6.340  16.530  1.00  0.00     0.000 C 
BRANCH  10  11
ATOM     11  C   UNL     1      17.476  -5.540  15.602  1.00  0.00     0.000 C 
BRANCH  11  12
ATOM     12  C   UNL     1      16.802  -5.139  14.280  1.00  0.00     0.000 C 
BRANCH  12  13
ATOM     13  C   UNL     1      17.561  -5.654  13.043  1.00  0.00     0.006 C 
BRANCH  13  14
ATOM     14  C   UNL     1      18.347  -4.573  12.284  1.00  0.00     0.053 C 
BRANCH  14  15
ATOM     15  C   UNL     1      19.794  -4.929  12.133  1.00  0.00     0.041 C 
ATOM     16  O   UNL     1      20.133  -6.123  11.918  1.00  0.00    -0.550 OA
ATOM     17  O   UNL     1      20.769  -3.945  12.245  1.00  0.00    -0.550 OA
ENDBRANCH  14  15
ENDBRANCH  13  14
ENDBRANCH  12  13
ENDBRANCH  11  12
ENDBRANCH  10  11
ENDBRANCH   9  10
ENDBRANCH   8   9
ENDBRANCH   7   8
ENDBRANCH   6   7
ENDBRANCH   5   6
ENDBRANCH   4   5
ENDBRANCH   3   4
ENDBRANCH   2   3
ENDBRANCH   1   2
BRANCH   1  18
ATOM     18  C   UNL     1      11.630  -9.923  12.583  1.00  0.00     0.000 C 
BRANCH  18  19
ATOM     19  C   UNL     1      10.735 -10.971  11.901  1.00  0.00     0.000 C 
BRANCH  19  20
ATOM     20  C   UNL     1      11.126 -12.412  12.274  1.00  0.00     0.000 C 
BRANCH  20  21
ATOM     21  C   UNL     1      11.813 -12.495  13.648  1.00  0.00     0.000 C 
BRANCH  21  22
ATOM     22  C   UNL     1      13.123 -13.305  13.649  1.00  0.00     0.000 C 
BRANCH  22  23
ATOM     23  C   UNL     1      13.588 -13.682  12.231  1.00  0.00     0.000 C 
BRANCH  23  24
ATOM     24  C   UNL     1      15.118 -13.859  12.132  1.00  0.00    -0.000 C 
BRANCH  24  25
ATOM     25  C   UNL     1      15.889 -12.550  11.875  1.00  0.00    -0.000 C 
BRANCH  25  26
ATOM     26  C   UNL     1      16.496 -11.889  13.126  1.00  0.00    -0.000 C 
BRANCH  26  27
ATOM     27  C   UNL     1      17.779 -11.070  12.878  1.00  0.00    -0.000 C 
BRANCH  27  28
ATOM     28  C   UNL     1      17.604  -9.847  11.961  1.00  0.00    -0.000 C 
BRANCH  28  29
ATOM     29  C   UNL     1      17.791  -8.515  12.700  1.00  0.00    -0.000 C 
BRANCH  29  30
ATOM     30  C   UNL     1      17.625  -8.702  14.216  1.00  0.00    -0.000 C 
BRANCH  30  31
ATOM     31  C   UNL     1      18.954  -9.004  14.924  1.00  0.00    -0.003 C 
ATOM     32  C   UNL     1      18.815 -10.069  16.012  1.00  0.00     0.004 C 
ENDBRANCH  30  31
ENDBRANCH  29  30
ENDBRANCH  28  29
ENDBRANCH  27  28
ENDBRANCH  26  27
ENDBRANCH  25  26
ENDBRANCH  24  25
ENDBRANCH  23  24
ENDBRANCH  22  23
ENDBRANCH  21  22
ENDBRANCH  20  21
ENDBRANCH  19  20
ENDBRANCH  18  19
ENDBRANCH   1  18
TORSDOF 28
ENDMDL
