MODEL 1
REMARK VINA RESULT:    14.518      0.000      0.000
REMARK INTER + INTRA:          18.394
REMARK INTER:                  18.337
REMARK INTRA:                   0.057
REMARK UNBOUND:                 0.057
REMARK SMILES O=C(C=Cc1ccc(O)cc1)c1ccc(O)cc1O
REMARK SMILES IDX 4 1 3 2 5 3 6 4 7 5 8 6 11 7 10 8 9 9 2 11 1 12 12 13 18 14
REMARK SMILES IDX 13 15 17 16 14 17 15 18 19 19 16 21
REMARK H PARENT 9 10 19 20 16 22
REMARK Flexibility Score: inf
ROOT
ATOM      1  C   UNL     1      -5.058  -0.215  12.891  1.00  0.00     0.012 C 
ATOM      2  C   UNL     1      -5.640  -0.807  13.945  1.00  0.00     0.053 C 
ENDROOT
BRANCH   1   3
ATOM      3  C   UNL     1      -5.081   1.249  12.651  1.00  0.00    -0.025 A 
ATOM      4  C   UNL     1      -4.186   2.138  13.282  1.00  0.00     0.012 A 
ATOM      5  C   UNL     1      -4.256   3.512  13.029  1.00  0.00     0.047 A 
ATOM      6  C   UNL     1      -5.220   4.019  12.155  1.00  0.00     0.115 A 
ATOM      7  C   UNL     1      -6.056   1.772  11.785  1.00  0.00     0.012 A 
ATOM      8  C   UNL     1      -6.123   3.146  11.535  1.00  0.00     0.047 A 
BRANCH   6   9
ATOM      9  O   UNL     1      -5.277   5.389  11.912  1.00  0.00    -0.508 OA
ATOM     10  H   UNL     1      -4.445   5.923  11.689  1.00  0.00     0.293 HD
ENDBRANCH   6   9
ENDBRANCH   1   3
BRANCH   2  11
ATOM     11  C   UNL     1      -5.599  -2.267  14.171  1.00  0.00     0.189 C 
ATOM     12  O   UNL     1      -6.110  -2.727  15.227  1.00  0.00    -0.289 OA
BRANCH  11  13
ATOM     13  C   UNL     1      -5.012  -3.214  13.199  1.00  0.00     0.064 A 
ATOM     14  C   UNL     1      -3.654  -3.139  12.803  1.00  0.00     0.130 A 
ATOM     15  C   UNL     1      -5.828  -4.221  12.662  1.00  0.00     0.020 A 
ATOM     16  C   UNL     1      -3.161  -4.037  11.849  1.00  0.00     0.093 A 
ATOM     17  C   UNL     1      -5.322  -5.117  11.718  1.00  0.00     0.047 A 
ATOM     18  C   UNL     1      -3.991  -5.026  11.305  1.00  0.00     0.119 A 
BRANCH  14  19
ATOM     19  O   UNL     1      -2.773  -2.206  13.352  1.00  0.00    -0.507 OA
ATOM     20  H   UNL     1      -2.881  -1.829  14.284  1.00  0.00     0.293 HD
ENDBRANCH  14  19
BRANCH  18  21
ATOM     21  O   UNL     1      -3.501  -5.922  10.357  1.00  0.00    -0.508 OA
ATOM     22  H   UNL     1      -3.864  -5.944   9.412  1.00  0.00     0.293 HD
ENDBRANCH  18  21
ENDBRANCH  11  13
ENDBRANCH   2  11
TORSDOF 6
ENDMDL
MODEL 2
REMARK VINA RESULT:    15.633      0.938      1.955
REMARK INTER + INTRA:          19.802
REMARK INTER:                  20.198
REMARK INTRA:                  -0.396
REMARK UNBOUND:                 0.057
REMARK SMILES O=C(C=Cc1ccc(O)cc1)c1ccc(O)cc1O
REMARK SMILES IDX 4 1 3 2 5 3 6 4 7 5 8 6 11 7 10 8 9 9 2 11 1 12 12 13 18 14
REMARK SMILES IDX 13 15 17 16 14 17 15 18 19 19 16 21
REMARK H PARENT 9 10 19 20 16 22
REMARK Flexibility Score: inf
ROOT
ATOM      1  C   UNL     1      -4.646  -0.258  12.678  1.00  0.00     0.012 C 
ATOM      2  C   UNL     1      -4.716  -0.880  13.865  1.00  0.00     0.053 C 
ENDROOT
BRANCH   1   3
ATOM      3  C   UNL     1      -4.948   1.181  12.482  1.00  0.00    -0.025 A 
ATOM      4  C   UNL     1      -5.881   1.638  11.528  1.00  0.00     0.012 A 
ATOM      5  C   UNL     1      -6.123   3.008  11.375  1.00  0.00     0.047 A 
ATOM      6  C   UNL     1      -5.435   3.937  12.159  1.00  0.00     0.115 A 
ATOM      7  C   UNL     1      -4.252   2.125  13.255  1.00  0.00     0.012 A 
ATOM      8  C   UNL     1      -4.497   3.493  13.098  1.00  0.00     0.047 A 
BRANCH   6   9
ATOM      9  O   UNL     1      -5.687   5.297  11.996  1.00  0.00    -0.508 OA
ATOM     10  H   UNL     1      -5.664   5.735  11.082  1.00  0.00     0.293 HD
ENDBRANCH   6   9
ENDBRANCH   1   3
BRANCH   2  11
ATOM     11  C   UNL     1      -4.403  -2.314  14.041  1.00  0.00     0.189 C 
ATOM     12  O   UNL     1      -4.307  -2.769  15.212  1.00  0.00    -0.289 OA
BRANCH  11  13
ATOM     13  C   UNL     1      -4.228  -3.243  12.904  1.00  0.00     0.064 A 
ATOM     14  C   UNL     1      -5.056  -4.378  12.728  1.00  0.00     0.130 A 
ATOM     15  C   UNL     1      -3.216  -2.980  11.969  1.00  0.00     0.020 A 
ATOM     16  C   UNL     1      -4.821  -5.245  11.654  1.00  0.00     0.093 A 
ATOM     17  C   UNL     1      -2.998  -3.847  10.896  1.00  0.00     0.047 A 
ATOM     18  C   UNL     1      -3.794  -4.984  10.738  1.00  0.00     0.119 A 
BRANCH  14  19
ATOM     19  O   UNL     1      -6.124  -4.656  13.582  1.00  0.00    -0.507 OA
ATOM     20  H   UNL     1      -6.442  -4.011  14.294  1.00  0.00     0.293 HD
ENDBRANCH  14  19
BRANCH  18  21
ATOM     21  O   UNL     1      -3.561  -5.844   9.667  1.00  0.00    -0.508 OA
ATOM     22  H   UNL     1      -3.062  -5.537   8.841  1.00  0.00     0.293 HD
ENDBRANCH  18  21
ENDBRANCH  11  13
ENDBRANCH   2  11
TORSDOF 6
ENDMDL
