MODEL 1
REMARK VINA RESULT:    -7.076      0.000      0.000
REMARK INTER + INTRA:          -8.890
REMARK INTER:                  -8.731
REMARK INTRA:                  -0.159
REMARK UNBOUND:                -0.159
REMARK SMILES O=c1c(O)c(-c2cc(O)c(O)c(O)c2)oc2cc(O)cc(O)c12
REMARK SMILES IDX 5 1 3 2 2 3 1 4 23 5 21 6 20 7 18 8 17 9 16 10 15 11 6 12
REMARK SMILES IDX 7 13 8 14 14 15 10 16 12 17 9 18 11 20 13 22 4 24 22 26
REMARK SMILES IDX 19 28
REMARK H PARENT 9 19 11 21 13 23 4 25 22 27 19 29
REMARK Flexibility Score: inf
ROOT
ATOM      1  C   UNL     1      17.888 -23.374 -11.526  1.00  0.00     0.180 A 
ATOM      2  C   UNL     1      18.563 -23.350 -10.291  1.00  0.00     0.208 A 
ATOM      3  C   UNL     1      19.550 -22.376 -10.076  1.00  0.00     0.238 A 
ATOM      4  O   UNL     1      20.170 -22.352  -8.978  1.00  0.00    -0.285 OA
ATOM      5  C   UNL     1      19.829 -21.432 -11.086  1.00  0.00     0.111 A 
ATOM      6  C   UNL     1      20.805 -20.416 -10.947  1.00  0.00     0.134 A 
ATOM      7  C   UNL     1      21.019 -19.508 -11.995  1.00  0.00     0.093 A 
ATOM      8  C   UNL     1      20.275 -19.598 -13.178  1.00  0.00     0.123 A 
ATOM      9  C   UNL     1      19.312 -20.599 -13.319  1.00  0.00     0.094 A 
ATOM     10  C   UNL     1      19.086 -21.514 -12.287  1.00  0.00     0.146 A 
ATOM     11  O   UNL     1      18.167 -22.459 -12.450  1.00  0.00    -0.452 OA
ENDROOT
BRANCH   1  12
ATOM     12  C   UNL     1      16.848 -24.382 -11.835  1.00  0.00     0.029 A 
ATOM     13  C   UNL     1      17.186 -25.742 -11.845  1.00  0.00     0.062 A 
ATOM     14  C   UNL     1      16.225 -26.723 -12.113  1.00  0.00     0.162 A 
ATOM     15  C   UNL     1      15.515 -24.010 -12.063  1.00  0.00     0.062 A 
ATOM     16  C   UNL     1      14.886 -26.340 -12.365  1.00  0.00     0.200 A 
ATOM     17  C   UNL     1      14.541 -24.975 -12.330  1.00  0.00     0.162 A 
BRANCH  14  18
ATOM     18  O   UNL     1      16.642 -28.056 -12.116  1.00  0.00    -0.504 OA
ATOM     19  H   UNL     1      16.190 -28.793 -11.594  1.00  0.00     0.293 HD
ENDBRANCH  14  18
BRANCH  16  20
ATOM     20  O   UNL     1      13.883 -27.273 -12.645  1.00  0.00    -0.502 OA
ATOM     21  H   UNL     1      13.247 -27.205 -13.426  1.00  0.00     0.293 HD
ENDBRANCH  16  20
BRANCH  17  22
ATOM     22  O   UNL     1      13.229 -24.559 -12.558  1.00  0.00    -0.504 OA
ATOM     23  H   UNL     1      12.918 -23.616 -12.360  1.00  0.00     0.293 HD
ENDBRANCH  17  22
ENDBRANCH   1  12
BRANCH   2  24
ATOM     24  O   UNL     1      18.233 -24.266  -9.288  1.00  0.00    -0.502 OA
ATOM     25  H   UNL     1      18.439 -24.098  -8.311  1.00  0.00     0.293 HD
ENDBRANCH   2  24
BRANCH   6  26
ATOM     26  O   UNL     1      21.562 -20.300  -9.780  1.00  0.00    -0.507 OA
ATOM     27  H   UNL     1      21.214 -20.624  -8.885  1.00  0.00     0.293 HD
ENDBRANCH   6  26
BRANCH   8  28
ATOM     28  O   UNL     1      20.486 -18.697 -14.219  1.00  0.00    -0.508 OA
ATOM     29  H   UNL     1      20.676 -19.013 -15.163  1.00  0.00     0.293 HD
ENDBRANCH   8  28
TORSDOF 7
ENDMDL
MODEL 2
REMARK VINA RESULT:    -6.595      4.685      8.459
REMARK INTER + INTRA:          -8.297
REMARK INTER:                  -7.945
REMARK INTRA:                  -0.351
REMARK UNBOUND:                -0.159
REMARK SMILES O=c1c(O)c(-c2cc(O)c(O)c(O)c2)oc2cc(O)cc(O)c12
REMARK SMILES IDX 5 1 3 2 2 3 1 4 23 5 21 6 20 7 18 8 17 9 16 10 15 11 6 12
REMARK SMILES IDX 7 13 8 14 14 15 10 16 12 17 9 18 11 20 13 22 4 24 22 26
REMARK SMILES IDX 19 28
REMARK H PARENT 9 19 11 21 13 23 4 25 22 27 19 29
REMARK Flexibility Score: inf
ROOT
ATOM      1  C   UNL     1      12.815 -24.511  -9.788  1.00  0.00     0.180 A 
ATOM      2  C   UNL     1      12.218 -23.388 -10.393  1.00  0.00     0.208 A 
ATOM      3  C   UNL     1      11.117 -22.786  -9.766  1.00  0.00     0.238 A 
ATOM      4  O   UNL     1      10.567 -21.786 -10.304  1.00  0.00    -0.285 OA
ATOM      5  C   UNL     1      10.646 -23.299  -8.540  1.00  0.00     0.111 A 
ATOM      6  C   UNL     1       9.545 -22.747  -7.842  1.00  0.00     0.134 A 
ATOM      7  C   UNL     1       9.141 -23.310  -6.622  1.00  0.00     0.093 A 
ATOM      8  C   UNL     1       9.818 -24.413  -6.087  1.00  0.00     0.123 A 
ATOM      9  C   UNL     1      10.904 -24.961  -6.773  1.00  0.00     0.094 A 
ATOM     10  C   UNL     1      11.320 -24.415  -7.991  1.00  0.00     0.146 A 
ATOM     11  O   UNL     1      12.353 -24.959  -8.625  1.00  0.00    -0.452 OA
ENDROOT
BRANCH   1  12
ATOM     12  C   UNL     1      13.968 -25.213 -10.397  1.00  0.00     0.029 A 
ATOM     13  C   UNL     1      15.268 -24.756 -10.144  1.00  0.00     0.062 A 
ATOM     14  C   UNL     1      16.382 -25.408 -10.686  1.00  0.00     0.162 A 
ATOM     15  C   UNL     1      13.791 -26.365 -11.177  1.00  0.00     0.062 A 
ATOM     16  C   UNL     1      16.195 -26.556 -11.493  1.00  0.00     0.200 A 
ATOM     17  C   UNL     1      14.891 -27.031 -11.726  1.00  0.00     0.162 A 
BRANCH  14  18
ATOM     18  O   UNL     1      17.644 -24.884 -10.398  1.00  0.00    -0.504 OA
ATOM     19  H   UNL     1      18.481 -25.102 -10.918  1.00  0.00     0.293 HD
ENDBRANCH  14  18
BRANCH  16  20
ATOM     20  O   UNL     1      17.267 -27.246 -12.067  1.00  0.00    -0.502 OA
ATOM     21  H   UNL     1      17.754 -28.010 -11.621  1.00  0.00     0.293 HD
ENDBRANCH  16  20
BRANCH  17  22
ATOM     22  O   UNL     1      14.668 -28.168 -12.502  1.00  0.00    -0.504 OA
ATOM     23  H   UNL     1      13.877 -28.250 -13.129  1.00  0.00     0.293 HD
ENDBRANCH  17  22
ENDBRANCH   1  12
BRANCH   2  24
ATOM     24  O   UNL     1      12.736 -22.869 -11.583  1.00  0.00    -0.502 OA
ATOM     25  H   UNL     1      13.652 -22.440 -11.634  1.00  0.00     0.293 HD
ENDBRANCH   2  24
BRANCH   6  26
ATOM     26  O   UNL     1       8.850 -21.647  -8.348  1.00  0.00    -0.507 OA
ATOM     27  H   UNL     1       9.254 -21.040  -9.053  1.00  0.00     0.293 HD
ENDBRANCH   6  26
BRANCH   8  28
ATOM     28  O   UNL     1       9.419 -24.972  -4.876  1.00  0.00    -0.508 OA
ATOM     29  H   UNL     1       9.631 -24.526  -3.991  1.00  0.00     0.293 HD
ENDBRANCH   8  28
TORSDOF 7
ENDMDL
MODEL 3
REMARK VINA RESULT:    -6.482      4.665      8.430
REMARK INTER + INTRA:          -8.157
REMARK INTER:                  -7.875
REMARK INTRA:                  -0.282
REMARK UNBOUND:                -0.159
REMARK SMILES O=c1c(O)c(-c2cc(O)c(O)c(O)c2)oc2cc(O)cc(O)c12
REMARK SMILES IDX 5 1 3 2 2 3 1 4 23 5 21 6 20 7 18 8 17 9 16 10 15 11 6 12
REMARK SMILES IDX 7 13 8 14 14 15 10 16 12 17 9 18 11 20 13 22 4 24 22 26
REMARK SMILES IDX 19 28
REMARK H PARENT 9 19 11 21 13 23 4 25 22 27 19 29
REMARK Flexibility Score: inf
ROOT
ATOM      1  C   UNL     1      12.852 -24.413  -9.849  1.00  0.00     0.180 A 
ATOM      2  C   UNL     1      12.189 -23.310 -10.420  1.00  0.00     0.208 A 
ATOM      3  C   UNL     1      11.074 -22.773  -9.757  1.00  0.00     0.238 A 
ATOM      4  O   UNL     1      10.465 -21.792 -10.264  1.00  0.00    -0.285 OA
ATOM      5  C   UNL     1      10.656 -23.331  -8.532  1.00  0.00     0.111 A 
ATOM      6  C   UNL     1       9.545 -22.846  -7.799  1.00  0.00     0.134 A 
ATOM      7  C   UNL     1       9.196 -23.450  -6.582  1.00  0.00     0.093 A 
ATOM      8  C   UNL     1       9.937 -24.528  -6.084  1.00  0.00     0.123 A 
ATOM      9  C   UNL     1      11.033 -25.010  -6.803  1.00  0.00     0.094 A 
ATOM     10  C   UNL     1      11.395 -24.423  -8.019  1.00  0.00     0.146 A 
ATOM     11  O   UNL     1      12.438 -24.905  -8.685  1.00  0.00    -0.452 OA
ENDROOT
BRANCH   1  12
ATOM     12  C   UNL     1      14.023 -25.048 -10.496  1.00  0.00     0.029 A 
ATOM     13  C   UNL     1      13.867 -26.273 -11.160  1.00  0.00     0.062 A 
ATOM     14  C   UNL     1      14.947 -26.891 -11.799  1.00  0.00     0.162 A 
ATOM     15  C   UNL     1      15.278 -24.421 -10.511  1.00  0.00     0.062 A 
ATOM     16  C   UNL     1      16.217 -26.264 -11.790  1.00  0.00     0.200 A 
ATOM     17  C   UNL     1      16.368 -25.022 -11.146  1.00  0.00     0.162 A 
BRANCH  14  18
ATOM     18  O   UNL     1      14.714 -28.116 -12.428  1.00  0.00    -0.504 OA
ATOM     19  H   UNL     1      14.000 -28.771 -12.146  1.00  0.00     0.293 HD
ENDBRANCH  14  18
BRANCH  16  20
ATOM     20  O   UNL     1      17.334 -26.835 -12.406  1.00  0.00    -0.502 OA
ATOM     21  H   UNL     1      17.353 -27.152 -13.365  1.00  0.00     0.293 HD
ENDBRANCH  16  20
BRANCH  17  22
ATOM     22  O   UNL     1      17.599 -24.366 -11.129  1.00  0.00    -0.504 OA
ATOM     23  H   UNL     1      17.784 -23.575 -10.524  1.00  0.00     0.293 HD
ENDBRANCH  17  22
ENDBRANCH   1  12
BRANCH   2  24
ATOM     24  O   UNL     1      12.654 -22.745 -11.610  1.00  0.00    -0.502 OA
ATOM     25  H   UNL     1      12.035 -22.510 -12.377  1.00  0.00     0.293 HD
ENDBRANCH   2  24
BRANCH   6  26
ATOM     26  O   UNL     1       8.787 -21.772  -8.270  1.00  0.00    -0.507 OA
ATOM     27  H   UNL     1       7.953 -21.456  -7.788  1.00  0.00     0.293 HD
ENDBRANCH   6  26
BRANCH   8  28
ATOM     28  O   UNL     1       9.592 -25.128  -4.875  1.00  0.00    -0.508 OA
ATOM     29  H   UNL     1      10.294 -25.371  -4.185  1.00  0.00     0.293 HD
ENDBRANCH   8  28
TORSDOF 7
ENDMDL
MODEL 4
REMARK VINA RESULT:    -6.444      4.083      7.098
REMARK INTER + INTRA:          -8.109
REMARK INTER:                  -7.750
REMARK INTRA:                  -0.359
REMARK UNBOUND:                -0.159
REMARK SMILES O=c1c(O)c(-c2cc(O)c(O)c(O)c2)oc2cc(O)cc(O)c12
REMARK SMILES IDX 5 1 3 2 2 3 1 4 23 5 21 6 20 7 18 8 17 9 16 10 15 11 6 12
REMARK SMILES IDX 7 13 8 14 14 15 10 16 12 17 9 18 11 20 13 22 4 24 22 26
REMARK SMILES IDX 19 28
REMARK H PARENT 9 19 11 21 13 23 4 25 22 27 19 29
REMARK Flexibility Score: inf
ROOT
ATOM      1  C   UNL     1      13.277 -24.168  -9.917  1.00  0.00     0.180 A 
ATOM      2  C   UNL     1      12.875 -25.456 -10.318  1.00  0.00     0.208 A 
ATOM      3  C   UNL     1      13.814 -26.299 -10.932  1.00  0.00     0.238 A 
ATOM      4  O   UNL     1      13.462 -27.452 -11.306  1.00  0.00    -0.285 OA
ATOM      5  C   UNL     1      15.138 -25.852 -11.115  1.00  0.00     0.111 A 
ATOM      6  C   UNL     1      16.145 -26.642 -11.722  1.00  0.00     0.134 A 
ATOM      7  C   UNL     1      17.443 -26.127 -11.860  1.00  0.00     0.093 A 
ATOM      8  C   UNL     1      17.752 -24.841 -11.404  1.00  0.00     0.123 A 
ATOM      9  C   UNL     1      16.762 -24.058 -10.806  1.00  0.00     0.094 A 
ATOM     10  C   UNL     1      15.462 -24.552 -10.661  1.00  0.00     0.146 A 
ATOM     11  O   UNL     1      14.539 -23.784 -10.093  1.00  0.00    -0.452 OA
ENDROOT
BRANCH   1  12
ATOM     12  C   UNL     1      12.341 -23.213  -9.281  1.00  0.00     0.029 A 
ATOM     13  C   UNL     1      11.590 -22.344 -10.083  1.00  0.00     0.062 A 
ATOM     14  C   UNL     1      10.681 -21.443  -9.516  1.00  0.00     0.162 A 
ATOM     15  C   UNL     1      12.146 -23.199  -7.892  1.00  0.00     0.062 A 
ATOM     16  C   UNL     1      10.505 -21.417  -8.112  1.00  0.00     0.200 A 
ATOM     17  C   UNL     1      11.241 -22.308  -7.308  1.00  0.00     0.162 A 
BRANCH  14  18
ATOM     18  O   UNL     1       9.978 -20.601 -10.381  1.00  0.00    -0.504 OA
ATOM     19  H   UNL     1       9.681 -19.665 -10.144  1.00  0.00     0.293 HD
ENDBRANCH  14  18
BRANCH  16  20
ATOM     20  O   UNL     1       9.617 -20.536  -7.487  1.00  0.00    -0.502 OA
ATOM     21  H   UNL     1       8.617 -20.670  -7.451  1.00  0.00     0.293 HD
ENDBRANCH  16  20
BRANCH  17  22
ATOM     22  O   UNL     1      11.084 -22.324  -5.922  1.00  0.00    -0.504 OA
ATOM     23  H   UNL     1      10.688 -23.115  -5.430  1.00  0.00     0.293 HD
ENDBRANCH  17  22
ENDBRANCH   1  12
BRANCH   2  24
ATOM     24  O   UNL     1      11.569 -25.893 -10.080  1.00  0.00    -0.502 OA
ATOM     25  H   UNL     1      11.146 -25.862  -9.161  1.00  0.00     0.293 HD
ENDBRANCH   2  24
BRANCH   6  26
ATOM     26  O   UNL     1      15.868 -27.928 -12.186  1.00  0.00    -0.507 OA
ATOM     27  H   UNL     1      16.536 -28.452 -12.739  1.00  0.00     0.293 HD
ENDBRANCH   6  26
BRANCH   8  28
ATOM     28  O   UNL     1      19.041 -24.330 -11.541  1.00  0.00    -0.508 OA
ATOM     29  H   UNL     1      19.660 -24.232 -10.744  1.00  0.00     0.293 HD
ENDBRANCH   8  28
TORSDOF 7
ENDMDL
MODEL 5
REMARK VINA RESULT:    -6.419      4.416      6.901
REMARK INTER + INTRA:          -8.079
REMARK INTER:                  -7.842
REMARK INTRA:                  -0.237
REMARK UNBOUND:                -0.159
REMARK SMILES O=c1c(O)c(-c2cc(O)c(O)c(O)c2)oc2cc(O)cc(O)c12
REMARK SMILES IDX 5 1 3 2 2 3 1 4 23 5 21 6 20 7 18 8 17 9 16 10 15 11 6 12
REMARK SMILES IDX 7 13 8 14 14 15 10 16 12 17 9 18 11 20 13 22 4 24 22 26
REMARK SMILES IDX 19 28
REMARK H PARENT 9 19 11 21 13 23 4 25 22 27 19 29
REMARK Flexibility Score: inf
ROOT
ATOM      1  C   UNL     1      13.051 -23.615 -10.944  1.00  0.00     0.180 A 
ATOM      2  C   UNL     1      11.859 -23.830 -10.226  1.00  0.00     0.208 A 
ATOM      3  C   UNL     1      10.894 -22.812 -10.194  1.00  0.00     0.238 A 
ATOM      4  O   UNL     1       9.827 -22.989  -9.545  1.00  0.00    -0.285 OA
ATOM      5  C   UNL     1      11.124 -21.610 -10.895  1.00  0.00     0.111 A 
ATOM      6  C   UNL     1      10.200 -20.537 -10.917  1.00  0.00     0.134 A 
ATOM      7  C   UNL     1      10.500 -19.376 -11.645  1.00  0.00     0.093 A 
ATOM      8  C   UNL     1      11.703 -19.268 -12.352  1.00  0.00     0.123 A 
ATOM      9  C   UNL     1      12.618 -20.323 -12.332  1.00  0.00     0.094 A 
ATOM     10  C   UNL     1      12.339 -21.488 -11.610  1.00  0.00     0.146 A 
ATOM     11  O   UNL     1      13.229 -22.474 -11.605  1.00  0.00    -0.452 OA
ENDROOT
BRANCH   1  12
ATOM     12  C   UNL     1      14.125 -24.632 -11.009  1.00  0.00     0.029 A 
ATOM     13  C   UNL     1      15.328 -24.411 -10.325  1.00  0.00     0.062 A 
ATOM     14  C   UNL     1      16.357 -25.360 -10.348  1.00  0.00     0.162 A 
ATOM     15  C   UNL     1      13.944 -25.842 -11.695  1.00  0.00     0.062 A 
ATOM     16  C   UNL     1      16.177 -26.569 -11.061  1.00  0.00     0.200 A 
ATOM     17  C   UNL     1      14.959 -26.802 -11.727  1.00  0.00     0.162 A 
BRANCH  14  18
ATOM     18  O   UNL     1      17.530 -25.061  -9.651  1.00  0.00    -0.504 OA
ATOM     19  H   UNL     1      17.664 -25.235  -8.665  1.00  0.00     0.293 HD
ENDBRANCH  14  18
BRANCH  16  20
ATOM     20  O   UNL     1      17.169 -27.551 -11.125  1.00  0.00    -0.502 OA
ATOM     21  H   UNL     1      17.575 -28.001 -10.318  1.00  0.00     0.293 HD
ENDBRANCH  16  20
BRANCH  17  22
ATOM     22  O   UNL     1      14.738 -27.988 -12.427  1.00  0.00    -0.504 OA
ATOM     23  H   UNL     1      14.562 -28.004 -13.424  1.00  0.00     0.293 HD
ENDBRANCH  17  22
ENDBRANCH   1  12
BRANCH   2  24
ATOM     24  O   UNL     1      11.634 -25.049  -9.582  1.00  0.00    -0.502 OA
ATOM     25  H   UNL     1      12.376 -25.569  -9.130  1.00  0.00     0.293 HD
ENDBRANCH   2  24
BRANCH   6  26
ATOM     26  O   UNL     1       8.991 -20.615 -10.224  1.00  0.00    -0.507 OA
ATOM     27  H   UNL     1       8.198 -21.127 -10.592  1.00  0.00     0.293 HD
ENDBRANCH   6  26
BRANCH   8  28
ATOM     28  O   UNL     1      12.001 -18.116 -13.075  1.00  0.00    -0.508 OA
ATOM     29  H   UNL     1      11.734 -17.197 -12.741  1.00  0.00     0.293 HD
ENDBRANCH   8  28
TORSDOF 7
ENDMDL
MODEL 6
REMARK VINA RESULT:    -6.405      4.070      7.013
REMARK INTER + INTRA:          -8.061
REMARK INTER:                  -7.695
REMARK INTRA:                  -0.367
REMARK UNBOUND:                -0.159
REMARK SMILES O=c1c(O)c(-c2cc(O)c(O)c(O)c2)oc2cc(O)cc(O)c12
REMARK SMILES IDX 5 1 3 2 2 3 1 4 23 5 21 6 20 7 18 8 17 9 16 10 15 11 6 12
REMARK SMILES IDX 7 13 8 14 14 15 10 16 12 17 9 18 11 20 13 22 4 24 22 26
REMARK SMILES IDX 19 28
REMARK H PARENT 9 19 11 21 13 23 4 25 22 27 19 29
REMARK Flexibility Score: inf
ROOT
ATOM      1  C   UNL     1      13.180 -24.120 -10.021  1.00  0.00     0.180 A 
ATOM      2  C   UNL     1      12.793 -25.424 -10.385  1.00  0.00     0.208 A 
ATOM      3  C   UNL     1      13.745 -26.278 -10.961  1.00  0.00     0.238 A 
ATOM      4  O   UNL     1      13.407 -27.445 -11.300  1.00  0.00    -0.285 OA
ATOM      5  C   UNL     1      15.068 -25.826 -11.144  1.00  0.00     0.111 A 
ATOM      6  C   UNL     1      16.088 -26.626 -11.713  1.00  0.00     0.134 A 
ATOM      7  C   UNL     1      17.383 -26.105 -11.854  1.00  0.00     0.093 A 
ATOM      8  C   UNL     1      17.677 -24.802 -11.436  1.00  0.00     0.123 A 
ATOM      9  C   UNL     1      16.673 -24.009 -10.875  1.00  0.00     0.094 A 
ATOM     10  C   UNL     1      15.376 -24.509 -10.728  1.00  0.00     0.146 A 
ATOM     11  O   UNL     1      14.440 -23.731 -10.196  1.00  0.00    -0.452 OA
ENDROOT
BRANCH   1  12
ATOM     12  C   UNL     1      12.229 -23.154  -9.426  1.00  0.00     0.029 A 
ATOM     13  C   UNL     1      12.120 -23.061  -8.032  1.00  0.00     0.062 A 
ATOM     14  C   UNL     1      11.247 -22.144  -7.435  1.00  0.00     0.162 A 
ATOM     15  C   UNL     1      11.475 -22.284 -10.227  1.00  0.00     0.062 A 
ATOM     16  C   UNL     1      10.470 -21.286  -8.250  1.00  0.00     0.200 A 
ATOM     17  C   UNL     1      10.599 -21.361  -9.650  1.00  0.00     0.162 A 
BRANCH  14  18
ATOM     18  O   UNL     1      11.186 -22.121  -6.040  1.00  0.00    -0.504 OA
ATOM     19  H   UNL     1      11.992 -22.022  -5.439  1.00  0.00     0.293 HD
ENDBRANCH  14  18
BRANCH  16  20
ATOM     20  O   UNL     1       9.577 -20.355  -7.713  1.00  0.00    -0.502 OA
ATOM     21  H   UNL     1       9.854 -19.478  -7.296  1.00  0.00     0.293 HD
ENDBRANCH  16  20
BRANCH  17  22
ATOM     22  O   UNL     1       9.862 -20.522 -10.485  1.00  0.00    -0.504 OA
ATOM     23  H   UNL     1       9.643 -20.767 -11.443  1.00  0.00     0.293 HD
ENDBRANCH  17  22
ENDBRANCH   1  12
BRANCH   2  24
ATOM     24  O   UNL     1      11.488 -25.864 -10.147  1.00  0.00    -0.502 OA
ATOM     25  H   UNL     1      11.227 -26.841 -10.203  1.00  0.00     0.293 HD
ENDBRANCH   2  24
BRANCH   6  26
ATOM     26  O   UNL     1      15.827 -27.929 -12.138  1.00  0.00    -0.507 OA
ATOM     27  H   UNL     1      14.881 -28.263 -12.282  1.00  0.00     0.293 HD
ENDBRANCH   6  26
BRANCH   8  28
ATOM     28  O   UNL     1      18.962 -24.284 -11.576  1.00  0.00    -0.508 OA
ATOM     29  H   UNL     1      19.781 -24.817 -11.304  1.00  0.00     0.293 HD
ENDBRANCH   8  28
TORSDOF 7
ENDMDL
MODEL 7
REMARK VINA RESULT:    -6.385      4.446      6.946
REMARK INTER + INTRA:          -8.037
REMARK INTER:                  -7.806
REMARK INTRA:                  -0.232
REMARK UNBOUND:                -0.159
REMARK SMILES O=c1c(O)c(-c2cc(O)c(O)c(O)c2)oc2cc(O)cc(O)c12
REMARK SMILES IDX 5 1 3 2 2 3 1 4 23 5 21 6 20 7 18 8 17 9 16 10 15 11 6 12
REMARK SMILES IDX 7 13 8 14 14 15 10 16 12 17 9 18 11 20 13 22 4 24 22 26
REMARK SMILES IDX 19 28
REMARK H PARENT 9 19 11 21 13 23 4 25 22 27 19 29
REMARK Flexibility Score: inf
ROOT
ATOM      1  C   UNL     1      12.995 -23.628 -10.897  1.00  0.00     0.180 A 
ATOM      2  C   UNL     1      11.786 -23.836 -10.208  1.00  0.00     0.208 A 
ATOM      3  C   UNL     1      10.821 -22.817 -10.209  1.00  0.00     0.238 A 
ATOM      4  O   UNL     1       9.738 -22.988  -9.586  1.00  0.00    -0.285 OA
ATOM      5  C   UNL     1      11.071 -21.622 -10.912  1.00  0.00     0.111 A 
ATOM      6  C   UNL     1      10.149 -20.548 -10.967  1.00  0.00     0.134 A 
ATOM      7  C   UNL     1      10.468 -19.393 -11.696  1.00  0.00     0.093 A 
ATOM      8  C   UNL     1      11.690 -19.292 -12.372  1.00  0.00     0.123 A 
ATOM      9  C   UNL     1      12.602 -20.348 -12.321  1.00  0.00     0.094 A 
ATOM     10  C   UNL     1      12.303 -21.506 -11.598  1.00  0.00     0.146 A 
ATOM     11  O   UNL     1      13.191 -22.493 -11.562  1.00  0.00    -0.452 OA
ENDROOT
BRANCH   1  12
ATOM     12  C   UNL     1      14.070 -24.647 -10.927  1.00  0.00     0.029 A 
ATOM     13  C   UNL     1      13.876 -25.835 -11.646  1.00  0.00     0.062 A 
ATOM     14  C   UNL     1      14.877 -26.810 -11.712  1.00  0.00     0.162 A 
ATOM     15  C   UNL     1      15.304 -24.425 -10.299  1.00  0.00     0.062 A 
ATOM     16  C   UNL     1      16.112 -26.590 -11.056  1.00  0.00     0.200 A 
ATOM     17  C   UNL     1      16.316 -25.387 -10.356  1.00  0.00     0.162 A 
BRANCH  14  18
ATOM     18  O   UNL     1      14.604 -27.972 -12.438  1.00  0.00    -0.504 OA
ATOM     19  H   UNL     1      14.413 -27.989 -13.429  1.00  0.00     0.293 HD
ENDBRANCH  14  18
BRANCH  16  20
ATOM     20  O   UNL     1      17.147 -27.529 -11.082  1.00  0.00    -0.502 OA
ATOM     21  H   UNL     1      17.012 -28.526 -10.987  1.00  0.00     0.293 HD
ENDBRANCH  16  20
BRANCH  17  22
ATOM     22  O   UNL     1      17.525 -25.127  -9.710  1.00  0.00    -0.504 OA
ATOM     23  H   UNL     1      17.859 -24.185  -9.543  1.00  0.00     0.293 HD
ENDBRANCH  17  22
ENDBRANCH   1  12
BRANCH   2  24
ATOM     24  O   UNL     1      11.543 -25.050  -9.560  1.00  0.00    -0.502 OA
ATOM     25  H   UNL     1      10.624 -25.475  -9.530  1.00  0.00     0.293 HD
ENDBRANCH   2  24
BRANCH   6  26
ATOM     26  O   UNL     1       8.922 -20.619 -10.304  1.00  0.00    -0.507 OA
ATOM     27  H   UNL     1       8.131 -21.115 -10.698  1.00  0.00     0.293 HD
ENDBRANCH   6  26
BRANCH   8  28
ATOM     28  O   UNL     1      12.007 -18.145 -13.097  1.00  0.00    -0.508 OA
ATOM     29  H   UNL     1      12.044 -18.152 -14.110  1.00  0.00     0.293 HD
ENDBRANCH   8  28
TORSDOF 7
ENDMDL
MODEL 8
REMARK VINA RESULT:    -6.264      1.656      7.071
REMARK INTER + INTRA:          -7.887
REMARK INTER:                  -7.605
REMARK INTRA:                  -0.282
REMARK UNBOUND:                -0.159
REMARK SMILES O=c1c(O)c(-c2cc(O)c(O)c(O)c2)oc2cc(O)cc(O)c12
REMARK SMILES IDX 5 1 3 2 2 3 1 4 23 5 21 6 20 7 18 8 17 9 16 10 15 11 6 12
REMARK SMILES IDX 7 13 8 14 14 15 10 16 12 17 9 18 11 20 13 22 4 24 22 26
REMARK SMILES IDX 19 28
REMARK H PARENT 9 19 11 21 13 23 4 25 22 27 19 29
REMARK Flexibility Score: inf
ROOT
ATOM      1  C   UNL     1      17.560 -22.685 -11.472  1.00  0.00     0.180 A 
ATOM      2  C   UNL     1      17.941 -24.040 -11.496  1.00  0.00     0.208 A 
ATOM      3  C   UNL     1      16.949 -25.025 -11.369  1.00  0.00     0.238 A 
ATOM      4  O   UNL     1      17.280 -26.242 -11.378  1.00  0.00    -0.285 OA
ATOM      5  C   UNL     1      15.599 -24.643 -11.244  1.00  0.00     0.111 A 
ATOM      6  C   UNL     1      14.539 -25.573 -11.116  1.00  0.00     0.134 A 
ATOM      7  C   UNL     1      13.218 -25.113 -11.004  1.00  0.00     0.093 A 
ATOM      8  C   UNL     1      12.938 -23.741 -11.018  1.00  0.00     0.123 A 
ATOM      9  C   UNL     1      13.979 -22.820 -11.143  1.00  0.00     0.094 A 
ATOM     10  C   UNL     1      15.302 -23.259 -11.254  1.00  0.00     0.146 A 
ATOM     11  O   UNL     1      16.274 -22.361 -11.366  1.00  0.00    -0.452 OA
ENDROOT
BRANCH   1  12
ATOM     12  C   UNL     1      18.548 -21.587 -11.581  1.00  0.00     0.029 A 
ATOM     13  C   UNL     1      18.903 -20.862 -10.435  1.00  0.00     0.062 A 
ATOM     14  C   UNL     1      19.849 -19.832 -10.497  1.00  0.00     0.162 A 
ATOM     15  C   UNL     1      19.183 -21.294 -12.797  1.00  0.00     0.062 A 
ATOM     16  C   UNL     1      20.468 -19.525 -11.732  1.00  0.00     0.200 A 
ATOM     17  C   UNL     1      20.131 -20.270 -12.878  1.00  0.00     0.162 A 
BRANCH  14  18
ATOM     18  O   UNL     1      20.140 -19.148  -9.315  1.00  0.00    -0.504 OA
ATOM     19  H   UNL     1      20.438 -19.595  -8.460  1.00  0.00     0.293 HD
ENDBRANCH  14  18
BRANCH  16  20
ATOM     20  O   UNL     1      21.415 -18.504 -11.858  1.00  0.00    -0.502 OA
ATOM     21  H   UNL     1      22.182 -18.519 -12.514  1.00  0.00     0.293 HD
ENDBRANCH  16  20
BRANCH  17  22
ATOM     22  O   UNL     1      20.731 -20.008 -14.109  1.00  0.00    -0.504 OA
ATOM     23  H   UNL     1      20.614 -20.617 -14.909  1.00  0.00     0.293 HD
ENDBRANCH  17  22
ENDBRANCH   1  12
BRANCH   2  24
ATOM     24  O   UNL     1      19.281 -24.393 -11.672  1.00  0.00    -0.502 OA
ATOM     25  H   UNL     1      20.028 -23.970 -11.134  1.00  0.00     0.293 HD
ENDBRANCH   2  24
BRANCH   6  26
ATOM     26  O   UNL     1      14.786 -26.947 -11.100  1.00  0.00    -0.507 OA
ATOM     27  H   UNL     1      15.107 -27.440 -11.925  1.00  0.00     0.293 HD
ENDBRANCH   6  26
BRANCH   8  28
ATOM     28  O   UNL     1      11.627 -23.284 -10.907  1.00  0.00    -0.508 OA
ATOM     29  H   UNL     1      11.145 -22.860 -11.691  1.00  0.00     0.293 HD
ENDBRANCH   8  28
TORSDOF 7
ENDMDL
MODEL 9
REMARK VINA RESULT:    -6.144      4.559      7.120
REMARK INTER + INTRA:          -7.739
REMARK INTER:                  -7.615
REMARK INTRA:                  -0.125
REMARK UNBOUND:                -0.159
REMARK SMILES O=c1c(O)c(-c2cc(O)c(O)c(O)c2)oc2cc(O)cc(O)c12
REMARK SMILES IDX 5 1 3 2 2 3 1 4 23 5 21 6 20 7 18 8 17 9 16 10 15 11 6 12
REMARK SMILES IDX 7 13 8 14 14 15 10 16 12 17 9 18 11 20 13 22 4 24 22 26
REMARK SMILES IDX 19 28
REMARK H PARENT 9 19 11 21 13 23 4 25 22 27 19 29
REMARK Flexibility Score: inf
ROOT
ATOM      1  C   UNL     1      13.137 -24.188  -9.363  1.00  0.00     0.180 A 
ATOM      2  C   UNL     1      13.927 -23.093  -9.761  1.00  0.00     0.208 A 
ATOM      3  C   UNL     1      15.009 -23.315 -10.626  1.00  0.00     0.238 A 
ATOM      4  O   UNL     1      15.730 -22.343 -10.980  1.00  0.00    -0.285 OA
ATOM      5  C   UNL     1      15.270 -24.619 -11.095  1.00  0.00     0.111 A 
ATOM      6  C   UNL     1      16.337 -24.927 -11.973  1.00  0.00     0.134 A 
ATOM      7  C   UNL     1      16.526 -26.249 -12.402  1.00  0.00     0.093 A 
ATOM      8  C   UNL     1      15.668 -27.268 -11.971  1.00  0.00     0.123 A 
ATOM      9  C   UNL     1      14.614 -26.969 -11.105  1.00  0.00     0.094 A 
ATOM     10  C   UNL     1      14.411 -25.657 -10.665  1.00  0.00     0.146 A 
ATOM     11  O   UNL     1      13.404 -25.402  -9.837  1.00  0.00    -0.452 OA
ENDROOT
BRANCH   1  12
ATOM     12  C   UNL     1      11.991 -24.038  -8.438  1.00  0.00     0.029 A 
ATOM     13  C   UNL     1      12.001 -24.714  -7.210  1.00  0.00     0.062 A 
ATOM     14  C   UNL     1      10.945 -24.578  -6.303  1.00  0.00     0.162 A 
ATOM     15  C   UNL     1      10.918 -23.185  -8.737  1.00  0.00     0.062 A 
ATOM     16  C   UNL     1       9.853 -23.735  -6.621  1.00  0.00     0.200 A 
ATOM     17  C   UNL     1       9.855 -23.036  -7.843  1.00  0.00     0.162 A 
BRANCH  14  18
ATOM     18  O   UNL     1      11.023 -25.294  -5.105  1.00  0.00    -0.504 OA
ATOM     19  H   UNL     1      10.820 -26.279  -5.019  1.00  0.00     0.293 HD
ENDBRANCH  14  18
BRANCH  16  20
ATOM     20  O   UNL     1       8.767 -23.564  -5.758  1.00  0.00    -0.502 OA
ATOM     21  H   UNL     1       8.665 -22.789  -5.120  1.00  0.00     0.293 HD
ENDBRANCH  16  20
BRANCH  17  22
ATOM     22  O   UNL     1       8.805 -22.184  -8.185  1.00  0.00    -0.504 OA
ATOM     23  H   UNL     1       8.315 -21.625  -7.498  1.00  0.00     0.293 HD
ENDBRANCH  17  22
ENDBRANCH   1  12
BRANCH   2  24
ATOM     24  O   UNL     1      13.617 -21.803  -9.321  1.00  0.00    -0.502 OA
ATOM     25  H   UNL     1      13.498 -21.578  -8.340  1.00  0.00     0.293 HD
ENDBRANCH   2  24
BRANCH   6  26
ATOM     26  O   UNL     1      17.209 -23.933 -12.421  1.00  0.00    -0.507 OA
ATOM     27  H   UNL     1      17.833 -24.085 -13.206  1.00  0.00     0.293 HD
ENDBRANCH   6  26
BRANCH   8  28
ATOM     28  O   UNL     1      15.854 -28.581 -12.397  1.00  0.00    -0.508 OA
ATOM     29  H   UNL     1      16.690 -29.102 -12.158  1.00  0.00     0.293 HD
ENDBRANCH   8  28
TORSDOF 7
ENDMDL
