MODEL 1
REMARK VINA RESULT:    -2.635      0.000      0.000
REMARK INTER + INTRA:          -5.345
REMARK INTER:                  -4.946
REMARK INTRA:                  -0.399
REMARK UNBOUND:                -0.399
REMARK SMILES O=C([O-])CCCCCCCCCCCCCCC(=O)[O-]
REMARK SMILES IDX 10 1 9 2 8 3 7 4 6 5 5 6 4 7 2 8 1 9 3 10 11 11 12 12 13 13
REMARK SMILES IDX 14 14 15 15 16 16 17 17 18 18 19 19 20 20
REMARK H PARENT
REMARK Flexibility Score: inf
ROOT
ATOM      1  C   UNL     1      -6.125  35.626  22.541  1.00  0.00     0.000 C 
ENDROOT
BRANCH   1   2
ATOM      2  C   UNL     1      -5.656  34.880  23.803  1.00  0.00     0.000 C 
BRANCH   2   3
ATOM      3  C   UNL     1      -6.063  35.591  25.104  1.00  0.00     0.000 C 
BRANCH   3   4
ATOM      4  C   UNL     1      -4.892  36.379  25.730  1.00  0.00     0.000 C 
BRANCH   4   5
ATOM      5  C   UNL     1      -5.032  37.907  25.592  1.00  0.00     0.000 C 
BRANCH   5   6
ATOM      6  C   UNL     1      -5.634  38.382  24.259  1.00  0.00     0.006 C 
BRANCH   6   7
ATOM      7  C   UNL     1      -5.375  39.870  23.989  1.00  0.00     0.053 C 
BRANCH   7   8
ATOM      8  C   UNL     1      -5.775  40.222  22.591  1.00  0.00     0.041 C 
ATOM      9  O   UNL     1      -5.874  39.323  21.713  1.00  0.00    -0.550 OA
ATOM     10  O   UNL     1      -6.091  41.535  22.269  1.00  0.00    -0.550 OA
ENDBRANCH   7   8
ENDBRANCH   6   7
ENDBRANCH   5   6
ENDBRANCH   4   5
ENDBRANCH   3   4
ENDBRANCH   2   3
ENDBRANCH   1   2
BRANCH   1  11
ATOM     11  C   UNL     1      -6.125  34.784  21.249  1.00  0.00     0.000 C 
BRANCH  11  12
ATOM     12  C   UNL     1      -5.893  35.583  19.951  1.00  0.00     0.000 C 
BRANCH  12  13
ATOM     13  C   UNL     1      -4.419  35.705  19.518  1.00  0.00     0.000 C 
BRANCH  13  14
ATOM     14  C   UNL     1      -3.935  37.143  19.241  1.00  0.00     0.000 C 
BRANCH  14  15
ATOM     15  C   UNL     1      -2.445  37.270  18.879  1.00  0.00     0.000 C 
BRANCH  15  16
ATOM     16  C   UNL     1      -2.195  37.251  17.361  1.00  0.00     0.006 C 
BRANCH  16  17
ATOM     17  C   UNL     1      -3.372  36.642  16.588  1.00  0.00     0.053 C 
BRANCH  17  18
ATOM     18  C   UNL     1      -3.280  36.929  15.120  1.00  0.00     0.041 C 
ATOM     19  O   UNL     1      -3.901  37.905  14.624  1.00  0.00    -0.550 OA
ATOM     20  O   UNL     1      -2.486  36.131  14.305  1.00  0.00    -0.550 OA
ENDBRANCH  17  18
ENDBRANCH  16  17
ENDBRANCH  15  16
ENDBRANCH  14  15
ENDBRANCH  13  14
ENDBRANCH  12  13
ENDBRANCH  11  12
ENDBRANCH   1  11
TORSDOF 15
ENDMDL
MODEL 2
REMARK VINA RESULT:    -2.038      2.017      2.744
REMARK INTER + INTRA:          -4.223
REMARK INTER:                  -3.552
REMARK INTRA:                  -0.671
REMARK UNBOUND:                -0.399
REMARK SMILES O=C([O-])CCCCCCCCCCCCCCC(=O)[O-]
REMARK SMILES IDX 10 1 9 2 8 3 7 4 6 5 5 6 4 7 2 8 1 9 3 10 11 11 12 12 13 13
REMARK SMILES IDX 14 14 15 15 16 16 17 17 18 18 19 19 20 20
REMARK H PARENT
REMARK Flexibility Score: inf
ROOT
ATOM      1  C   UNL     1      -4.685  35.478  20.764  1.00  0.00     0.000 C 
ENDROOT
BRANCH   1   2
ATOM      2  C   UNL     1      -5.878  35.312  21.721  1.00  0.00     0.000 C 
BRANCH   2   3
ATOM      3  C   UNL     1      -5.484  34.667  23.061  1.00  0.00     0.000 C 
BRANCH   3   4
ATOM      4  C   UNL     1      -6.034  35.453  24.271  1.00  0.00     0.000 C 
BRANCH   4   5
ATOM      5  C   UNL     1      -5.444  36.869  24.409  1.00  0.00     0.000 C 
BRANCH   5   6
ATOM      6  C   UNL     1      -6.018  37.906  23.429  1.00  0.00     0.006 C 
BRANCH   6   7
ATOM      7  C   UNL     1      -5.404  39.299  23.614  1.00  0.00     0.053 C 
BRANCH   7   8
ATOM      8  C   UNL     1      -5.773  40.186  22.467  1.00  0.00     0.041 C 
ATOM      9  O   UNL     1      -6.123  39.687  21.366  1.00  0.00    -0.550 OA
ATOM     10  O   UNL     1      -5.779  41.566  22.630  1.00  0.00    -0.550 OA
ENDBRANCH   7   8
ENDBRANCH   6   7
ENDBRANCH   5   6
ENDBRANCH   4   5
ENDBRANCH   3   4
ENDBRANCH   2   3
ENDBRANCH   1   2
BRANCH   1  11
ATOM     11  C   UNL     1      -5.063  35.731  19.290  1.00  0.00     0.000 C 
BRANCH  11  12
ATOM     12  C   UNL     1      -5.038  34.482  18.388  1.00  0.00     0.000 C 
BRANCH  12  13
ATOM     13  C   UNL     1      -3.947  34.489  17.298  1.00  0.00     0.000 C 
BRANCH  13  14
ATOM     14  C   UNL     1      -4.034  35.656  16.294  1.00  0.00     0.000 C 
BRANCH  14  15
ATOM     15  C   UNL     1      -2.692  36.080  15.672  1.00  0.00     0.000 C 
BRANCH  15  16
ATOM     16  C   UNL     1      -1.670  36.552  16.720  1.00  0.00     0.006 C 
BRANCH  16  17
ATOM     17  C   UNL     1      -2.310  37.441  17.794  1.00  0.00     0.053 C 
BRANCH  17  18
ATOM     18  C   UNL     1      -1.485  37.486  19.043  1.00  0.00     0.041 C 
ATOM     19  O   UNL     1      -2.042  37.533  20.171  1.00  0.00    -0.550 OA
ATOM     20  O   UNL     1      -0.098  37.447  18.961  1.00  0.00    -0.550 OA
ENDBRANCH  17  18
ENDBRANCH  16  17
ENDBRANCH  15  16
ENDBRANCH  14  15
ENDBRANCH  13  14
ENDBRANCH  12  13
ENDBRANCH  11  12
ENDBRANCH   1  11
TORSDOF 15
ENDMDL
MODEL 3
REMARK VINA RESULT:    -2.012      1.983      3.497
REMARK INTER + INTRA:          -4.176
REMARK INTER:                  -3.352
REMARK INTRA:                  -0.823
REMARK UNBOUND:                -0.399
REMARK SMILES O=C([O-])CCCCCCCCCCCCCCC(=O)[O-]
REMARK SMILES IDX 10 1 9 2 8 3 7 4 6 5 5 6 4 7 2 8 1 9 3 10 11 11 12 12 13 13
REMARK SMILES IDX 14 14 15 15 16 16 17 17 18 18 19 19 20 20
REMARK H PARENT
REMARK Flexibility Score: inf
ROOT
ATOM      1  C   UNL     1      -4.653  37.373  20.968  1.00  0.00     0.000 C 
ENDROOT
BRANCH   1   2
ATOM      2  C   UNL     1      -6.055  36.738  20.971  1.00  0.00     0.000 C 
BRANCH   2   3
ATOM      3  C   UNL     1      -6.024  35.221  21.223  1.00  0.00     0.000 C 
BRANCH   3   4
ATOM      4  C   UNL     1      -4.718  34.770  21.911  1.00  0.00     0.000 C 
BRANCH   4   5
ATOM      5  C   UNL     1      -4.924  34.242  23.343  1.00  0.00     0.000 C 
BRANCH   5   6
ATOM      6  C   UNL     1      -6.125  34.850  24.088  1.00  0.00     0.006 C 
BRANCH   6   7
ATOM      7  C   UNL     1      -5.742  35.431  25.455  1.00  0.00     0.053 C 
BRANCH   7   8
ATOM      8  C   UNL     1      -5.346  36.868  25.317  1.00  0.00     0.041 C 
ATOM      9  O   UNL     1      -5.810  37.566  24.377  1.00  0.00    -0.550 OA
ATOM     10  O   UNL     1      -4.506  37.450  26.257  1.00  0.00    -0.550 OA
ENDBRANCH   7   8
ENDBRANCH   6   7
ENDBRANCH   5   6
ENDBRANCH   4   5
ENDBRANCH   3   4
ENDBRANCH   2   3
ENDBRANCH   1   2
BRANCH   1  11
ATOM     11  C   UNL     1      -3.850  37.172  19.667  1.00  0.00     0.000 C 
BRANCH  11  12
ATOM     12  C   UNL     1      -2.342  36.921  19.864  1.00  0.00     0.000 C 
BRANCH  12  13
ATOM     13  C   UNL     1      -1.417  37.880  19.088  1.00  0.00     0.000 C 
BRANCH  13  14
ATOM     14  C   UNL     1      -1.043  37.419  17.665  1.00  0.00     0.000 C 
BRANCH  14  15
ATOM     15  C   UNL     1      -1.995  36.380  17.046  1.00  0.00     0.000 C 
BRANCH  15  16
ATOM     16  C   UNL     1      -2.002  36.416  15.508  1.00  0.00     0.006 C 
BRANCH  16  17
ATOM     17  C   UNL     1      -3.389  36.114  14.928  1.00  0.00     0.053 C 
BRANCH  17  18
ATOM     18  C   UNL     1      -4.148  37.368  14.619  1.00  0.00     0.041 C 
ATOM     19  O   UNL     1      -3.716  38.484  15.007  1.00  0.00    -0.550 OA
ATOM     20  O   UNL     1      -5.321  37.305  13.875  1.00  0.00    -0.550 OA
ENDBRANCH  17  18
ENDBRANCH  16  17
ENDBRANCH  15  16
ENDBRANCH  14  15
ENDBRANCH  13  14
ENDBRANCH  12  13
ENDBRANCH  11  12
ENDBRANCH   1  11
TORSDOF 15
ENDMDL
MODEL 4
REMARK VINA RESULT:    -1.791      2.090      7.518
REMARK INTER + INTRA:          -3.760
REMARK INTER:                  -3.017
REMARK INTRA:                  -0.743
REMARK UNBOUND:                -0.399
REMARK SMILES O=C([O-])CCCCCCCCCCCCCCC(=O)[O-]
REMARK SMILES IDX 10 1 9 2 8 3 7 4 6 5 5 6 4 7 2 8 1 9 3 10 11 11 12 12 13 13
REMARK SMILES IDX 14 14 15 15 16 16 17 17 18 18 19 19 20 20
REMARK H PARENT
REMARK Flexibility Score: inf
ROOT
ATOM      1  C   UNL     1      -5.172  38.203  21.127  1.00  0.00     0.000 C 
ENDROOT
BRANCH   1   2
ATOM      2  C   UNL     1      -5.650  37.357  19.934  1.00  0.00     0.000 C 
BRANCH   2   3
ATOM      3  C   UNL     1      -4.527  36.507  19.316  1.00  0.00     0.000 C 
BRANCH   3   4
ATOM      4  C   UNL     1      -3.131  37.122  19.554  1.00  0.00     0.000 C 
BRANCH   4   5
ATOM      5  C   UNL     1      -2.291  37.264  18.270  1.00  0.00     0.000 C 
BRANCH   5   6
ATOM      6  C   UNL     1      -3.108  37.310  16.967  1.00  0.00     0.006 C 
BRANCH   6   7
ATOM      7  C   UNL     1      -2.995  36.016  16.151  1.00  0.00     0.053 C 
BRANCH   7   8
ATOM      8  C   UNL     1      -3.030  36.321  14.686  1.00  0.00     0.041 C 
ATOM      9  O   UNL     1      -1.977  36.248  13.998  1.00  0.00    -0.550 OA
ATOM     10  O   UNL     1      -4.235  36.634  14.070  1.00  0.00    -0.550 OA
ENDBRANCH   7   8
ENDBRANCH   6   7
ENDBRANCH   5   6
ENDBRANCH   4   5
ENDBRANCH   3   4
ENDBRANCH   2   3
ENDBRANCH   1   2
BRANCH   1  11
ATOM     11  C   UNL     1      -6.123  39.346  21.536  1.00  0.00     0.000 C 
BRANCH  11  12
ATOM     12  C   UNL     1      -5.510  40.395  22.485  1.00  0.00     0.000 C 
BRANCH  12  13
ATOM     13  C   UNL     1      -5.392  39.950  23.956  1.00  0.00     0.000 C 
BRANCH  13  14
ATOM     14  C   UNL     1      -4.691  38.594  24.175  1.00  0.00     0.000 C 
BRANCH  14  15
ATOM     15  C   UNL     1      -5.099  37.851  25.460  1.00  0.00     0.000 C 
BRANCH  15  16
ATOM     16  C   UNL     1      -5.681  36.454  25.182  1.00  0.00     0.006 C 
BRANCH  16  17
ATOM     17  C   UNL     1      -6.125  36.291  23.723  1.00  0.00     0.053 C 
BRANCH  17  18
ATOM     18  C   UNL     1      -5.838  34.914  23.205  1.00  0.00     0.041 C 
ATOM     19  O   UNL     1      -6.028  34.640  21.991  1.00  0.00    -0.550 OA
ATOM     20  O   UNL     1      -5.332  33.942  24.060  1.00  0.00    -0.550 OA
ENDBRANCH  17  18
ENDBRANCH  16  17
ENDBRANCH  15  16
ENDBRANCH  14  15
ENDBRANCH  13  14
ENDBRANCH  12  13
ENDBRANCH  11  12
ENDBRANCH   1  11
TORSDOF 15
ENDMDL
MODEL 5
REMARK VINA RESULT:    -1.580      0.929      1.306
REMARK INTER + INTRA:          -3.364
REMARK INTER:                  -2.646
REMARK INTRA:                  -0.719
REMARK UNBOUND:                -0.399
REMARK SMILES O=C([O-])CCCCCCCCCCCCCCC(=O)[O-]
REMARK SMILES IDX 10 1 9 2 8 3 7 4 6 5 5 6 4 7 2 8 1 9 3 10 11 11 12 12 13 13
REMARK SMILES IDX 14 14 15 15 16 16 17 17 18 18 19 19 20 20
REMARK H PARENT
REMARK Flexibility Score: inf
ROOT
ATOM      1  C   UNL     1      -5.735  35.828  23.114  1.00  0.00     0.000 C 
ENDROOT
BRANCH   1   2
ATOM      2  C   UNL     1      -6.043  35.365  24.549  1.00  0.00     0.000 C 
BRANCH   2   3
ATOM      3  C   UNL     1      -5.103  35.991  25.593  1.00  0.00     0.000 C 
BRANCH   3   4
ATOM      4  C   UNL     1      -5.491  37.447  25.930  1.00  0.00     0.000 C 
BRANCH   4   5
ATOM      5  C   UNL     1      -4.540  38.496  25.322  1.00  0.00     0.000 C 
BRANCH   5   6
ATOM      6  C   UNL     1      -5.207  39.483  24.349  1.00  0.00     0.006 C 
BRANCH   6   7
ATOM      7  C   UNL     1      -5.458  38.872  22.965  1.00  0.00     0.053 C 
BRANCH   7   8
ATOM      8  C   UNL     1      -5.870  39.934  21.995  1.00  0.00     0.041 C 
ATOM      9  O   UNL     1      -5.942  41.137  22.363  1.00  0.00    -0.550 OA
ATOM     10  O   UNL     1      -6.125  39.604  20.670  1.00  0.00    -0.550 OA
ENDBRANCH   7   8
ENDBRANCH   6   7
ENDBRANCH   5   6
ENDBRANCH   4   5
ENDBRANCH   3   4
ENDBRANCH   2   3
ENDBRANCH   1   2
BRANCH   1  11
ATOM     11  C   UNL     1      -5.917  34.747  22.029  1.00  0.00     0.000 C 
BRANCH  11  12
ATOM     12  C   UNL     1      -6.124  35.287  20.600  1.00  0.00     0.000 C 
BRANCH  12  13
ATOM     13  C   UNL     1      -4.837  35.409  19.759  1.00  0.00     0.000 C 
BRANCH  13  14
ATOM     14  C   UNL     1      -3.828  36.463  20.256  1.00  0.00     0.000 C 
BRANCH  14  15
ATOM     15  C   UNL     1      -3.464  37.550  19.229  1.00  0.00     0.000 C 
BRANCH  15  16
ATOM     16  C   UNL     1      -2.546  37.032  18.110  1.00  0.00     0.006 C 
BRANCH  16  17
ATOM     17  C   UNL     1      -3.180  37.187  16.721  1.00  0.00     0.053 C 
BRANCH  17  18
ATOM     18  C   UNL     1      -2.627  36.197  15.743  1.00  0.00     0.041 C 
ATOM     19  O   UNL     1      -3.131  36.090  14.594  1.00  0.00    -0.550 OA
ATOM     20  O   UNL     1      -1.535  35.412  16.091  1.00  0.00    -0.550 OA
ENDBRANCH  17  18
ENDBRANCH  16  17
ENDBRANCH  15  16
ENDBRANCH  14  15
ENDBRANCH  13  14
ENDBRANCH  12  13
ENDBRANCH  11  12
ENDBRANCH   1  11
TORSDOF 15
ENDMDL
