MODEL 1
REMARK VINA RESULT:     0.000      0.000      0.000
REMARK INTER + INTRA:          -0.193
REMARK INTER:                   0.000
REMARK INTRA:                  -0.193
REMARK UNBOUND:                -0.193
REMARK SMILES O=C([O-])CCC(=O)[O-]
REMARK SMILES IDX 4 1 2 2 1 3 3 4 5 5 6 6 7 7 8 8
REMARK H PARENT
REMARK Flexibility Score: inf
ROOT
ATOM      1  C   UNL     1       3.307  15.075 -48.536  1.00  0.00     0.059 C 
ENDROOT
BRANCH   1   2
ATOM      2  C   UNL     1       4.267  15.881 -47.718  1.00  0.00     0.042 C 
ATOM      3  O   UNL     1       5.489  15.579 -47.694  1.00  0.00    -0.550 OA
ATOM      4  O   UNL     1       3.802  16.935 -46.942  1.00  0.00    -0.550 OA
ENDBRANCH   1   2
BRANCH   1   5
ATOM      5  C   UNL     1       2.190  14.516 -47.654  1.00  0.00     0.059 C 
BRANCH   5   6
ATOM      6  C   UNL     1       2.743  13.531 -46.672  1.00  0.00     0.042 C 
ATOM      7  O   UNL     1       3.320  12.489 -47.076  1.00  0.00    -0.550 OA
ATOM      8  O   UNL     1       2.662  13.790 -45.309  1.00  0.00    -0.550 OA
ENDBRANCH   5   6
ENDBRANCH   1   5
TORSDOF 3
ENDMDL
MODEL 2
REMARK VINA RESULT:     0.000      6.003      7.106
REMARK INTER + INTRA:          -0.193
REMARK INTER:                   0.000
REMARK INTRA:                  -0.193
REMARK UNBOUND:                -0.193
REMARK SMILES O=C([O-])CCC(=O)[O-]
REMARK SMILES IDX 4 1 2 2 1 3 3 4 5 5 6 6 7 7 8 8
REMARK H PARENT
REMARK Flexibility Score: inf
ROOT
ATOM      1  C   UNL     1       2.010  18.885 -43.990  1.00  0.00     0.059 C 
ENDROOT
BRANCH   1   2
ATOM      2  C   UNL     1       2.567  19.948 -44.885  1.00  0.00     0.042 C 
ATOM      3  O   UNL     1       3.812  20.119 -44.967  1.00  0.00    -0.550 OA
ATOM      4  O   UNL     1       1.709  20.782 -45.590  1.00  0.00    -0.550 OA
ENDBRANCH   1   2
BRANCH   1   5
ATOM      5  C   UNL     1       2.408  19.148 -42.537  1.00  0.00     0.059 C 
BRANCH   5   6
ATOM      6  C   UNL     1       1.772  20.408 -42.040  1.00  0.00     0.042 C 
ATOM      7  O   UNL     1       2.485  21.345 -41.595  1.00  0.00    -0.550 OA
ATOM      8  O   UNL     1       0.394  20.566 -42.114  1.00  0.00    -0.550 OA
ENDBRANCH   5   6
ENDBRANCH   1   5
TORSDOF 3
ENDMDL
MODEL 3
REMARK VINA RESULT:     0.000      2.580      2.877
REMARK INTER + INTRA:          -0.193
REMARK INTER:                   0.000
REMARK INTRA:                  -0.193
REMARK UNBOUND:                -0.193
REMARK SMILES O=C([O-])CCC(=O)[O-]
REMARK SMILES IDX 4 1 2 2 1 3 3 4 5 5 6 6 7 7 8 8
REMARK H PARENT
REMARK Flexibility Score: inf
ROOT
ATOM      1  C   UNL     1       5.254  14.844 -46.614  1.00  0.00     0.059 C 
ENDROOT
BRANCH   1   2
ATOM      2  C   UNL     1       6.356  14.519 -47.574  1.00  0.00     0.042 C 
ATOM      3  O   UNL     1       6.092  14.255 -48.776  1.00  0.00    -0.550 OA
ATOM      4  O   UNL     1       7.670  14.459 -47.128  1.00  0.00    -0.550 OA
ENDBRANCH   1   2
BRANCH   1   5
ATOM      5  C   UNL     1       4.286  13.666 -46.493  1.00  0.00     0.059 C 
BRANCH   5   6
ATOM      6  C   UNL     1       4.970  12.489 -45.872  1.00  0.00     0.042 C 
ATOM      7  O   UNL     1       5.017  11.389 -46.482  1.00  0.00    -0.550 OA
ATOM      8  O   UNL     1       5.599  12.621 -44.640  1.00  0.00    -0.550 OA
ENDBRANCH   5   6
ENDBRANCH   1   5
TORSDOF 3
ENDMDL
MODEL 4
REMARK VINA RESULT:     0.000      4.046      4.952
REMARK INTER + INTRA:          -0.193
REMARK INTER:                   0.000
REMARK INTRA:                  -0.193
REMARK UNBOUND:                -0.193
REMARK SMILES O=C([O-])CCC(=O)[O-]
REMARK SMILES IDX 4 1 2 2 1 3 3 4 5 5 6 6 7 7 8 8
REMARK H PARENT
REMARK Flexibility Score: inf
ROOT
ATOM      1  C   UNL     1      -0.681  15.694 -46.253  1.00  0.00     0.059 C 
ENDROOT
BRANCH   1   2
ATOM      2  C   UNL     1       0.627  16.151 -46.820  1.00  0.00     0.042 C 
ATOM      3  O   UNL     1       1.706  15.652 -46.405  1.00  0.00    -0.550 OA
ATOM      4  O   UNL     1       0.656  17.164 -47.770  1.00  0.00    -0.550 OA
ENDBRANCH   1   2
BRANCH   1   5
ATOM      5  C   UNL     1      -1.451  16.877 -45.664  1.00  0.00     0.059 C 
BRANCH   5   6
ATOM      6  C   UNL     1      -0.722  17.438 -44.483  1.00  0.00     0.042 C 
ATOM      7  O   UNL     1      -0.506  16.720 -43.472  1.00  0.00    -0.550 OA
ATOM      8  O   UNL     1      -0.240  18.740 -44.519  1.00  0.00    -0.550 OA
ENDBRANCH   5   6
ENDBRANCH   1   5
TORSDOF 3
ENDMDL
MODEL 5
REMARK VINA RESULT:     0.000      9.513     10.533
REMARK INTER + INTRA:          -0.193
REMARK INTER:                   0.000
REMARK INTRA:                  -0.193
REMARK UNBOUND:                -0.193
REMARK SMILES O=C([O-])CCC(=O)[O-]
REMARK SMILES IDX 4 1 2 2 1 3 3 4 5 5 6 6 7 7 8 8
REMARK H PARENT
REMARK Flexibility Score: inf
ROOT
ATOM      1  C   UNL     1       9.988  23.024 -47.836  1.00  0.00     0.059 C 
ENDROOT
BRANCH   1   2
ATOM      2  C   UNL     1      10.600  23.928 -46.812  1.00  0.00     0.042 C 
ATOM      3  O   UNL     1      11.802  24.288 -46.923  1.00  0.00    -0.550 OA
ATOM      4  O   UNL     1       9.858  24.333 -45.710  1.00  0.00    -0.550 OA
ENDBRANCH   1   2
BRANCH   1   5
ATOM      5  C   UNL     1       9.450  21.755 -47.174  1.00  0.00     0.059 C 
BRANCH   5   6
ATOM      6  C   UNL     1      10.573  20.946 -46.604  1.00  0.00     0.042 C 
ATOM      7  O   UNL     1      11.479  20.501 -47.356  1.00  0.00    -0.550 OA
ATOM      8  O   UNL     1      10.645  20.726 -45.234  1.00  0.00    -0.550 OA
ENDBRANCH   5   6
ENDBRANCH   1   5
TORSDOF 3
ENDMDL
MODEL 6
REMARK VINA RESULT:     0.000      7.745      8.393
REMARK INTER + INTRA:          -0.193
REMARK INTER:                   0.000
REMARK INTRA:                  -0.193
REMARK UNBOUND:                -0.193
REMARK SMILES O=C([O-])CCC(=O)[O-]
REMARK SMILES IDX 4 1 2 2 1 3 3 4 5 5 6 6 7 7 8 8
REMARK H PARENT
REMARK Flexibility Score: inf
ROOT
ATOM      1  C   UNL     1      -1.668  21.020 -42.923  1.00  0.00     0.059 C 
ENDROOT
BRANCH   1   2
ATOM      2  C   UNL     1      -1.404  20.340 -44.230  1.00  0.00     0.042 C 
ATOM      3  O   UNL     1      -1.952  19.237 -44.493  1.00  0.00    -0.550 OA
ATOM      4  O   UNL     1      -0.512  20.899 -45.136  1.00  0.00    -0.550 OA
ENDBRANCH   1   2
BRANCH   1   5
ATOM      5  C   UNL     1      -1.218  20.137 -41.760  1.00  0.00     0.059 C 
BRANCH   5   6
ATOM      6  C   UNL     1       0.269  19.962 -41.781  1.00  0.00     0.042 C 
ATOM      7  O   UNL     1       0.770  18.809 -41.840  1.00  0.00    -0.550 OA
ATOM      8  O   UNL     1       1.099  21.075 -41.785  1.00  0.00    -0.550 OA
ENDBRANCH   5   6
ENDBRANCH   1   5
TORSDOF 3
ENDMDL
MODEL 7
REMARK VINA RESULT:     0.000      7.924      9.163
REMARK INTER + INTRA:          -0.193
REMARK INTER:                   0.000
REMARK INTRA:                  -0.193
REMARK UNBOUND:                -0.193
REMARK SMILES O=C([O-])CCC(=O)[O-]
REMARK SMILES IDX 4 1 2 2 1 3 3 4 5 5 6 6 7 7 8 8
REMARK H PARENT
REMARK Flexibility Score: inf
ROOT
ATOM      1  C   UNL     1       3.105  20.792 -41.608  1.00  0.00     0.059 C 
ENDROOT
BRANCH   1   2
ATOM      2  C   UNL     1       2.315  22.054 -41.764  1.00  0.00     0.042 C 
ATOM      3  O   UNL     1       1.521  22.190 -42.731  1.00  0.00    -0.550 OA
ATOM      4  O   UNL     1       2.494  23.100 -40.867  1.00  0.00    -0.550 OA
ENDBRANCH   1   2
BRANCH   1   5
ATOM      5  C   UNL     1       4.602  21.099 -41.579  1.00  0.00     0.059 C 
BRANCH   5   6
ATOM      6  C   UNL     1       5.051  21.645 -42.898  1.00  0.00     0.042 C 
ATOM      7  O   UNL     1       4.932  20.953 -43.943  1.00  0.00    -0.550 OA
ATOM      8  O   UNL     1       5.554  22.937 -42.981  1.00  0.00    -0.550 OA
ENDBRANCH   5   6
ENDBRANCH   1   5
TORSDOF 3
ENDMDL
MODEL 8
REMARK VINA RESULT:     0.000      7.387      8.110
REMARK INTER + INTRA:          -0.193
REMARK INTER:                   0.000
REMARK INTRA:                  -0.193
REMARK UNBOUND:                -0.193
REMARK SMILES O=C([O-])CCC(=O)[O-]
REMARK SMILES IDX 4 1 2 2 1 3 3 4 5 5 6 6 7 7 8 8
REMARK H PARENT
REMARK Flexibility Score: inf
ROOT
ATOM      1  C   UNL     1       3.299  21.963 -48.299  1.00  0.00     0.059 C 
ENDROOT
BRANCH   1   2
ATOM      2  C   UNL     1       4.330  22.740 -49.056  1.00  0.00     0.042 C 
ATOM      3  O   UNL     1       4.187  23.978 -49.234  1.00  0.00    -0.550 OA
ATOM      4  O   UNL     1       5.425  22.087 -49.608  1.00  0.00    -0.550 OA
ENDBRANCH   1   2
BRANCH   1   5
ATOM      5  C   UNL     1       2.748  20.826 -49.160  1.00  0.00     0.059 C 
BRANCH   5   6
ATOM      6  C   UNL     1       1.998  21.375 -50.333  1.00  0.00     0.042 C 
ATOM      7  O   UNL     1       0.984  22.100 -50.154  1.00  0.00    -0.550 OA
ATOM      8  O   UNL     1       2.447  21.126 -51.624  1.00  0.00    -0.550 OA
ENDBRANCH   5   6
ENDBRANCH   1   5
TORSDOF 3
ENDMDL
MODEL 9
REMARK VINA RESULT:     0.000      3.977      5.395
REMARK INTER + INTRA:          -0.193
REMARK INTER:                   0.000
REMARK INTRA:                  -0.193
REMARK UNBOUND:                -0.193
REMARK SMILES O=C([O-])CCC(=O)[O-]
REMARK SMILES IDX 4 1 2 2 1 3 3 4 5 5 6 6 7 7 8 8
REMARK H PARENT
REMARK Flexibility Score: inf
ROOT
ATOM      1  C   UNL     1       7.802  15.689 -49.528  1.00  0.00     0.059 C 
ENDROOT
BRANCH   1   2
ATOM      2  C   UNL     1       6.576  15.267 -48.779  1.00  0.00     0.042 C 
ATOM      3  O   UNL     1       6.427  15.594 -47.573  1.00  0.00    -0.550 OA
ATOM      4  O   UNL     1       5.622  14.472 -49.400  1.00  0.00    -0.550 OA
ENDBRANCH   1   2
BRANCH   1   5
ATOM      5  C   UNL     1       8.537  14.468 -50.081  1.00  0.00     0.059 C 
BRANCH   5   6
ATOM      6  C   UNL     1       9.069  13.627 -48.962  1.00  0.00     0.042 C 
ATOM      7  O   UNL     1       9.903  14.107 -48.151  1.00  0.00    -0.550 OA
ATOM      8  O   UNL     1       8.605  12.329 -48.787  1.00  0.00    -0.550 OA
ENDBRANCH   5   6
ENDBRANCH   1   5
TORSDOF 3
ENDMDL
