MODEL 1
REMARK VINA RESULT:    -3.226      0.000      0.000
REMARK INTER + INTRA:         -10.683
REMARK INTER:                  -6.998
REMARK INTRA:                  -3.685
REMARK UNBOUND:                -3.685
REMARK SMILES CCCCCCCCCCCCCCCCCCCCCC(=O)[O-]
REMARK SMILES IDX 12 1 11 2 10 3 9 4 8 5 7 6 6 7 5 8 4 9 3 10 2 11 1 12 13 13
REMARK SMILES IDX 14 14 15 15 16 16 17 17 18 18 19 19 20 20 21 21 22 22 23 23
REMARK SMILES IDX 24 24
REMARK H PARENT
REMARK Flexibility Score: inf
ROOT
ATOM      1  C   UNL     1     -93.201 147.085 240.926  1.00  0.00     0.000 C 
ENDROOT
BRANCH   1   2
ATOM      2  C   UNL     1     -94.021 147.629 242.109  1.00  0.00     0.000 C 
BRANCH   2   3
ATOM      3  C   UNL     1     -95.119 146.654 242.566  1.00  0.00     0.000 C 
BRANCH   3   4
ATOM      4  C   UNL     1     -96.384 147.377 243.052  1.00  0.00    -0.000 C 
BRANCH   4   5
ATOM      5  C   UNL     1     -96.197 148.901 243.009  1.00  0.00    -0.000 C 
BRANCH   5   6
ATOM      6  C   UNL     1     -97.500 149.659 242.690  1.00  0.00    -0.000 C 
BRANCH   6   7
ATOM      7  C   UNL     1     -98.757 148.776 242.576  1.00  0.00    -0.000 C 
BRANCH   7   8
ATOM      8  C   UNL     1    -100.004 149.425 243.193  1.00  0.00    -0.000 C 
BRANCH   8   9
ATOM      9  C   UNL     1     -99.982 149.312 244.725  1.00  0.00    -0.000 C 
BRANCH   9  10
ATOM     10  C   UNL     1     -99.573 147.903 245.204  1.00  0.00    -0.000 C 
BRANCH  10  11
ATOM     11  C   UNL     1     -98.338 147.898 246.119  1.00  0.00    -0.003 C 
ATOM     12  C   UNL     1     -97.865 149.301 246.495  1.00  0.00     0.004 C 
ENDBRANCH  10  11
ENDBRANCH   9  10
ENDBRANCH   8   9
ENDBRANCH   7   8
ENDBRANCH   6   7
ENDBRANCH   5   6
ENDBRANCH   4   5
ENDBRANCH   3   4
ENDBRANCH   2   3
ENDBRANCH   1   2
BRANCH   1  13
ATOM     13  C   UNL     1     -93.991 147.091 239.608  1.00  0.00     0.000 C 
BRANCH  13  14
ATOM     14  C   UNL     1     -94.529 148.487 239.251  1.00  0.00     0.000 C 
BRANCH  14  15
ATOM     15  C   UNL     1     -95.933 148.437 238.611  1.00  0.00     0.000 C 
BRANCH  15  16
ATOM     16  C   UNL     1     -96.983 147.717 239.479  1.00  0.00     0.000 C 
BRANCH  16  17
ATOM     17  C   UNL     1     -98.437 147.859 238.991  1.00  0.00     0.000 C 
BRANCH  17  18
ATOM     18  C   UNL     1     -98.761 149.191 238.281  1.00  0.00     0.000 C 
BRANCH  18  19
ATOM     19  C   UNL     1     -99.273 150.313 239.204  1.00  0.00     0.000 C 
BRANCH  19  20
ATOM     20  C   UNL     1     -98.559 151.654 238.966  1.00  0.00     0.006 C 
BRANCH  20  21
ATOM     21  C   UNL     1     -98.237 151.883 237.482  1.00  0.00     0.053 C 
BRANCH  21  22
ATOM     22  C   UNL     1     -96.823 152.336 237.287  1.00  0.00     0.041 C 
ATOM     23  O   UNL     1     -95.944 151.520 236.898  1.00  0.00    -0.550 OA
ATOM     24  O   UNL     1     -96.467 153.650 237.564  1.00  0.00    -0.550 OA
ENDBRANCH  21  22
ENDBRANCH  20  21
ENDBRANCH  19  20
ENDBRANCH  18  19
ENDBRANCH  17  18
ENDBRANCH  16  17
ENDBRANCH  15  16
ENDBRANCH  14  15
ENDBRANCH  13  14
ENDBRANCH   1  13
TORSDOF 20
ENDMDL
MODEL 2
REMARK VINA RESULT:    -3.221      2.057      3.498
REMARK INTER + INTRA:         -10.671
REMARK INTER:                  -7.974
REMARK INTRA:                  -2.697
REMARK UNBOUND:                -3.685
REMARK SMILES CCCCCCCCCCCCCCCCCCCCCC(=O)[O-]
REMARK SMILES IDX 12 1 11 2 10 3 9 4 8 5 7 6 6 7 5 8 4 9 3 10 2 11 1 12 13 13
REMARK SMILES IDX 14 14 15 15 16 16 17 17 18 18 19 19 20 20 21 21 22 22 23 23
REMARK SMILES IDX 24 24
REMARK H PARENT
REMARK Flexibility Score: inf
ROOT
ATOM      1  C   UNL     1     -92.908 146.335 240.439  1.00  0.00     0.000 C 
ENDROOT
BRANCH   1   2
ATOM      2  C   UNL     1     -93.347 146.806 241.837  1.00  0.00     0.000 C 
BRANCH   2   3
ATOM      3  C   UNL     1     -93.797 145.644 242.738  1.00  0.00     0.000 C 
BRANCH   3   4
ATOM      4  C   UNL     1     -95.101 144.993 242.251  1.00  0.00    -0.000 C 
BRANCH   4   5
ATOM      5  C   UNL     1     -96.160 144.987 243.364  1.00  0.00    -0.000 C 
BRANCH   5   6
ATOM      6  C   UNL     1     -96.619 146.401 243.766  1.00  0.00    -0.000 C 
BRANCH   6   7
ATOM      7  C   UNL     1     -96.916 147.350 242.590  1.00  0.00    -0.000 C 
BRANCH   7   8
ATOM      8  C   UNL     1     -96.457 148.791 242.852  1.00  0.00    -0.000 C 
BRANCH   8   9
ATOM      9  C   UNL     1     -97.630 149.775 242.718  1.00  0.00    -0.000 C 
BRANCH   9  10
ATOM     10  C   UNL     1     -98.539 149.443 241.515  1.00  0.00    -0.000 C 
BRANCH  10  11
ATOM     11  C   UNL     1     -99.021 150.684 240.747  1.00  0.00    -0.003 C 
ATOM     12  C   UNL     1     -98.714 150.619 239.251  1.00  0.00     0.004 C 
ENDBRANCH  10  11
ENDBRANCH   9  10
ENDBRANCH   8   9
ENDBRANCH   7   8
ENDBRANCH   6   7
ENDBRANCH   5   6
ENDBRANCH   4   5
ENDBRANCH   3   4
ENDBRANCH   2   3
ENDBRANCH   1   2
BRANCH   1  13
ATOM     13  C   UNL     1     -93.819 146.872 239.323  1.00  0.00     0.000 C 
BRANCH  13  14
ATOM     14  C   UNL     1     -94.582 148.140 239.745  1.00  0.00     0.000 C 
BRANCH  14  15
ATOM     15  C   UNL     1     -95.915 148.311 238.985  1.00  0.00     0.000 C 
BRANCH  15  16
ATOM     16  C   UNL     1     -95.741 148.761 237.522  1.00  0.00     0.000 C 
BRANCH  16  17
ATOM     17  C   UNL     1     -94.898 150.035 237.331  1.00  0.00     0.000 C 
BRANCH  17  18
ATOM     18  C   UNL     1     -95.168 150.808 236.022  1.00  0.00     0.000 C 
BRANCH  18  19
ATOM     19  C   UNL     1     -96.248 151.900 236.122  1.00  0.00     0.000 C 
BRANCH  19  20
ATOM     20  C   UNL     1     -96.171 152.698 237.434  1.00  0.00     0.006 C 
BRANCH  20  21
ATOM     21  C   UNL     1     -96.679 154.137 237.268  1.00  0.00     0.053 C 
BRANCH  21  22
ATOM     22  C   UNL     1     -98.153 154.176 237.000  1.00  0.00     0.041 C 
ATOM     23  O   UNL     1     -98.971 153.901 237.919  1.00  0.00    -0.550 OA
ATOM     24  O   UNL     1     -98.623 154.484 235.730  1.00  0.00    -0.550 OA
ENDBRANCH  21  22
ENDBRANCH  20  21
ENDBRANCH  19  20
ENDBRANCH  18  19
ENDBRANCH  17  18
ENDBRANCH  16  17
ENDBRANCH  15  16
ENDBRANCH  14  15
ENDBRANCH  13  14
ENDBRANCH   1  13
TORSDOF 20
ENDMDL
MODEL 3
REMARK VINA RESULT:    -3.207      3.099      6.503
REMARK INTER + INTRA:         -10.642
REMARK INTER:                  -7.306
REMARK INTRA:                  -3.336
REMARK UNBOUND:                -3.685
REMARK SMILES CCCCCCCCCCCCCCCCCCCCCC(=O)[O-]
REMARK SMILES IDX 12 1 11 2 10 3 9 4 8 5 7 6 6 7 5 8 4 9 3 10 2 11 1 12 13 13
REMARK SMILES IDX 14 14 15 15 16 16 17 17 18 18 19 19 20 20 21 21 22 22 23 23
REMARK SMILES IDX 24 24
REMARK H PARENT
REMARK Flexibility Score: inf
ROOT
ATOM      1  C   UNL     1     -93.720 147.173 242.299  1.00  0.00     0.000 C 
ENDROOT
BRANCH   1   2
ATOM      2  C   UNL     1     -93.444 147.310 240.791  1.00  0.00     0.000 C 
BRANCH   2   3
ATOM      3  C   UNL     1     -92.936 146.003 240.162  1.00  0.00     0.000 C 
BRANCH   3   4
ATOM      4  C   UNL     1     -93.852 145.496 239.037  1.00  0.00    -0.000 C 
BRANCH   4   5
ATOM      5  C   UNL     1     -93.642 146.308 237.750  1.00  0.00    -0.000 C 
BRANCH   5   6
ATOM      6  C   UNL     1     -94.865 147.166 237.373  1.00  0.00    -0.000 C 
BRANCH   6   7
ATOM      7  C   UNL     1     -94.753 148.658 237.736  1.00  0.00    -0.000 C 
BRANCH   7   8
ATOM      8  C   UNL     1     -95.129 149.587 236.573  1.00  0.00    -0.000 C 
BRANCH   8   9
ATOM      9  C   UNL     1     -95.154 151.055 237.028  1.00  0.00    -0.000 C 
BRANCH   9  10
ATOM     10  C   UNL     1     -96.332 151.840 236.410  1.00  0.00    -0.000 C 
BRANCH  10  11
ATOM     11  C   UNL     1     -97.707 151.221 236.706  1.00  0.00    -0.003 C 
ATOM     12  C   UNL     1     -98.126 151.363 238.169  1.00  0.00     0.004 C 
ENDBRANCH  10  11
ENDBRANCH   9  10
ENDBRANCH   8   9
ENDBRANCH   7   8
ENDBRANCH   6   7
ENDBRANCH   5   6
ENDBRANCH   4   5
ENDBRANCH   3   4
ENDBRANCH   2   3
ENDBRANCH   1   2
BRANCH   1  13
ATOM     13  C   UNL     1     -93.996 145.720 242.718  1.00  0.00     0.000 C 
BRANCH  13  14
ATOM     14  C   UNL     1     -95.462 145.494 243.128  1.00  0.00     0.000 C 
BRANCH  14  15
ATOM     15  C   UNL     1     -96.324 144.946 241.970  1.00  0.00     0.000 C 
BRANCH  15  16
ATOM     16  C   UNL     1     -97.438 145.910 241.518  1.00  0.00     0.000 C 
BRANCH  16  17
ATOM     17  C   UNL     1     -97.073 146.806 240.320  1.00  0.00     0.000 C 
BRANCH  17  18
ATOM     18  C   UNL     1     -97.132 148.324 240.597  1.00  0.00     0.000 C 
BRANCH  18  19
ATOM     19  C   UNL     1     -98.220 148.762 241.594  1.00  0.00     0.000 C 
BRANCH  19  20
ATOM     20  C   UNL     1     -97.675 149.660 242.717  1.00  0.00     0.006 C 
BRANCH  20  21
ATOM     21  C   UNL     1     -96.782 148.885 243.696  1.00  0.00     0.053 C 
BRANCH  21  22
ATOM     22  C   UNL     1     -97.502 148.569 244.971  1.00  0.00     0.041 C 
ATOM     23  O   UNL     1     -98.157 149.465 245.567  1.00  0.00    -0.550 OA
ATOM     24  O   UNL     1     -97.424 147.295 245.519  1.00  0.00    -0.550 OA
ENDBRANCH  21  22
ENDBRANCH  20  21
ENDBRANCH  19  20
ENDBRANCH  18  19
ENDBRANCH  17  18
ENDBRANCH  16  17
ENDBRANCH  15  16
ENDBRANCH  14  15
ENDBRANCH  13  14
ENDBRANCH   1  13
TORSDOF 20
ENDMDL
MODEL 4
REMARK VINA RESULT:    -3.190      1.838      4.365
REMARK INTER + INTRA:         -10.604
REMARK INTER:                  -7.167
REMARK INTRA:                  -3.437
REMARK UNBOUND:                -3.685
REMARK SMILES CCCCCCCCCCCCCCCCCCCCCC(=O)[O-]
REMARK SMILES IDX 12 1 11 2 10 3 9 4 8 5 7 6 6 7 5 8 4 9 3 10 2 11 1 12 13 13
REMARK SMILES IDX 14 14 15 15 16 16 17 17 18 18 19 19 20 20 21 21 22 22 23 23
REMARK SMILES IDX 24 24
REMARK H PARENT
REMARK Flexibility Score: inf
ROOT
ATOM      1  C   UNL     1     -96.859 147.348 239.325  1.00  0.00     0.000 C 
ENDROOT
BRANCH   1   2
ATOM      2  C   UNL     1     -98.252 147.856 239.736  1.00  0.00     0.000 C 
BRANCH   2   3
ATOM      3  C   UNL     1     -98.329 149.391 239.793  1.00  0.00     0.000 C 
BRANCH   3   4
ATOM      4  C   UNL     1     -98.788 149.908 241.164  1.00  0.00    -0.000 C 
BRANCH   4   5
ATOM      5  C   UNL     1     -98.363 148.948 242.284  1.00  0.00    -0.000 C 
BRANCH   5   6
ATOM      6  C   UNL     1     -97.160 149.466 243.097  1.00  0.00    -0.000 C 
BRANCH   6   7
ATOM      7  C   UNL     1     -95.849 148.685 242.891  1.00  0.00    -0.000 C 
BRANCH   7   8
ATOM      8  C   UNL     1     -96.048 147.163 242.916  1.00  0.00    -0.000 C 
BRANCH   8   9
ATOM      9  C   UNL     1     -94.716 146.430 242.686  1.00  0.00    -0.000 C 
BRANCH   9  10
ATOM     10  C   UNL     1     -93.653 147.338 242.030  1.00  0.00    -0.000 C 
BRANCH  10  11
ATOM     11  C   UNL     1     -92.790 146.617 240.982  1.00  0.00    -0.003 C 
ATOM     12  C   UNL     1     -93.535 145.494 240.262  1.00  0.00     0.004 C 
ENDBRANCH  10  11
ENDBRANCH   9  10
ENDBRANCH   8   9
ENDBRANCH   7   8
ENDBRANCH   6   7
ENDBRANCH   5   6
ENDBRANCH   4   5
ENDBRANCH   3   4
ENDBRANCH   2   3
ENDBRANCH   1   2
BRANCH   1  13
ATOM     13  C   UNL     1     -95.795 148.457 239.354  1.00  0.00     0.000 C 
BRANCH  13  14
ATOM     14  C   UNL     1     -94.774 148.323 238.210  1.00  0.00     0.000 C 
BRANCH  14  15
ATOM     15  C   UNL     1     -95.433 147.930 236.870  1.00  0.00     0.000 C 
BRANCH  15  16
ATOM     16  C   UNL     1     -95.385 149.044 235.807  1.00  0.00     0.000 C 
BRANCH  16  17
ATOM     17  C   UNL     1     -94.798 150.382 236.294  1.00  0.00     0.000 C 
BRANCH  17  18
ATOM     18  C   UNL     1     -95.799 151.556 236.346  1.00  0.00     0.000 C 
BRANCH  18  19
ATOM     19  C   UNL     1     -97.146 151.233 237.018  1.00  0.00     0.000 C 
BRANCH  19  20
ATOM     20  C   UNL     1     -97.800 152.465 237.666  1.00  0.00     0.006 C 
BRANCH  20  21
ATOM     21  C   UNL     1     -98.359 153.440 236.621  1.00  0.00     0.053 C 
BRANCH  21  22
ATOM     22  C   UNL     1     -97.927 154.849 236.891  1.00  0.00     0.041 C 
ATOM     23  O   UNL     1     -98.752 155.796 236.784  1.00  0.00    -0.550 OA
ATOM     24  O   UNL     1     -96.608 155.121 237.229  1.00  0.00    -0.550 OA
ENDBRANCH  21  22
ENDBRANCH  20  21
ENDBRANCH  19  20
ENDBRANCH  18  19
ENDBRANCH  17  18
ENDBRANCH  16  17
ENDBRANCH  15  16
ENDBRANCH  14  15
ENDBRANCH  13  14
ENDBRANCH   1  13
TORSDOF 20
ENDMDL
MODEL 5
REMARK VINA RESULT:    -3.182      1.675      3.851
REMARK INTER + INTRA:         -10.588
REMARK INTER:                  -7.157
REMARK INTRA:                  -3.431
REMARK UNBOUND:                -3.685
REMARK SMILES CCCCCCCCCCCCCCCCCCCCCC(=O)[O-]
REMARK SMILES IDX 12 1 11 2 10 3 9 4 8 5 7 6 6 7 5 8 4 9 3 10 2 11 1 12 13 13
REMARK SMILES IDX 14 14 15 15 16 16 17 17 18 18 19 19 20 20 21 21 22 22 23 23
REMARK SMILES IDX 24 24
REMARK H PARENT
REMARK Flexibility Score: inf
ROOT
ATOM      1  C   UNL     1     -95.941 146.895 237.964  1.00  0.00     0.000 C 
ENDROOT
BRANCH   1   2
ATOM      2  C   UNL     1     -95.580 145.637 238.773  1.00  0.00     0.000 C 
BRANCH   2   3
ATOM      3  C   UNL     1     -94.285 144.968 238.281  1.00  0.00     0.000 C 
BRANCH   3   4
ATOM      4  C   UNL     1     -93.026 145.600 238.894  1.00  0.00    -0.000 C 
BRANCH   4   5
ATOM      5  C   UNL     1     -93.142 145.684 240.423  1.00  0.00    -0.000 C 
BRANCH   5   6
ATOM      6  C   UNL     1     -92.920 147.109 240.966  1.00  0.00    -0.000 C 
BRANCH   6   7
ATOM      7  C   UNL     1     -93.940 147.570 242.023  1.00  0.00    -0.000 C 
BRANCH   7   8
ATOM      8  C   UNL     1     -94.921 146.463 242.433  1.00  0.00    -0.000 C 
BRANCH   8   9
ATOM      9  C   UNL     1     -96.282 147.053 242.835  1.00  0.00    -0.000 C 
BRANCH   9  10
ATOM     10  C   UNL     1     -96.413 148.541 242.443  1.00  0.00    -0.000 C 
BRANCH  10  11
ATOM     11  C   UNL     1     -97.259 149.364 243.428  1.00  0.00    -0.003 C 
ATOM     12  C   UNL     1     -97.470 148.662 244.769  1.00  0.00     0.004 C 
ENDBRANCH  10  11
ENDBRANCH   9  10
ENDBRANCH   8   9
ENDBRANCH   7   8
ENDBRANCH   6   7
ENDBRANCH   5   6
ENDBRANCH   4   5
ENDBRANCH   3   4
ENDBRANCH   2   3
ENDBRANCH   1   2
BRANCH   1  13
ATOM     13  C   UNL     1     -95.878 148.178 238.808  1.00  0.00     0.000 C 
BRANCH  13  14
ATOM     14  C   UNL     1     -94.713 149.095 238.400  1.00  0.00     0.000 C 
BRANCH  14  15
ATOM     15  C   UNL     1     -94.528 149.174 236.868  1.00  0.00     0.000 C 
BRANCH  15  16
ATOM     16  C   UNL     1     -94.884 150.550 236.272  1.00  0.00     0.000 C 
BRANCH  16  17
ATOM     17  C   UNL     1     -96.043 150.538 235.259  1.00  0.00     0.000 C 
BRANCH  17  18
ATOM     18  C   UNL     1     -97.304 149.774 235.716  1.00  0.00     0.000 C 
BRANCH  18  19
ATOM     19  C   UNL     1     -98.387 150.644 236.380  1.00  0.00     0.000 C 
BRANCH  19  20
ATOM     20  C   UNL     1     -98.107 150.913 237.868  1.00  0.00     0.006 C 
BRANCH  20  21
ATOM     21  C   UNL     1     -98.484 152.343 238.279  1.00  0.00     0.053 C 
BRANCH  21  22
ATOM     22  C   UNL     1     -97.714 153.365 237.498  1.00  0.00     0.041 C 
ATOM     23  O   UNL     1     -98.319 154.170 236.741  1.00  0.00    -0.550 OA
ATOM     24  O   UNL     1     -96.329 153.407 237.580  1.00  0.00    -0.550 OA
ENDBRANCH  21  22
ENDBRANCH  20  21
ENDBRANCH  19  20
ENDBRANCH  18  19
ENDBRANCH  17  18
ENDBRANCH  16  17
ENDBRANCH  15  16
ENDBRANCH  14  15
ENDBRANCH  13  14
ENDBRANCH   1  13
TORSDOF 20
ENDMDL
MODEL 6
REMARK VINA RESULT:    -3.177      3.805      7.227
REMARK INTER + INTRA:         -10.576
REMARK INTER:                  -6.654
REMARK INTRA:                  -3.922
REMARK UNBOUND:                -3.685
REMARK SMILES CCCCCCCCCCCCCCCCCCCCCC(=O)[O-]
REMARK SMILES IDX 12 1 11 2 10 3 9 4 8 5 7 6 6 7 5 8 4 9 3 10 2 11 1 12 13 13
REMARK SMILES IDX 14 14 15 15 16 16 17 17 18 18 19 19 20 20 21 21 22 22 23 23
REMARK SMILES IDX 24 24
REMARK H PARENT
REMARK Flexibility Score: inf
ROOT
ATOM      1  C   UNL     1     -97.249 149.494 243.066  1.00  0.00     0.000 C 
ENDROOT
BRANCH   1   2
ATOM      2  C   UNL     1     -95.991 148.662 242.759  1.00  0.00     0.000 C 
BRANCH   2   3
ATOM      3  C   UNL     1     -96.109 147.209 243.250  1.00  0.00     0.000 C 
BRANCH   3   4
ATOM      4  C   UNL     1     -96.070 146.193 242.098  1.00  0.00    -0.000 C 
BRANCH   4   5
ATOM      5  C   UNL     1     -94.938 145.175 242.302  1.00  0.00    -0.000 C 
BRANCH   5   6
ATOM      6  C   UNL     1     -93.556 145.837 242.465  1.00  0.00    -0.000 C 
BRANCH   6   7
ATOM      7  C   UNL     1     -93.134 146.758 241.305  1.00  0.00    -0.000 C 
BRANCH   7   8
ATOM      8  C   UNL     1     -93.079 146.033 239.953  1.00  0.00    -0.000 C 
BRANCH   8   9
ATOM      9  C   UNL     1     -94.004 146.708 238.928  1.00  0.00    -0.000 C 
BRANCH   9  10
ATOM     10  C   UNL     1     -94.438 148.121 239.372  1.00  0.00    -0.000 C 
BRANCH  10  11
ATOM     11  C   UNL     1     -95.908 148.442 239.056  1.00  0.00    -0.003 C 
ATOM     12  C   UNL     1     -96.730 147.202 238.707  1.00  0.00     0.004 C 
ENDBRANCH  10  11
ENDBRANCH   9  10
ENDBRANCH   8   9
ENDBRANCH   7   8
ENDBRANCH   6   7
ENDBRANCH   5   6
ENDBRANCH   4   5
ENDBRANCH   3   4
ENDBRANCH   2   3
ENDBRANCH   1   2
BRANCH   1  13
ATOM     13  C   UNL     1     -98.116 149.734 241.820  1.00  0.00     0.000 C 
BRANCH  13  14
ATOM     14  C   UNL     1     -99.542 149.180 241.980  1.00  0.00     0.000 C 
BRANCH  14  15
ATOM     15  C   UNL     1     -99.595 147.640 241.881  1.00  0.00     0.000 C 
BRANCH  15  16
ATOM     16  C   UNL     1    -100.340 146.970 243.051  1.00  0.00     0.000 C 
BRANCH  16  17
ATOM     17  C   UNL     1     -99.579 145.814 243.727  1.00  0.00     0.000 C 
BRANCH  17  18
ATOM     18  C   UNL     1     -98.992 146.142 245.117  1.00  0.00     0.000 C 
BRANCH  18  19
ATOM     19  C   UNL     1     -99.234 147.582 245.603  1.00  0.00     0.000 C 
BRANCH  19  20
ATOM     20  C   UNL     1     -98.004 148.195 246.293  1.00  0.00     0.006 C 
BRANCH  20  21
ATOM     21  C   UNL     1     -98.201 149.683 246.613  1.00  0.00     0.053 C 
BRANCH  21  22
ATOM     22  C   UNL     1     -97.952 149.976 248.061  1.00  0.00     0.041 C 
ATOM     23  O   UNL     1     -98.776 149.594 248.935  1.00  0.00    -0.550 OA
ATOM     24  O   UNL     1     -96.829 150.698 248.444  1.00  0.00    -0.550 OA
ENDBRANCH  21  22
ENDBRANCH  20  21
ENDBRANCH  19  20
ENDBRANCH  18  19
ENDBRANCH  17  18
ENDBRANCH  16  17
ENDBRANCH  15  16
ENDBRANCH  14  15
ENDBRANCH  13  14
ENDBRANCH   1  13
TORSDOF 20
ENDMDL
MODEL 7
REMARK VINA RESULT:    -3.153      1.810      4.039
REMARK INTER + INTRA:         -10.523
REMARK INTER:                  -6.843
REMARK INTRA:                  -3.681
REMARK UNBOUND:                -3.685
REMARK SMILES CCCCCCCCCCCCCCCCCCCCCC(=O)[O-]
REMARK SMILES IDX 12 1 11 2 10 3 9 4 8 5 7 6 6 7 5 8 4 9 3 10 2 11 1 12 13 13
REMARK SMILES IDX 14 14 15 15 16 16 17 17 18 18 19 19 20 20 21 21 22 22 23 23
REMARK SMILES IDX 24 24
REMARK H PARENT
REMARK Flexibility Score: inf
ROOT
ATOM      1  C   UNL     1     -93.806 147.797 240.343  1.00  0.00     0.000 C 
ENDROOT
BRANCH   1   2
ATOM      2  C   UNL     1     -95.253 147.925 240.851  1.00  0.00     0.000 C 
BRANCH   2   3
ATOM      3  C   UNL     1     -95.610 146.856 241.896  1.00  0.00     0.000 C 
BRANCH   3   4
ATOM      4  C   UNL     1     -96.386 147.433 243.089  1.00  0.00    -0.000 C 
BRANCH   4   5
ATOM      5  C   UNL     1     -96.303 148.967 243.108  1.00  0.00    -0.000 C 
BRANCH   5   6
ATOM      6  C   UNL     1     -97.670 149.640 243.336  1.00  0.00    -0.000 C 
BRANCH   6   7
ATOM      7  C   UNL     1     -98.759 149.269 242.313  1.00  0.00    -0.000 C 
BRANCH   7   8
ATOM      8  C   UNL     1     -98.435 149.750 240.892  1.00  0.00    -0.000 C 
BRANCH   8   9
ATOM      9  C   UNL     1     -99.059 148.818 239.840  1.00  0.00    -0.000 C 
BRANCH   9  10
ATOM     10  C   UNL     1     -98.932 147.329 240.228  1.00  0.00    -0.000 C 
BRANCH  10  11
ATOM     11  C   UNL     1     -98.821 146.385 239.019  1.00  0.00    -0.003 C 
ATOM     12  C   UNL     1     -97.376 146.121 238.597  1.00  0.00     0.004 C 
ENDBRANCH  10  11
ENDBRANCH   9  10
ENDBRANCH   8   9
ENDBRANCH   7   8
ENDBRANCH   6   7
ENDBRANCH   5   6
ENDBRANCH   4   5
ENDBRANCH   3   4
ENDBRANCH   2   3
ENDBRANCH   1   2
BRANCH   1  13
ATOM     13  C   UNL     1     -92.995 146.754 241.129  1.00  0.00     0.000 C 
BRANCH  13  14
ATOM     14  C   UNL     1     -92.487 145.609 240.236  1.00  0.00     0.000 C 
BRANCH  14  15
ATOM     15  C   UNL     1     -93.359 145.405 238.978  1.00  0.00     0.000 C 
BRANCH  15  16
ATOM     16  C   UNL     1     -92.548 145.300 237.673  1.00  0.00     0.000 C 
BRANCH  16  17
ATOM     17  C   UNL     1     -93.054 146.188 236.521  1.00  0.00     0.000 C 
BRANCH  17  18
ATOM     18  C   UNL     1     -94.360 146.958 236.814  1.00  0.00     0.000 C 
BRANCH  18  19
ATOM     19  C   UNL     1     -94.388 148.410 236.301  1.00  0.00     0.000 C 
BRANCH  19  20
ATOM     20  C   UNL     1     -94.858 149.411 237.368  1.00  0.00     0.006 C 
BRANCH  20  21
ATOM     21  C   UNL     1     -96.378 149.626 237.331  1.00  0.00     0.053 C 
BRANCH  21  22
ATOM     22  C   UNL     1     -96.731 151.081 237.275  1.00  0.00     0.041 C 
ATOM     23  O   UNL     1     -97.749 151.509 237.882  1.00  0.00    -0.550 OA
ATOM     24  O   UNL     1     -95.956 151.958 236.528  1.00  0.00    -0.550 OA
ENDBRANCH  21  22
ENDBRANCH  20  21
ENDBRANCH  19  20
ENDBRANCH  18  19
ENDBRANCH  17  18
ENDBRANCH  16  17
ENDBRANCH  15  16
ENDBRANCH  14  15
ENDBRANCH  13  14
ENDBRANCH   1  13
TORSDOF 20
ENDMDL
MODEL 8
REMARK VINA RESULT:    -3.144      3.425      6.643
REMARK INTER + INTRA:         -10.504
REMARK INTER:                  -6.836
REMARK INTRA:                  -3.668
REMARK UNBOUND:                -3.685
REMARK SMILES CCCCCCCCCCCCCCCCCCCCCC(=O)[O-]
REMARK SMILES IDX 12 1 11 2 10 3 9 4 8 5 7 6 6 7 5 8 4 9 3 10 2 11 1 12 13 13
REMARK SMILES IDX 14 14 15 15 16 16 17 17 18 18 19 19 20 20 21 21 22 22 23 23
REMARK SMILES IDX 24 24
REMARK H PARENT
REMARK Flexibility Score: inf
ROOT
ATOM      1  C   UNL     1     -96.066 146.413 243.187  1.00  0.00     0.000 C 
ENDROOT
BRANCH   1   2
ATOM      2  C   UNL     1     -94.970 145.343 243.031  1.00  0.00     0.000 C 
BRANCH   2   3
ATOM      3  C   UNL     1     -93.671 145.910 242.436  1.00  0.00     0.000 C 
BRANCH   3   4
ATOM      4  C   UNL     1     -93.815 147.374 241.991  1.00  0.00    -0.000 C 
BRANCH   4   5
ATOM      5  C   UNL     1     -93.650 147.504 240.470  1.00  0.00    -0.000 C 
BRANCH   5   6
ATOM      6  C   UNL     1     -93.361 146.158 239.778  1.00  0.00    -0.000 C 
BRANCH   6   7
ATOM      7  C   UNL     1     -94.175 145.895 238.498  1.00  0.00    -0.000 C 
BRANCH   7   8
ATOM      8  C   UNL     1     -93.993 146.989 237.437  1.00  0.00    -0.000 C 
BRANCH   8   9
ATOM      9  C   UNL     1     -95.285 147.801 237.256  1.00  0.00    -0.000 C 
BRANCH   9  10
ATOM     10  C   UNL     1     -95.089 149.296 237.587  1.00  0.00    -0.000 C 
BRANCH  10  11
ATOM     11  C   UNL     1     -96.319 150.163 237.273  1.00  0.00    -0.003 C 
ATOM     12  C   UNL     1     -97.550 149.341 236.893  1.00  0.00     0.004 C 
ENDBRANCH  10  11
ENDBRANCH   9  10
ENDBRANCH   8   9
ENDBRANCH   7   8
ENDBRANCH   6   7
ENDBRANCH   5   6
ENDBRANCH   4   5
ENDBRANCH   3   4
ENDBRANCH   2   3
ENDBRANCH   1   2
BRANCH   1  13
ATOM     13  C   UNL     1     -97.340 146.072 242.399  1.00  0.00     0.000 C 
BRANCH  13  14
ATOM     14  C   UNL     1     -97.051 145.754 240.922  1.00  0.00     0.000 C 
BRANCH  14  15
ATOM     15  C   UNL     1     -97.583 146.843 239.965  1.00  0.00     0.000 C 
BRANCH  15  16
ATOM     16  C   UNL     1     -97.312 148.280 240.451  1.00  0.00     0.000 C 
BRANCH  16  17
ATOM     17  C   UNL     1     -98.571 149.134 240.687  1.00  0.00     0.000 C 
BRANCH  17  18
ATOM     18  C   UNL     1     -98.479 150.122 241.870  1.00  0.00     0.000 C 
BRANCH  18  19
ATOM     19  C   UNL     1     -97.657 149.623 243.072  1.00  0.00     0.000 C 
BRANCH  19  20
ATOM     20  C   UNL     1     -98.532 149.252 244.281  1.00  0.00     0.006 C 
BRANCH  20  21
ATOM     21  C   UNL     1     -97.696 148.966 245.536  1.00  0.00     0.053 C 
BRANCH  21  22
ATOM     22  C   UNL     1     -98.187 149.743 246.718  1.00  0.00     0.041 C 
ATOM     23  O   UNL     1     -97.383 150.099 247.620  1.00  0.00    -0.550 OA
ATOM     24  O   UNL     1     -99.537 150.046 246.841  1.00  0.00    -0.550 OA
ENDBRANCH  21  22
ENDBRANCH  20  21
ENDBRANCH  19  20
ENDBRANCH  18  19
ENDBRANCH  17  18
ENDBRANCH  16  17
ENDBRANCH  15  16
ENDBRANCH  14  15
ENDBRANCH  13  14
ENDBRANCH   1  13
TORSDOF 20
ENDMDL
MODEL 9
REMARK VINA RESULT:    -3.120      1.742      3.896
REMARK INTER + INTRA:         -10.454
REMARK INTER:                  -6.951
REMARK INTRA:                  -3.503
REMARK UNBOUND:                -3.685
REMARK SMILES CCCCCCCCCCCCCCCCCCCCCC(=O)[O-]
REMARK SMILES IDX 12 1 11 2 10 3 9 4 8 5 7 6 6 7 5 8 4 9 3 10 2 11 1 12 13 13
REMARK SMILES IDX 14 14 15 15 16 16 17 17 18 18 19 19 20 20 21 21 22 22 23 23
REMARK SMILES IDX 24 24
REMARK H PARENT
REMARK Flexibility Score: inf
ROOT
ATOM      1  C   UNL     1     -96.626 147.711 238.793  1.00  0.00     0.000 C 
ENDROOT
BRANCH   1   2
ATOM      2  C   UNL     1     -95.124 147.902 238.518  1.00  0.00     0.000 C 
BRANCH   2   3
ATOM      3  C   UNL     1     -94.326 148.224 239.792  1.00  0.00     0.000 C 
BRANCH   3   4
ATOM      4  C   UNL     1     -93.555 147.008 240.328  1.00  0.00    -0.000 C 
BRANCH   4   5
ATOM      5  C   UNL     1     -93.399 147.085 241.854  1.00  0.00    -0.000 C 
BRANCH   5   6
ATOM      6  C   UNL     1     -94.082 145.916 242.588  1.00  0.00    -0.000 C 
BRANCH   6   7
ATOM      7  C   UNL     1     -95.329 145.345 241.887  1.00  0.00    -0.000 C 
BRANCH   7   8
ATOM      8  C   UNL     1     -96.631 146.026 242.332  1.00  0.00    -0.000 C 
BRANCH   8   9
ATOM      9  C   UNL     1     -96.584 146.384 243.825  1.00  0.00    -0.000 C 
BRANCH   9  10
ATOM     10  C   UNL     1     -97.088 147.817 244.101  1.00  0.00    -0.000 C 
BRANCH  10  11
ATOM     11  C   UNL     1     -96.561 148.858 243.100  1.00  0.00    -0.003 C 
ATOM     12  C   UNL     1     -97.669 149.707 242.479  1.00  0.00     0.004 C 
ENDBRANCH  10  11
ENDBRANCH   9  10
ENDBRANCH   8   9
ENDBRANCH   7   8
ENDBRANCH   6   7
ENDBRANCH   5   6
ENDBRANCH   4   5
ENDBRANCH   3   4
ENDBRANCH   2   3
ENDBRANCH   1   2
BRANCH   1  13
ATOM     13  C   UNL     1     -97.389 149.044 238.856  1.00  0.00     0.000 C 
BRANCH  13  14
ATOM     14  C   UNL     1     -98.567 149.095 237.869  1.00  0.00     0.000 C 
BRANCH  14  15
ATOM     15  C   UNL     1     -98.358 148.176 236.646  1.00  0.00     0.000 C 
BRANCH  15  16
ATOM     16  C   UNL     1     -97.915 148.927 235.375  1.00  0.00     0.000 C 
BRANCH  16  17
ATOM     17  C   UNL     1     -96.419 148.800 235.035  1.00  0.00     0.000 C 
BRANCH  17  18
ATOM     18  C   UNL     1     -95.659 150.138 234.917  1.00  0.00     0.000 C 
BRANCH  18  19
ATOM     19  C   UNL     1     -94.736 150.470 236.104  1.00  0.00     0.000 C 
BRANCH  19  20
ATOM     20  C   UNL     1     -95.382 151.438 237.109  1.00  0.00     0.006 C 
BRANCH  20  21
ATOM     21  C   UNL     1     -96.511 152.262 236.476  1.00  0.00     0.053 C 
BRANCH  21  22
ATOM     22  C   UNL     1     -97.155 153.178 237.471  1.00  0.00     0.041 C 
ATOM     23  O   UNL     1     -98.053 152.745 238.242  1.00  0.00    -0.550 OA
ATOM     24  O   UNL     1     -96.787 154.516 237.528  1.00  0.00    -0.550 OA
ENDBRANCH  21  22
ENDBRANCH  20  21
ENDBRANCH  19  20
ENDBRANCH  18  19
ENDBRANCH  17  18
ENDBRANCH  16  17
ENDBRANCH  15  16
ENDBRANCH  14  15
ENDBRANCH  13  14
ENDBRANCH   1  13
TORSDOF 20
ENDMDL
