MODEL 1
REMARK VINA RESULT:    -4.361      0.000      0.000
REMARK INTER + INTRA:          -6.888
REMARK INTER:                  -5.891
REMARK INTRA:                  -0.997
REMARK UNBOUND:                -0.997
REMARK SMILES C=C[C@](C)(CCC=C(C)C)OC(C)=O
REMARK SMILES IDX 3 1 4 2 5 3 6 4 7 5 9 6 8 7 10 8 2 9 1 10 11 11 12 12 14 13
REMARK SMILES IDX 13 14
REMARK H PARENT
REMARK Flexibility Score: inf
ROOT
ATOM      1  C   UNL     1      -8.160   6.371   0.664  1.00  0.00     0.127 C 
ATOM      2  C   UNL     1      -9.584   6.806   0.243  1.00  0.00     0.061 C 
ENDROOT
BRANCH   1   3
ATOM      3  C   UNL     1      -7.092   7.076  -0.211  1.00  0.00     0.057 C 
BRANCH   3   4
ATOM      4  C   UNL     1      -6.641   6.244  -1.425  1.00  0.00     0.032 C 
BRANCH   4   5
ATOM      5  C   UNL     1      -7.068   6.908  -2.711  1.00  0.00    -0.028 C 
ATOM      6  C   UNL     1      -8.388   7.240  -4.757  1.00  0.00     0.039 C 
ATOM      7  C   UNL     1      -8.106   6.501  -3.474  1.00  0.00    -0.080 C 
ATOM      8  C   UNL     1      -8.995   5.349  -3.068  1.00  0.00     0.039 C 
ENDBRANCH   4   5
ENDBRANCH   3   4
ENDBRANCH   1   3
BRANCH   1   9
ATOM      9  C   UNL     1      -7.997   4.865   0.513  1.00  0.00     0.013 C 
ATOM     10  C   UNL     1      -9.033   4.017   0.484  1.00  0.00     0.008 C 
ENDBRANCH   1   9
BRANCH   1  11
ATOM     11  O   UNL     1      -7.924   6.740   2.032  1.00  0.00    -0.455 OA
BRANCH  11  12
ATOM     12  C   UNL     1      -7.185   5.995   2.963  1.00  0.00     0.303 C 
ATOM     13  O   UNL     1      -5.925   5.968   2.925  1.00  0.00    -0.253 OA
ATOM     14  C   UNL     1      -7.903   5.274   4.053  1.00  0.00     0.139 C 
ENDBRANCH  11  12
ENDBRANCH   1  11
TORSDOF 6
ENDMDL
MODEL 2
REMARK VINA RESULT:    -4.355      2.241      5.870
REMARK INTER + INTRA:          -6.879
REMARK INTER:                  -6.372
REMARK INTRA:                  -0.507
REMARK UNBOUND:                -0.997
REMARK SMILES C=C[C@](C)(CCC=C(C)C)OC(C)=O
REMARK SMILES IDX 3 1 4 2 5 3 6 4 7 5 9 6 8 7 10 8 2 9 1 10 11 11 12 12 14 13
REMARK SMILES IDX 13 14
REMARK H PARENT
REMARK Flexibility Score: inf
ROOT
ATOM      1  C   UNL     1      -7.085   6.492   0.761  1.00  0.00     0.127 C 
ATOM      2  C   UNL     1      -7.291   7.833   0.018  1.00  0.00     0.061 C 
ENDROOT
BRANCH   1   3
ATOM      3  C   UNL     1      -6.401   6.725   2.132  1.00  0.00     0.057 C 
BRANCH   3   4
ATOM      4  C   UNL     1      -7.020   5.905   3.278  1.00  0.00     0.032 C 
BRANCH   4   5
ATOM      5  C   UNL     1      -6.655   6.502   4.615  1.00  0.00    -0.028 C 
ATOM      6  C   UNL     1      -6.650   6.741   7.061  1.00  0.00     0.039 C 
ATOM      7  C   UNL     1      -7.062   6.013   5.807  1.00  0.00    -0.080 C 
ATOM      8  C   UNL     1      -7.894   4.756   5.916  1.00  0.00     0.039 C 
ENDBRANCH   4   5
ENDBRANCH   3   4
ENDBRANCH   1   3
BRANCH   1   9
ATOM      9  C   UNL     1      -6.215   5.554  -0.065  1.00  0.00     0.013 C 
ATOM     10  C   UNL     1      -5.680   5.902  -1.242  1.00  0.00     0.008 C 
ENDBRANCH   1   9
BRANCH   1  11
ATOM     11  O   UNL     1      -8.357   5.871   1.003  1.00  0.00    -0.455 OA
BRANCH  11  12
ATOM     12  C   UNL     1      -8.970   4.915   0.179  1.00  0.00     0.303 C 
ATOM     13  O   UNL     1      -9.405   5.221  -0.965  1.00  0.00    -0.253 OA
ATOM     14  C   UNL     1      -9.055   3.500   0.642  1.00  0.00     0.139 C 
ENDBRANCH  11  12
ENDBRANCH   1  11
TORSDOF 6
ENDMDL
MODEL 3
REMARK VINA RESULT:    -4.320      2.420      5.612
REMARK INTER + INTRA:          -6.832
REMARK INTER:                  -5.928
REMARK INTRA:                  -0.905
REMARK UNBOUND:                -0.997
REMARK SMILES C=C[C@](C)(CCC=C(C)C)OC(C)=O
REMARK SMILES IDX 3 1 4 2 5 3 6 4 7 5 9 6 8 7 10 8 2 9 1 10 11 11 12 12 14 13
REMARK SMILES IDX 13 14
REMARK H PARENT
REMARK Flexibility Score: inf
ROOT
ATOM      1  C   UNL     1      -8.659   6.481  -1.243  1.00  0.00     0.127 C 
ATOM      2  C   UNL     1      -8.428   7.798  -0.463  1.00  0.00     0.061 C 
ENDROOT
BRANCH   1   3
ATOM      3  C   UNL     1      -9.411   5.449  -0.364  1.00  0.00     0.057 C 
BRANCH   3   4
ATOM      4  C   UNL     1      -8.478   4.538   0.453  1.00  0.00     0.032 C 
BRANCH   4   5
ATOM      5  C   UNL     1      -8.608   4.830   1.927  1.00  0.00    -0.028 C 
ATOM      6  C   UNL     1      -7.929   5.658   4.139  1.00  0.00     0.039 C 
ATOM      7  C   UNL     1      -7.678   5.475   2.665  1.00  0.00    -0.080 C 
ATOM      8  C   UNL     1      -6.413   6.030   2.050  1.00  0.00     0.039 C 
ENDBRANCH   4   5
ENDBRANCH   3   4
ENDBRANCH   1   3
BRANCH   1   9
ATOM      9  C   UNL     1      -7.329   5.877  -1.674  1.00  0.00     0.013 C 
ATOM     10  C   UNL     1      -6.177   6.559  -1.652  1.00  0.00     0.008 C 
ENDBRANCH   1   9
BRANCH   1  11
ATOM     11  O   UNL     1      -9.462   6.740  -2.405  1.00  0.00    -0.455 OA
BRANCH  11  12
ATOM     12  C   UNL     1      -8.995   7.254  -3.624  1.00  0.00     0.303 C 
ATOM     13  O   UNL     1      -8.644   8.460  -3.732  1.00  0.00    -0.253 OA
ATOM     14  C   UNL     1      -8.857   6.341  -4.795  1.00  0.00     0.139 C 
ENDBRANCH  11  12
ENDBRANCH   1  11
TORSDOF 6
ENDMDL
MODEL 4
REMARK VINA RESULT:    -4.262      2.002      6.066
REMARK INTER + INTRA:          -6.754
REMARK INTER:                  -6.273
REMARK INTRA:                  -0.481
REMARK UNBOUND:                -0.997
REMARK SMILES C=C[C@](C)(CCC=C(C)C)OC(C)=O
REMARK SMILES IDX 3 1 4 2 5 3 6 4 7 5 9 6 8 7 10 8 2 9 1 10 11 11 12 12 14 13
REMARK SMILES IDX 13 14
REMARK H PARENT
REMARK Flexibility Score: inf
ROOT
ATOM      1  C   UNL     1      -6.913   6.132   0.970  1.00  0.00     0.127 C 
ATOM      2  C   UNL     1      -5.972   5.577  -0.126  1.00  0.00     0.061 C 
ENDROOT
BRANCH   1   3
ATOM      3  C   UNL     1      -6.266   5.987   2.371  1.00  0.00     0.057 C 
BRANCH   3   4
ATOM      4  C   UNL     1      -7.285   5.757   3.501  1.00  0.00     0.032 C 
BRANCH   4   5
ATOM      5  C   UNL     1      -6.837   6.443   4.768  1.00  0.00    -0.028 C 
ATOM      6  C   UNL     1      -6.588   6.786   7.188  1.00  0.00     0.039 C 
ATOM      7  C   UNL     1      -7.059   5.968   6.014  1.00  0.00    -0.080 C 
ATOM      8  C   UNL     1      -7.744   4.643   6.256  1.00  0.00     0.039 C 
ENDBRANCH   4   5
ENDBRANCH   3   4
ENDBRANCH   1   3
BRANCH   1   9
ATOM      9  C   UNL     1      -8.237   5.381   0.965  1.00  0.00     0.013 C 
ATOM     10  C   UNL     1      -8.502   4.372   0.126  1.00  0.00     0.008 C 
ENDBRANCH   1   9
BRANCH   1  11
ATOM     11  O   UNL     1      -7.157   7.528   0.738  1.00  0.00    -0.455 OA
BRANCH  11  12
ATOM     12  C   UNL     1      -8.136   8.056  -0.117  1.00  0.00     0.303 C 
ATOM     13  O   UNL     1      -9.235   8.480   0.333  1.00  0.00    -0.253 OA
ATOM     14  C   UNL     1      -7.845   8.172  -1.575  1.00  0.00     0.139 C 
ENDBRANCH  11  12
ENDBRANCH   1  11
TORSDOF 6
ENDMDL
MODEL 5
REMARK VINA RESULT:    -4.249      2.150      5.387
REMARK INTER + INTRA:          -6.735
REMARK INTER:                  -5.816
REMARK INTRA:                  -0.919
REMARK UNBOUND:                -0.997
REMARK SMILES C=C[C@](C)(CCC=C(C)C)OC(C)=O
REMARK SMILES IDX 3 1 4 2 5 3 6 4 7 5 9 6 8 7 10 8 2 9 1 10 11 11 12 12 14 13
REMARK SMILES IDX 13 14
REMARK H PARENT
REMARK Flexibility Score: inf
ROOT
ATOM      1  C   UNL     1      -8.518   4.925   0.044  1.00  0.00     0.127 C 
ATOM      2  C   UNL     1      -9.013   3.628   0.727  1.00  0.00     0.061 C 
ENDROOT
BRANCH   1   3
ATOM      3  C   UNL     1      -7.103   5.305   0.550  1.00  0.00     0.057 C 
BRANCH   3   4
ATOM      4  C   UNL     1      -7.069   6.608   1.368  1.00  0.00     0.032 C 
BRANCH   4   5
ATOM      5  C   UNL     1      -6.419   6.377   2.709  1.00  0.00    -0.028 C 
ATOM      6  C   UNL     1      -6.307   5.927   5.123  1.00  0.00     0.039 C 
ATOM      7  C   UNL     1      -7.091   6.092   3.846  1.00  0.00    -0.080 C 
ATOM      8  C   UNL     1      -8.592   5.918   3.867  1.00  0.00     0.039 C 
ENDBRANCH   4   5
ENDBRANCH   3   4
ENDBRANCH   1   3
BRANCH   1   9
ATOM      9  C   UNL     1      -9.467   6.079   0.340  1.00  0.00     0.013 C 
ATOM     10  C   UNL     1     -10.740   5.899   0.713  1.00  0.00     0.008 C 
ENDBRANCH   1   9
BRANCH   1  11
ATOM     11  O   UNL     1      -8.440   4.726  -1.376  1.00  0.00    -0.455 OA
BRANCH  11  12
ATOM     12  C   UNL     1      -8.380   5.742  -2.342  1.00  0.00     0.303 C 
ATOM     13  O   UNL     1      -7.376   6.500  -2.430  1.00  0.00    -0.253 OA
ATOM     14  C   UNL     1      -9.498   5.887  -3.318  1.00  0.00     0.139 C 
ENDBRANCH  11  12
ENDBRANCH   1  11
TORSDOF 6
ENDMDL
MODEL 6
REMARK VINA RESULT:    -4.224      2.756      5.976
REMARK INTER + INTRA:          -6.702
REMARK INTER:                  -6.104
REMARK INTRA:                  -0.598
REMARK UNBOUND:                -0.997
REMARK SMILES C=C[C@](C)(CCC=C(C)C)OC(C)=O
REMARK SMILES IDX 3 1 4 2 5 3 6 4 7 5 9 6 8 7 10 8 2 9 1 10 11 11 12 12 14 13
REMARK SMILES IDX 13 14
REMARK H PARENT
REMARK Flexibility Score: inf
ROOT
ATOM      1  C   UNL     1      -8.340   5.760   1.254  1.00  0.00     0.127 C 
ATOM      2  C   UNL     1      -6.997   6.443   0.900  1.00  0.00     0.061 C 
ENDROOT
BRANCH   1   3
ATOM      3  C   UNL     1      -8.277   5.132   2.670  1.00  0.00     0.057 C 
BRANCH   3   4
ATOM      4  C   UNL     1      -7.224   5.781   3.587  1.00  0.00     0.032 C 
BRANCH   4   5
ATOM      5  C   UNL     1      -7.873   6.335   4.832  1.00  0.00    -0.028 C 
ATOM      6  C   UNL     1      -8.065   6.937   7.206  1.00  0.00     0.039 C 
ATOM      7  C   UNL     1      -7.276   6.394   6.043  1.00  0.00    -0.080 C 
ATOM      8  C   UNL     1      -5.847   5.952   6.254  1.00  0.00     0.039 C 
ENDBRANCH   4   5
ENDBRANCH   3   4
ENDBRANCH   1   3
BRANCH   1   9
ATOM      9  C   UNL     1      -8.660   4.662   0.249  1.00  0.00     0.013 C 
ATOM     10  C   UNL     1      -8.998   3.418   0.610  1.00  0.00     0.008 C 
ENDBRANCH   1   9
BRANCH   1  11
ATOM     11  O   UNL     1      -9.395   6.733   1.249  1.00  0.00    -0.455 OA
BRANCH  11  12
ATOM     12  C   UNL     1     -10.587   6.651   1.985  1.00  0.00     0.303 C 
ATOM     13  O   UNL     1     -10.746   7.316   3.045  1.00  0.00    -0.253 OA
ATOM     14  C   UNL     1     -11.704   5.808   1.472  1.00  0.00     0.139 C 
ENDBRANCH  11  12
ENDBRANCH   1  11
TORSDOF 6
ENDMDL
MODEL 7
REMARK VINA RESULT:    -4.188      0.872      1.937
REMARK INTER + INTRA:          -6.654
REMARK INTER:                  -5.635
REMARK INTRA:                  -1.019
REMARK UNBOUND:                -0.997
REMARK SMILES C=C[C@](C)(CCC=C(C)C)OC(C)=O
REMARK SMILES IDX 3 1 4 2 5 3 6 4 7 5 9 6 8 7 10 8 2 9 1 10 11 11 12 12 14 13
REMARK SMILES IDX 13 14
REMARK H PARENT
REMARK Flexibility Score: inf
ROOT
ATOM      1  C   UNL     1      -8.231   6.264   0.940  1.00  0.00     0.127 C 
ATOM      2  C   UNL     1      -8.432   4.731   0.869  1.00  0.00     0.061 C 
ENDROOT
BRANCH   1   3
ATOM      3  C   UNL     1      -9.475   7.005   0.385  1.00  0.00     0.057 C 
BRANCH   3   4
ATOM      4  C   UNL     1     -10.184   6.252  -0.755  1.00  0.00     0.032 C 
BRANCH   4   5
ATOM      5  C   UNL     1      -9.849   6.870  -2.089  1.00  0.00    -0.028 C 
ATOM      6  C   UNL     1      -8.836   7.019  -4.323  1.00  0.00     0.039 C 
ATOM      7  C   UNL     1      -9.127   6.260  -3.055  1.00  0.00    -0.080 C 
ATOM      8  C   UNL     1      -8.625   4.842  -2.904  1.00  0.00     0.039 C 
ENDBRANCH   4   5
ENDBRANCH   3   4
ENDBRANCH   1   3
BRANCH   1   9
ATOM      9  C   UNL     1      -7.013   6.680   0.127  1.00  0.00     0.013 C 
ATOM     10  C   UNL     1      -6.142   5.801  -0.384  1.00  0.00     0.008 C 
ENDBRANCH   1   9
BRANCH   1  11
ATOM     11  O   UNL     1      -8.052   6.666   2.307  1.00  0.00    -0.455 OA
BRANCH  11  12
ATOM     12  C   UNL     1      -7.286   5.986   3.265  1.00  0.00     0.303 C 
ATOM     13  O   UNL     1      -6.026   5.984   3.213  1.00  0.00    -0.253 OA
ATOM     14  C   UNL     1      -7.975   5.303   4.398  1.00  0.00     0.139 C 
ENDBRANCH  11  12
ENDBRANCH   1  11
TORSDOF 6
ENDMDL
MODEL 8
REMARK VINA RESULT:    -4.162      1.515      2.933
REMARK INTER + INTRA:          -6.619
REMARK INTER:                  -6.000
REMARK INTRA:                  -0.618
REMARK UNBOUND:                -0.997
REMARK SMILES C=C[C@](C)(CCC=C(C)C)OC(C)=O
REMARK SMILES IDX 3 1 4 2 5 3 6 4 7 5 9 6 8 7 10 8 2 9 1 10 11 11 12 12 14 13
REMARK SMILES IDX 13 14
REMARK H PARENT
REMARK Flexibility Score: inf
ROOT
ATOM      1  C   UNL     1      -6.782   5.902   0.624  1.00  0.00     0.127 C 
ATOM      2  C   UNL     1      -5.865   5.512  -0.561  1.00  0.00     0.061 C 
ENDROOT
BRANCH   1   3
ATOM      3  C   UNL     1      -7.939   4.881   0.779  1.00  0.00     0.057 C 
BRANCH   3   4
ATOM      4  C   UNL     1      -8.749   4.666  -0.512  1.00  0.00     0.032 C 
BRANCH   4   5
ATOM      5  C   UNL     1     -10.040   5.445  -0.466  1.00  0.00    -0.028 C 
ATOM      6  C   UNL     1     -11.788   6.977  -1.262  1.00  0.00     0.039 C 
ATOM      7  C   UNL     1     -10.500   6.224  -1.469  1.00  0.00    -0.080 C 
ATOM      8  C   UNL     1      -9.771   6.345  -2.788  1.00  0.00     0.039 C 
ENDBRANCH   4   5
ENDBRANCH   3   4
ENDBRANCH   1   3
BRANCH   1   9
ATOM      9  C   UNL     1      -7.379   7.285   0.403  1.00  0.00     0.013 C 
ATOM     10  C   UNL     1      -7.147   8.012  -0.697  1.00  0.00     0.008 C 
ENDBRANCH   1   9
BRANCH   1  11
ATOM     11  O   UNL     1      -6.025   5.900   1.844  1.00  0.00    -0.455 OA
BRANCH  11  12
ATOM     12  C   UNL     1      -6.379   6.566   3.027  1.00  0.00     0.303 C 
ATOM     13  O   UNL     1      -6.004   7.750   3.246  1.00  0.00    -0.253 OA
ATOM     14  C   UNL     1      -7.264   5.881   4.012  1.00  0.00     0.139 C 
ENDBRANCH  11  12
ENDBRANCH   1  11
TORSDOF 6
ENDMDL
MODEL 9
REMARK VINA RESULT:    -4.155      2.862      5.617
REMARK INTER + INTRA:          -6.609
REMARK INTER:                  -5.582
REMARK INTRA:                  -1.027
REMARK UNBOUND:                -0.997
REMARK SMILES C=C[C@](C)(CCC=C(C)C)OC(C)=O
REMARK SMILES IDX 3 1 4 2 5 3 6 4 7 5 9 6 8 7 10 8 2 9 1 10 11 11 12 12 14 13
REMARK SMILES IDX 13 14
REMARK H PARENT
REMARK Flexibility Score: inf
ROOT
ATOM      1  C   UNL     1      -9.112   6.515  -2.503  1.00  0.00     0.127 C 
ATOM      2  C   UNL     1      -8.686   5.082  -2.902  1.00  0.00     0.061 C 
ENDROOT
BRANCH   1   3
ATOM      3  C   UNL     1      -8.140   7.102  -1.447  1.00  0.00     0.057 C 
BRANCH   3   4
ATOM      4  C   UNL     1      -7.195   6.055  -0.830  1.00  0.00     0.032 C 
BRANCH   4   5
ATOM      5  C   UNL     1      -7.344   6.025   0.671  1.00  0.00    -0.028 C 
ATOM      6  C   UNL     1      -8.205   5.269   2.845  1.00  0.00     0.039 C 
ATOM      7  C   UNL     1      -8.124   5.151   1.345  1.00  0.00    -0.080 C 
ATOM      8  C   UNL     1      -8.896   4.059   0.641  1.00  0.00     0.039 C 
ENDBRANCH   4   5
ENDBRANCH   3   4
ENDBRANCH   1   3
BRANCH   1   9
ATOM      9  C   UNL     1     -10.518   6.510  -1.920  1.00  0.00     0.013 C 
ATOM     10  C   UNL     1     -10.802   6.965  -0.693  1.00  0.00     0.008 C 
ENDBRANCH   1   9
BRANCH   1  11
ATOM     11  O   UNL     1      -9.078   7.370  -3.656  1.00  0.00    -0.455 OA
BRANCH  11  12
ATOM     12  C   UNL     1      -8.372   7.116  -4.841  1.00  0.00     0.303 C 
ATOM     13  O   UNL     1      -8.921   6.532  -5.816  1.00  0.00    -0.253 OA
ATOM     14  C   UNL     1      -6.968   7.599  -4.971  1.00  0.00     0.139 C 
ENDBRANCH  11  12
ENDBRANCH   1  11
TORSDOF 6
ENDMDL
