MODEL 1
REMARK VINA RESULT:    -4.781      0.000      0.000
REMARK INTER + INTRA:          -7.129
REMARK INTER:                  -7.296
REMARK INTRA:                   0.168
REMARK UNBOUND:                 0.168
REMARK SMILES CC1=CCC[C@@H](C)C(=O)C[C@H](C(C)C)C(=O)C1
REMARK SMILES IDX 8 1 9 2 6 3 7 4 5 5 4 6 3 7 2 8 1 9 10 11 11 12 15 13 16 14
REMARK SMILES IDX 17 15 12 17 13 18 14 19
REMARK H PARENT
REMARK Flexibility Score: 70.00
ROOT
ATOM      1  C   UNL     1     141.436 143.297 114.252  1.00  0.00     0.136 C 
ATOM      2  O   UNL     1     142.299 144.055 114.676  1.00  0.00    -0.299 OA
ENDROOT
BRANCH   1   3
ATOM      3  C   UNL     1     140.129 143.160 115.014  1.00  0.00     0.053 C 
ATOM      4  C   UNL     1     139.439 144.518 115.237  1.00  0.00     0.016 C 
BRANCH   3   5
ATOM      5  C   UNL     1     140.323 142.428 116.363  1.00  0.00     0.015 C 
BRANCH   5   6
ATOM      6  C   UNL     1     140.594 140.919 116.169  1.00  0.00     0.028 C 
BRANCH   6   7
ATOM      7  C   UNL     1     139.382 140.180 115.658  1.00  0.00    -0.028 C 
ATOM      8  C   UNL     1     139.378 139.323 114.610  1.00  0.00    -0.070 CG0
ATOM      9  C   UNL     1     138.067 138.686 114.224  1.00  0.00     0.039 C 
ATOM     10  G   UNL     1     140.630 138.940 113.831  1.00  0.00     0.000 G0
ENDBRANCH   6   7
ENDBRANCH   5   6
ENDBRANCH   3   5
ENDBRANCH   1   3
BRANCH   1  11
ATOM     11  C   UNL     1     141.769 142.476 113.016  1.00  0.00     0.087 C 
BRANCH  11  12
ATOM     12  C   UNL     1     142.231 141.000 113.212  1.00  0.00     0.066 C 
BRANCH  12  13
ATOM     13  C   UNL     1     141.101 140.020 112.886  1.00  0.00     0.140 C 
ATOM     14  O   UNL     1     140.515 140.176 111.824  1.00  0.00    -0.299 OA
BRANCH  13  15
ATOM     15  C   UNL     1     140.619 138.915 113.809  1.00  0.00     0.106 CG0
ATOM     16  G   UNL     1     139.378 139.331 114.590  1.00  0.00     0.000 G0
ENDBRANCH  13  15
ENDBRANCH  12  13
BRANCH  12  17
ATOM     17  C   UNL     1     143.647 140.634 112.649  1.00  0.00    -0.006 C 
ATOM     18  C   UNL     1     144.712 140.565 113.760  1.00  0.00     0.008 C 
ATOM     19  C   UNL     1     143.620 139.274 111.927  1.00  0.00     0.008 C 
ENDBRANCH  12  17
ENDBRANCH  11  12
ENDBRANCH   1  11
TORSDOF 1
ENDMDL
MODEL 2
REMARK VINA RESULT:    -4.743      2.129      4.112
REMARK INTER + INTRA:          -7.072
REMARK INTER:                  -6.926
REMARK INTRA:                  -0.145
REMARK UNBOUND:                 0.168
REMARK SMILES CC1=CCC[C@@H](C)C(=O)C[C@H](C(C)C)C(=O)C1
REMARK SMILES IDX 8 1 9 2 6 3 7 4 5 5 4 6 3 7 2 8 1 9 10 11 11 12 15 13 16 14
REMARK SMILES IDX 17 15 12 17 13 18 14 19
REMARK H PARENT
REMARK Flexibility Score: 70.00
ROOT
ATOM      1  C   UNL     1     140.288 140.265 115.564  1.00  0.00     0.136 C 
ATOM      2  O   UNL     1     139.221 140.056 116.125  1.00  0.00    -0.299 OA
ENDROOT
BRANCH   1   3
ATOM      3  C   UNL     1     141.033 141.559 115.843  1.00  0.00     0.053 C 
ATOM      4  C   UNL     1     140.882 142.014 117.306  1.00  0.00     0.016 C 
BRANCH   3   5
ATOM      5  C   UNL     1     140.602 142.691 114.880  1.00  0.00     0.015 C 
BRANCH   5   6
ATOM      6  C   UNL     1     141.808 143.310 114.139  1.00  0.00     0.028 C 
BRANCH   6   7
ATOM      7  C   UNL     1     143.068 142.499 114.314  1.00  0.00    -0.028 C 
ATOM      8  C   UNL     1     143.472 141.503 113.493  1.00  0.00    -0.070 CG0
ATOM      9  C   UNL     1     144.753 140.783 113.834  1.00  0.00     0.039 C 
ATOM     10  G   UNL     1     142.725 141.099 112.229  1.00  0.00     0.000 G0
ENDBRANCH   6   7
ENDBRANCH   5   6
ENDBRANCH   3   5
ENDBRANCH   1   3
BRANCH   1  11
ATOM     11  C   UNL     1     140.764 139.233 114.553  1.00  0.00     0.087 C 
BRANCH  11  12
ATOM     12  C   UNL     1     140.644 139.574 113.036  1.00  0.00     0.066 C 
BRANCH  12  13
ATOM     13  C   UNL     1     142.025 139.764 112.403  1.00  0.00     0.140 C 
ATOM     14  O   UNL     1     142.627 138.756 112.061  1.00  0.00    -0.299 OA
BRANCH  13  15
ATOM     15  C   UNL     1     142.721 141.103 112.229  1.00  0.00     0.106 CG0
ATOM     16  G   UNL     1     143.468 141.520 113.490  1.00  0.00     0.000 G0
ENDBRANCH  13  15
ENDBRANCH  12  13
BRANCH  12  17
ATOM     17  C   UNL     1     139.617 138.725 112.212  1.00  0.00    -0.006 C 
ATOM     18  C   UNL     1     138.314 138.472 112.994  1.00  0.00     0.008 C 
ATOM     19  C   UNL     1     139.252 139.430 110.892  1.00  0.00     0.008 C 
ENDBRANCH  12  17
ENDBRANCH  11  12
ENDBRANCH   1  11
TORSDOF 1
ENDMDL
MODEL 3
REMARK VINA RESULT:    -4.701      1.710      3.570
REMARK INTER + INTRA:          -7.007
REMARK INTER:                  -7.589
REMARK INTRA:                   0.582
REMARK UNBOUND:                 0.168
REMARK SMILES CC1=CCC[C@@H](C)C(=O)C[C@H](C(C)C)C(=O)C1
REMARK SMILES IDX 8 1 9 2 6 3 7 4 5 5 4 6 3 7 2 8 1 9 10 11 11 12 15 13 16 14
REMARK SMILES IDX 17 15 12 17 13 18 14 19
REMARK H PARENT
REMARK Flexibility Score: 70.00
ROOT
ATOM      1  C   UNL     1     141.623 141.746 112.727  1.00  0.00     0.136 C 
ATOM      2  O   UNL     1     140.788 142.166 111.937  1.00  0.00    -0.299 OA
ENDROOT
BRANCH   1   3
ATOM      3  C   UNL     1     142.475 142.736 113.504  1.00  0.00     0.053 C 
ATOM      4  C   UNL     1     143.566 142.037 114.335  1.00  0.00     0.016 C 
BRANCH   3   5
ATOM      5  C   UNL     1     141.614 143.651 114.408  1.00  0.00     0.015 C 
BRANCH   5   6
ATOM      6  C   UNL     1     140.265 142.995 114.778  1.00  0.00     0.028 C 
BRANCH   6   7
ATOM      7  C   UNL     1     140.217 142.556 116.220  1.00  0.00    -0.028 C 
ATOM      8  C   UNL     1     139.807 141.340 116.650  1.00  0.00    -0.070 CG0
ATOM      9  C   UNL     1     139.804 141.080 118.136  1.00  0.00     0.039 C 
ATOM     10  G   UNL     1     139.385 140.214 115.714  1.00  0.00     0.000 G0
ENDBRANCH   6   7
ENDBRANCH   5   6
ENDBRANCH   3   5
ENDBRANCH   1   3
BRANCH   1  11
ATOM     11  C   UNL     1     141.804 140.239 112.821  1.00  0.00     0.087 C 
BRANCH  11  12
ATOM     12  C   UNL     1     140.664 139.396 113.469  1.00  0.00     0.066 C 
BRANCH  12  13
ATOM     13  C   UNL     1     140.596 139.630 114.980  1.00  0.00     0.140 C 
ATOM     14  O   UNL     1     141.557 139.268 115.646  1.00  0.00    -0.299 OA
BRANCH  13  15
ATOM     15  C   UNL     1     139.403 140.217 115.714  1.00  0.00     0.106 CG0
ATOM     16  G   UNL     1     139.816 141.333 116.664  1.00  0.00     0.000 G0
ENDBRANCH  13  15
ENDBRANCH  12  13
BRANCH  12  17
ATOM     17  C   UNL     1     139.293 139.380 112.709  1.00  0.00    -0.006 C 
ATOM     18  C   UNL     1     139.477 139.247 111.186  1.00  0.00     0.008 C 
ATOM     19  C   UNL     1     138.410 138.214 113.188  1.00  0.00     0.008 C 
ENDBRANCH  12  17
ENDBRANCH  11  12
ENDBRANCH   1  11
TORSDOF 1
ENDMDL
MODEL 4
REMARK VINA RESULT:    -4.675      5.901      8.694
REMARK INTER + INTRA:          -6.967
REMARK INTER:                  -6.658
REMARK INTRA:                  -0.309
REMARK UNBOUND:                 0.168
REMARK SMILES CC1=CCC[C@@H](C)C(=O)C[C@H](C(C)C)C(=O)C1
REMARK SMILES IDX 8 1 9 2 6 3 7 4 5 5 4 6 3 7 2 8 1 9 10 11 11 12 15 13 16 14
REMARK SMILES IDX 17 15 12 17 13 18 14 19
REMARK H PARENT
REMARK Flexibility Score: 70.00
ROOT
ATOM      1  C   UNL     1     136.896 136.722 113.970  1.00  0.00     0.136 C 
ATOM      2  O   UNL     1     137.054 137.622 114.784  1.00  0.00    -0.299 OA
ENDROOT
BRANCH   1   3
ATOM      3  C   UNL     1     137.030 137.030 112.488  1.00  0.00     0.053 C 
ATOM      4  C   UNL     1     138.224 137.955 112.190  1.00  0.00     0.016 C 
BRANCH   3   5
ATOM      5  C   UNL     1     135.728 137.627 111.904  1.00  0.00     0.015 C 
BRANCH   5   6
ATOM      6  C   UNL     1     134.779 136.532 111.366  1.00  0.00     0.028 C 
BRANCH   6   7
ATOM      7  C   UNL     1     133.440 136.541 112.061  1.00  0.00    -0.028 C 
ATOM      8  C   UNL     1     132.997 135.583 112.908  1.00  0.00    -0.070 CG0
ATOM      9  C   UNL     1     131.618 135.744 113.498  1.00  0.00     0.039 C 
ATOM     10  G   UNL     1     133.829 134.377 113.325  1.00  0.00     0.000 G0
ENDBRANCH   6   7
ENDBRANCH   5   6
ENDBRANCH   3   5
ENDBRANCH   1   3
BRANCH   1  11
ATOM     11  C   UNL     1     136.496 135.356 114.503  1.00  0.00     0.087 C 
BRANCH  11  12
ATOM     12  C   UNL     1     135.253 135.264 115.441  1.00  0.00     0.066 C 
BRANCH  12  13
ATOM     13  C   UNL     1     134.156 134.396 114.818  1.00  0.00     0.140 C 
ATOM     14  O   UNL     1     133.543 133.647 115.566  1.00  0.00    -0.299 OA
BRANCH  13  15
ATOM     15  C   UNL     1     133.819 134.356 113.338  1.00  0.00     0.106 CG0
ATOM     16  G   UNL     1     133.000 135.568 112.911  1.00  0.00     0.000 G0
ENDBRANCH  13  15
ENDBRANCH  12  13
BRANCH  12  17
ATOM     17  C   UNL     1     135.546 135.022 116.961  1.00  0.00    -0.006 C 
ATOM     18  C   UNL     1     137.055 134.915 117.251  1.00  0.00     0.008 C 
ATOM     19  C   UNL     1     134.974 136.164 117.822  1.00  0.00     0.008 C 
ENDBRANCH  12  17
ENDBRANCH  11  12
ENDBRANCH   1  11
TORSDOF 1
ENDMDL
MODEL 5
REMARK VINA RESULT:    -4.626      5.316      8.020
REMARK INTER + INTRA:          -6.892
REMARK INTER:                  -7.341
REMARK INTRA:                   0.449
REMARK UNBOUND:                 0.168
REMARK SMILES CC1=CCC[C@@H](C)C(=O)C[C@H](C(C)C)C(=O)C1
REMARK SMILES IDX 8 1 9 2 6 3 7 4 5 5 4 6 3 7 2 8 1 9 10 11 11 12 15 13 16 14
REMARK SMILES IDX 17 15 12 17 13 18 14 19
REMARK H PARENT
REMARK Flexibility Score: 70.00
ROOT
ATOM      1  C   UNL     1     136.108 135.861 115.723  1.00  0.00     0.136 C 
ATOM      2  O   UNL     1     135.477 136.871 116.007  1.00  0.00    -0.299 OA
ENDROOT
BRANCH   1   3
ATOM      3  C   UNL     1     135.700 134.533 116.337  1.00  0.00     0.053 C 
ATOM      4  C   UNL     1     135.736 134.567 117.875  1.00  0.00     0.016 C 
BRANCH   3   5
ATOM      5  C   UNL     1     136.561 133.363 115.804  1.00  0.00     0.015 C 
BRANCH   5   6
ATOM      6  C   UNL     1     135.894 132.655 114.603  1.00  0.00     0.028 C 
BRANCH   6   7
ATOM      7  C   UNL     1     134.540 133.233 114.275  1.00  0.00    -0.028 C 
ATOM      8  C   UNL     1     134.306 134.185 113.342  1.00  0.00    -0.070 CG0
ATOM      9  C   UNL     1     132.887 134.663 113.161  1.00  0.00     0.039 C 
ATOM     10  G   UNL     1     135.390 134.768 112.444  1.00  0.00     0.000 G0
ENDBRANCH   6   7
ENDBRANCH   5   6
ENDBRANCH   3   5
ENDBRANCH   1   3
BRANCH   1  11
ATOM     11  C   UNL     1     137.323 136.023 114.823  1.00  0.00     0.087 C 
BRANCH  11  12
ATOM     12  C   UNL     1     137.111 136.617 113.396  1.00  0.00     0.066 C 
BRANCH  12  13
ATOM     13  C   UNL     1     135.758 136.196 112.818  1.00  0.00     0.140 C 
ATOM     14  O   UNL     1     134.903 137.064 112.706  1.00  0.00    -0.299 OA
BRANCH  13  15
ATOM     15  C   UNL     1     135.383 134.775 112.436  1.00  0.00     0.106 CG0
ATOM     16  G   UNL     1     134.296 134.212 113.344  1.00  0.00     0.000 G0
ENDBRANCH  13  15
ENDBRANCH  12  13
BRANCH  12  17
ATOM     17  C   UNL     1     137.507 138.121 113.204  1.00  0.00    -0.006 C 
ATOM     18  C   UNL     1     138.415 138.631 114.339  1.00  0.00     0.008 C 
ATOM     19  C   UNL     1     138.246 138.331 111.869  1.00  0.00     0.008 C 
ENDBRANCH  12  17
ENDBRANCH  11  12
ENDBRANCH   1  11
TORSDOF 1
ENDMDL
MODEL 6
REMARK VINA RESULT:    -4.615      5.153      8.118
REMARK INTER + INTRA:          -6.876
REMARK INTER:                  -7.091
REMARK INTRA:                   0.215
REMARK UNBOUND:                 0.168
REMARK SMILES CC1=CCC[C@@H](C)C(=O)C[C@H](C(C)C)C(=O)C1
REMARK SMILES IDX 8 1 9 2 6 3 7 4 5 5 4 6 3 7 2 8 1 9 10 11 11 12 15 13 16 14
REMARK SMILES IDX 17 15 12 17 13 18 14 19
REMARK H PARENT
REMARK Flexibility Score: 70.00
ROOT
ATOM      1  C   UNL     1     135.309 135.080 112.171  1.00  0.00     0.136 C 
ATOM      2  O   UNL     1     135.568 133.925 112.481  1.00  0.00    -0.299 OA
ENDROOT
BRANCH   1   3
ATOM      3  C   UNL     1     133.868 135.468 111.889  1.00  0.00     0.053 C 
ATOM      4  C   UNL     1     133.674 136.995 111.846  1.00  0.00     0.016 C 
BRANCH   3   5
ATOM      5  C   UNL     1     132.890 134.830 112.905  1.00  0.00     0.015 C 
BRANCH   5   6
ATOM      6  C   UNL     1     132.754 135.680 114.188  1.00  0.00     0.028 C 
BRANCH   6   7
ATOM      7  C   UNL     1     133.425 135.038 115.377  1.00  0.00    -0.028 C 
ATOM      8  C   UNL     1     134.589 135.451 115.930  1.00  0.00    -0.070 CG0
ATOM      9  C   UNL     1     135.127 134.674 117.106  1.00  0.00     0.039 C 
ATOM     10  G   UNL     1     135.360 136.675 115.454  1.00  0.00     0.000 G0
ENDBRANCH   6   7
ENDBRANCH   5   6
ENDBRANCH   3   5
ENDBRANCH   1   3
BRANCH   1  11
ATOM     11  C   UNL     1     136.476 136.042 112.012  1.00  0.00     0.087 C 
BRANCH  11  12
ATOM     12  C   UNL     1     136.808 137.002 113.195  1.00  0.00     0.066 C 
BRANCH  12  13
ATOM     13  C   UNL     1     136.523 136.336 114.544  1.00  0.00     0.140 C 
ATOM     14  O   UNL     1     137.261 135.422 114.883  1.00  0.00    -0.299 OA
BRANCH  13  15
ATOM     15  C   UNL     1     135.359 136.686 115.454  1.00  0.00     0.106 CG0
ATOM     16  G   UNL     1     134.607 135.444 115.914  1.00  0.00     0.000 G0
ENDBRANCH  13  15
ENDBRANCH  12  13
BRANCH  12  17
ATOM     17  C   UNL     1     138.154 137.798 113.088  1.00  0.00    -0.006 C 
ATOM     18  C   UNL     1     138.275 138.554 111.752  1.00  0.00     0.008 C 
ATOM     19  C   UNL     1     138.283 138.822 114.230  1.00  0.00     0.008 C 
ENDBRANCH  12  17
ENDBRANCH  11  12
ENDBRANCH   1  11
TORSDOF 1
ENDMDL
MODEL 7
REMARK VINA RESULT:    -4.577      6.047      8.946
REMARK INTER + INTRA:          -6.818
REMARK INTER:                  -7.366
REMARK INTRA:                   0.548
REMARK UNBOUND:                 0.168
REMARK SMILES CC1=CCC[C@@H](C)C(=O)C[C@H](C(C)C)C(=O)C1
REMARK SMILES IDX 8 1 9 2 6 3 7 4 5 5 4 6 3 7 2 8 1 9 10 11 11 12 15 13 16 14
REMARK SMILES IDX 17 15 12 17 13 18 14 19
REMARK H PARENT
REMARK Flexibility Score: 70.00
ROOT
ATOM      1  C   UNL     1     136.616 134.236 116.152  1.00  0.00     0.136 C 
ATOM      2  O   UNL     1     136.673 134.314 117.372  1.00  0.00    -0.299 OA
ENDROOT
BRANCH   1   3
ATOM      3  C   UNL     1     136.175 132.931 115.510  1.00  0.00     0.053 C 
ATOM      4  C   UNL     1     137.262 131.844 115.594  1.00  0.00     0.016 C 
BRANCH   3   5
ATOM      5  C   UNL     1     135.729 133.133 114.042  1.00  0.00     0.015 C 
BRANCH   5   6
ATOM      6  C   UNL     1     134.190 133.185 113.908  1.00  0.00     0.028 C 
BRANCH   6   7
ATOM      7  C   UNL     1     133.727 134.340 113.055  1.00  0.00    -0.028 C 
ATOM      8  C   UNL     1     133.329 135.544 113.526  1.00  0.00    -0.070 CG0
ATOM      9  C   UNL     1     132.876 136.579 112.527  1.00  0.00     0.039 C 
ATOM     10  G   UNL     1     133.350 135.920 115.002  1.00  0.00     0.000 G0
ENDBRANCH   6   7
ENDBRANCH   5   6
ENDBRANCH   3   5
ENDBRANCH   1   3
BRANCH   1  11
ATOM     11  C   UNL     1     137.072 135.445 115.350  1.00  0.00     0.087 C 
BRANCH  11  12
ATOM     12  C   UNL     1     135.991 136.296 114.617  1.00  0.00     0.066 C 
BRANCH  12  13
ATOM     13  C   UNL     1     134.716 136.409 115.457  1.00  0.00     0.140 C 
ATOM     14  O   UNL     1     134.828 136.868 116.585  1.00  0.00    -0.299 OA
BRANCH  13  15
ATOM     15  C   UNL     1     133.342 135.937 115.014  1.00  0.00     0.106 CG0
ATOM     16  G   UNL     1     133.322 135.557 113.539  1.00  0.00     0.000 G0
ENDBRANCH  13  15
ENDBRANCH  12  13
BRANCH  12  17
ATOM     17  C   UNL     1     136.490 137.617 113.937  1.00  0.00    -0.006 C 
ATOM     18  C   UNL     1     137.876 138.046 114.453  1.00  0.00     0.008 C 
ATOM     19  C   UNL     1     136.578 137.451 112.408  1.00  0.00     0.008 C 
ENDBRANCH  12  17
ENDBRANCH  11  12
ENDBRANCH   1  11
TORSDOF 1
ENDMDL
MODEL 8
REMARK VINA RESULT:    -4.489      6.554      8.965
REMARK INTER + INTRA:          -6.683
REMARK INTER:                  -6.944
REMARK INTRA:                   0.260
REMARK UNBOUND:                 0.168
REMARK SMILES CC1=CCC[C@@H](C)C(=O)C[C@H](C(C)C)C(=O)C1
REMARK SMILES IDX 8 1 9 2 6 3 7 4 5 5 4 6 3 7 2 8 1 9 10 11 11 12 15 13 16 14
REMARK SMILES IDX 17 15 12 17 13 18 14 19
REMARK H PARENT
REMARK Flexibility Score: 70.00
ROOT
ATOM      1  C   UNL     1     136.100 135.408 112.089  1.00  0.00     0.136 C 
ATOM      2  O   UNL     1     136.369 135.148 110.924  1.00  0.00    -0.299 OA
ENDROOT
BRANCH   1   3
ATOM      3  C   UNL     1     136.542 136.738 112.674  1.00  0.00     0.053 C 
ATOM      4  C   UNL     1     137.216 137.641 111.624  1.00  0.00     0.016 C 
BRANCH   3   5
ATOM      5  C   UNL     1     137.472 136.550 113.897  1.00  0.00     0.015 C 
BRANCH   5   6
ATOM      6  C   UNL     1     136.799 137.007 115.210  1.00  0.00     0.028 C 
BRANCH   6   7
ATOM      7  C   UNL     1     136.761 135.912 116.247  1.00  0.00    -0.028 C 
ATOM      8  C   UNL     1     135.649 135.244 116.633  1.00  0.00    -0.070 CG0
ATOM      9  C   UNL     1     135.793 134.191 117.702  1.00  0.00     0.039 C 
ATOM     10  G   UNL     1     134.274 135.474 116.020  1.00  0.00     0.000 G0
ENDBRANCH   6   7
ENDBRANCH   5   6
ENDBRANCH   3   5
ENDBRANCH   1   3
BRANCH   1  11
ATOM     11  C   UNL     1     135.399 134.333 112.904  1.00  0.00     0.087 C 
BRANCH  11  12
ATOM     12  C   UNL     1     133.973 134.637 113.458  1.00  0.00     0.066 C 
BRANCH  12  13
ATOM     13  C   UNL     1     133.910 134.415 114.971  1.00  0.00     0.140 C 
ATOM     14  O   UNL     1     133.503 133.329 115.360  1.00  0.00    -0.299 OA
BRANCH  13  15
ATOM     15  C   UNL     1     134.255 135.461 116.016  1.00  0.00     0.106 CG0
ATOM     16  G   UNL     1     135.644 135.240 116.601  1.00  0.00     0.000 G0
ENDBRANCH  13  15
ENDBRANCH  12  13
BRANCH  12  17
ATOM     17  C   UNL     1     133.281 135.937 112.920  1.00  0.00    -0.006 C 
ATOM     18  C   UNL     1     133.177 135.944 111.384  1.00  0.00     0.008 C 
ATOM     19  C   UNL     1     131.861 136.085 113.497  1.00  0.00     0.008 C 
ENDBRANCH  12  17
ENDBRANCH  11  12
ENDBRANCH   1  11
TORSDOF 1
ENDMDL
MODEL 9
REMARK VINA RESULT:    -4.398      6.293      9.052
REMARK INTER + INTRA:          -6.545
REMARK INTER:                  -7.203
REMARK INTRA:                   0.658
REMARK UNBOUND:                 0.168
REMARK SMILES CC1=CCC[C@@H](C)C(=O)C[C@H](C(C)C)C(=O)C1
REMARK SMILES IDX 8 1 9 2 6 3 7 4 5 5 4 6 3 7 2 8 1 9 10 11 11 12 15 13 16 14
REMARK SMILES IDX 17 15 12 17 13 18 14 19
REMARK H PARENT
REMARK Flexibility Score: 70.00
ROOT
ATOM      1  C   UNL     1     132.880 135.627 114.617  1.00  0.00     0.136 C 
ATOM      2  O   UNL     1     131.760 136.101 114.479  1.00  0.00    -0.299 OA
ENDROOT
BRANCH   1   3
ATOM      3  C   UNL     1     133.195 134.274 114.003  1.00  0.00     0.053 C 
ATOM      4  C   UNL     1     133.875 133.323 115.005  1.00  0.00     0.016 C 
BRANCH   3   5
ATOM      5  C   UNL     1     134.054 134.408 112.722  1.00  0.00     0.015 C 
BRANCH   5   6
ATOM      6  C   UNL     1     133.928 135.810 112.086  1.00  0.00     0.028 C 
BRANCH   6   7
ATOM      7  C   UNL     1     135.243 136.315 111.545  1.00  0.00    -0.028 C 
ATOM      8  C   UNL     1     136.105 137.115 112.215  1.00  0.00    -0.070 CG0
ATOM      9  C   UNL     1     137.367 137.541 111.509  1.00  0.00     0.039 C 
ATOM     10  G   UNL     1     135.885 137.572 113.651  1.00  0.00     0.000 G0
ENDBRANCH   6   7
ENDBRANCH   5   6
ENDBRANCH   3   5
ENDBRANCH   1   3
BRANCH   1  11
ATOM     11  C   UNL     1     133.870 136.404 115.471  1.00  0.00     0.087 C 
BRANCH  11  12
ATOM     12  C   UNL     1     135.311 135.832 115.637  1.00  0.00     0.066 C 
BRANCH  12  13
ATOM     13  C   UNL     1     136.281 136.484 114.648  1.00  0.00     0.140 C 
ATOM     14  O   UNL     1     137.452 136.135 114.701  1.00  0.00    -0.299 OA
BRANCH  13  15
ATOM     15  C   UNL     1     135.906 137.570 113.654  1.00  0.00     0.106 CG0
ATOM     16  G   UNL     1     136.107 137.114 112.215  1.00  0.00     0.000 G0
ENDBRANCH  13  15
ENDBRANCH  12  13
BRANCH  12  17
ATOM     17  C   UNL     1     135.829 135.669 117.107  1.00  0.00    -0.006 C 
ATOM     18  C   UNL     1     134.792 136.143 118.142  1.00  0.00     0.008 C 
ATOM     19  C   UNL     1     136.172 134.199 117.412  1.00  0.00     0.008 C 
ENDBRANCH  12  17
ENDBRANCH  11  12
ENDBRANCH   1  11
TORSDOF 1
ENDMDL
