MODEL 1
REMARK VINA RESULT:    -4.782      0.000      0.000
REMARK INTER + INTRA:          -5.764
REMARK INTER:                  -5.760
REMARK INTRA:                  -0.004
REMARK UNBOUND:                -0.004
REMARK SMILES O=c1c(O)c(-c2ccc(O)c(O)c2)oc2cc(O)cc(O)c12
REMARK SMILES IDX 5 1 3 2 2 3 1 4 22 5 20 6 19 7 17 8 16 9 15 10 14 11 6 12
REMARK SMILES IDX 7 13 8 14 9 15 13 16 11 17 10 18 12 20 4 22 21 24 18 26
REMARK H PARENT 10 19 12 21 4 23 21 25 18 27
REMARK Flexibility Score: inf
ROOT
ATOM      1  C   UNL     1       2.134   7.845  -5.196  1.00  0.00     0.180 A 
ATOM      2  C   UNL     1       3.366   8.138  -5.804  1.00  0.00     0.208 A 
ATOM      3  C   UNL     1       3.616   9.449  -6.240  1.00  0.00     0.238 A 
ATOM      4  O   UNL     1       4.700   9.692  -6.833  1.00  0.00    -0.285 OA
ATOM      5  C   UNL     1       2.638  10.454  -6.048  1.00  0.00     0.111 A 
ATOM      6  C   UNL     1       2.801  11.824  -6.414  1.00  0.00     0.134 A 
ATOM      7  C   UNL     1       1.717  12.703  -6.296  1.00  0.00     0.093 A 
ATOM      8  C   UNL     1       0.500  12.279  -5.766  1.00  0.00     0.123 A 
ATOM      9  C   UNL     1       0.348  10.956  -5.349  1.00  0.00     0.094 A 
ATOM     10  C   UNL     1       1.399  10.045  -5.488  1.00  0.00     0.146 A 
ATOM     11  O   UNL     1       1.211   8.794  -5.089  1.00  0.00    -0.452 OA
ENDROOT
BRANCH   1  12
ATOM     12  C   UNL     1       1.807   6.492  -4.689  1.00  0.00     0.025 A 
ATOM     13  C   UNL     1       2.703   5.841  -3.831  1.00  0.00     0.016 A 
ATOM     14  C   UNL     1       2.423   4.557  -3.358  1.00  0.00     0.051 A 
ATOM     15  C   UNL     1       1.253   3.894  -3.743  1.00  0.00     0.157 A 
ATOM     16  C   UNL     1       0.642   5.820  -5.097  1.00  0.00     0.062 A 
ATOM     17  C   UNL     1       0.353   4.532  -4.630  1.00  0.00     0.158 A 
BRANCH  15  18
ATOM     18  O   UNL     1       1.027   2.616  -3.229  1.00  0.00    -0.504 OA
ATOM     19  H   UNL     1       0.909   2.415  -2.247  1.00  0.00     0.293 HD
ENDBRANCH  15  18
BRANCH  17  20
ATOM     20  O   UNL     1      -0.824   3.926  -5.075  1.00  0.00    -0.504 OA
ATOM     21  H   UNL     1      -1.248   4.107  -5.973  1.00  0.00     0.293 HD
ENDBRANCH  17  20
ENDBRANCH   1  12
BRANCH   2  22
ATOM     22  O   UNL     1       4.310   7.126  -6.004  1.00  0.00    -0.502 OA
ATOM     23  H   UNL     1       5.307   7.305  -6.009  1.00  0.00     0.293 HD
ENDBRANCH   2  22
BRANCH   6  24
ATOM     24  O   UNL     1       4.004  12.372  -6.868  1.00  0.00    -0.507 OA
ATOM     25  H   UNL     1       4.909  11.939  -6.764  1.00  0.00     0.293 HD
ENDBRANCH   6  24
BRANCH   8  26
ATOM     26  O   UNL     1      -0.552  13.185  -5.648  1.00  0.00    -0.508 OA
ATOM     27  H   UNL     1      -1.498  12.935  -5.908  1.00  0.00     0.293 HD
ENDBRANCH   8  26
TORSDOF 6
ENDMDL
MODEL 2
REMARK VINA RESULT:    -4.734      2.437      6.860
REMARK INTER + INTRA:          -5.706
REMARK INTER:                  -5.400
REMARK INTRA:                  -0.306
REMARK UNBOUND:                -0.004
REMARK SMILES O=c1c(O)c(-c2ccc(O)c(O)c2)oc2cc(O)cc(O)c12
REMARK SMILES IDX 5 1 3 2 2 3 1 4 22 5 20 6 19 7 17 8 16 9 15 10 14 11 6 12
REMARK SMILES IDX 7 13 8 14 9 15 13 16 11 17 10 18 12 20 4 22 21 24 18 26
REMARK H PARENT 10 19 12 21 4 23 21 25 18 27
REMARK Flexibility Score: inf
ROOT
ATOM      1  C   UNL     1       1.394  10.532  -4.635  1.00  0.00     0.180 A 
ATOM      2  C   UNL     1       0.854   9.377  -4.046  1.00  0.00     0.208 A 
ATOM      3  C   UNL     1       1.364   8.122  -4.415  1.00  0.00     0.238 A 
ATOM      4  O   UNL     1       0.839   7.089  -3.924  1.00  0.00    -0.285 OA
ATOM      5  C   UNL     1       2.419   8.039  -5.355  1.00  0.00     0.111 A 
ATOM      6  C   UNL     1       3.039   6.823  -5.772  1.00  0.00     0.134 A 
ATOM      7  C   UNL     1       3.984   6.848  -6.805  1.00  0.00     0.093 A 
ATOM      8  C   UNL     1       4.378   8.050  -7.391  1.00  0.00     0.123 A 
ATOM      9  C   UNL     1       3.822   9.252  -6.950  1.00  0.00     0.094 A 
ATOM     10  C   UNL     1       2.849   9.255  -5.947  1.00  0.00     0.146 A 
ATOM     11  O   UNL     1       2.338  10.418  -5.563  1.00  0.00    -0.452 OA
ENDROOT
BRANCH   1  12
ATOM     12  C   UNL     1       0.925  11.892  -4.280  1.00  0.00     0.025 A 
ATOM     13  C   UNL     1       1.604  12.620  -3.294  1.00  0.00     0.016 A 
ATOM     14  C   UNL     1       1.166  13.895  -2.929  1.00  0.00     0.051 A 
ATOM     15  C   UNL     1       0.037  14.461  -3.530  1.00  0.00     0.157 A 
ATOM     16  C   UNL     1      -0.223  12.446  -4.869  1.00  0.00     0.062 A 
ATOM     17  C   UNL     1      -0.671  13.724  -4.509  1.00  0.00     0.158 A 
BRANCH  15  18
ATOM     18  O   UNL     1      -0.345  15.742  -3.128  1.00  0.00    -0.504 OA
ATOM     19  H   UNL     1       0.017  16.592  -3.534  1.00  0.00     0.293 HD
ENDBRANCH  15  18
BRANCH  17  20
ATOM     20  O   UNL     1      -1.819  14.213  -5.138  1.00  0.00    -0.504 OA
ATOM     21  H   UNL     1      -2.744  14.175  -4.735  1.00  0.00     0.293 HD
ENDBRANCH  17  20
ENDBRANCH   1  12
BRANCH   2  22
ATOM     22  O   UNL     1      -0.202   9.480  -3.135  1.00  0.00    -0.502 OA
ATOM     23  H   UNL     1      -1.144   9.183  -3.359  1.00  0.00     0.293 HD
ENDBRANCH   2  22
BRANCH   6  24
ATOM     24  O   UNL     1       2.785   5.578  -5.189  1.00  0.00    -0.507 OA
ATOM     25  H   UNL     1       3.321   5.175  -4.437  1.00  0.00     0.293 HD
ENDBRANCH   6  24
BRANCH   8  26
ATOM     26  O   UNL     1       5.333   8.040  -8.405  1.00  0.00    -0.508 OA
ATOM     27  H   UNL     1       6.139   7.427  -8.369  1.00  0.00     0.293 HD
ENDBRANCH   8  26
TORSDOF 6
ENDMDL
MODEL 3
REMARK VINA RESULT:    -4.571      1.452      1.630
REMARK INTER + INTRA:          -5.510
REMARK INTER:                  -5.246
REMARK INTRA:                  -0.264
REMARK UNBOUND:                -0.004
REMARK SMILES O=c1c(O)c(-c2ccc(O)c(O)c2)oc2cc(O)cc(O)c12
REMARK SMILES IDX 5 1 3 2 2 3 1 4 22 5 20 6 19 7 17 8 16 9 15 10 14 11 6 12
REMARK SMILES IDX 7 13 8 14 9 15 13 16 11 17 10 18 12 20 4 22 21 24 18 26
REMARK H PARENT 10 19 12 21 4 23 21 25 18 27
REMARK Flexibility Score: inf
ROOT
ATOM      1  C   UNL     1       3.277   8.187  -5.362  1.00  0.00     0.180 A 
ATOM      2  C   UNL     1       4.399   8.175  -6.208  1.00  0.00     0.208 A 
ATOM      3  C   UNL     1       4.942   9.397  -6.637  1.00  0.00     0.238 A 
ATOM      4  O   UNL     1       5.913   9.379  -7.438  1.00  0.00    -0.285 OA
ATOM      5  C   UNL     1       4.366  10.615  -6.202  1.00  0.00     0.111 A 
ATOM      6  C   UNL     1       4.858  11.912  -6.542  1.00  0.00     0.134 A 
ATOM      7  C   UNL     1       4.132  13.047  -6.162  1.00  0.00     0.093 A 
ATOM      8  C   UNL     1       2.969  12.937  -5.401  1.00  0.00     0.123 A 
ATOM      9  C   UNL     1       2.511  11.677  -5.012  1.00  0.00     0.094 A 
ATOM     10  C   UNL     1       3.194  10.523  -5.406  1.00  0.00     0.146 A 
ATOM     11  O   UNL     1       2.720   9.344  -5.025  1.00  0.00    -0.452 OA
ENDROOT
BRANCH   1  12
ATOM     12  C   UNL     1       2.664   6.940  -4.849  1.00  0.00     0.025 A 
ATOM     13  C   UNL     1       3.311   6.218  -3.838  1.00  0.00     0.016 A 
ATOM     14  C   UNL     1       2.760   5.030  -3.354  1.00  0.00     0.051 A 
ATOM     15  C   UNL     1       1.563   4.532  -3.880  1.00  0.00     0.157 A 
ATOM     16  C   UNL     1       1.473   6.432  -5.396  1.00  0.00     0.062 A 
ATOM     17  C   UNL     1       0.914   5.240  -4.919  1.00  0.00     0.158 A 
BRANCH  15  18
ATOM     18  O   UNL     1       1.060   3.344  -3.347  1.00  0.00    -0.504 OA
ATOM     19  H   UNL     1       1.522   2.808  -2.627  1.00  0.00     0.293 HD
ENDBRANCH  15  18
BRANCH  17  20
ATOM     20  O   UNL     1      -0.273   4.796  -5.507  1.00  0.00    -0.504 OA
ATOM     21  H   UNL     1      -1.183   5.180  -5.301  1.00  0.00     0.293 HD
ENDBRANCH  17  20
ENDBRANCH   1  12
BRANCH   2  22
ATOM     22  O   UNL     1       4.939   6.961  -6.643  1.00  0.00    -0.502 OA
ATOM     23  H   UNL     1       4.377   6.128  -6.763  1.00  0.00     0.293 HD
ENDBRANCH   2  22
BRANCH   6  24
ATOM     24  O   UNL     1       6.059  12.136  -7.221  1.00  0.00    -0.507 OA
ATOM     25  H   UNL     1       6.890  12.529  -6.806  1.00  0.00     0.293 HD
ENDBRANCH   6  24
BRANCH   8  26
ATOM     26  O   UNL     1       2.281  14.089  -5.026  1.00  0.00    -0.508 OA
ATOM     27  H   UNL     1       1.599  14.521  -5.638  1.00  0.00     0.293 HD
ENDBRANCH   8  26
TORSDOF 6
ENDMDL
MODEL 4
REMARK VINA RESULT:    -4.560      2.476      6.610
REMARK INTER + INTRA:          -5.498
REMARK INTER:                  -5.168
REMARK INTRA:                  -0.330
REMARK UNBOUND:                -0.004
REMARK SMILES O=c1c(O)c(-c2ccc(O)c(O)c2)oc2cc(O)cc(O)c12
REMARK SMILES IDX 5 1 3 2 2 3 1 4 22 5 20 6 19 7 17 8 16 9 15 10 14 11 6 12
REMARK SMILES IDX 7 13 8 14 9 15 13 16 11 17 10 18 12 20 4 22 21 24 18 26
REMARK H PARENT 10 19 12 21 4 23 21 25 18 27
REMARK Flexibility Score: inf
ROOT
ATOM      1  C   UNL     1       3.773   8.529  -5.920  1.00  0.00     0.180 A 
ATOM      2  C   UNL     1       3.881   7.729  -7.070  1.00  0.00     0.208 A 
ATOM      3  C   UNL     1       3.017   6.633  -7.221  1.00  0.00     0.238 A 
ATOM      4  O   UNL     1       3.155   5.889  -8.227  1.00  0.00    -0.285 OA
ATOM      5  C   UNL     1       2.045   6.360  -6.229  1.00  0.00     0.111 A 
ATOM      6  C   UNL     1       1.092   5.300  -6.297  1.00  0.00     0.134 A 
ATOM      7  C   UNL     1       0.263   5.044  -5.198  1.00  0.00     0.093 A 
ATOM      8  C   UNL     1       0.309   5.847  -4.059  1.00  0.00     0.123 A 
ATOM      9  C   UNL     1       1.196   6.923  -4.005  1.00  0.00     0.094 A 
ATOM     10  C   UNL     1       2.061   7.182  -5.071  1.00  0.00     0.146 A 
ATOM     11  O   UNL     1       2.896   8.209  -4.976  1.00  0.00    -0.452 OA
ENDROOT
BRANCH   1  12
ATOM     12  C   UNL     1       4.633   9.716  -5.701  1.00  0.00     0.025 A 
ATOM     13  C   UNL     1       5.776   9.602  -4.898  1.00  0.00     0.016 A 
ATOM     14  C   UNL     1       6.587  10.713  -4.663  1.00  0.00     0.051 A 
ATOM     15  C   UNL     1       6.268  11.960  -5.210  1.00  0.00     0.157 A 
ATOM     16  C   UNL     1       4.294  10.972  -6.234  1.00  0.00     0.062 A 
ATOM     17  C   UNL     1       5.102  12.092  -6.001  1.00  0.00     0.158 A 
BRANCH  15  18
ATOM     18  O   UNL     1       7.124  13.030  -4.944  1.00  0.00    -0.504 OA
ATOM     19  H   UNL     1       8.038  12.931  -4.524  1.00  0.00     0.293 HD
ENDBRANCH  15  18
BRANCH  17  20
ATOM     20  O   UNL     1       4.707  13.308  -6.564  1.00  0.00    -0.504 OA
ATOM     21  H   UNL     1       4.135  13.991  -6.089  1.00  0.00     0.293 HD
ENDBRANCH  17  20
ENDBRANCH   1  12
BRANCH   2  22
ATOM     22  O   UNL     1       4.862   8.004  -8.028  1.00  0.00    -0.502 OA
ATOM     23  H   UNL     1       4.661   8.509  -8.883  1.00  0.00     0.293 HD
ENDBRANCH   2  22
BRANCH   6  24
ATOM     24  O   UNL     1       0.901   4.495  -7.425  1.00  0.00    -0.507 OA
ATOM     25  H   UNL     1       1.164   3.524  -7.489  1.00  0.00     0.293 HD
ENDBRANCH   6  24
BRANCH   8  26
ATOM     26  O   UNL     1      -0.541   5.573  -2.990  1.00  0.00    -0.508 OA
ATOM     27  H   UNL     1      -1.041   6.311  -2.508  1.00  0.00     0.293 HD
ENDBRANCH   8  26
TORSDOF 6
ENDMDL
MODEL 5
REMARK VINA RESULT:    -4.506      2.192      6.682
REMARK INTER + INTRA:          -5.432
REMARK INTER:                  -5.287
REMARK INTRA:                  -0.144
REMARK UNBOUND:                -0.004
REMARK SMILES O=c1c(O)c(-c2ccc(O)c(O)c2)oc2cc(O)cc(O)c12
REMARK SMILES IDX 5 1 3 2 2 3 1 4 22 5 20 6 19 7 17 8 16 9 15 10 14 11 6 12
REMARK SMILES IDX 7 13 8 14 9 15 13 16 11 17 10 18 12 20 4 22 21 24 18 26
REMARK H PARENT 10 19 12 21 4 23 21 25 18 27
REMARK Flexibility Score: inf
ROOT
ATOM      1  C   UNL     1       2.123  11.512  -5.302  1.00  0.00     0.180 A 
ATOM      2  C   UNL     1       3.367  11.741  -5.914  1.00  0.00     0.208 A 
ATOM      3  C   UNL     1       4.058  10.658  -6.479  1.00  0.00     0.238 A 
ATOM      4  O   UNL     1       5.196  10.860  -6.977  1.00  0.00    -0.285 OA
ATOM      5  C   UNL     1       3.490   9.362  -6.439  1.00  0.00     0.111 A 
ATOM      6  C   UNL     1       4.084   8.198  -7.015  1.00  0.00     0.134 A 
ATOM      7  C   UNL     1       3.495   6.945  -6.802  1.00  0.00     0.093 A 
ATOM      8  C   UNL     1       2.303   6.821  -6.091  1.00  0.00     0.123 A 
ATOM      9  C   UNL     1       1.682   7.959  -5.574  1.00  0.00     0.094 A 
ATOM     10  C   UNL     1       2.264   9.219  -5.739  1.00  0.00     0.146 A 
ATOM     11  O   UNL     1       1.647  10.275  -5.223  1.00  0.00    -0.452 OA
ENDROOT
BRANCH   1  12
ATOM     12  C   UNL     1       1.323  12.608  -4.707  1.00  0.00     0.025 A 
ATOM     13  C   UNL     1       1.816  13.293  -3.588  1.00  0.00     0.016 A 
ATOM     14  C   UNL     1       1.069  14.315  -2.999  1.00  0.00     0.051 A 
ATOM     15  C   UNL     1      -0.188  14.662  -3.504  1.00  0.00     0.157 A 
ATOM     16  C   UNL     1       0.050  12.937  -5.203  1.00  0.00     0.062 A 
ATOM     17  C   UNL     1      -0.707  13.959  -4.617  1.00  0.00     0.158 A 
BRANCH  15  18
ATOM     18  O   UNL     1      -0.881  15.698  -2.875  1.00  0.00    -0.504 OA
ATOM     19  H   UNL     1      -1.216  15.657  -1.924  1.00  0.00     0.293 HD
ENDBRANCH  15  18
BRANCH  17  20
ATOM     20  O   UNL     1      -1.963  14.235  -5.164  1.00  0.00    -0.504 OA
ATOM     21  H   UNL     1      -2.620  14.890  -4.767  1.00  0.00     0.293 HD
ENDBRANCH  17  20
ENDBRANCH   1  12
BRANCH   2  22
ATOM     22  O   UNL     1       3.920  13.025  -5.924  1.00  0.00    -0.502 OA
ATOM     23  H   UNL     1       4.908  13.193  -5.775  1.00  0.00     0.293 HD
ENDBRANCH   2  22
BRANCH   6  24
ATOM     24  O   UNL     1       5.226   8.223  -7.822  1.00  0.00    -0.507 OA
ATOM     25  H   UNL     1       6.048   7.660  -7.672  1.00  0.00     0.293 HD
ENDBRANCH   6  24
BRANCH   8  26
ATOM     26  O   UNL     1       1.737   5.561  -5.912  1.00  0.00    -0.508 OA
ATOM     27  H   UNL     1       1.504   4.968  -6.699  1.00  0.00     0.293 HD
ENDBRANCH   8  26
TORSDOF 6
ENDMDL
MODEL 6
REMARK VINA RESULT:    -4.416      2.707      6.277
REMARK INTER + INTRA:          -5.324
REMARK INTER:                  -5.000
REMARK INTRA:                  -0.324
REMARK UNBOUND:                -0.004
REMARK SMILES O=c1c(O)c(-c2ccc(O)c(O)c2)oc2cc(O)cc(O)c12
REMARK SMILES IDX 5 1 3 2 2 3 1 4 22 5 20 6 19 7 17 8 16 9 15 10 14 11 6 12
REMARK SMILES IDX 7 13 8 14 9 15 13 16 11 17 10 18 12 20 4 22 21 24 18 26
REMARK H PARENT 10 19 12 21 4 23 21 25 18 27
REMARK Flexibility Score: inf
ROOT
ATOM      1  C   UNL     1       1.360   9.983  -4.628  1.00  0.00     0.180 A 
ATOM      2  C   UNL     1       2.648  10.105  -4.080  1.00  0.00     0.208 A 
ATOM      3  C   UNL     1       3.640   9.187  -4.460  1.00  0.00     0.238 A 
ATOM      4  O   UNL     1       4.776   9.268  -3.924  1.00  0.00    -0.285 OA
ATOM      5  C   UNL     1       3.336   8.169  -5.395  1.00  0.00     0.111 A 
ATOM      6  C   UNL     1       4.274   7.209  -5.882  1.00  0.00     0.134 A 
ATOM      7  C   UNL     1       3.831   6.166  -6.706  1.00  0.00     0.093 A 
ATOM      8  C   UNL     1       2.501   6.086  -7.113  1.00  0.00     0.123 A 
ATOM      9  C   UNL     1       1.587   7.053  -6.691  1.00  0.00     0.094 A 
ATOM     10  C   UNL     1       1.991   8.084  -5.839  1.00  0.00     0.146 A 
ATOM     11  O   UNL     1       1.089   8.978  -5.453  1.00  0.00    -0.452 OA
ENDROOT
BRANCH   1  12
ATOM     12  C   UNL     1       0.268  10.928  -4.295  1.00  0.00     0.025 A 
ATOM     13  C   UNL     1      -0.692  10.564  -3.342  1.00  0.00     0.016 A 
ATOM     14  C   UNL     1      -1.741  11.431  -3.029  1.00  0.00     0.051 A 
ATOM     15  C   UNL     1      -1.859  12.668  -3.669  1.00  0.00     0.157 A 
ATOM     16  C   UNL     1       0.140  12.160  -4.958  1.00  0.00     0.062 A 
ATOM     17  C   UNL     1      -0.909  13.035  -4.652  1.00  0.00     0.158 A 
BRANCH  15  18
ATOM     18  O   UNL     1      -2.925  13.493  -3.305  1.00  0.00    -0.504 OA
ATOM     19  H   UNL     1      -3.418  14.096  -3.948  1.00  0.00     0.293 HD
ENDBRANCH  15  18
BRANCH  17  20
ATOM     20  O   UNL     1      -0.973  14.245  -5.348  1.00  0.00    -0.504 OA
ATOM     21  H   UNL     1      -1.561  14.402  -6.154  1.00  0.00     0.293 HD
ENDBRANCH  17  20
ENDBRANCH   1  12
BRANCH   2  22
ATOM     22  O   UNL     1       2.921  11.105  -3.142  1.00  0.00    -0.502 OA
ATOM     23  H   UNL     1       3.235  12.030  -3.409  1.00  0.00     0.293 HD
ENDBRANCH   2  22
BRANCH   6  24
ATOM     24  O   UNL     1       5.645   7.251  -5.610  1.00  0.00    -0.507 OA
ATOM     25  H   UNL     1       6.046   7.420  -4.701  1.00  0.00     0.293 HD
ENDBRANCH   6  24
BRANCH   8  26
ATOM     26  O   UNL     1       2.098   5.045  -7.946  1.00  0.00    -0.508 OA
ATOM     27  H   UNL     1       2.294   5.055  -8.940  1.00  0.00     0.293 HD
ENDBRANCH   8  26
TORSDOF 6
ENDMDL
MODEL 7
REMARK VINA RESULT:    -4.376      2.286      6.891
REMARK INTER + INTRA:          -5.275
REMARK INTER:                  -5.037
REMARK INTRA:                  -0.238
REMARK UNBOUND:                -0.004
REMARK SMILES O=c1c(O)c(-c2ccc(O)c(O)c2)oc2cc(O)cc(O)c12
REMARK SMILES IDX 5 1 3 2 2 3 1 4 22 5 20 6 19 7 17 8 16 9 15 10 14 11 6 12
REMARK SMILES IDX 7 13 8 14 9 15 13 16 11 17 10 18 12 20 4 22 21 24 18 26
REMARK H PARENT 10 19 12 21 4 23 21 25 18 27
REMARK Flexibility Score: inf
ROOT
ATOM      1  C   UNL     1       3.267   8.383  -5.815  1.00  0.00     0.180 A 
ATOM      2  C   UNL     1       2.846   8.207  -4.486  1.00  0.00     0.208 A 
ATOM      3  C   UNL     1       1.938   7.178  -4.189  1.00  0.00     0.238 A 
ATOM      4  O   UNL     1       1.523   7.060  -3.007  1.00  0.00    -0.285 OA
ATOM      5  C   UNL     1       1.475   6.328  -5.222  1.00  0.00     0.111 A 
ATOM      6  C   UNL     1       0.585   5.229  -5.030  1.00  0.00     0.134 A 
ATOM      7  C   UNL     1       0.091   4.537  -6.142  1.00  0.00     0.093 A 
ATOM      8  C   UNL     1       0.503   4.861  -7.433  1.00  0.00     0.123 A 
ATOM      9  C   UNL     1       1.419   5.896  -7.629  1.00  0.00     0.094 A 
ATOM     10  C   UNL     1       1.902   6.629  -6.542  1.00  0.00     0.146 A 
ATOM     11  O   UNL     1       2.764   7.611  -6.772  1.00  0.00    -0.452 OA
ENDROOT
BRANCH   1  12
ATOM     12  C   UNL     1       4.240   9.431  -6.202  1.00  0.00     0.025 A 
ATOM     13  C   UNL     1       5.561   9.069  -6.497  1.00  0.00     0.016 A 
ATOM     14  C   UNL     1       6.500  10.043  -6.844  1.00  0.00     0.051 A 
ATOM     15  C   UNL     1       6.143  11.395  -6.888  1.00  0.00     0.157 A 
ATOM     16  C   UNL     1       3.883  10.789  -6.222  1.00  0.00     0.062 A 
ATOM     17  C   UNL     1       4.818  11.774  -6.567  1.00  0.00     0.158 A 
BRANCH  15  18
ATOM     18  O   UNL     1       7.125  12.319  -7.250  1.00  0.00    -0.504 OA
ATOM     19  H   UNL     1       7.413  12.493  -8.202  1.00  0.00     0.293 HD
ENDBRANCH  15  18
BRANCH  17  20
ATOM     20  O   UNL     1       4.392  13.104  -6.569  1.00  0.00    -0.504 OA
ATOM     21  H   UNL     1       3.989  13.570  -5.769  1.00  0.00     0.293 HD
ENDBRANCH  17  20
ENDBRANCH   1  12
BRANCH   2  22
ATOM     22  O   UNL     1       3.299   9.071  -3.485  1.00  0.00    -0.502 OA
ATOM     23  H   UNL     1       3.748   9.955  -3.691  1.00  0.00     0.293 HD
ENDBRANCH   2  22
BRANCH   6  24
ATOM     24  O   UNL     1       0.182   4.763  -3.774  1.00  0.00    -0.507 OA
ATOM     25  H   UNL     1      -0.533   4.069  -3.621  1.00  0.00     0.293 HD
ENDBRANCH   6  24
BRANCH   8  26
ATOM     26  O   UNL     1       0.004   4.141  -8.516  1.00  0.00    -0.508 OA
ATOM     27  H   UNL     1      -0.978   4.171  -8.765  1.00  0.00     0.293 HD
ENDBRANCH   8  26
TORSDOF 6
ENDMDL
MODEL 8
REMARK VINA RESULT:    -4.323      3.485      5.061
REMARK INTER + INTRA:          -5.212
REMARK INTER:                  -4.889
REMARK INTRA:                  -0.323
REMARK UNBOUND:                -0.004
REMARK SMILES O=c1c(O)c(-c2ccc(O)c(O)c2)oc2cc(O)cc(O)c12
REMARK SMILES IDX 5 1 3 2 2 3 1 4 22 5 20 6 19 7 17 8 16 9 15 10 14 11 6 12
REMARK SMILES IDX 7 13 8 14 9 15 13 16 11 17 10 18 12 20 4 22 21 24 18 26
REMARK H PARENT 10 19 12 21 4 23 21 25 18 27
REMARK Flexibility Score: inf
ROOT
ATOM      1  C   UNL     1       1.583  10.834  -4.809  1.00  0.00     0.180 A 
ATOM      2  C   UNL     1       1.632  12.206  -5.111  1.00  0.00     0.208 A 
ATOM      3  C   UNL     1       0.504  13.001  -4.852  1.00  0.00     0.238 A 
ATOM      4  O   UNL     1       0.536  14.217  -5.175  1.00  0.00    -0.285 OA
ATOM      5  C   UNL     1      -0.652  12.419  -4.281  1.00  0.00     0.111 A 
ATOM      6  C   UNL     1      -1.838  13.137  -3.940  1.00  0.00     0.134 A 
ATOM      7  C   UNL     1      -2.968  12.436  -3.501  1.00  0.00     0.093 A 
ATOM      8  C   UNL     1      -2.936  11.053  -3.329  1.00  0.00     0.123 A 
ATOM      9  C   UNL     1      -1.764  10.347  -3.603  1.00  0.00     0.094 A 
ATOM     10  C   UNL     1      -0.631  11.014  -4.077  1.00  0.00     0.146 A 
ATOM     11  O   UNL     1       0.461  10.305  -4.335  1.00  0.00    -0.452 OA
ENDROOT
BRANCH   1  12
ATOM     12  C   UNL     1       2.740   9.936  -5.030  1.00  0.00     0.025 A 
ATOM     13  C   UNL     1       3.689   9.770  -4.013  1.00  0.00     0.016 A 
ATOM     14  C   UNL     1       4.798   8.944  -4.209  1.00  0.00     0.051 A 
ATOM     15  C   UNL     1       4.988   8.281  -5.426  1.00  0.00     0.157 A 
ATOM     16  C   UNL     1       2.939   9.291  -6.263  1.00  0.00     0.062 A 
ATOM     17  C   UNL     1       4.049   8.462  -6.469  1.00  0.00     0.158 A 
BRANCH  15  18
ATOM     18  O   UNL     1       6.112   7.464  -5.556  1.00  0.00    -0.504 OA
ATOM     19  H   UNL     1       6.316   6.910  -6.375  1.00  0.00     0.293 HD
ENDBRANCH  15  18
BRANCH  17  20
ATOM     20  O   UNL     1       4.182   7.850  -7.718  1.00  0.00    -0.504 OA
ATOM     21  H   UNL     1       3.560   7.134  -8.065  1.00  0.00     0.293 HD
ENDBRANCH  17  20
ENDBRANCH   1  12
BRANCH   2  22
ATOM     22  O   UNL     1       2.777  12.757  -5.694  1.00  0.00    -0.502 OA
ATOM     23  H   UNL     1       3.529  12.186  -6.060  1.00  0.00     0.293 HD
ENDBRANCH   2  22
BRANCH   6  24
ATOM     24  O   UNL     1      -1.946  14.531  -3.987  1.00  0.00    -0.507 OA
ATOM     25  H   UNL     1      -1.293  15.173  -3.567  1.00  0.00     0.293 HD
ENDBRANCH   6  24
BRANCH   8  26
ATOM     26  O   UNL     1      -4.074  10.390  -2.876  1.00  0.00    -0.508 OA
ATOM     27  H   UNL     1      -4.134  10.024  -1.933  1.00  0.00     0.293 HD
ENDBRANCH   8  26
TORSDOF 6
ENDMDL
MODEL 9
REMARK VINA RESULT:    -4.293      3.106      5.377
REMARK INTER + INTRA:          -5.175
REMARK INTER:                  -4.997
REMARK INTRA:                  -0.178
REMARK UNBOUND:                -0.004
REMARK SMILES O=c1c(O)c(-c2ccc(O)c(O)c2)oc2cc(O)cc(O)c12
REMARK SMILES IDX 5 1 3 2 2 3 1 4 22 5 20 6 19 7 17 8 16 9 15 10 14 11 6 12
REMARK SMILES IDX 7 13 8 14 9 15 13 16 11 17 10 18 12 20 4 22 21 24 18 26
REMARK H PARENT 10 19 12 21 4 23 21 25 18 27
REMARK Flexibility Score: inf
ROOT
ATOM      1  C   UNL     1       1.940  10.180  -4.922  1.00  0.00     0.180 A 
ATOM      2  C   UNL     1       1.278   9.174  -4.198  1.00  0.00     0.208 A 
ATOM      3  C   UNL     1       0.001   9.437  -3.678  1.00  0.00     0.238 A 
ATOM      4  O   UNL     1      -0.563   8.552  -2.984  1.00  0.00    -0.285 OA
ATOM      5  C   UNL     1      -0.605  10.697  -3.902  1.00  0.00     0.111 A 
ATOM      6  C   UNL     1      -1.912  11.059  -3.456  1.00  0.00     0.134 A 
ATOM      7  C   UNL     1      -2.358  12.376  -3.621  1.00  0.00     0.093 A 
ATOM      8  C   UNL     1      -1.573  13.326  -4.273  1.00  0.00     0.123 A 
ATOM      9  C   UNL     1      -0.318  12.967  -4.766  1.00  0.00     0.094 A 
ATOM     10  C   UNL     1       0.170  11.671  -4.584  1.00  0.00     0.146 A 
ATOM     11  O   UNL     1       1.373  11.373  -5.059  1.00  0.00    -0.452 OA
ENDROOT
BRANCH   1  12
ATOM     12  C   UNL     1       3.278   9.969  -5.522  1.00  0.00     0.025 A 
ATOM     13  C   UNL     1       4.351  10.775  -5.117  1.00  0.00     0.016 A 
ATOM     14  C   UNL     1       5.615  10.607  -5.685  1.00  0.00     0.051 A 
ATOM     15  C   UNL     1       5.830   9.643  -6.676  1.00  0.00     0.157 A 
ATOM     16  C   UNL     1       3.484   9.016  -6.534  1.00  0.00     0.062 A 
ATOM     17  C   UNL     1       4.748   8.841  -7.110  1.00  0.00     0.158 A 
BRANCH  15  18
ATOM     18  O   UNL     1       7.119   9.519  -7.197  1.00  0.00    -0.504 OA
ATOM     19  H   UNL     1       7.921  10.023  -6.848  1.00  0.00     0.293 HD
ENDBRANCH  15  18
BRANCH  17  20
ATOM     20  O   UNL     1       4.881   7.873  -8.108  1.00  0.00    -0.504 OA
ATOM     21  H   UNL     1       5.694   7.778  -8.699  1.00  0.00     0.293 HD
ENDBRANCH  17  20
ENDBRANCH   1  12
BRANCH   2  22
ATOM     22  O   UNL     1       1.903   7.945  -3.970  1.00  0.00    -0.502 OA
ATOM     23  H   UNL     1       1.487   7.221  -3.397  1.00  0.00     0.293 HD
ENDBRANCH   2  22
BRANCH   6  24
ATOM     24  O   UNL     1      -2.814  10.162  -2.875  1.00  0.00    -0.507 OA
ATOM     25  H   UNL     1      -3.678  10.424  -2.428  1.00  0.00     0.293 HD
ENDBRANCH   6  24
BRANCH   8  26
ATOM     26  O   UNL     1      -2.055  14.623  -4.434  1.00  0.00    -0.508 OA
ATOM     27  H   UNL     1      -1.654  15.404  -3.929  1.00  0.00     0.293 HD
ENDBRANCH   8  26
TORSDOF 6
ENDMDL
