MODEL 1
REMARK VINA RESULT:    -3.884      0.000      0.000
REMARK INTER + INTRA:          -8.156
REMARK INTER:                  -6.608
REMARK INTRA:                  -1.547
REMARK UNBOUND:                -1.547
REMARK SMILES CCCCCCCCCCCCCC(=O)[O-]
REMARK SMILES IDX 8 1 9 2 10 3 11 4 12 5 13 6 14 7 15 8 16 9 7 10 6 11 5 12
REMARK SMILES IDX 4 13 3 14 2 15 1 16
REMARK H PARENT
REMARK Flexibility Score: inf
ROOT
ATOM      1  C   UNL     1      76.328  80.002  79.769  1.00  0.00     0.000 C 
ENDROOT
BRANCH   1   2
ATOM      2  C   UNL     1      75.150  80.282  78.818  1.00  0.00     0.000 C 
BRANCH   2   3
ATOM      3  C   UNL     1      75.085  81.746  78.359  1.00  0.00     0.000 C 
BRANCH   3   4
ATOM      4  C   UNL     1      76.409  82.178  77.712  1.00  0.00     0.000 C 
BRANCH   4   5
ATOM      5  C   UNL     1      76.494  81.806  76.219  1.00  0.00     0.006 C 
BRANCH   5   6
ATOM      6  C   UNL     1      77.180  82.867  75.344  1.00  0.00     0.053 C 
BRANCH   6   7
ATOM      7  C   UNL     1      76.268  84.014  75.032  1.00  0.00     0.041 C 
ATOM      8  O   UNL     1      76.731  85.180  74.922  1.00  0.00    -0.550 OA
ATOM      9  O   UNL     1      74.912  83.791  74.829  1.00  0.00    -0.550 OA
ENDBRANCH   6   7
ENDBRANCH   5   6
ENDBRANCH   4   5
ENDBRANCH   3   4
ENDBRANCH   2   3
ENDBRANCH   1   2
BRANCH   1  10
ATOM     10  C   UNL     1      77.015  78.640  79.571  1.00  0.00     0.000 C 
BRANCH  10  11
ATOM     11  C   UNL     1      78.447  78.763  79.028  1.00  0.00    -0.000 C 
BRANCH  11  12
ATOM     12  C   UNL     1      78.440  79.007  77.514  1.00  0.00    -0.000 C 
BRANCH  12  13
ATOM     13  C   UNL     1      79.596  79.926  77.100  1.00  0.00    -0.000 C 
BRANCH  13  14
ATOM     14  C   UNL     1      80.026  80.828  78.268  1.00  0.00    -0.000 C 
BRANCH  14  15
ATOM     15  C   UNL     1      81.553  80.948  78.390  1.00  0.00    -0.003 C 
ATOM     16  C   UNL     1      82.026  81.013  79.843  1.00  0.00     0.004 C 
ENDBRANCH  14  15
ENDBRANCH  13  14
ENDBRANCH  12  13
ENDBRANCH  11  12
ENDBRANCH  10  11
ENDBRANCH   1  10
TORSDOF 12
ENDMDL
MODEL 2
REMARK VINA RESULT:    -3.807      1.491      2.096
REMARK INTER + INTRA:          -8.024
REMARK INTER:                  -6.705
REMARK INTRA:                  -1.319
REMARK UNBOUND:                -1.547
REMARK SMILES CCCCCCCCCCCCCC(=O)[O-]
REMARK SMILES IDX 8 1 9 2 10 3 11 4 12 5 13 6 14 7 15 8 16 9 7 10 6 11 5 12
REMARK SMILES IDX 4 13 3 14 2 15 1 16
REMARK H PARENT
REMARK Flexibility Score: inf
ROOT
ATOM      1  C   UNL     1      75.469  80.106  78.495  1.00  0.00     0.000 C 
ENDROOT
BRANCH   1   2
ATOM      2  C   UNL     1      74.176  79.977  77.670  1.00  0.00     0.000 C 
BRANCH   2   3
ATOM      3  C   UNL     1      73.860  81.237  76.850  1.00  0.00     0.000 C 
BRANCH   3   4
ATOM      4  C   UNL     1      74.480  81.149  75.448  1.00  0.00     0.000 C 
BRANCH   4   5
ATOM      5  C   UNL     1      74.528  82.510  74.729  1.00  0.00     0.006 C 
BRANCH   5   6
ATOM      6  C   UNL     1      75.196  83.631  75.541  1.00  0.00     0.053 C 
BRANCH   6   7
ATOM      7  C   UNL     1      76.468  84.103  74.907  1.00  0.00     0.041 C 
ATOM      8  O   UNL     1      76.747  85.331  74.885  1.00  0.00    -0.550 OA
ATOM      9  O   UNL     1      77.362  83.186  74.370  1.00  0.00    -0.550 OA
ENDBRANCH   6   7
ENDBRANCH   5   6
ENDBRANCH   4   5
ENDBRANCH   3   4
ENDBRANCH   2   3
ENDBRANCH   1   2
BRANCH   1  10
ATOM     10  C   UNL     1      75.754  81.515  79.043  1.00  0.00     0.000 C 
BRANCH  10  11
ATOM     11  C   UNL     1      76.926  82.208  78.334  1.00  0.00    -0.000 C 
BRANCH  11  12
ATOM     12  C   UNL     1      77.627  81.248  77.365  1.00  0.00    -0.000 C 
BRANCH  12  13
ATOM     13  C   UNL     1      79.151  81.399  77.447  1.00  0.00    -0.000 C 
BRANCH  13  14
ATOM     14  C   UNL     1      79.699  80.757  78.730  1.00  0.00    -0.000 C 
BRANCH  14  15
ATOM     15  C   UNL     1      81.185  80.384  78.617  1.00  0.00    -0.003 C 
ATOM     16  C   UNL     1      82.036  81.001  79.727  1.00  0.00     0.004 C 
ENDBRANCH  14  15
ENDBRANCH  13  14
ENDBRANCH  12  13
ENDBRANCH  11  12
ENDBRANCH  10  11
ENDBRANCH   1  10
TORSDOF 12
ENDMDL
MODEL 3
REMARK VINA RESULT:    -3.801      1.578      2.301
REMARK INTER + INTRA:          -8.015
REMARK INTER:                  -6.481
REMARK INTRA:                  -1.534
REMARK UNBOUND:                -1.547
REMARK SMILES CCCCCCCCCCCCCC(=O)[O-]
REMARK SMILES IDX 8 1 9 2 10 3 11 4 12 5 13 6 14 7 15 8 16 9 7 10 6 11 5 12
REMARK SMILES IDX 4 13 3 14 2 15 1 16
REMARK H PARENT
REMARK Flexibility Score: inf
ROOT
ATOM      1  C   UNL     1      78.174  81.498  78.727  1.00  0.00     0.000 C 
ENDROOT
BRANCH   1   2
ATOM      2  C   UNL     1      76.788  80.841  78.587  1.00  0.00     0.000 C 
BRANCH   2   3
ATOM      3  C   UNL     1      75.688  81.840  78.198  1.00  0.00     0.000 C 
BRANCH   3   4
ATOM      4  C   UNL     1      74.860  81.312  77.017  1.00  0.00     0.000 C 
BRANCH   4   5
ATOM      5  C   UNL     1      74.916  82.237  75.787  1.00  0.00     0.006 C 
BRANCH   5   6
ATOM      6  C   UNL     1      75.521  83.622  76.065  1.00  0.00     0.053 C 
BRANCH   6   7
ATOM      7  C   UNL     1      76.552  84.001  75.047  1.00  0.00     0.041 C 
ATOM      8  O   UNL     1      77.164  83.108  74.404  1.00  0.00    -0.550 OA
ATOM      9  O   UNL     1      76.814  85.339  74.785  1.00  0.00    -0.550 OA
ENDBRANCH   6   7
ENDBRANCH   5   6
ENDBRANCH   4   5
ENDBRANCH   3   4
ENDBRANCH   2   3
ENDBRANCH   1   2
BRANCH   1  10
ATOM     10  C   UNL     1      78.881  81.814  77.398  1.00  0.00     0.000 C 
BRANCH  10  11
ATOM     11  C   UNL     1      79.111  80.568  76.530  1.00  0.00    -0.000 C 
BRANCH  11  12
ATOM     12  C   UNL     1      80.490  80.611  75.862  1.00  0.00    -0.000 C 
BRANCH  12  13
ATOM     13  C   UNL     1      81.408  81.622  76.560  1.00  0.00    -0.000 C 
BRANCH  13  14
ATOM     14  C   UNL     1      82.482  80.905  77.393  1.00  0.00    -0.000 C 
BRANCH  14  15
ATOM     15  C   UNL     1      82.267  81.071  78.905  1.00  0.00    -0.003 C 
ATOM     16  C   UNL     1      81.536  79.883  79.532  1.00  0.00     0.004 C 
ENDBRANCH  14  15
ENDBRANCH  13  14
ENDBRANCH  12  13
ENDBRANCH  11  12
ENDBRANCH  10  11
ENDBRANCH   1  10
TORSDOF 12
ENDMDL
MODEL 4
REMARK VINA RESULT:    -3.785      1.660      2.577
REMARK INTER + INTRA:          -7.988
REMARK INTER:                  -6.433
REMARK INTRA:                  -1.555
REMARK UNBOUND:                -1.547
REMARK SMILES CCCCCCCCCCCCCC(=O)[O-]
REMARK SMILES IDX 8 1 9 2 10 3 11 4 12 5 13 6 14 7 15 8 16 9 7 10 6 11 5 12
REMARK SMILES IDX 4 13 3 14 2 15 1 16
REMARK H PARENT
REMARK Flexibility Score: inf
ROOT
ATOM      1  C   UNL     1      78.467  81.352  78.650  1.00  0.00     0.000 C 
ENDROOT
BRANCH   1   2
ATOM      2  C   UNL     1      77.380  80.389  79.163  1.00  0.00     0.000 C 
BRANCH   2   3
ATOM      3  C   UNL     1      75.972  80.762  78.676  1.00  0.00     0.000 C 
BRANCH   3   4
ATOM      4  C   UNL     1      76.002  82.051  77.843  1.00  0.00     0.000 C 
BRANCH   4   5
ATOM      5  C   UNL     1      75.989  81.783  76.326  1.00  0.00     0.006 C 
BRANCH   5   6
ATOM      6  C   UNL     1      76.885  82.727  75.510  1.00  0.00     0.053 C 
BRANCH   6   7
ATOM      7  C   UNL     1      76.134  83.923  75.008  1.00  0.00     0.041 C 
ATOM      8  O   UNL     1      74.906  83.834  74.745  1.00  0.00    -0.550 OA
ATOM      9  O   UNL     1      76.782  85.143  74.864  1.00  0.00    -0.550 OA
ENDBRANCH   6   7
ENDBRANCH   5   6
ENDBRANCH   4   5
ENDBRANCH   3   4
ENDBRANCH   2   3
ENDBRANCH   1   2
BRANCH   1  10
ATOM     10  C   UNL     1      79.892  80.771  78.627  1.00  0.00     0.000 C 
BRANCH  10  11
ATOM     11  C   UNL     1      80.074  79.671  77.570  1.00  0.00    -0.000 C 
BRANCH  11  12
ATOM     12  C   UNL     1      79.359  80.040  76.265  1.00  0.00    -0.000 C 
BRANCH  12  13
ATOM     13  C   UNL     1      80.362  80.202  75.115  1.00  0.00    -0.000 C 
BRANCH  13  14
ATOM     14  C   UNL     1      80.400  81.655  74.619  1.00  0.00    -0.000 C 
BRANCH  14  15
ATOM     15  C   UNL     1      81.084  82.603  75.616  1.00  0.00    -0.003 C 
ATOM     16  C   UNL     1      80.382  83.957  75.722  1.00  0.00     0.004 C 
ENDBRANCH  14  15
ENDBRANCH  13  14
ENDBRANCH  12  13
ENDBRANCH  11  12
ENDBRANCH  10  11
ENDBRANCH   1  10
TORSDOF 12
ENDMDL
MODEL 5
REMARK VINA RESULT:    -3.751      1.706      4.493
REMARK INTER + INTRA:          -7.929
REMARK INTER:                  -6.411
REMARK INTRA:                  -1.518
REMARK UNBOUND:                -1.547
REMARK SMILES CCCCCCCCCCCCCC(=O)[O-]
REMARK SMILES IDX 8 1 9 2 10 3 11 4 12 5 13 6 14 7 15 8 16 9 7 10 6 11 5 12
REMARK SMILES IDX 4 13 3 14 2 15 1 16
REMARK H PARENT
REMARK Flexibility Score: inf
ROOT
ATOM      1  C   UNL     1      77.052  79.094  79.552  1.00  0.00     0.000 C 
ENDROOT
BRANCH   1   2
ATOM      2  C   UNL     1      77.951  79.627  78.421  1.00  0.00     0.000 C 
BRANCH   2   3
ATOM      3  C   UNL     1      78.653  80.945  78.784  1.00  0.00     0.000 C 
BRANCH   3   4
ATOM      4  C   UNL     1      79.618  81.376  77.671  1.00  0.00     0.000 C 
BRANCH   4   5
ATOM      5  C   UNL     1      78.908  81.629  76.328  1.00  0.00     0.006 C 
BRANCH   5   6
ATOM      6  C   UNL     1      79.544  82.740  75.477  1.00  0.00     0.053 C 
BRANCH   6   7
ATOM      7  C   UNL     1      78.574  83.320  74.493  1.00  0.00     0.041 C 
ATOM      8  O   UNL     1      78.408  82.774  73.371  1.00  0.00    -0.550 OA
ATOM      9  O   UNL     1      77.829  84.443  74.828  1.00  0.00    -0.550 OA
ENDBRANCH   6   7
ENDBRANCH   5   6
ENDBRANCH   4   5
ENDBRANCH   3   4
ENDBRANCH   2   3
ENDBRANCH   1   2
BRANCH   1  10
ATOM     10  C   UNL     1      75.778  79.916  79.812  1.00  0.00     0.000 C 
BRANCH  10  11
ATOM     11  C   UNL     1      75.067  80.346  78.520  1.00  0.00    -0.000 C 
BRANCH  11  12
ATOM     12  C   UNL     1      74.979  81.874  78.424  1.00  0.00    -0.000 C 
BRANCH  12  13
ATOM     13  C   UNL     1      75.614  82.381  77.124  1.00  0.00    -0.000 C 
BRANCH  13  14
ATOM     14  C   UNL     1      75.221  81.489  75.936  1.00  0.00    -0.000 C 
BRANCH  14  15
ATOM     15  C   UNL     1      74.916  82.297  74.665  1.00  0.00    -0.003 C 
ATOM     16  C   UNL     1      73.545  82.973  74.710  1.00  0.00     0.004 C 
ENDBRANCH  14  15
ENDBRANCH  13  14
ENDBRANCH  12  13
ENDBRANCH  11  12
ENDBRANCH  10  11
ENDBRANCH   1  10
TORSDOF 12
ENDMDL
MODEL 6
REMARK VINA RESULT:    -3.741      2.562      4.166
REMARK INTER + INTRA:          -7.913
REMARK INTER:                  -6.313
REMARK INTRA:                  -1.600
REMARK UNBOUND:                -1.547
REMARK SMILES CCCCCCCCCCCCCC(=O)[O-]
REMARK SMILES IDX 8 1 9 2 10 3 11 4 12 5 13 6 14 7 15 8 16 9 7 10 6 11 5 12
REMARK SMILES IDX 4 13 3 14 2 15 1 16
REMARK H PARENT
REMARK Flexibility Score: inf
ROOT
ATOM      1  C   UNL     1      73.859  80.352  77.227  1.00  0.00     0.000 C 
ENDROOT
BRANCH   1   2
ATOM      2  C   UNL     1      73.269  80.284  75.806  1.00  0.00     0.000 C 
BRANCH   2   3
ATOM      3  C   UNL     1      74.103  81.056  74.773  1.00  0.00     0.000 C 
BRANCH   3   4
ATOM      4  C   UNL     1      75.503  80.442  74.629  1.00  0.00     0.000 C 
BRANCH   4   5
ATOM      5  C   UNL     1      76.552  81.454  74.130  1.00  0.00     0.006 C 
BRANCH   5   6
ATOM      6  C   UNL     1      77.100  82.386  75.222  1.00  0.00     0.053 C 
BRANCH   6   7
ATOM      7  C   UNL     1      76.688  83.810  75.005  1.00  0.00     0.041 C 
ATOM      8  O   UNL     1      77.561  84.707  74.866  1.00  0.00    -0.550 OA
ATOM      9  O   UNL     1      75.342  84.142  74.922  1.00  0.00    -0.550 OA
ENDBRANCH   6   7
ENDBRANCH   5   6
ENDBRANCH   4   5
ENDBRANCH   3   4
ENDBRANCH   2   3
ENDBRANCH   1   2
BRANCH   1  10
ATOM     10  C   UNL     1      74.293  81.755  77.684  1.00  0.00     0.000 C 
BRANCH  10  11
ATOM     11  C   UNL     1      75.465  81.726  78.677  1.00  0.00    -0.000 C 
BRANCH  11  12
ATOM     12  C   UNL     1      76.402  80.547  78.386  1.00  0.00    -0.000 C 
BRANCH  12  13
ATOM     13  C   UNL     1      76.552  79.646  79.619  1.00  0.00    -0.000 C 
BRANCH  13  14
ATOM     14  C   UNL     1      75.532  80.026  80.704  1.00  0.00    -0.000 C 
BRANCH  14  15
ATOM     15  C   UNL     1      74.749  78.813  81.229  1.00  0.00    -0.003 C 
ATOM     16  C   UNL     1      74.141  77.970  80.107  1.00  0.00     0.004 C 
ENDBRANCH  14  15
ENDBRANCH  13  14
ENDBRANCH  12  13
ENDBRANCH  11  12
ENDBRANCH  10  11
ENDBRANCH   1  10
TORSDOF 12
ENDMDL
MODEL 7
REMARK VINA RESULT:    -3.734      1.957      4.886
REMARK INTER + INTRA:          -7.901
REMARK INTER:                  -6.611
REMARK INTRA:                  -1.290
REMARK UNBOUND:                -1.547
REMARK SMILES CCCCCCCCCCCCCC(=O)[O-]
REMARK SMILES IDX 8 1 9 2 10 3 11 4 12 5 13 6 14 7 15 8 16 9 7 10 6 11 5 12
REMARK SMILES IDX 4 13 3 14 2 15 1 16
REMARK H PARENT
REMARK Flexibility Score: inf
ROOT
ATOM      1  C   UNL     1      79.016  80.943  77.512  1.00  0.00     0.000 C 
ENDROOT
BRANCH   1   2
ATOM      2  C   UNL     1      80.354  81.669  77.281  1.00  0.00     0.000 C 
BRANCH   2   3
ATOM      3  C   UNL     1      80.293  82.689  76.134  1.00  0.00     0.000 C 
BRANCH   3   4
ATOM      4  C   UNL     1      79.555  82.106  74.921  1.00  0.00     0.000 C 
BRANCH   4   5
ATOM      5  C   UNL     1      78.504  83.071  74.340  1.00  0.00     0.006 C 
BRANCH   5   6
ATOM      6  C   UNL     1      77.070  82.811  74.829  1.00  0.00     0.053 C 
BRANCH   6   7
ATOM      7  C   UNL     1      76.320  84.085  75.072  1.00  0.00     0.041 C 
ATOM      8  O   UNL     1      76.862  85.195  74.830  1.00  0.00    -0.550 OA
ATOM      9  O   UNL     1      75.010  84.045  75.531  1.00  0.00    -0.550 OA
ENDBRANCH   6   7
ENDBRANCH   5   6
ENDBRANCH   4   5
ENDBRANCH   3   4
ENDBRANCH   2   3
ENDBRANCH   1   2
BRANCH   1  10
ATOM     10  C   UNL     1      77.977  81.736  78.324  1.00  0.00     0.000 C 
BRANCH  10  11
ATOM     11  C   UNL     1      76.729  80.910  78.670  1.00  0.00    -0.000 C 
BRANCH  11  12
ATOM     12  C   UNL     1      75.451  81.727  78.443  1.00  0.00    -0.000 C 
BRANCH  12  13
ATOM     13  C   UNL     1      74.385  80.891  77.722  1.00  0.00    -0.000 C 
BRANCH  13  14
ATOM     14  C   UNL     1      74.856  80.496  76.314  1.00  0.00    -0.000 C 
BRANCH  14  15
ATOM     15  C   UNL     1      73.770  80.705  75.248  1.00  0.00    -0.003 C 
ATOM     16  C   UNL     1      72.654  79.663  75.328  1.00  0.00     0.004 C 
ENDBRANCH  14  15
ENDBRANCH  13  14
ENDBRANCH  12  13
ENDBRANCH  11  12
ENDBRANCH  10  11
ENDBRANCH   1  10
TORSDOF 12
ENDMDL
MODEL 8
REMARK VINA RESULT:    -3.709      2.355      4.980
REMARK INTER + INTRA:          -7.859
REMARK INTER:                  -6.231
REMARK INTRA:                  -1.628
REMARK UNBOUND:                -1.547
REMARK SMILES CCCCCCCCCCCCCC(=O)[O-]
REMARK SMILES IDX 8 1 9 2 10 3 11 4 12 5 13 6 14 7 15 8 16 9 7 10 6 11 5 12
REMARK SMILES IDX 4 13 3 14 2 15 1 16
REMARK H PARENT
REMARK Flexibility Score: inf
ROOT
ATOM      1  C   UNL     1      74.913  81.321  77.942  1.00  0.00     0.000 C 
ENDROOT
BRANCH   1   2
ATOM      2  C   UNL     1      76.211  82.035  78.360  1.00  0.00     0.000 C 
BRANCH   2   3
ATOM      3  C   UNL     1      77.360  81.062  78.662  1.00  0.00     0.000 C 
BRANCH   3   4
ATOM      4  C   UNL     1      78.617  81.431  77.861  1.00  0.00     0.000 C 
BRANCH   4   5
ATOM      5  C   UNL     1      78.337  81.605  76.356  1.00  0.00     0.006 C 
BRANCH   5   6
ATOM      6  C   UNL     1      79.189  82.688  75.676  1.00  0.00     0.053 C 
BRANCH   6   7
ATOM      7  C   UNL     1      78.438  83.396  74.590  1.00  0.00     0.041 C 
ATOM      8  O   UNL     1      78.348  82.882  73.444  1.00  0.00    -0.550 OA
ATOM      9  O   UNL     1      77.809  84.606  74.853  1.00  0.00    -0.550 OA
ENDBRANCH   6   7
ENDBRANCH   5   6
ENDBRANCH   4   5
ENDBRANCH   3   4
ENDBRANCH   2   3
ENDBRANCH   1   2
BRANCH   1  10
ATOM     10  C   UNL     1      74.053  82.082  76.919  1.00  0.00     0.000 C 
BRANCH  10  11
ATOM     11  C   UNL     1      74.864  83.077  76.075  1.00  0.00    -0.000 C 
BRANCH  11  12
ATOM     12  C   UNL     1      74.724  82.770  74.579  1.00  0.00    -0.000 C 
BRANCH  12  13
ATOM     13  C   UNL     1      73.668  81.684  74.337  1.00  0.00    -0.000 C 
BRANCH  13  14
ATOM     14  C   UNL     1      74.251  80.526  73.512  1.00  0.00    -0.000 C 
BRANCH  14  15
ATOM     15  C   UNL     1      75.689  80.175  73.921  1.00  0.00    -0.003 C 
ATOM     16  C   UNL     1      76.627  80.035  72.721  1.00  0.00     0.004 C 
ENDBRANCH  14  15
ENDBRANCH  13  14
ENDBRANCH  12  13
ENDBRANCH  11  12
ENDBRANCH  10  11
ENDBRANCH   1  10
TORSDOF 12
ENDMDL
MODEL 9
REMARK VINA RESULT:    -3.627      1.745      3.245
REMARK INTER + INTRA:          -7.718
REMARK INTER:                  -5.945
REMARK INTRA:                  -1.774
REMARK UNBOUND:                -1.547
REMARK SMILES CCCCCCCCCCCCCC(=O)[O-]
REMARK SMILES IDX 8 1 9 2 10 3 11 4 12 5 13 6 14 7 15 8 16 9 7 10 6 11 5 12
REMARK SMILES IDX 4 13 3 14 2 15 1 16
REMARK H PARENT
REMARK Flexibility Score: inf
ROOT
ATOM      1  C   UNL     1      78.545  79.934  77.813  1.00  0.00     0.000 C 
ENDROOT
BRANCH   1   2
ATOM      2  C   UNL     1      77.907  81.037  78.677  1.00  0.00     0.000 C 
BRANCH   2   3
ATOM      3  C   UNL     1      77.177  82.103  77.846  1.00  0.00     0.000 C 
BRANCH   3   4
ATOM      4  C   UNL     1      75.658  82.009  78.046  1.00  0.00     0.000 C 
BRANCH   4   5
ATOM      5  C   UNL     1      74.908  81.614  76.759  1.00  0.00     0.006 C 
BRANCH   5   6
ATOM      6  C   UNL     1      75.640  81.991  75.461  1.00  0.00     0.053 C 
BRANCH   6   7
ATOM      7  C   UNL     1      75.185  83.312  74.922  1.00  0.00     0.041 C 
ATOM      8  O   UNL     1      73.985  83.475  74.575  1.00  0.00    -0.550 OA
ATOM      9  O   UNL     1      76.076  84.374  74.836  1.00  0.00    -0.550 OA
ENDBRANCH   6   7
ENDBRANCH   5   6
ENDBRANCH   4   5
ENDBRANCH   3   4
ENDBRANCH   2   3
ENDBRANCH   1   2
BRANCH   1  10
ATOM     10  C   UNL     1      80.081  79.878  77.860  1.00  0.00     0.000 C 
BRANCH  10  11
ATOM     11  C   UNL     1      80.731  81.269  77.903  1.00  0.00    -0.000 C 
BRANCH  11  12
ATOM     12  C   UNL     1      81.898  81.361  76.912  1.00  0.00    -0.000 C 
BRANCH  12  13
ATOM     13  C   UNL     1      81.654  82.465  75.876  1.00  0.00    -0.000 C 
BRANCH  13  14
ATOM     14  C   UNL     1      80.245  83.060  76.029  1.00  0.00    -0.000 C 
BRANCH  14  15
ATOM     15  C   UNL     1      79.389  82.884  74.765  1.00  0.00    -0.003 C 
ATOM     16  C   UNL     1      79.094  81.417  74.450  1.00  0.00     0.004 C 
ENDBRANCH  14  15
ENDBRANCH  13  14
ENDBRANCH  12  13
ENDBRANCH  11  12
ENDBRANCH  10  11
ENDBRANCH   1  10
TORSDOF 12
ENDMDL
