MODEL 1
REMARK VINA RESULT:    -5.636      0.000      0.000
REMARK INTER + INTRA:         -10.971
REMARK INTER:                  -9.919
REMARK INTRA:                  -1.052
REMARK UNBOUND:                -1.052
REMARK SMILES CCCCCCCCCCCCCCC(=O)[O-]
REMARK SMILES IDX 9 1 10 2 11 3 12 4 13 5 14 6 15 7 16 8 17 9 8 10 7 11 6 12
REMARK SMILES IDX 5 13 4 14 3 15 2 16 1 17
REMARK H PARENT
REMARK Flexibility Score: inf
ROOT
ATOM      1  C   UNL     1     -16.216  28.537   1.757  1.00  0.00     0.000 C 
ENDROOT
BRANCH   1   2
ATOM      2  C   UNL     1     -16.639  28.626   0.281  1.00  0.00     0.000 C 
BRANCH   2   3
ATOM      3  C   UNL     1     -16.857  27.245  -0.366  1.00  0.00     0.000 C 
BRANCH   3   4
ATOM      4  C   UNL     1     -16.929  26.064   0.618  1.00  0.00     0.000 C 
BRANCH   4   5
ATOM      5  C   UNL     1     -18.340  25.461   0.731  1.00  0.00     0.006 C 
BRANCH   5   6
ATOM      6  C   UNL     1     -18.537  24.266  -0.211  1.00  0.00     0.053 C 
BRANCH   6   7
ATOM      7  C   UNL     1     -19.538  23.292   0.332  1.00  0.00     0.041 C 
ATOM      8  O   UNL     1     -19.211  22.095   0.537  1.00  0.00    -0.550 OA
ATOM      9  O   UNL     1     -20.823  23.718   0.644  1.00  0.00    -0.550 OA
ENDBRANCH   6   7
ENDBRANCH   5   6
ENDBRANCH   4   5
ENDBRANCH   3   4
ENDBRANCH   2   3
ENDBRANCH   1   2
BRANCH   1  10
ATOM     10  C   UNL     1     -15.717  29.881   2.321  1.00  0.00     0.000 C 
BRANCH  10  11
ATOM     11  C   UNL     1     -15.571  31.015   1.290  1.00  0.00    -0.000 C 
BRANCH  11  12
ATOM     12  C   UNL     1     -16.641  32.110   1.447  1.00  0.00    -0.000 C 
BRANCH  12  13
ATOM     13  C   UNL     1     -16.355  33.341   0.570  1.00  0.00    -0.000 C 
BRANCH  13  14
ATOM     14  C   UNL     1     -17.071  33.272  -0.791  1.00  0.00    -0.000 C 
BRANCH  14  15
ATOM     15  C   UNL     1     -18.173  32.198  -0.832  1.00  0.00    -0.000 C 
BRANCH  15  16
ATOM     16  C   UNL     1     -18.127  31.270  -2.060  1.00  0.00    -0.003 C 
ATOM     17  C   UNL     1     -19.129  30.118  -1.977  1.00  0.00     0.004 C 
ENDBRANCH  15  16
ENDBRANCH  14  15
ENDBRANCH  13  14
ENDBRANCH  12  13
ENDBRANCH  11  12
ENDBRANCH  10  11
ENDBRANCH   1  10
TORSDOF 13
ENDMDL
MODEL 2
REMARK VINA RESULT:    -5.589      2.779      6.712
REMARK INTER + INTRA:         -10.889
REMARK INTER:                 -10.022
REMARK INTRA:                  -0.866
REMARK UNBOUND:                -1.052
REMARK SMILES CCCCCCCCCCCCCCC(=O)[O-]
REMARK SMILES IDX 9 1 10 2 11 3 12 4 13 5 14 6 15 7 16 8 17 9 8 10 7 11 6 12
REMARK SMILES IDX 5 13 4 14 3 15 2 16 1 17
REMARK H PARENT
REMARK Flexibility Score: inf
ROOT
ATOM      1  C   UNL     1     -15.844  29.845   2.417  1.00  0.00     0.000 C 
ENDROOT
BRANCH   1   2
ATOM      2  C   UNL     1     -15.648  30.843   1.264  1.00  0.00     0.000 C 
BRANCH   2   3
ATOM      3  C   UNL     1     -16.630  32.029   1.321  1.00  0.00     0.000 C 
BRANCH   3   4
ATOM      4  C   UNL     1     -16.341  33.168   0.327  1.00  0.00     0.000 C 
BRANCH   4   5
ATOM      5  C   UNL     1     -17.194  33.081  -0.952  1.00  0.00     0.006 C 
BRANCH   5   6
ATOM      6  C   UNL     1     -18.375  32.115  -0.795  1.00  0.00     0.053 C 
BRANCH   6   7
ATOM      7  C   UNL     1     -18.385  31.076  -1.875  1.00  0.00     0.041 C 
ATOM      8  O   UNL     1     -18.050  31.379  -3.050  1.00  0.00    -0.550 OA
ATOM      9  O   UNL     1     -18.732  29.765  -1.575  1.00  0.00    -0.550 OA
ENDBRANCH   6   7
ENDBRANCH   5   6
ENDBRANCH   4   5
ENDBRANCH   3   4
ENDBRANCH   2   3
ENDBRANCH   1   2
BRANCH   1  10
ATOM     10  C   UNL     1     -16.271  28.446   1.936  1.00  0.00     0.000 C 
BRANCH  10  11
ATOM     11  C   UNL     1     -16.333  28.266   0.408  1.00  0.00    -0.000 C 
BRANCH  11  12
ATOM     12  C   UNL     1     -17.230  27.092  -0.022  1.00  0.00    -0.000 C 
BRANCH  12  13
ATOM     13  C   UNL     1     -17.496  26.103   1.126  1.00  0.00    -0.000 C 
BRANCH  13  14
ATOM     14  C   UNL     1     -18.555  25.049   0.760  1.00  0.00    -0.000 C 
BRANCH  14  15
ATOM     15  C   UNL     1     -18.265  24.351  -0.581  1.00  0.00    -0.000 C 
BRANCH  15  16
ATOM     16  C   UNL     1     -19.332  23.336  -1.028  1.00  0.00    -0.003 C 
ATOM     17  C   UNL     1     -20.615  23.413  -0.200  1.00  0.00     0.004 C 
ENDBRANCH  15  16
ENDBRANCH  14  15
ENDBRANCH  13  14
ENDBRANCH  12  13
ENDBRANCH  11  12
ENDBRANCH  10  11
ENDBRANCH   1  10
TORSDOF 13
ENDMDL
MODEL 3
REMARK VINA RESULT:    -5.497      1.108      2.141
REMARK INTER + INTRA:         -10.727
REMARK INTER:                  -9.812
REMARK INTRA:                  -0.915
REMARK UNBOUND:                -1.052
REMARK SMILES CCCCCCCCCCCCCCC(=O)[O-]
REMARK SMILES IDX 9 1 10 2 11 3 12 4 13 5 14 6 15 7 16 8 17 9 8 10 7 11 6 12
REMARK SMILES IDX 5 13 4 14 3 15 2 16 1 17
REMARK H PARENT
REMARK Flexibility Score: inf
ROOT
ATOM      1  C   UNL     1     -16.113  27.200  -0.004  1.00  0.00     0.000 C 
ENDROOT
BRANCH   1   2
ATOM      2  C   UNL     1     -16.628  26.393   1.200  1.00  0.00     0.000 C 
BRANCH   2   3
ATOM      3  C   UNL     1     -17.947  25.652   0.908  1.00  0.00     0.000 C 
BRANCH   3   4
ATOM      4  C   UNL     1     -18.022  24.964  -0.467  1.00  0.00     0.000 C 
BRANCH   4   5
ATOM      5  C   UNL     1     -18.928  23.719  -0.467  1.00  0.00     0.006 C 
BRANCH   5   6
ATOM      6  C   UNL     1     -20.319  24.016   0.109  1.00  0.00     0.053 C 
BRANCH   6   7
ATOM      7  C   UNL     1     -21.366  23.127  -0.490  1.00  0.00     0.041 C 
ATOM      8  O   UNL     1     -22.462  22.951   0.102  1.00  0.00    -0.550 OA
ATOM      9  O   UNL     1     -21.143  22.522  -1.720  1.00  0.00    -0.550 OA
ENDBRANCH   6   7
ENDBRANCH   5   6
ENDBRANCH   4   5
ENDBRANCH   3   4
ENDBRANCH   2   3
ENDBRANCH   1   2
BRANCH   1  10
ATOM     10  C   UNL     1     -16.491  28.691   0.066  1.00  0.00     0.000 C 
BRANCH  10  11
ATOM     11  C   UNL     1     -16.155  29.394   1.393  1.00  0.00    -0.000 C 
BRANCH  11  12
ATOM     12  C   UNL     1     -15.571  30.804   1.195  1.00  0.00    -0.000 C 
BRANCH  12  13
ATOM     13  C   UNL     1     -16.598  31.912   1.485  1.00  0.00    -0.000 C 
BRANCH  13  14
ATOM     14  C   UNL     1     -16.277  33.220   0.740  1.00  0.00    -0.000 C 
BRANCH  14  15
ATOM     15  C   UNL     1     -16.873  33.260  -0.679  1.00  0.00    -0.000 C 
BRANCH  15  16
ATOM     16  C   UNL     1     -18.241  32.570  -0.828  1.00  0.00    -0.003 C 
ATOM     17  C   UNL     1     -18.210  31.380  -1.788  1.00  0.00     0.004 C 
ENDBRANCH  15  16
ENDBRANCH  14  15
ENDBRANCH  13  14
ENDBRANCH  12  13
ENDBRANCH  11  12
ENDBRANCH  10  11
ENDBRANCH   1  10
TORSDOF 13
ENDMDL
MODEL 4
REMARK VINA RESULT:    -5.329      3.790      7.739
REMARK INTER + INTRA:         -10.430
REMARK INTER:                  -9.705
REMARK INTRA:                  -0.726
REMARK UNBOUND:                -1.052
REMARK SMILES CCCCCCCCCCCCCCC(=O)[O-]
REMARK SMILES IDX 9 1 10 2 11 3 12 4 13 5 14 6 15 7 16 8 17 9 8 10 7 11 6 12
REMARK SMILES IDX 5 13 4 14 3 15 2 16 1 17
REMARK H PARENT
REMARK Flexibility Score: inf
ROOT
ATOM      1  C   UNL     1     -17.136  29.251  -0.328  1.00  0.00     0.000 C 
ENDROOT
BRANCH   1   2
ATOM      2  C   UNL     1     -18.383  29.000  -1.193  1.00  0.00     0.000 C 
BRANCH   2   3
ATOM      3  C   UNL     1     -18.980  30.293  -1.778  1.00  0.00     0.000 C 
BRANCH   3   4
ATOM      4  C   UNL     1     -18.000  31.473  -1.896  1.00  0.00     0.000 C 
BRANCH   4   5
ATOM      5  C   UNL     1     -18.133  32.483  -0.742  1.00  0.00     0.006 C 
BRANCH   5   6
ATOM      6  C   UNL     1     -16.873  33.343  -0.577  1.00  0.00     0.053 C 
BRANCH   6   7
ATOM      7  C   UNL     1     -16.325  33.259   0.815  1.00  0.00     0.041 C 
ATOM      8  O   UNL     1     -15.907  34.295   1.395  1.00  0.00    -0.550 OA
ATOM      9  O   UNL     1     -16.310  32.042   1.484  1.00  0.00    -0.550 OA
ENDBRANCH   6   7
ENDBRANCH   5   6
ENDBRANCH   4   5
ENDBRANCH   3   4
ENDBRANCH   2   3
ENDBRANCH   1   2
BRANCH   1  10
ATOM     10  C   UNL     1     -16.501  27.953   0.203  1.00  0.00     0.000 C 
BRANCH  10  11
ATOM     11  C   UNL     1     -16.897  26.669  -0.549  1.00  0.00    -0.000 C 
BRANCH  11  12
ATOM     12  C   UNL     1     -17.148  25.477   0.390  1.00  0.00    -0.000 C 
BRANCH  12  13
ATOM     13  C   UNL     1     -18.625  25.354   0.802  1.00  0.00    -0.000 C 
BRANCH  13  14
ATOM     14  C   UNL     1     -19.244  24.011   0.375  1.00  0.00    -0.000 C 
BRANCH  14  15
ATOM     15  C   UNL     1     -18.614  23.444  -0.910  1.00  0.00    -0.000 C 
BRANCH  15  16
ATOM     16  C   UNL     1     -19.602  22.748  -1.864  1.00  0.00    -0.003 C 
ATOM     17  C   UNL     1     -20.834  22.193  -1.149  1.00  0.00     0.004 C 
ENDBRANCH  15  16
ENDBRANCH  14  15
ENDBRANCH  13  14
ENDBRANCH  12  13
ENDBRANCH  11  12
ENDBRANCH  10  11
ENDBRANCH   1  10
TORSDOF 13
ENDMDL
MODEL 5
REMARK VINA RESULT:    -5.303      3.336      7.106
REMARK INTER + INTRA:         -10.385
REMARK INTER:                  -9.428
REMARK INTRA:                  -0.956
REMARK UNBOUND:                -1.052
REMARK SMILES CCCCCCCCCCCCCCC(=O)[O-]
REMARK SMILES IDX 9 1 10 2 11 3 12 4 13 5 14 6 15 7 16 8 17 9 8 10 7 11 6 12
REMARK SMILES IDX 5 13 4 14 3 15 2 16 1 17
REMARK H PARENT
REMARK Flexibility Score: inf
ROOT
ATOM      1  C   UNL     1     -18.447  30.065  -1.576  1.00  0.00     0.000 C 
ENDROOT
BRANCH   1   2
ATOM      2  C   UNL     1     -18.199  31.520  -2.007  1.00  0.00     0.000 C 
BRANCH   2   3
ATOM      3  C   UNL     1     -18.232  32.511  -0.829  1.00  0.00     0.000 C 
BRANCH   3   4
ATOM      4  C   UNL     1     -17.024  33.461  -0.738  1.00  0.00     0.000 C 
BRANCH   4   5
ATOM      5  C   UNL     1     -16.118  33.168   0.472  1.00  0.00     0.006 C 
BRANCH   5   6
ATOM      6  C   UNL     1     -16.825  32.311   1.530  1.00  0.00     0.053 C 
BRANCH   6   7
ATOM      7  C   UNL     1     -15.880  31.349   2.183  1.00  0.00     0.041 C 
ATOM      8  O   UNL     1     -15.003  30.759   1.500  1.00  0.00    -0.550 OA
ATOM      9  O   UNL     1     -15.946  31.131   3.553  1.00  0.00    -0.550 OA
ENDBRANCH   6   7
ENDBRANCH   5   6
ENDBRANCH   4   5
ENDBRANCH   3   4
ENDBRANCH   2   3
ENDBRANCH   1   2
BRANCH   1  10
ATOM     10  C   UNL     1     -17.351  29.520  -0.643  1.00  0.00     0.000 C 
BRANCH  10  11
ATOM     11  C   UNL     1     -17.426  28.010  -0.349  1.00  0.00    -0.000 C 
BRANCH  11  12
ATOM     12  C   UNL     1     -16.595  27.594   0.877  1.00  0.00    -0.000 C 
BRANCH  12  13
ATOM     13  C   UNL     1     -16.803  26.118   1.255  1.00  0.00    -0.000 C 
BRANCH  13  14
ATOM     14  C   UNL     1     -17.617  25.350   0.198  1.00  0.00    -0.000 C 
BRANCH  14  15
ATOM     15  C   UNL     1     -18.826  24.609   0.797  1.00  0.00    -0.000 C 
BRANCH  15  16
ATOM     16  C   UNL     1     -19.630  23.762  -0.207  1.00  0.00    -0.003 C 
ATOM     17  C   UNL     1     -18.744  22.919  -1.124  1.00  0.00     0.004 C 
ENDBRANCH  15  16
ENDBRANCH  14  15
ENDBRANCH  13  14
ENDBRANCH  12  13
ENDBRANCH  11  12
ENDBRANCH  10  11
ENDBRANCH   1  10
TORSDOF 13
ENDMDL
MODEL 6
REMARK VINA RESULT:    -5.201      0.797      2.947
REMARK INTER + INTRA:         -10.205
REMARK INTER:                  -9.189
REMARK INTRA:                  -1.017
REMARK UNBOUND:                -1.052
REMARK SMILES CCCCCCCCCCCCCCC(=O)[O-]
REMARK SMILES IDX 9 1 10 2 11 3 12 4 13 5 14 6 15 7 16 8 17 9 8 10 7 11 6 12
REMARK SMILES IDX 5 13 4 14 3 15 2 16 1 17
REMARK H PARENT
REMARK Flexibility Score: inf
ROOT
ATOM      1  C   UNL     1     -18.483  28.786  -1.175  1.00  0.00     0.000 C 
ENDROOT
BRANCH   1   2
ATOM      2  C   UNL     1     -17.124  29.011  -0.491  1.00  0.00     0.000 C 
BRANCH   2   3
ATOM      3  C   UNL     1     -16.408  27.697  -0.128  1.00  0.00     0.000 C 
BRANCH   3   4
ATOM      4  C   UNL     1     -17.092  26.859   0.967  1.00  0.00     0.000 C 
BRANCH   4   5
ATOM      5  C   UNL     1     -17.411  25.422   0.514  1.00  0.00     0.006 C 
BRANCH   5   6
ATOM      6  C   UNL     1     -18.882  25.055   0.747  1.00  0.00     0.053 C 
BRANCH   6   7
ATOM      7  C   UNL     1     -19.189  23.670   0.262  1.00  0.00     0.041 C 
ATOM      8  O   UNL     1     -20.227  23.077   0.654  1.00  0.00    -0.550 OA
ATOM      9  O   UNL     1     -18.345  23.051  -0.650  1.00  0.00    -0.550 OA
ENDBRANCH   6   7
ENDBRANCH   5   6
ENDBRANCH   4   5
ENDBRANCH   3   4
ENDBRANCH   2   3
ENDBRANCH   1   2
BRANCH   1  10
ATOM     10  C   UNL     1     -19.081  30.077  -1.764  1.00  0.00     0.000 C 
BRANCH  10  11
ATOM     11  C   UNL     1     -18.094  31.247  -1.927  1.00  0.00    -0.000 C 
BRANCH  11  12
ATOM     12  C   UNL     1     -18.235  32.310  -0.824  1.00  0.00    -0.000 C 
BRANCH  12  13
ATOM     13  C   UNL     1     -17.046  33.286  -0.793  1.00  0.00    -0.000 C 
BRANCH  13  14
ATOM     14  C   UNL     1     -16.338  33.307   0.573  1.00  0.00    -0.000 C 
BRANCH  14  15
ATOM     15  C   UNL     1     -16.655  32.068   1.429  1.00  0.00    -0.000 C 
BRANCH  15  16
ATOM     16  C   UNL     1     -15.537  31.010   1.477  1.00  0.00    -0.003 C 
ATOM     17  C   UNL     1     -15.601  30.127   2.723  1.00  0.00     0.004 C 
ENDBRANCH  15  16
ENDBRANCH  14  15
ENDBRANCH  13  14
ENDBRANCH  12  13
ENDBRANCH  11  12
ENDBRANCH  10  11
ENDBRANCH   1  10
TORSDOF 13
ENDMDL
MODEL 7
REMARK VINA RESULT:    -5.178      1.466      3.780
REMARK INTER + INTRA:         -10.165
REMARK INTER:                  -9.392
REMARK INTRA:                  -0.773
REMARK UNBOUND:                -1.052
REMARK SMILES CCCCCCCCCCCCCCC(=O)[O-]
REMARK SMILES IDX 9 1 10 2 11 3 12 4 13 5 14 6 15 7 16 8 17 9 8 10 7 11 6 12
REMARK SMILES IDX 5 13 4 14 3 15 2 16 1 17
REMARK H PARENT
REMARK Flexibility Score: inf
ROOT
ATOM      1  C   UNL     1     -17.963  25.341   0.824  1.00  0.00     0.000 C 
ENDROOT
BRANCH   1   2
ATOM      2  C   UNL     1     -18.210  24.867  -0.617  1.00  0.00     0.000 C 
BRANCH   2   3
ATOM      3  C   UNL     1     -18.422  23.345  -0.722  1.00  0.00     0.000 C 
BRANCH   3   4
ATOM      4  C   UNL     1     -19.234  22.879  -1.944  1.00  0.00     0.000 C 
BRANCH   4   5
ATOM      5  C   UNL     1     -20.233  21.757  -1.610  1.00  0.00     0.006 C 
BRANCH   5   6
ATOM      6  C   UNL     1     -20.913  21.974  -0.251  1.00  0.00     0.053 C 
BRANCH   6   7
ATOM      7  C   UNL     1     -21.859  23.136  -0.286  1.00  0.00     0.041 C 
ATOM      8  O   UNL     1     -21.574  24.204   0.316  1.00  0.00    -0.550 OA
ATOM      9  O   UNL     1     -23.039  23.050  -1.013  1.00  0.00    -0.550 OA
ENDBRANCH   6   7
ENDBRANCH   5   6
ENDBRANCH   4   5
ENDBRANCH   3   4
ENDBRANCH   2   3
ENDBRANCH   1   2
BRANCH   1  10
ATOM     10  C   UNL     1     -17.054  26.582   0.902  1.00  0.00     0.000 C 
BRANCH  10  11
ATOM     11  C   UNL     1     -17.183  27.568  -0.273  1.00  0.00    -0.000 C 
BRANCH  11  12
ATOM     12  C   UNL     1     -16.469  28.906  -0.015  1.00  0.00    -0.000 C 
BRANCH  12  13
ATOM     13  C   UNL     1     -16.196  29.148   1.480  1.00  0.00    -0.000 C 
BRANCH  13  14
ATOM     14  C   UNL     1     -15.437  30.463   1.733  1.00  0.00    -0.000 C 
BRANCH  14  15
ATOM     15  C   UNL     1     -16.368  31.688   1.795  1.00  0.00    -0.000 C 
BRANCH  15  16
ATOM     16  C   UNL     1     -16.272  32.636   0.586  1.00  0.00    -0.003 C 
ATOM     17  C   UNL     1     -17.535  32.639  -0.275  1.00  0.00     0.004 C 
ENDBRANCH  15  16
ENDBRANCH  14  15
ENDBRANCH  13  14
ENDBRANCH  12  13
ENDBRANCH  11  12
ENDBRANCH  10  11
ENDBRANCH   1  10
TORSDOF 13
ENDMDL
MODEL 8
REMARK VINA RESULT:    -5.154      1.566      2.982
REMARK INTER + INTRA:         -10.123
REMARK INTER:                  -9.260
REMARK INTRA:                  -0.863
REMARK UNBOUND:                -1.052
REMARK SMILES CCCCCCCCCCCCCCC(=O)[O-]
REMARK SMILES IDX 9 1 10 2 11 3 12 4 13 5 14 6 15 7 16 8 17 9 8 10 7 11 6 12
REMARK SMILES IDX 5 13 4 14 3 15 2 16 1 17
REMARK H PARENT
REMARK Flexibility Score: inf
ROOT
ATOM      1  C   UNL     1     -16.551  27.551   1.464  1.00  0.00     0.000 C 
ENDROOT
BRANCH   1   2
ATOM      2  C   UNL     1     -16.931  26.068   1.616  1.00  0.00     0.000 C 
BRANCH   2   3
ATOM      3  C   UNL     1     -17.683  25.511   0.392  1.00  0.00     0.000 C 
BRANCH   3   4
ATOM      4  C   UNL     1     -18.887  24.609   0.718  1.00  0.00     0.000 C 
BRANCH   4   5
ATOM      5  C   UNL     1     -19.496  23.945  -0.531  1.00  0.00     0.006 C 
BRANCH   5   6
ATOM      6  C   UNL     1     -18.843  22.593  -0.843  1.00  0.00     0.053 C 
BRANCH   6   7
ATOM      7  C   UNL     1     -19.538  21.892  -1.971  1.00  0.00     0.041 C 
ATOM      8  O   UNL     1     -18.929  21.024  -2.649  1.00  0.00    -0.550 OA
ATOM      9  O   UNL     1     -20.868  22.174  -2.251  1.00  0.00    -0.550 OA
ENDBRANCH   6   7
ENDBRANCH   5   6
ENDBRANCH   4   5
ENDBRANCH   3   4
ENDBRANCH   2   3
ENDBRANCH   1   2
BRANCH   1  10
ATOM     10  C   UNL     1     -16.367  27.977  -0.005  1.00  0.00     0.000 C 
BRANCH  10  11
ATOM     11  C   UNL     1     -17.070  29.287  -0.404  1.00  0.00    -0.000 C 
BRANCH  11  12
ATOM     12  C   UNL     1     -18.317  29.058  -1.275  1.00  0.00    -0.000 C 
BRANCH  12  13
ATOM     13  C   UNL     1     -19.008  30.374  -1.670  1.00  0.00    -0.000 C 
BRANCH  13  14
ATOM     14  C   UNL     1     -18.002  31.507  -1.943  1.00  0.00    -0.000 C 
BRANCH  14  15
ATOM     15  C   UNL     1     -18.212  32.725  -1.025  1.00  0.00    -0.000 C 
BRANCH  15  16
ATOM     16  C   UNL     1     -16.922  33.309  -0.419  1.00  0.00    -0.003 C 
ATOM     17  C   UNL     1     -16.551  32.677   0.922  1.00  0.00     0.004 C 
ENDBRANCH  15  16
ENDBRANCH  14  15
ENDBRANCH  13  14
ENDBRANCH  12  13
ENDBRANCH  11  12
ENDBRANCH  10  11
ENDBRANCH   1  10
TORSDOF 13
ENDMDL
MODEL 9
REMARK VINA RESULT:    -5.119      4.073      8.213
REMARK INTER + INTRA:         -10.062
REMARK INTER:                  -9.310
REMARK INTRA:                  -0.752
REMARK UNBOUND:                -1.052
REMARK SMILES CCCCCCCCCCCCCCC(=O)[O-]
REMARK SMILES IDX 9 1 10 2 11 3 12 4 13 5 14 6 15 7 16 8 17 9 8 10 7 11 6 12
REMARK SMILES IDX 5 13 4 14 3 15 2 16 1 17
REMARK H PARENT
REMARK Flexibility Score: inf
ROOT
ATOM      1  C   UNL     1     -17.227  27.353  -0.277  1.00  0.00     0.000 C 
ENDROOT
BRANCH   1   2
ATOM      2  C   UNL     1     -16.277  28.449   0.236  1.00  0.00     0.000 C 
BRANCH   2   3
ATOM      3  C   UNL     1     -16.224  28.527   1.773  1.00  0.00     0.000 C 
BRANCH   3   4
ATOM      4  C   UNL     1     -15.817  29.897   2.345  1.00  0.00     0.000 C 
BRANCH   4   5
ATOM      5  C   UNL     1     -15.657  30.979   1.261  1.00  0.00     0.006 C 
BRANCH   5   6
ATOM      6  C   UNL     1     -16.862  31.927   1.209  1.00  0.00     0.053 C 
BRANCH   6   7
ATOM      7  C   UNL     1     -16.534  33.197   0.483  1.00  0.00     0.041 C 
ATOM      8  O   UNL     1     -16.990  33.403  -0.671  1.00  0.00    -0.550 OA
ATOM      9  O   UNL     1     -15.754  34.167   1.099  1.00  0.00    -0.550 OA
ENDBRANCH   6   7
ENDBRANCH   5   6
ENDBRANCH   4   5
ENDBRANCH   3   4
ENDBRANCH   2   3
ENDBRANCH   1   2
BRANCH   1  10
ATOM     10  C   UNL     1     -17.165  26.063   0.561  1.00  0.00     0.000 C 
BRANCH  10  11
ATOM     11  C   UNL     1     -17.949  24.868  -0.010  1.00  0.00    -0.000 C 
BRANCH  11  12
ATOM     12  C   UNL     1     -19.382  24.771   0.541  1.00  0.00    -0.000 C 
BRANCH  12  13
ATOM     13  C   UNL     1     -19.652  23.429   1.245  1.00  0.00    -0.000 C 
BRANCH  13  14
ATOM     14  C   UNL     1     -20.732  22.598   0.530  1.00  0.00    -0.000 C 
BRANCH  14  15
ATOM     15  C   UNL     1     -20.701  22.767  -1.000  1.00  0.00    -0.000 C 
BRANCH  15  16
ATOM     16  C   UNL     1     -20.167  21.550  -1.776  1.00  0.00    -0.003 C 
ATOM     17  C   UNL     1     -18.654  21.372  -1.642  1.00  0.00     0.004 C 
ENDBRANCH  15  16
ENDBRANCH  14  15
ENDBRANCH  13  14
ENDBRANCH  12  13
ENDBRANCH  11  12
ENDBRANCH  10  11
ENDBRANCH   1  10
TORSDOF 13
ENDMDL
