MODEL 1
REMARK VINA RESULT:    -4.426      0.000      0.000
REMARK INTER + INTRA:         -11.000
REMARK INTER:                  -8.565
REMARK INTRA:                  -2.435
REMARK UNBOUND:                -2.435
REMARK SMILES CCCCCCCCCCCCCCCCCC(=O)[O-]
REMARK SMILES IDX 10 1 11 2 12 3 13 4 14 5 15 6 16 7 17 8 18 9 19 10 20 11
REMARK SMILES IDX 9 12 8 13 7 14 6 15 5 16 4 17 3 18 2 19 1 20
REMARK H PARENT
REMARK Flexibility Score: inf
ROOT
ATOM      1  C   UNL     1      20.937  33.084  45.048  1.00  0.00     0.000 C 
ENDROOT
BRANCH   1   2
ATOM      2  C   UNL     1      20.502  34.525  44.729  1.00  0.00     0.000 C 
BRANCH   2   3
ATOM      3  C   UNL     1      19.503  35.082  45.756  1.00  0.00     0.000 C 
BRANCH   3   4
ATOM      4  C   UNL     1      19.279  34.128  46.942  1.00  0.00     0.000 C 
BRANCH   4   5
ATOM      5  C   UNL     1      19.817  34.699  48.264  1.00  0.00     0.000 C 
BRANCH   5   6
ATOM      6  C   UNL     1      21.167  34.079  48.667  1.00  0.00     0.000 C 
BRANCH   6   7
ATOM      7  C   UNL     1      21.029  32.620  49.134  1.00  0.00     0.006 C 
BRANCH   7   8
ATOM      8  C   UNL     1      21.082  32.484  50.661  1.00  0.00     0.053 C 
BRANCH   8   9
ATOM      9  C   UNL     1      19.712  32.628  51.246  1.00  0.00     0.041 C 
ATOM     10  O   UNL     1      18.805  31.807  50.944  1.00  0.00    -0.550 OA
ATOM     11  O   UNL     1      19.445  33.647  52.152  1.00  0.00    -0.550 OA
ENDBRANCH   8   9
ENDBRANCH   7   8
ENDBRANCH   6   7
ENDBRANCH   5   6
ENDBRANCH   4   5
ENDBRANCH   3   4
ENDBRANCH   2   3
ENDBRANCH   1   2
BRANCH   1  12
ATOM     12  C   UNL     1      20.489  32.081  43.964  1.00  0.00     0.000 C 
BRANCH  12  13
ATOM     13  C   UNL     1      18.984  31.752  44.008  1.00  0.00    -0.000 C 
BRANCH  13  14
ATOM     14  C   UNL     1      18.646  30.251  43.942  1.00  0.00    -0.000 C 
BRANCH  14  15
ATOM     15  C   UNL     1      18.427  29.568  45.308  1.00  0.00    -0.000 C 
BRANCH  15  16
ATOM     16  C   UNL     1      18.204  30.529  46.490  1.00  0.00    -0.000 C 
BRANCH  16  17
ATOM     17  C   UNL     1      18.772  29.991  47.812  1.00  0.00    -0.000 C 
BRANCH  17  18
ATOM     18  C   UNL     1      20.214  29.494  47.624  1.00  0.00    -0.000 C 
BRANCH  18  19
ATOM     19  C   UNL     1      20.778  28.829  48.889  1.00  0.00    -0.003 C 
ATOM     20  C   UNL     1      19.710  28.586  49.956  1.00  0.00     0.004 C 
ENDBRANCH  18  19
ENDBRANCH  17  18
ENDBRANCH  16  17
ENDBRANCH  15  16
ENDBRANCH  14  15
ENDBRANCH  13  14
ENDBRANCH  12  13
ENDBRANCH   1  12
TORSDOF 16
ENDMDL
MODEL 2
REMARK VINA RESULT:    -4.212      1.370      4.169
REMARK INTER + INTRA:         -10.587
REMARK INTER:                  -7.915
REMARK INTRA:                  -2.671
REMARK UNBOUND:                -2.435
REMARK SMILES CCCCCCCCCCCCCCCCCC(=O)[O-]
REMARK SMILES IDX 10 1 11 2 12 3 13 4 14 5 15 6 16 7 17 8 18 9 19 10 20 11
REMARK SMILES IDX 9 12 8 13 7 14 6 15 5 16 4 17 3 18 2 19 1 20
REMARK H PARENT
REMARK Flexibility Score: inf
ROOT
ATOM      1  C   UNL     1      18.998  32.161  44.046  1.00  0.00     0.000 C 
ENDROOT
BRANCH   1   2
ATOM      2  C   UNL     1      18.993  30.627  43.937  1.00  0.00     0.000 C 
BRANCH   2   3
ATOM      3  C   UNL     1      18.537  29.944  45.237  1.00  0.00     0.000 C 
BRANCH   3   4
ATOM      4  C   UNL     1      18.098  30.952  46.314  1.00  0.00     0.000 C 
BRANCH   4   5
ATOM      5  C   UNL     1      18.788  30.703  47.664  1.00  0.00     0.000 C 
BRANCH   5   6
ATOM      6  C   UNL     1      20.322  30.794  47.568  1.00  0.00     0.000 C 
BRANCH   6   7
ATOM      7  C   UNL     1      21.029  29.721  48.413  1.00  0.00     0.006 C 
BRANCH   7   8
ATOM      8  C   UNL     1      21.768  30.315  49.618  1.00  0.00     0.053 C 
BRANCH   8   9
ATOM      9  C   UNL     1      20.932  30.197  50.854  1.00  0.00     0.041 C 
ATOM     10  O   UNL     1      21.253  29.382  51.760  1.00  0.00    -0.550 OA
ATOM     11  O   UNL     1      19.819  31.012  51.023  1.00  0.00    -0.550 OA
ENDBRANCH   8   9
ENDBRANCH   7   8
ENDBRANCH   6   7
ENDBRANCH   5   6
ENDBRANCH   4   5
ENDBRANCH   3   4
ENDBRANCH   2   3
ENDBRANCH   1   2
BRANCH   1  12
ATOM     12  C   UNL     1      20.424  32.750  43.998  1.00  0.00     0.000 C 
BRANCH  12  13
ATOM     13  C   UNL     1      20.752  33.678  45.184  1.00  0.00    -0.000 C 
BRANCH  13  14
ATOM     14  C   UNL     1      20.062  35.053  45.140  1.00  0.00    -0.000 C 
BRANCH  14  15
ATOM     15  C   UNL     1      19.100  35.341  46.312  1.00  0.00    -0.000 C 
BRANCH  15  16
ATOM     16  C   UNL     1      19.247  34.403  47.524  1.00  0.00    -0.000 C 
BRANCH  16  17
ATOM     17  C   UNL     1      20.090  35.013  48.653  1.00  0.00    -0.000 C 
BRANCH  17  18
ATOM     18  C   UNL     1      20.956  33.940  49.329  1.00  0.00    -0.000 C 
BRANCH  18  19
ATOM     19  C   UNL     1      22.437  34.341  49.409  1.00  0.00    -0.003 C 
ATOM     20  C   UNL     1      23.329  33.493  48.501  1.00  0.00     0.004 C 
ENDBRANCH  18  19
ENDBRANCH  17  18
ENDBRANCH  16  17
ENDBRANCH  15  16
ENDBRANCH  14  15
ENDBRANCH  13  14
ENDBRANCH  12  13
ENDBRANCH   1  12
TORSDOF 16
ENDMDL
MODEL 3
REMARK VINA RESULT:    -4.209     10.692     12.977
REMARK INTER + INTRA:         -10.580
REMARK INTER:                  -8.484
REMARK INTRA:                  -2.096
REMARK UNBOUND:                -2.435
REMARK SMILES CCCCCCCCCCCCCCCCCC(=O)[O-]
REMARK SMILES IDX 10 1 11 2 12 3 13 4 14 5 15 6 16 7 17 8 18 9 19 10 20 11
REMARK SMILES IDX 9 12 8 13 7 14 6 15 5 16 4 17 3 18 2 19 1 20
REMARK H PARENT
REMARK Flexibility Score: inf
ROOT
ATOM      1  C   UNL     1      29.113  37.364  45.087  1.00  0.00     0.000 C 
ENDROOT
BRANCH   1   2
ATOM      2  C   UNL     1      28.813  36.969  46.543  1.00  0.00     0.000 C 
BRANCH   2   3
ATOM      3  C   UNL     1      27.317  36.713  46.789  1.00  0.00     0.000 C 
BRANCH   3   4
ATOM      4  C   UNL     1      26.839  37.253  48.149  1.00  0.00     0.000 C 
BRANCH   4   5
ATOM      5  C   UNL     1      27.040  38.771  48.279  1.00  0.00     0.000 C 
BRANCH   5   6
ATOM      6  C   UNL     1      25.929  39.576  47.581  1.00  0.00     0.000 C 
BRANCH   6   7
ATOM      7  C   UNL     1      26.478  40.518  46.497  1.00  0.00     0.006 C 
BRANCH   7   8
ATOM      8  C   UNL     1      26.687  41.948  47.012  1.00  0.00     0.053 C 
BRANCH   8   9
ATOM      9  C   UNL     1      26.862  42.896  45.868  1.00  0.00     0.041 C 
ATOM     10  O   UNL     1      26.204  43.969  45.828  1.00  0.00    -0.550 OA
ATOM     11  O   UNL     1      27.778  42.612  44.862  1.00  0.00    -0.550 OA
ENDBRANCH   8   9
ENDBRANCH   7   8
ENDBRANCH   6   7
ENDBRANCH   5   6
ENDBRANCH   4   5
ENDBRANCH   3   4
ENDBRANCH   2   3
ENDBRANCH   1   2
BRANCH   1  12
ATOM     12  C   UNL     1      28.868  38.865  44.823  1.00  0.00     0.000 C 
BRANCH  12  13
ATOM     13  C   UNL     1      30.142  39.642  44.438  1.00  0.00    -0.000 C 
BRANCH  13  14
ATOM     14  C   UNL     1      30.971  40.158  45.628  1.00  0.00    -0.000 C 
BRANCH  14  15
ATOM     15  C   UNL     1      30.187  40.333  46.946  1.00  0.00    -0.000 C 
BRANCH  15  16
ATOM     16  C   UNL     1      31.017  40.150  48.230  1.00  0.00    -0.000 C 
BRANCH  16  17
ATOM     17  C   UNL     1      31.718  38.786  48.298  1.00  0.00    -0.000 C 
BRANCH  17  18
ATOM     18  C   UNL     1      33.208  38.954  48.634  1.00  0.00    -0.000 C 
BRANCH  18  19
ATOM     19  C   UNL     1      33.715  37.888  49.618  1.00  0.00    -0.003 C 
ATOM     20  C   UNL     1      34.036  36.558  48.934  1.00  0.00     0.004 C 
ENDBRANCH  18  19
ENDBRANCH  17  18
ENDBRANCH  16  17
ENDBRANCH  15  16
ENDBRANCH  14  15
ENDBRANCH  13  14
ENDBRANCH  12  13
ENDBRANCH   1  12
TORSDOF 16
ENDMDL
MODEL 4
REMARK VINA RESULT:    -4.203      2.417      3.485
REMARK INTER + INTRA:         -10.569
REMARK INTER:                  -7.733
REMARK INTRA:                  -2.836
REMARK UNBOUND:                -2.435
REMARK SMILES CCCCCCCCCCCCCCCCCC(=O)[O-]
REMARK SMILES IDX 10 1 11 2 12 3 13 4 14 5 15 6 16 7 17 8 18 9 19 10 20 11
REMARK SMILES IDX 9 12 8 13 7 14 6 15 5 16 4 17 3 18 2 19 1 20
REMARK H PARENT
REMARK Flexibility Score: inf
ROOT
ATOM      1  C   UNL     1      20.095  31.961  44.342  1.00  0.00     0.000 C 
ENDROOT
BRANCH   1   2
ATOM      2  C   UNL     1      19.832  33.407  43.889  1.00  0.00     0.000 C 
BRANCH   2   3
ATOM      3  C   UNL     1      19.816  34.400  45.062  1.00  0.00     0.000 C 
BRANCH   3   4
ATOM      4  C   UNL     1      18.691  34.110  46.070  1.00  0.00     0.000 C 
BRANCH   4   5
ATOM      5  C   UNL     1      19.224  33.880  47.493  1.00  0.00     0.000 C 
BRANCH   5   6
ATOM      6  C   UNL     1      20.669  34.378  47.669  1.00  0.00     0.000 C 
BRANCH   6   7
ATOM      7  C   UNL     1      21.610  33.282  48.196  1.00  0.00     0.006 C 
BRANCH   7   8
ATOM      8  C   UNL     1      22.313  32.518  47.067  1.00  0.00     0.053 C 
BRANCH   8   9
ATOM      9  C   UNL     1      23.675  32.079  47.502  1.00  0.00     0.041 C 
ATOM     10  O   UNL     1      24.210  32.590  48.522  1.00  0.00    -0.550 OA
ATOM     11  O   UNL     1      24.341  31.079  46.804  1.00  0.00    -0.550 OA
ENDBRANCH   8   9
ENDBRANCH   7   8
ENDBRANCH   6   7
ENDBRANCH   5   6
ENDBRANCH   4   5
ENDBRANCH   3   4
ENDBRANCH   2   3
ENDBRANCH   1   2
BRANCH   1  12
ATOM     12  C   UNL     1      18.990  30.988  43.875  1.00  0.00     0.000 C 
BRANCH  12  13
ATOM     13  C   UNL     1      18.620  29.922  44.925  1.00  0.00    -0.000 C 
BRANCH  13  14
ATOM     14  C   UNL     1      18.846  30.347  46.387  1.00  0.00    -0.000 C 
BRANCH  14  15
ATOM     15  C   UNL     1      19.786  29.429  47.198  1.00  0.00    -0.000 C 
BRANCH  15  16
ATOM     16  C   UNL     1      20.094  29.910  48.628  1.00  0.00    -0.000 C 
BRANCH  16  17
ATOM     17  C   UNL     1      18.924  30.673  49.267  1.00  0.00    -0.000 C 
BRANCH  17  18
ATOM     18  C   UNL     1      19.275  31.113  50.696  1.00  0.00    -0.000 C 
BRANCH  18  19
ATOM     19  C   UNL     1      18.735  32.512  51.032  1.00  0.00    -0.003 C 
ATOM     20  C   UNL     1      19.782  33.405  51.700  1.00  0.00     0.004 C 
ENDBRANCH  18  19
ENDBRANCH  17  18
ENDBRANCH  16  17
ENDBRANCH  15  16
ENDBRANCH  14  15
ENDBRANCH  13  14
ENDBRANCH  12  13
ENDBRANCH   1  12
TORSDOF 16
ENDMDL
MODEL 5
REMARK VINA RESULT:    -4.202     10.916     13.280
REMARK INTER + INTRA:         -10.568
REMARK INTER:                  -7.685
REMARK INTRA:                  -2.883
REMARK UNBOUND:                -2.435
REMARK SMILES CCCCCCCCCCCCCCCCCC(=O)[O-]
REMARK SMILES IDX 10 1 11 2 12 3 13 4 14 5 15 6 16 7 17 8 18 9 19 10 20 11
REMARK SMILES IDX 9 12 8 13 7 14 6 15 5 16 4 17 3 18 2 19 1 20
REMARK H PARENT
REMARK Flexibility Score: inf
ROOT
ATOM      1  C   UNL     1      27.764  42.497  45.072  1.00  0.00     0.000 C 
ENDROOT
BRANCH   1   2
ATOM      2  C   UNL     1      27.660  40.965  44.970  1.00  0.00     0.000 C 
BRANCH   2   3
ATOM      3  C   UNL     1      28.762  40.355  44.090  1.00  0.00     0.000 C 
BRANCH   3   4
ATOM      4  C   UNL     1      29.559  39.256  44.815  1.00  0.00     0.000 C 
BRANCH   4   5
ATOM      5  C   UNL     1      30.647  39.831  45.736  1.00  0.00     0.000 C 
BRANCH   5   6
ATOM      6  C   UNL     1      30.484  39.375  47.197  1.00  0.00     0.000 C 
BRANCH   6   7
ATOM      7  C   UNL     1      30.659  40.531  48.197  1.00  0.00     0.006 C 
BRANCH   7   8
ATOM      8  C   UNL     1      30.283  41.890  47.595  1.00  0.00     0.053 C 
BRANCH   8   9
ATOM      9  C   UNL     1      30.760  43.002  48.476  1.00  0.00     0.041 C 
ATOM     10  O   UNL     1      31.596  42.771  49.390  1.00  0.00    -0.550 OA
ATOM     11  O   UNL     1      30.308  44.299  48.268  1.00  0.00    -0.550 OA
ENDBRANCH   8   9
ENDBRANCH   7   8
ENDBRANCH   6   7
ENDBRANCH   5   6
ENDBRANCH   4   5
ENDBRANCH   3   4
ENDBRANCH   2   3
ENDBRANCH   1   2
BRANCH   1  12
ATOM     12  C   UNL     1      26.419  43.154  45.450  1.00  0.00     0.000 C 
BRANCH  12  13
ATOM     13  C   UNL     1      26.493  44.034  46.713  1.00  0.00    -0.000 C 
BRANCH  13  14
ATOM     14  C   UNL     1      25.931  43.382  47.990  1.00  0.00    -0.000 C 
BRANCH  14  15
ATOM     15  C   UNL     1      26.983  43.032  49.064  1.00  0.00    -0.000 C 
BRANCH  15  16
ATOM     16  C   UNL     1      27.078  41.537  49.421  1.00  0.00    -0.000 C 
BRANCH  16  17
ATOM     17  C   UNL     1      26.628  40.619  48.275  1.00  0.00    -0.000 C 
BRANCH  17  18
ATOM     18  C   UNL     1      27.093  39.175  48.518  1.00  0.00    -0.000 C 
BRANCH  18  19
ATOM     19  C   UNL     1      26.390  38.166  47.595  1.00  0.00    -0.003 C 
ATOM     20  C   UNL     1      27.352  37.134  47.007  1.00  0.00     0.004 C 
ENDBRANCH  18  19
ENDBRANCH  17  18
ENDBRANCH  16  17
ENDBRANCH  15  16
ENDBRANCH  14  15
ENDBRANCH  13  14
ENDBRANCH  12  13
ENDBRANCH   1  12
TORSDOF 16
ENDMDL
MODEL 6
REMARK VINA RESULT:    -4.182      1.506      4.146
REMARK INTER + INTRA:         -10.528
REMARK INTER:                  -7.999
REMARK INTRA:                  -2.529
REMARK UNBOUND:                -2.435
REMARK SMILES CCCCCCCCCCCCCCCCCC(=O)[O-]
REMARK SMILES IDX 10 1 11 2 12 3 13 4 14 5 15 6 16 7 17 8 18 9 19 10 20 11
REMARK SMILES IDX 9 12 8 13 7 14 6 15 5 16 4 17 3 18 2 19 1 20
REMARK H PARENT
REMARK Flexibility Score: inf
ROOT
ATOM      1  C   UNL     1      18.209  33.256  44.599  1.00  0.00     0.000 C 
ENDROOT
BRANCH   1   2
ATOM      2  C   UNL     1      19.587  32.884  44.026  1.00  0.00     0.000 C 
BRANCH   2   3
ATOM      3  C   UNL     1      19.896  31.384  44.156  1.00  0.00     0.000 C 
BRANCH   3   4
ATOM      4  C   UNL     1      18.629  30.512  44.109  1.00  0.00     0.000 C 
BRANCH   4   5
ATOM      5  C   UNL     1      18.564  29.510  45.272  1.00  0.00     0.000 C 
BRANCH   5   6
ATOM      6  C   UNL     1      17.877  30.096  46.518  1.00  0.00     0.000 C 
BRANCH   6   7
ATOM      7  C   UNL     1      18.849  30.278  47.696  1.00  0.00     0.006 C 
BRANCH   7   8
ATOM      8  C   UNL     1      18.330  31.277  48.738  1.00  0.00     0.053 C 
BRANCH   8   9
ATOM      9  C   UNL     1      18.920  30.986  50.081  1.00  0.00     0.041 C 
ATOM     10  O   UNL     1      18.867  31.850  50.997  1.00  0.00    -0.550 OA
ATOM     11  O   UNL     1      19.499  29.748  50.335  1.00  0.00    -0.550 OA
ENDBRANCH   8   9
ENDBRANCH   7   8
ENDBRANCH   6   7
ENDBRANCH   5   6
ENDBRANCH   4   5
ENDBRANCH   3   4
ENDBRANCH   2   3
ENDBRANCH   1   2
BRANCH   1  12
ATOM     12  C   UNL     1      18.297  33.775  46.051  1.00  0.00     0.000 C 
BRANCH  12  13
ATOM     13  C   UNL     1      19.007  35.136  46.180  1.00  0.00    -0.000 C 
BRANCH  13  14
ATOM     14  C   UNL     1      19.371  35.543  47.620  1.00  0.00    -0.000 C 
BRANCH  14  15
ATOM     15  C   UNL     1      19.889  34.396  48.513  1.00  0.00    -0.000 C 
BRANCH  15  16
ATOM     16  C   UNL     1      21.379  34.052  48.336  1.00  0.00    -0.000 C 
BRANCH  16  17
ATOM     17  C   UNL     1      21.602  32.728  47.591  1.00  0.00    -0.000 C 
BRANCH  17  18
ATOM     18  C   UNL     1      22.694  31.893  48.277  1.00  0.00    -0.000 C 
BRANCH  18  19
ATOM     19  C   UNL     1      22.337  30.400  48.350  1.00  0.00    -0.003 C 
ATOM     20  C   UNL     1      23.000  29.692  49.532  1.00  0.00     0.004 C 
ENDBRANCH  18  19
ENDBRANCH  17  18
ENDBRANCH  16  17
ENDBRANCH  15  16
ENDBRANCH  14  15
ENDBRANCH  13  14
ENDBRANCH  12  13
ENDBRANCH   1  12
TORSDOF 16
ENDMDL
MODEL 7
REMARK VINA RESULT:    -4.122      9.943     12.636
REMARK INTER + INTRA:         -10.412
REMARK INTER:                  -7.360
REMARK INTRA:                  -3.052
REMARK UNBOUND:                -2.435
REMARK SMILES CCCCCCCCCCCCCCCCCC(=O)[O-]
REMARK SMILES IDX 10 1 11 2 12 3 13 4 14 5 15 6 16 7 17 8 18 9 19 10 20 11
REMARK SMILES IDX 9 12 8 13 7 14 6 15 5 16 4 17 3 18 2 19 1 20
REMARK H PARENT
REMARK Flexibility Score: inf
ROOT
ATOM      1  C   UNL     1      27.324  41.234  45.364  1.00  0.00     0.000 C 
ENDROOT
BRANCH   1   2
ATOM      2  C   UNL     1      27.924  40.162  44.438  1.00  0.00     0.000 C 
BRANCH   2   3
ATOM      3  C   UNL     1      29.436  39.980  44.647  1.00  0.00     0.000 C 
BRANCH   3   4
ATOM      4  C   UNL     1      29.764  38.910  45.703  1.00  0.00     0.000 C 
BRANCH   4   5
ATOM      5  C   UNL     1      28.960  37.616  45.496  1.00  0.00     0.000 C 
BRANCH   5   6
ATOM      6  C   UNL     1      28.498  36.990  46.824  1.00  0.00     0.000 C 
BRANCH   6   7
ATOM      7  C   UNL     1      27.008  37.245  47.109  1.00  0.00     0.006 C 
BRANCH   7   8
ATOM      8  C   UNL     1      26.773  38.550  47.879  1.00  0.00     0.053 C 
BRANCH   8   9
ATOM      9  C   UNL     1      26.842  38.307  49.354  1.00  0.00     0.041 C 
ATOM     10  O   UNL     1      27.934  38.441  49.967  1.00  0.00    -0.550 OA
ATOM     11  O   UNL     1      25.694  37.966  50.059  1.00  0.00    -0.550 OA
ENDBRANCH   8   9
ENDBRANCH   7   8
ENDBRANCH   6   7
ENDBRANCH   5   6
ENDBRANCH   4   5
ENDBRANCH   3   4
ENDBRANCH   2   3
ENDBRANCH   1   2
BRANCH   1  12
ATOM     12  C   UNL     1      27.636  42.667  44.884  1.00  0.00     0.000 C 
BRANCH  12  13
ATOM     13  C   UNL     1      27.022  43.766  45.773  1.00  0.00    -0.000 C 
BRANCH  13  14
ATOM     14  C   UNL     1      25.961  43.272  46.773  1.00  0.00    -0.000 C 
BRANCH  14  15
ATOM     15  C   UNL     1      26.343  43.425  48.261  1.00  0.00    -0.000 C 
BRANCH  15  16
ATOM     16  C   UNL     1      26.833  42.136  48.946  1.00  0.00    -0.000 C 
BRANCH  16  17
ATOM     17  C   UNL     1      28.307  42.210  49.373  1.00  0.00    -0.000 C 
BRANCH  17  18
ATOM     18  C   UNL     1      29.188  41.361  48.444  1.00  0.00    -0.000 C 
BRANCH  18  19
ATOM     19  C   UNL     1      30.164  42.211  47.616  1.00  0.00    -0.003 C 
ATOM     20  C   UNL     1      30.180  43.679  48.046  1.00  0.00     0.004 C 
ENDBRANCH  18  19
ENDBRANCH  17  18
ENDBRANCH  16  17
ENDBRANCH  15  16
ENDBRANCH  14  15
ENDBRANCH  13  14
ENDBRANCH  12  13
ENDBRANCH   1  12
TORSDOF 16
ENDMDL
MODEL 8
REMARK VINA RESULT:    -4.034      2.602      3.078
REMARK INTER + INTRA:         -10.243
REMARK INTER:                  -7.750
REMARK INTRA:                  -2.493
REMARK UNBOUND:                -2.435
REMARK SMILES CCCCCCCCCCCCCCCCCC(=O)[O-]
REMARK SMILES IDX 10 1 11 2 12 3 13 4 14 5 15 6 16 7 17 8 18 9 19 10 20 11
REMARK SMILES IDX 9 12 8 13 7 14 6 15 5 16 4 17 3 18 2 19 1 20
REMARK H PARENT
REMARK Flexibility Score: inf
ROOT
ATOM      1  C   UNL     1      20.884  33.513  45.203  1.00  0.00     0.000 C 
ENDROOT
BRANCH   1   2
ATOM      2  C   UNL     1      19.798  34.601  45.249  1.00  0.00     0.000 C 
BRANCH   2   3
ATOM      3  C   UNL     1      19.004  34.589  46.566  1.00  0.00     0.000 C 
BRANCH   3   4
ATOM      4  C   UNL     1      19.713  35.361  47.693  1.00  0.00     0.000 C 
BRANCH   4   5
ATOM      5  C   UNL     1      20.100  34.454  48.871  1.00  0.00     0.000 C 
BRANCH   5   6
ATOM      6  C   UNL     1      21.622  34.376  49.081  1.00  0.00     0.000 C 
BRANCH   6   7
ATOM      7  C   UNL     1      22.265  33.217  48.300  1.00  0.00     0.006 C 
BRANCH   7   8
ATOM      8  C   UNL     1      23.793  33.196  48.433  1.00  0.00     0.053 C 
BRANCH   8   9
ATOM      9  C   UNL     1      24.382  32.157  47.532  1.00  0.00     0.041 C 
ATOM     10  O   UNL     1      25.598  31.842  47.637  1.00  0.00    -0.550 OA
ATOM     11  O   UNL     1      23.582  31.509  46.598  1.00  0.00    -0.550 OA
ENDBRANCH   8   9
ENDBRANCH   7   8
ENDBRANCH   6   7
ENDBRANCH   5   6
ENDBRANCH   4   5
ENDBRANCH   3   4
ENDBRANCH   2   3
ENDBRANCH   1   2
BRANCH   1  12
ATOM     12  C   UNL     1      20.668  32.517  44.043  1.00  0.00     0.000 C 
BRANCH  12  13
ATOM     13  C   UNL     1      19.203  32.069  43.875  1.00  0.00    -0.000 C 
BRANCH  13  14
ATOM     14  C   UNL     1      18.985  30.545  43.897  1.00  0.00    -0.000 C 
BRANCH  14  15
ATOM     15  C   UNL     1      18.667  29.949  45.285  1.00  0.00    -0.000 C 
BRANCH  15  16
ATOM     16  C   UNL     1      18.283  30.976  46.365  1.00  0.00    -0.000 C 
BRANCH  16  17
ATOM     17  C   UNL     1      19.308  31.056  47.505  1.00  0.00    -0.000 C 
BRANCH  17  18
ATOM     18  C   UNL     1      18.607  31.022  48.872  1.00  0.00    -0.000 C 
BRANCH  18  19
ATOM     19  C   UNL     1      19.476  30.379  49.965  1.00  0.00    -0.003 C 
ATOM     20  C   UNL     1      19.992  31.396  50.984  1.00  0.00     0.004 C 
ENDBRANCH  18  19
ENDBRANCH  17  18
ENDBRANCH  16  17
ENDBRANCH  15  16
ENDBRANCH  14  15
ENDBRANCH  13  14
ENDBRANCH  12  13
ENDBRANCH   1  12
TORSDOF 16
ENDMDL
