MODEL 1
REMARK VINA RESULT:    -5.499      0.000      0.000
REMARK INTER + INTRA:          -6.439
REMARK INTER:                  -6.303
REMARK INTRA:                  -0.136
REMARK UNBOUND:                -0.136
REMARK SMILES O=C([O-])C=Cc1ccc(O)cc1
REMARK SMILES IDX 6 1 7 2 12 3 8 4 11 5 9 6 5 7 4 8 2 9 1 10 3 11 10 12
REMARK H PARENT 10 13
REMARK Flexibility Score: inf
ROOT
ATOM      1  C   UNL     1      20.040  23.824  39.789  1.00  0.00    -0.025 A 
ATOM      2  C   UNL     1      20.604  22.669  40.358  1.00  0.00     0.012 A 
ATOM      3  C   UNL     1      19.603  23.776  38.449  1.00  0.00     0.012 A 
ATOM      4  C   UNL     1      20.706  21.488  39.619  1.00  0.00     0.047 A 
ATOM      5  C   UNL     1      19.708  22.592  37.712  1.00  0.00     0.047 A 
ATOM      6  C   UNL     1      20.255  21.446  38.294  1.00  0.00     0.115 A 
ENDROOT
BRANCH   1   7
ATOM      7  C   UNL     1      19.963  25.057  40.610  1.00  0.00     0.010 C 
ATOM      8  C   UNL     1      20.991  25.900  40.789  1.00  0.00     0.025 C 
BRANCH   8   9
ATOM      9  C   UNL     1      20.873  27.122  41.603  1.00  0.00     0.064 C 
ATOM     10  O   UNL     1      21.402  28.204  41.232  1.00  0.00    -0.545 OA
ATOM     11  O   UNL     1      20.168  27.081  42.797  1.00  0.00    -0.545 OA
ENDBRANCH   8   9
ENDBRANCH   1   7
BRANCH   6  12
ATOM     12  O   UNL     1      20.352  20.274  37.548  1.00  0.00    -0.508 OA
ATOM     13  H   UNL     1      20.997  19.535  37.802  1.00  0.00     0.293 HD
ENDBRANCH   6  12
TORSDOF 3
ENDMDL
MODEL 2
REMARK VINA RESULT:    -5.472      0.099      1.401
REMARK INTER + INTRA:          -6.408
REMARK INTER:                  -6.275
REMARK INTRA:                  -0.133
REMARK UNBOUND:                -0.136
REMARK SMILES O=C([O-])C=Cc1ccc(O)cc1
REMARK SMILES IDX 6 1 7 2 12 3 8 4 11 5 9 6 5 7 4 8 2 9 1 10 3 11 10 12
REMARK H PARENT 10 13
REMARK Flexibility Score: inf
ROOT
ATOM      1  C   UNL     1      20.081  23.797  39.786  1.00  0.00    -0.025 A 
ATOM      2  C   UNL     1      19.598  23.770  38.466  1.00  0.00     0.012 A 
ATOM      3  C   UNL     1      20.621  22.616  40.336  1.00  0.00     0.012 A 
ATOM      4  C   UNL     1      19.675  22.602  37.704  1.00  0.00     0.047 A 
ATOM      5  C   UNL     1      20.696  21.449  39.570  1.00  0.00     0.047 A 
ATOM      6  C   UNL     1      20.227  21.438  38.253  1.00  0.00     0.115 A 
ENDROOT
BRANCH   1   7
ATOM      7  C   UNL     1      19.968  25.058  40.559  1.00  0.00     0.010 C 
ATOM      8  C   UNL     1      20.985  25.913  40.745  1.00  0.00     0.025 C 
BRANCH   8   9
ATOM      9  C   UNL     1      20.832  27.163  41.509  1.00  0.00     0.064 C 
ATOM     10  O   UNL     1      21.220  28.266  41.039  1.00  0.00    -0.545 OA
ATOM     11  O   UNL     1      20.249  27.126  42.767  1.00  0.00    -0.545 OA
ENDBRANCH   8   9
ENDBRANCH   1   7
BRANCH   6  12
ATOM     12  O   UNL     1      20.309  20.268  37.502  1.00  0.00    -0.508 OA
ATOM     13  H   UNL     1      20.906  19.499  37.782  1.00  0.00     0.293 HD
ENDBRANCH   6  12
TORSDOF 3
ENDMDL
MODEL 3
REMARK VINA RESULT:    -5.324      1.257      1.607
REMARK INTER + INTRA:          -6.239
REMARK INTER:                  -6.103
REMARK INTRA:                  -0.135
REMARK UNBOUND:                -0.136
REMARK SMILES O=C([O-])C=Cc1ccc(O)cc1
REMARK SMILES IDX 6 1 7 2 12 3 8 4 11 5 9 6 5 7 4 8 2 9 1 10 3 11 10 12
REMARK H PARENT 10 13
REMARK Flexibility Score: inf
ROOT
ATOM      1  C   UNL     1      19.912  23.774  39.968  1.00  0.00    -0.025 A 
ATOM      2  C   UNL     1      20.538  22.623  40.477  1.00  0.00     0.012 A 
ATOM      3  C   UNL     1      19.504  23.785  38.618  1.00  0.00     0.012 A 
ATOM      4  C   UNL     1      20.731  21.501  39.667  1.00  0.00     0.047 A 
ATOM      5  C   UNL     1      19.700  22.660  37.811  1.00  0.00     0.047 A 
ATOM      6  C   UNL     1      20.310  21.516  38.332  1.00  0.00     0.115 A 
ENDROOT
BRANCH   1   7
ATOM      7  C   UNL     1      19.739  24.944  40.864  1.00  0.00     0.010 C 
ATOM      8  C   UNL     1      18.681  25.116  41.671  1.00  0.00     0.025 C 
BRANCH   8   9
ATOM      9  C   UNL     1      18.549  26.285  42.556  1.00  0.00     0.064 C 
ATOM     10  O   UNL     1      19.564  26.843  43.056  1.00  0.00    -0.545 OA
ATOM     11  O   UNL     1      17.287  26.783  42.845  1.00  0.00    -0.545 OA
ENDBRANCH   8   9
ENDBRANCH   1   7
BRANCH   6  12
ATOM     12  O   UNL     1      20.497  20.403  37.516  1.00  0.00    -0.508 OA
ATOM     13  H   UNL     1      19.781  20.094  36.869  1.00  0.00     0.293 HD
ENDBRANCH   6  12
TORSDOF 3
ENDMDL
MODEL 4
REMARK VINA RESULT:    -4.986      1.293      5.830
REMARK INTER + INTRA:          -5.851
REMARK INTER:                  -5.714
REMARK INTRA:                  -0.137
REMARK UNBOUND:                -0.136
REMARK SMILES O=C([O-])C=Cc1ccc(O)cc1
REMARK SMILES IDX 6 1 7 2 12 3 8 4 11 5 9 6 5 7 4 8 2 9 1 10 3 11 10 12
REMARK H PARENT 10 13
REMARK Flexibility Score: inf
ROOT
ATOM      1  C   UNL     1      19.966  25.321  40.554  1.00  0.00    -0.025 A 
ATOM      2  C   UNL     1      18.943  25.369  41.517  1.00  0.00     0.012 A 
ATOM      3  C   UNL     1      21.064  26.196  40.685  1.00  0.00     0.012 A 
ATOM      4  C   UNL     1      19.025  26.250  42.599  1.00  0.00     0.047 A 
ATOM      5  C   UNL     1      21.141  27.077  41.768  1.00  0.00     0.047 A 
ATOM      6  C   UNL     1      20.126  27.105  42.729  1.00  0.00     0.115 A 
ENDROOT
BRANCH   1   7
ATOM      7  C   UNL     1      19.829  24.376  39.419  1.00  0.00     0.010 C 
ATOM      8  C   UNL     1      20.136  23.072  39.491  1.00  0.00     0.025 C 
BRANCH   8   9
ATOM      9  C   UNL     1      19.976  22.161  38.345  1.00  0.00     0.064 C 
ATOM     10  O   UNL     1      19.514  22.571  37.247  1.00  0.00    -0.545 OA
ATOM     11  O   UNL     1      20.341  20.829  38.477  1.00  0.00    -0.545 OA
ENDBRANCH   8   9
ENDBRANCH   1   7
BRANCH   6  12
ATOM     12  O   UNL     1      20.218  27.987  43.802  1.00  0.00    -0.508 OA
ATOM     13  H   UNL     1      19.582  28.768  43.902  1.00  0.00     0.293 HD
ENDBRANCH   6  12
TORSDOF 3
ENDMDL
MODEL 5
REMARK VINA RESULT:    -4.933      1.309      5.849
REMARK INTER + INTRA:          -5.790
REMARK INTER:                  -5.652
REMARK INTRA:                  -0.138
REMARK UNBOUND:                -0.136
REMARK SMILES O=C([O-])C=Cc1ccc(O)cc1
REMARK SMILES IDX 6 1 7 2 12 3 8 4 11 5 9 6 5 7 4 8 2 9 1 10 3 11 10 12
REMARK H PARENT 10 13
REMARK Flexibility Score: inf
ROOT
ATOM      1  C   UNL     1      19.910  25.337  40.501  1.00  0.00    -0.025 A 
ATOM      2  C   UNL     1      21.008  26.205  40.619  1.00  0.00     0.012 A 
ATOM      3  C   UNL     1      18.931  25.338  41.516  1.00  0.00     0.012 A 
ATOM      4  C   UNL     1      21.115  27.074  41.708  1.00  0.00     0.047 A 
ATOM      5  C   UNL     1      19.042  26.208  42.605  1.00  0.00     0.047 A 
ATOM      6  C   UNL     1      20.131  27.080  42.703  1.00  0.00     0.115 A 
ENDROOT
BRANCH   1   7
ATOM      7  C   UNL     1      19.846  24.426  39.332  1.00  0.00     0.010 C 
ATOM      8  C   UNL     1      19.852  23.088  39.427  1.00  0.00     0.025 C 
BRANCH   8   9
ATOM      9  C   UNL     1      19.775  22.215  38.244  1.00  0.00     0.064 C 
ATOM     10  O   UNL     1      19.141  22.568  37.213  1.00  0.00    -0.545 OA
ATOM     11  O   UNL     1      20.413  20.983  38.262  1.00  0.00    -0.545 OA
ENDBRANCH   8   9
ENDBRANCH   1   7
BRANCH   6  12
ATOM     12  O   UNL     1      20.227  27.941  43.793  1.00  0.00    -0.508 OA
ATOM     13  H   UNL     1      20.807  27.720  44.594  1.00  0.00     0.293 HD
ENDBRANCH   6  12
TORSDOF 3
ENDMDL
MODEL 6
REMARK VINA RESULT:    -4.641     10.486     12.129
REMARK INTER + INTRA:          -5.455
REMARK INTER:                  -5.315
REMARK INTRA:                  -0.140
REMARK UNBOUND:                -0.136
REMARK SMILES O=C([O-])C=Cc1ccc(O)cc1
REMARK SMILES IDX 6 1 7 2 12 3 8 4 11 5 9 6 5 7 4 8 2 9 1 10 3 11 10 12
REMARK H PARENT 10 13
REMARK Flexibility Score: inf
ROOT
ATOM      1  C   UNL     1      29.424  25.522  46.276  1.00  0.00    -0.025 A 
ATOM      2  C   UNL     1      29.461  26.916  46.101  1.00  0.00     0.012 A 
ATOM      3  C   UNL     1      28.311  24.805  45.789  1.00  0.00     0.012 A 
ATOM      4  C   UNL     1      28.426  27.577  45.434  1.00  0.00     0.047 A 
ATOM      5  C   UNL     1      27.277  25.472  45.124  1.00  0.00     0.047 A 
ATOM      6  C   UNL     1      27.332  26.856  44.942  1.00  0.00     0.115 A 
ENDROOT
BRANCH   1   7
ATOM      7  C   UNL     1      30.542  24.866  46.999  1.00  0.00     0.010 C 
ATOM      8  C   UNL     1      30.478  23.625  47.504  1.00  0.00     0.025 C 
BRANCH   8   9
ATOM      9  C   UNL     1      31.612  23.002  48.206  1.00  0.00     0.064 C 
ATOM     10  O   UNL     1      32.125  23.542  49.223  1.00  0.00    -0.545 OA
ATOM     11  O   UNL     1      32.125  21.800  47.741  1.00  0.00    -0.545 OA
ENDBRANCH   8   9
ENDBRANCH   1   7
BRANCH   6  12
ATOM     12  O   UNL     1      26.295  27.505  44.276  1.00  0.00    -0.508 OA
ATOM     13  H   UNL     1      25.697  27.015  43.621  1.00  0.00     0.293 HD
ENDBRANCH   6  12
TORSDOF 3
ENDMDL
MODEL 7
REMARK VINA RESULT:    -4.419      6.017      8.620
REMARK INTER + INTRA:          -5.202
REMARK INTER:                  -5.051
REMARK INTRA:                  -0.151
REMARK UNBOUND:                -0.136
REMARK SMILES O=C([O-])C=Cc1ccc(O)cc1
REMARK SMILES IDX 6 1 7 2 12 3 8 4 11 5 9 6 5 7 4 8 2 9 1 10 3 11 10 12
REMARK H PARENT 10 13
REMARK Flexibility Score: inf
ROOT
ATOM      1  C   UNL     1      16.910  25.284  45.687  1.00  0.00    -0.025 A 
ATOM      2  C   UNL     1      17.743  25.825  44.693  1.00  0.00     0.012 A 
ATOM      3  C   UNL     1      16.458  26.125  46.725  1.00  0.00     0.012 A 
ATOM      4  C   UNL     1      18.096  27.176  44.717  1.00  0.00     0.047 A 
ATOM      5  C   UNL     1      16.815  27.477  46.747  1.00  0.00     0.047 A 
ATOM      6  C   UNL     1      17.631  28.007  45.743  1.00  0.00     0.115 A 
ENDROOT
BRANCH   1   7
ATOM      7  C   UNL     1      16.571  23.841  45.624  1.00  0.00     0.010 C 
ATOM      8  C   UNL     1      17.226  22.954  44.861  1.00  0.00     0.025 C 
BRANCH   8   9
ATOM      9  C   UNL     1      16.869  21.526  44.833  1.00  0.00     0.064 C 
ATOM     10  O   UNL     1      16.841  20.839  45.890  1.00  0.00    -0.545 OA
ATOM     11  O   UNL     1      16.555  20.925  43.622  1.00  0.00    -0.545 OA
ENDBRANCH   8   9
ENDBRANCH   1   7
BRANCH   6  12
ATOM     12  O   UNL     1      17.976  29.355  45.778  1.00  0.00    -0.508 OA
ATOM     13  H   UNL     1      18.820  29.698  45.334  1.00  0.00     0.293 HD
ENDBRANCH   6  12
TORSDOF 3
ENDMDL
MODEL 8
REMARK VINA RESULT:    -4.351      5.959      8.444
REMARK INTER + INTRA:          -5.123
REMARK INTER:                  -4.988
REMARK INTRA:                  -0.135
REMARK UNBOUND:                -0.136
REMARK SMILES O=C([O-])C=Cc1ccc(O)cc1
REMARK SMILES IDX 6 1 7 2 12 3 8 4 11 5 9 6 5 7 4 8 2 9 1 10 3 11 10 12
REMARK H PARENT 10 13
REMARK Flexibility Score: inf
ROOT
ATOM      1  C   UNL     1      17.164  25.401  45.037  1.00  0.00    -0.025 A 
ATOM      2  C   UNL     1      16.507  25.997  46.127  1.00  0.00     0.012 A 
ATOM      3  C   UNL     1      18.144  26.142  44.346  1.00  0.00     0.012 A 
ATOM      4  C   UNL     1      16.838  27.292  46.535  1.00  0.00     0.047 A 
ATOM      5  C   UNL     1      18.470  27.439  44.757  1.00  0.00     0.047 A 
ATOM      6  C   UNL     1      17.822  28.016  45.852  1.00  0.00     0.115 A 
ENDROOT
BRANCH   1   7
ATOM      7  C   UNL     1      16.771  24.028  44.635  1.00  0.00     0.010 C 
ATOM      8  C   UNL     1      17.219  22.917  45.238  1.00  0.00     0.025 C 
BRANCH   8   9
ATOM      9  C   UNL     1      16.798  21.570  44.819  1.00  0.00     0.064 C 
ATOM     10  O   UNL     1      16.727  20.622  45.647  1.00  0.00    -0.545 OA
ATOM     11  O   UNL     1      16.470  21.340  43.491  1.00  0.00    -0.545 OA
ENDBRANCH   8   9
ENDBRANCH   1   7
BRANCH   6  12
ATOM     12  O   UNL     1      18.160  29.307  46.250  1.00  0.00    -0.508 OA
ATOM     13  H   UNL     1      17.609  30.109  45.968  1.00  0.00     0.293 HD
ENDBRANCH   6  12
TORSDOF 3
ENDMDL
MODEL 9
REMARK VINA RESULT:    -4.260      3.319      4.289
REMARK INTER + INTRA:          -5.019
REMARK INTER:                  -4.870
REMARK INTRA:                  -0.149
REMARK UNBOUND:                -0.136
REMARK SMILES O=C([O-])C=Cc1ccc(O)cc1
REMARK SMILES IDX 6 1 7 2 12 3 8 4 11 5 9 6 5 7 4 8 2 9 1 10 3 11 10 12
REMARK H PARENT 10 13
REMARK Flexibility Score: inf
ROOT
ATOM      1  C   UNL     1      18.772  25.867  42.392  1.00  0.00    -0.025 A 
ATOM      2  C   UNL     1      18.228  24.573  42.306  1.00  0.00     0.012 A 
ATOM      3  C   UNL     1      19.772  26.245  41.473  1.00  0.00     0.012 A 
ATOM      4  C   UNL     1      18.652  23.688  41.312  1.00  0.00     0.047 A 
ATOM      5  C   UNL     1      20.195  25.355  40.481  1.00  0.00     0.047 A 
ATOM      6  C   UNL     1      19.635  24.077  40.395  1.00  0.00     0.115 A 
ENDROOT
BRANCH   1   7
ATOM      7  C   UNL     1      18.297  26.767  43.471  1.00  0.00     0.010 C 
ATOM      8  C   UNL     1      17.934  26.344  44.691  1.00  0.00     0.025 C 
BRANCH   8   9
ATOM      9  C   UNL     1      17.478  27.270  45.741  1.00  0.00     0.064 C 
ATOM     10  O   UNL     1      17.790  28.491  45.714  1.00  0.00    -0.545 OA
ATOM     11  O   UNL     1      16.691  26.791  46.778  1.00  0.00    -0.545 OA
ENDBRANCH   8   9
ENDBRANCH   1   7
BRANCH   6  12
ATOM     12  O   UNL     1      20.065  23.202  39.401  1.00  0.00    -0.508 OA
ATOM     13  H   UNL     1      20.519  22.325  39.626  1.00  0.00     0.293 HD
ENDBRANCH   6  12
TORSDOF 3
ENDMDL
