MODEL 1
REMARK VINA RESULT:    -4.139      0.000      0.000
REMARK INTER + INTRA:          -7.080
REMARK INTER:                  -6.316
REMARK INTRA:                  -0.764
REMARK UNBOUND:                -0.764
REMARK SMILES CCCCCCCCCCC(=O)[O-]
REMARK SMILES IDX 7 1 8 2 9 3 10 4 11 5 12 6 13 7 6 8 5 9 4 10 3 11 2 12 1 13
REMARK H PARENT
REMARK Flexibility Score: inf
ROOT
ATOM      1  C   UNL     1       8.506 -19.048  22.985  1.00  0.00     0.000 C 
ENDROOT
BRANCH   1   2
ATOM      2  C   UNL     1       8.224 -17.701  22.296  1.00  0.00     0.000 C 
BRANCH   2   3
ATOM      3  C   UNL     1       7.299 -16.796  23.125  1.00  0.00     0.006 C 
BRANCH   3   4
ATOM      4  C   UNL     1       7.882 -15.392  23.337  1.00  0.00     0.053 C 
BRANCH   4   5
ATOM      5  C   UNL     1       9.012 -15.439  24.316  1.00  0.00     0.041 C 
ATOM      6  O   UNL     1      10.173 -15.107  23.959  1.00  0.00    -0.550 OA
ATOM      7  O   UNL     1       8.793 -15.896  25.610  1.00  0.00    -0.550 OA
ENDBRANCH   4   5
ENDBRANCH   3   4
ENDBRANCH   2   3
ENDBRANCH   1   2
BRANCH   1   8
ATOM      8  C   UNL     1       7.239 -19.680  23.583  1.00  0.00     0.000 C 
BRANCH   8   9
ATOM      9  C   UNL     1       6.936 -21.071  22.998  1.00  0.00    -0.000 C 
BRANCH   9  10
ATOM     10  C   UNL     1       7.041 -21.109  21.463  1.00  0.00    -0.000 C 
BRANCH  10  11
ATOM     11  C   UNL     1       7.598 -22.423  20.885  1.00  0.00    -0.000 C 
BRANCH  11  12
ATOM     12  C   UNL     1       8.731 -23.017  21.735  1.00  0.00    -0.003 C 
ATOM     13  C   UNL     1      10.081 -22.423  21.343  1.00  0.00     0.004 C 
ENDBRANCH  11  12
ENDBRANCH  10  11
ENDBRANCH   9  10
ENDBRANCH   8   9
ENDBRANCH   1   8
TORSDOF 9
ENDMDL
MODEL 2
REMARK VINA RESULT:    -4.079      1.277      1.561
REMARK INTER + INTRA:          -6.990
REMARK INTER:                  -6.300
REMARK INTRA:                  -0.690
REMARK UNBOUND:                -0.764
REMARK SMILES CCCCCCCCCCC(=O)[O-]
REMARK SMILES IDX 7 1 8 2 9 3 10 4 11 5 12 6 13 7 6 8 5 9 4 10 3 11 2 12 1 13
REMARK H PARENT
REMARK Flexibility Score: inf
ROOT
ATOM      1  C   UNL     1       7.585 -18.612  23.058  1.00  0.00     0.000 C 
ENDROOT
BRANCH   1   2
ATOM      2  C   UNL     1       7.129 -17.565  24.090  1.00  0.00     0.000 C 
BRANCH   2   3
ATOM      3  C   UNL     1       7.819 -17.738  25.452  1.00  0.00     0.006 C 
BRANCH   3   4
ATOM      4  C   UNL     1       8.530 -16.461  25.922  1.00  0.00     0.053 C 
BRANCH   4   5
ATOM      5  C   UNL     1       9.719 -16.180  25.060  1.00  0.00     0.041 C 
ATOM      6  O   UNL     1      10.744 -16.908  25.138  1.00  0.00    -0.550 OA
ATOM      7  O   UNL     1       9.717 -15.084  24.206  1.00  0.00    -0.550 OA
ENDBRANCH   4   5
ENDBRANCH   3   4
ENDBRANCH   2   3
ENDBRANCH   1   2
BRANCH   1   8
ATOM      8  C   UNL     1       7.980 -19.946  23.710  1.00  0.00     0.000 C 
BRANCH   8   9
ATOM      9  C   UNL     1       7.157 -21.134  23.178  1.00  0.00    -0.000 C 
BRANCH   9  10
ATOM     10  C   UNL     1       6.881 -21.039  21.667  1.00  0.00    -0.000 C 
BRANCH  10  11
ATOM     11  C   UNL     1       7.529 -22.150  20.820  1.00  0.00    -0.000 C 
BRANCH  11  12
ATOM     12  C   UNL     1       8.394 -23.109  21.652  1.00  0.00    -0.003 C 
ATOM     13  C   UNL     1       9.870 -22.966  21.296  1.00  0.00     0.004 C 
ENDBRANCH  11  12
ENDBRANCH  10  11
ENDBRANCH   9  10
ENDBRANCH   8   9
ENDBRANCH   1   8
TORSDOF 9
ENDMDL
MODEL 3
REMARK VINA RESULT:    -4.062      1.289      2.004
REMARK INTER + INTRA:          -6.964
REMARK INTER:                  -6.282
REMARK INTRA:                  -0.682
REMARK UNBOUND:                -0.764
REMARK SMILES CCCCCCCCCCC(=O)[O-]
REMARK SMILES IDX 7 1 8 2 9 3 10 4 11 5 12 6 13 7 6 8 5 9 4 10 3 11 2 12 1 13
REMARK H PARENT
REMARK Flexibility Score: inf
ROOT
ATOM      1  C   UNL     1       8.044 -17.136  21.044  1.00  0.00     0.000 C 
ENDROOT
BRANCH   1   2
ATOM      2  C   UNL     1       7.123 -15.911  21.179  1.00  0.00     0.000 C 
BRANCH   2   3
ATOM      3  C   UNL     1       7.124 -15.324  22.599  1.00  0.00     0.006 C 
BRANCH   3   4
ATOM      4  C   UNL     1       7.569 -16.342  23.659  1.00  0.00     0.053 C 
BRANCH   4   5
ATOM      5  C   UNL     1       8.660 -15.769  24.506  1.00  0.00     0.041 C 
ATOM      6  O   UNL     1       9.590 -15.104  23.978  1.00  0.00    -0.550 OA
ATOM      7  O   UNL     1       8.677 -16.009  25.875  1.00  0.00    -0.550 OA
ENDBRANCH   4   5
ENDBRANCH   3   4
ENDBRANCH   2   3
ENDBRANCH   1   2
BRANCH   1   8
ATOM      8  C   UNL     1       7.520 -18.156  20.021  1.00  0.00     0.000 C 
BRANCH   8   9
ATOM      9  C   UNL     1       7.651 -19.610  20.510  1.00  0.00    -0.000 C 
BRANCH   9  10
ATOM     10  C   UNL     1       7.525 -19.738  22.039  1.00  0.00    -0.000 C 
BRANCH  10  11
ATOM     11  C   UNL     1       7.518 -21.184  22.568  1.00  0.00    -0.000 C 
BRANCH  11  12
ATOM     12  C   UNL     1       7.600 -22.232  21.447  1.00  0.00    -0.003 C 
ATOM     13  C   UNL     1       8.879 -23.056  21.558  1.00  0.00     0.004 C 
ENDBRANCH  11  12
ENDBRANCH  10  11
ENDBRANCH   9  10
ENDBRANCH   8   9
ENDBRANCH   1   8
TORSDOF 9
ENDMDL
MODEL 4
REMARK VINA RESULT:    -4.041      1.840      3.931
REMARK INTER + INTRA:          -6.932
REMARK INTER:                  -5.800
REMARK INTRA:                  -1.132
REMARK UNBOUND:                -0.764
REMARK SMILES CCCCCCCCCCC(=O)[O-]
REMARK SMILES IDX 7 1 8 2 9 3 10 4 11 5 12 6 13 7 6 8 5 9 4 10 3 11 2 12 1 13
REMARK H PARENT
REMARK Flexibility Score: inf
ROOT
ATOM      1  C   UNL     1       6.382 -20.117  23.595  1.00  0.00     0.000 C 
ENDROOT
BRANCH   1   2
ATOM      2  C   UNL     1       6.932 -20.039  25.030  1.00  0.00     0.000 C 
BRANCH   2   3
ATOM      3  C   UNL     1       7.367 -18.617  25.419  1.00  0.00     0.006 C 
BRANCH   3   4
ATOM      4  C   UNL     1       8.842 -18.341  25.097  1.00  0.00     0.053 C 
BRANCH   4   5
ATOM      5  C   UNL     1       9.327 -17.148  25.858  1.00  0.00     0.041 C 
ATOM      6  O   UNL     1       8.541 -16.199  26.117  1.00  0.00    -0.550 OA
ATOM      7  O   UNL     1      10.661 -17.061  26.240  1.00  0.00    -0.550 OA
ENDBRANCH   4   5
ENDBRANCH   3   4
ENDBRANCH   2   3
ENDBRANCH   1   2
BRANCH   1   8
ATOM      8  C   UNL     1       7.272 -20.961  22.669  1.00  0.00     0.000 C 
BRANCH   8   9
ATOM      9  C   UNL     1       8.241 -20.105  21.834  1.00  0.00    -0.000 C 
BRANCH   9  10
ATOM     10  C   UNL     1       7.595 -18.809  21.312  1.00  0.00    -0.000 C 
BRANCH  10  11
ATOM     11  C   UNL     1       8.381 -17.523  21.625  1.00  0.00    -0.000 C 
BRANCH  11  12
ATOM     12  C   UNL     1       7.520 -16.255  21.517  1.00  0.00    -0.003 C 
ATOM     13  C   UNL     1       6.976 -15.844  22.882  1.00  0.00     0.004 C 
ENDBRANCH  11  12
ENDBRANCH  10  11
ENDBRANCH   9  10
ENDBRANCH   8   9
ENDBRANCH   1   8
TORSDOF 9
ENDMDL
MODEL 5
REMARK VINA RESULT:    -3.974      1.851      3.042
REMARK INTER + INTRA:          -6.829
REMARK INTER:                  -5.715
REMARK INTRA:                  -1.115
REMARK UNBOUND:                -0.764
REMARK SMILES CCCCCCCCCCC(=O)[O-]
REMARK SMILES IDX 7 1 8 2 9 3 10 4 11 5 12 6 13 7 6 8 5 9 4 10 3 11 2 12 1 13
REMARK H PARENT
REMARK Flexibility Score: inf
ROOT
ATOM      1  C   UNL     1       6.579 -18.847  24.264  1.00  0.00     0.000 C 
ENDROOT
BRANCH   1   2
ATOM      2  C   UNL     1       7.197 -18.240  25.536  1.00  0.00     0.000 C 
BRANCH   2   3
ATOM      3  C   UNL     1       8.627 -17.725  25.310  1.00  0.00     0.006 C 
BRANCH   3   4
ATOM      4  C   UNL     1       8.787 -16.244  25.679  1.00  0.00     0.053 C 
BRANCH   4   5
ATOM      5  C   UNL     1       8.975 -15.417  24.447  1.00  0.00     0.041 C 
ATOM      6  O   UNL     1       7.975 -14.975  23.822  1.00  0.00    -0.550 OA
ATOM      7  O   UNL     1      10.254 -15.175  23.960  1.00  0.00    -0.550 OA
ENDBRANCH   4   5
ENDBRANCH   3   4
ENDBRANCH   2   3
ENDBRANCH   1   2
BRANCH   1   8
ATOM      8  C   UNL     1       6.707 -20.378  24.220  1.00  0.00     0.000 C 
BRANCH   8   9
ATOM      9  C   UNL     1       7.441 -20.877  22.962  1.00  0.00    -0.000 C 
BRANCH   9  10
ATOM     10  C   UNL     1       7.664 -19.765  21.921  1.00  0.00    -0.000 C 
BRANCH  10  11
ATOM     11  C   UNL     1       9.099 -19.211  21.865  1.00  0.00    -0.000 C 
BRANCH  11  12
ATOM     12  C   UNL     1       9.153 -17.732  21.451  1.00  0.00    -0.003 C 
ATOM     13  C   UNL     1       7.757 -17.194  21.152  1.00  0.00     0.004 C 
ENDBRANCH  11  12
ENDBRANCH  10  11
ENDBRANCH   9  10
ENDBRANCH   8   9
ENDBRANCH   1   8
TORSDOF 9
ENDMDL
MODEL 6
REMARK VINA RESULT:    -3.970      3.547      6.226
REMARK INTER + INTRA:          -6.823
REMARK INTER:                  -6.211
REMARK INTRA:                  -0.612
REMARK UNBOUND:                -0.764
REMARK SMILES CCCCCCCCCCC(=O)[O-]
REMARK SMILES IDX 7 1 8 2 9 3 10 4 11 5 12 6 13 7 6 8 5 9 4 10 3 11 2 12 1 13
REMARK H PARENT
REMARK Flexibility Score: inf
ROOT
ATOM      1  C   UNL     1       7.185 -19.317  24.472  1.00  0.00     0.000 C 
ENDROOT
BRANCH   1   2
ATOM      2  C   UNL     1       6.458 -20.357  23.602  1.00  0.00     0.000 C 
BRANCH   2   3
ATOM      3  C   UNL     1       7.429 -21.259  22.823  1.00  0.00     0.006 C 
BRANCH   3   4
ATOM      4  C   UNL     1       7.117 -21.307  21.321  1.00  0.00     0.053 C 
BRANCH   4   5
ATOM      5  C   UNL     1       8.028 -22.271  20.630  1.00  0.00     0.041 C 
ATOM      6  O   UNL     1       8.328 -22.102  19.419  1.00  0.00    -0.550 OA
ATOM      7  O   UNL     1       8.507 -23.385  21.310  1.00  0.00    -0.550 OA
ENDBRANCH   4   5
ENDBRANCH   3   4
ENDBRANCH   2   3
ENDBRANCH   1   2
BRANCH   1   8
ATOM      8  C   UNL     1       6.743 -17.878  24.164  1.00  0.00     0.000 C 
BRANCH   8   9
ATOM      9  C   UNL     1       7.740 -17.130  23.261  1.00  0.00    -0.000 C 
BRANCH   9  10
ATOM     10  C   UNL     1       7.955 -15.669  23.692  1.00  0.00    -0.000 C 
BRANCH  10  11
ATOM     11  C   UNL     1       9.273 -15.403  24.443  1.00  0.00    -0.000 C 
BRANCH  11  12
ATOM     12  C   UNL     1      10.198 -16.629  24.480  1.00  0.00    -0.003 C 
ATOM     13  C   UNL     1      10.372 -17.143  25.906  1.00  0.00     0.004 C 
ENDBRANCH  11  12
ENDBRANCH  10  11
ENDBRANCH   9  10
ENDBRANCH   8   9
ENDBRANCH   1   8
TORSDOF 9
ENDMDL
MODEL 7
REMARK VINA RESULT:    -3.956      3.012      5.812
REMARK INTER + INTRA:          -6.802
REMARK INTER:                  -5.830
REMARK INTRA:                  -0.972
REMARK UNBOUND:                -0.764
REMARK SMILES CCCCCCCCCCC(=O)[O-]
REMARK SMILES IDX 7 1 8 2 9 3 10 4 11 5 12 6 13 7 6 8 5 9 4 10 3 11 2 12 1 13
REMARK H PARENT
REMARK Flexibility Score: inf
ROOT
ATOM      1  C   UNL     1       7.578 -16.984  21.780  1.00  0.00     0.000 C 
ENDROOT
BRANCH   1   2
ATOM      2  C   UNL     1       8.045 -18.427  22.039  1.00  0.00     0.000 C 
BRANCH   2   3
ATOM      3  C   UNL     1       7.580 -18.963  23.402  1.00  0.00     0.006 C 
BRANCH   3   4
ATOM      4  C   UNL     1       6.753 -20.251  23.281  1.00  0.00     0.053 C 
BRANCH   4   5
ATOM      5  C   UNL     1       7.317 -21.134  22.214  1.00  0.00     0.041 C 
ATOM      6  O   UNL     1       6.628 -21.423  21.200  1.00  0.00    -0.550 OA
ATOM      7  O   UNL     1       8.587 -21.680  22.363  1.00  0.00    -0.550 OA
ENDBRANCH   4   5
ENDBRANCH   3   4
ENDBRANCH   2   3
ENDBRANCH   1   2
BRANCH   1   8
ATOM      8  C   UNL     1       7.122 -16.274  23.065  1.00  0.00     0.000 C 
BRANCH   8   9
ATOM      9  C   UNL     1       7.948 -15.012  23.371  1.00  0.00    -0.000 C 
BRANCH   9  10
ATOM     10  C   UNL     1       8.993 -15.237  24.479  1.00  0.00    -0.000 C 
BRANCH  10  11
ATOM     11  C   UNL     1      10.372 -15.706  23.981  1.00  0.00    -0.000 C 
BRANCH  11  12
ATOM     12  C   UNL     1      10.921 -16.899  24.778  1.00  0.00    -0.003 C 
ATOM     13  C   UNL     1       9.979 -17.278  25.918  1.00  0.00     0.004 C 
ENDBRANCH  11  12
ENDBRANCH  10  11
ENDBRANCH   9  10
ENDBRANCH   8   9
ENDBRANCH   1   8
TORSDOF 9
ENDMDL
MODEL 8
REMARK VINA RESULT:    -3.953      1.238      1.841
REMARK INTER + INTRA:          -6.797
REMARK INTER:                  -5.987
REMARK INTRA:                  -0.810
REMARK UNBOUND:                -0.764
REMARK SMILES CCCCCCCCCCC(=O)[O-]
REMARK SMILES IDX 7 1 8 2 9 3 10 4 11 5 12 6 13 7 6 8 5 9 4 10 3 11 2 12 1 13
REMARK H PARENT
REMARK Flexibility Score: inf
ROOT
ATOM      1  C   UNL     1       7.166 -19.148  24.364  1.00  0.00     0.000 C 
ENDROOT
BRANCH   1   2
ATOM      2  C   UNL     1       7.710 -18.109  23.367  1.00  0.00     0.000 C 
BRANCH   2   3
ATOM      3  C   UNL     1       7.068 -16.724  23.549  1.00  0.00     0.006 C 
BRANCH   3   4
ATOM      4  C   UNL     1       8.035 -15.577  23.223  1.00  0.00     0.053 C 
BRANCH   4   5
ATOM      5  C   UNL     1       9.081 -15.460  24.286  1.00  0.00     0.041 C 
ATOM      6  O   UNL     1      10.262 -15.145  23.980  1.00  0.00    -0.550 OA
ATOM      7  O   UNL     1       8.765 -15.745  25.608  1.00  0.00    -0.550 OA
ENDBRANCH   4   5
ENDBRANCH   3   4
ENDBRANCH   2   3
ENDBRANCH   1   2
BRANCH   1   8
ATOM      8  C   UNL     1       6.494 -20.339  23.664  1.00  0.00     0.000 C 
BRANCH   8   9
ATOM      9  C   UNL     1       7.476 -21.156  22.805  1.00  0.00    -0.000 C 
BRANCH   9  10
ATOM     10  C   UNL     1       6.922 -21.474  21.405  1.00  0.00    -0.000 C 
BRANCH  10  11
ATOM     11  C   UNL     1       7.909 -21.230  20.248  1.00  0.00    -0.000 C 
BRANCH  11  12
ATOM     12  C   UNL     1       8.499 -19.811  20.255  1.00  0.00    -0.003 C 
ATOM     13  C   UNL     1       7.498 -18.797  19.708  1.00  0.00     0.004 C 
ENDBRANCH  11  12
ENDBRANCH  10  11
ENDBRANCH   9  10
ENDBRANCH   8   9
ENDBRANCH   1   8
TORSDOF 9
ENDMDL
MODEL 9
REMARK VINA RESULT:    -3.944      3.446      4.747
REMARK INTER + INTRA:          -6.783
REMARK INTER:                  -5.482
REMARK INTRA:                  -1.301
REMARK UNBOUND:                -0.764
REMARK SMILES CCCCCCCCCCC(=O)[O-]
REMARK SMILES IDX 7 1 8 2 9 3 10 4 11 5 12 6 13 7 6 8 5 9 4 10 3 11 2 12 1 13
REMARK H PARENT
REMARK Flexibility Score: inf
ROOT
ATOM      1  C   UNL     1       9.762 -16.255  25.496  1.00  0.00     0.000 C 
ENDROOT
BRANCH   1   2
ATOM      2  C   UNL     1      10.640 -17.473  25.157  1.00  0.00     0.000 C 
BRANCH   2   3
ATOM      3  C   UNL     1      11.329 -17.342  23.789  1.00  0.00     0.006 C 
BRANCH   3   4
ATOM      4  C   UNL     1      11.396 -15.890  23.297  1.00  0.00     0.053 C 
BRANCH   4   5
ATOM      5  C   UNL     1      12.806 -15.514  22.970  1.00  0.00     0.041 C 
ATOM      6  O   UNL     1      13.075 -14.353  22.563  1.00  0.00    -0.550 OA
ATOM      7  O   UNL     1      13.819 -16.461  23.067  1.00  0.00    -0.550 OA
ENDBRANCH   4   5
ENDBRANCH   3   4
ENDBRANCH   2   3
ENDBRANCH   1   2
BRANCH   1   8
ATOM      8  C   UNL     1       8.349 -16.655  25.946  1.00  0.00     0.000 C 
BRANCH   8   9
ATOM      9  C   UNL     1       7.891 -17.996  25.344  1.00  0.00    -0.000 C 
BRANCH   9  10
ATOM     10  C   UNL     1       6.985 -17.819  24.113  1.00  0.00    -0.000 C 
BRANCH  10  11
ATOM     11  C   UNL     1       7.705 -17.940  22.757  1.00  0.00    -0.000 C 
BRANCH  11  12
ATOM     12  C   UNL     1       7.882 -16.587  22.052  1.00  0.00    -0.003 C 
ATOM     13  C   UNL     1       7.002 -15.516  22.689  1.00  0.00     0.004 C 
ENDBRANCH  11  12
ENDBRANCH  10  11
ENDBRANCH   9  10
ENDBRANCH   8   9
ENDBRANCH   1   8
TORSDOF 9
ENDMDL
