MODEL 1
REMARK VINA RESULT:    -2.414      0.000      0.000
REMARK INTER + INTRA:          -3.933
REMARK INTER:                  -3.544
REMARK INTRA:                  -0.389
REMARK UNBOUND:                -0.389
REMARK SMILES O=C([O-])CCCCCCCC(=O)[O-]
REMARK SMILES IDX 7 1 6 2 5 3 4 4 2 5 1 6 3 7 8 8 9 9 10 10 11 11 12 12 13 13
REMARK H PARENT
REMARK Flexibility Score: inf
ROOT
ATOM      1  C   UNL     1      19.018   2.076  26.298  1.00  0.00     0.000 C 
ENDROOT
BRANCH   1   2
ATOM      2  C   UNL     1      17.770   1.641  25.510  1.00  0.00     0.000 C 
BRANCH   2   3
ATOM      3  C   UNL     1      16.953   2.830  24.971  1.00  0.00     0.006 C 
BRANCH   3   4
ATOM      4  C   UNL     1      15.663   3.108  25.762  1.00  0.00     0.053 C 
BRANCH   4   5
ATOM      5  C   UNL     1      14.424   2.804  24.976  1.00  0.00     0.041 C 
ATOM      6  O   UNL     1      13.553   2.021  25.440  1.00  0.00    -0.550 OA
ATOM      7  O   UNL     1      14.216   3.411  23.744  1.00  0.00    -0.550 OA
ENDBRANCH   4   5
ENDBRANCH   3   4
ENDBRANCH   2   3
ENDBRANCH   1   2
BRANCH   1   8
ATOM      8  C   UNL     1      19.424   1.053  27.372  1.00  0.00     0.000 C 
BRANCH   8   9
ATOM      9  C   UNL     1      19.461   1.663  28.784  1.00  0.00     0.006 C 
BRANCH   9  10
ATOM     10  C   UNL     1      18.750   3.022  28.846  1.00  0.00     0.053 C 
BRANCH  10  11
ATOM     11  C   UNL     1      18.752   3.584  30.234  1.00  0.00     0.041 C 
ATOM     12  O   UNL     1      19.735   3.388  30.997  1.00  0.00    -0.550 OA
ATOM     13  O   UNL     1      17.652   4.296  30.698  1.00  0.00    -0.550 OA
ENDBRANCH  10  11
ENDBRANCH   9  10
ENDBRANCH   8   9
ENDBRANCH   1   8
TORSDOF 8
ENDMDL
MODEL 2
REMARK VINA RESULT:    -2.361      0.076      5.912
REMARK INTER + INTRA:          -3.854
REMARK INTER:                  -3.468
REMARK INTRA:                  -0.385
REMARK UNBOUND:                -0.389
REMARK SMILES O=C([O-])CCCCCCCC(=O)[O-]
REMARK SMILES IDX 7 1 6 2 5 3 4 4 2 5 1 6 3 7 8 8 9 9 10 10 11 11 12 12 13 13
REMARK H PARENT
REMARK Flexibility Score: inf
ROOT
ATOM      1  C   UNL     1      18.985   2.016  26.268  1.00  0.00     0.000 C 
ENDROOT
BRANCH   1   2
ATOM      2  C   UNL     1      19.418   1.015  27.353  1.00  0.00     0.000 C 
BRANCH   2   3
ATOM      3  C   UNL     1      19.423   1.625  28.767  1.00  0.00     0.006 C 
BRANCH   3   4
ATOM      4  C   UNL     1      18.783   3.022  28.845  1.00  0.00     0.053 C 
BRANCH   4   5
ATOM      5  C   UNL     1      18.763   3.574  30.238  1.00  0.00     0.041 C 
ATOM      6  O   UNL     1      19.743   3.390  31.008  1.00  0.00    -0.550 OA
ATOM      7  O   UNL     1      17.676   4.319  30.675  1.00  0.00    -0.550 OA
ENDBRANCH   4   5
ENDBRANCH   3   4
ENDBRANCH   2   3
ENDBRANCH   1   2
BRANCH   1   8
ATOM      8  C   UNL     1      17.664   1.617  25.591  1.00  0.00     0.000 C 
BRANCH   8   9
ATOM      9  C   UNL     1      16.910   2.826  25.011  1.00  0.00     0.006 C 
BRANCH   9  10
ATOM     10  C   UNL     1      15.620   3.129  25.783  1.00  0.00     0.053 C 
BRANCH  10  11
ATOM     11  C   UNL     1      14.402   2.766  24.991  1.00  0.00     0.041 C 
ATOM     12  O   UNL     1      13.529   2.003  25.483  1.00  0.00    -0.550 OA
ATOM     13  O   UNL     1      14.248   3.243  23.695  1.00  0.00    -0.550 OA
ENDBRANCH  10  11
ENDBRANCH   9  10
ENDBRANCH   8   9
ENDBRANCH   1   8
TORSDOF 8
ENDMDL
MODEL 3
REMARK VINA RESULT:    -2.303      0.946      1.301
REMARK INTER + INTRA:          -3.769
REMARK INTER:                  -3.523
REMARK INTRA:                  -0.246
REMARK UNBOUND:                -0.389
REMARK SMILES O=C([O-])CCCCCCCC(=O)[O-]
REMARK SMILES IDX 7 1 6 2 5 3 4 4 2 5 1 6 3 7 8 8 9 9 10 10 11 11 12 12 13 13
REMARK H PARENT
REMARK Flexibility Score: inf
ROOT
ATOM      1  C   UNL     1      18.144   1.447  25.018  1.00  0.00     0.000 C 
ENDROOT
BRANCH   1   2
ATOM      2  C   UNL     1      17.237   2.690  25.034  1.00  0.00     0.000 C 
BRANCH   2   3
ATOM      3  C   UNL     1      15.859   2.423  25.666  1.00  0.00     0.006 C 
BRANCH   3   4
ATOM      4  C   UNL     1      14.811   3.507  25.358  1.00  0.00     0.053 C 
BRANCH   4   5
ATOM      5  C   UNL     1      13.787   3.056  24.362  1.00  0.00     0.041 C 
ATOM      6  O   UNL     1      13.109   2.016  24.574  1.00  0.00    -0.550 OA
ATOM      7  O   UNL     1      13.558   3.803  23.214  1.00  0.00    -0.550 OA
ENDBRANCH   4   5
ENDBRANCH   3   4
ENDBRANCH   2   3
ENDBRANCH   1   2
BRANCH   1   8
ATOM      8  C   UNL     1      19.402   1.623  25.884  1.00  0.00     0.000 C 
BRANCH   8   9
ATOM      9  C   UNL     1      19.124   1.399  27.380  1.00  0.00     0.006 C 
BRANCH   9  10
ATOM     10  C   UNL     1      18.720   2.695  28.094  1.00  0.00     0.053 C 
BRANCH  10  11
ATOM     11  C   UNL     1      19.258   2.749  29.491  1.00  0.00     0.041 C 
ATOM     12  O   UNL     1      20.197   1.986  29.838  1.00  0.00    -0.550 OA
ATOM     13  O   UNL     1      18.697   3.617  30.419  1.00  0.00    -0.550 OA
ENDBRANCH  10  11
ENDBRANCH   9  10
ENDBRANCH   8   9
ENDBRANCH   1   8
TORSDOF 8
ENDMDL
MODEL 4
REMARK VINA RESULT:    -2.300      1.325      1.937
REMARK INTER + INTRA:          -3.765
REMARK INTER:                  -3.507
REMARK INTRA:                  -0.258
REMARK UNBOUND:                -0.389
REMARK SMILES O=C([O-])CCCCCCCC(=O)[O-]
REMARK SMILES IDX 7 1 6 2 5 3 4 4 2 5 1 6 3 7 8 8 9 9 10 10 11 11 12 12 13 13
REMARK H PARENT
REMARK Flexibility Score: inf
ROOT
ATOM      1  C   UNL     1      17.598   2.708  25.375  1.00  0.00     0.000 C 
ENDROOT
BRANCH   1   2
ATOM      2  C   UNL     1      16.169   2.135  25.382  1.00  0.00     0.000 C 
BRANCH   2   3
ATOM      3  C   UNL     1      15.085   3.220  25.514  1.00  0.00     0.006 C 
BRANCH   3   4
ATOM      4  C   UNL     1      13.740   2.838  24.872  1.00  0.00     0.053 C 
BRANCH   4   5
ATOM      5  C   UNL     1      13.570   3.412  23.499  1.00  0.00     0.041 C 
ATOM      6  O   UNL     1      13.777   2.698  22.481  1.00  0.00    -0.550 OA
ATOM      7  O   UNL     1      13.151   4.727  23.341  1.00  0.00    -0.550 OA
ENDBRANCH   4   5
ENDBRANCH   3   4
ENDBRANCH   2   3
ENDBRANCH   1   2
BRANCH   1   8
ATOM      8  C   UNL     1      18.671   1.618  25.530  1.00  0.00     0.000 C 
BRANCH   8   9
ATOM      9  C   UNL     1      19.187   1.500  26.975  1.00  0.00     0.006 C 
BRANCH   9  10
ATOM     10  C   UNL     1      18.639   2.612  27.878  1.00  0.00     0.053 C 
BRANCH  10  11
ATOM     11  C   UNL     1      19.276   2.589  29.233  1.00  0.00     0.041 C 
ATOM     12  O   UNL     1      20.130   1.709  29.517  1.00  0.00    -0.550 OA
ATOM     13  O   UNL     1      18.901   3.520  30.194  1.00  0.00    -0.550 OA
ENDBRANCH  10  11
ENDBRANCH   9  10
ENDBRANCH   8   9
ENDBRANCH   1   8
TORSDOF 8
ENDMDL
MODEL 5
REMARK VINA RESULT:    -2.239      0.983      6.077
REMARK INTER + INTRA:          -3.676
REMARK INTER:                  -3.324
REMARK INTRA:                  -0.351
REMARK UNBOUND:                -0.389
REMARK SMILES O=C([O-])CCCCCCCC(=O)[O-]
REMARK SMILES IDX 7 1 6 2 5 3 4 4 2 5 1 6 3 7 8 8 9 9 10 10 11 11 12 12 13 13
REMARK H PARENT
REMARK Flexibility Score: inf
ROOT
ATOM      1  C   UNL     1      18.563   2.378  25.243  1.00  0.00     0.000 C 
ENDROOT
BRANCH   1   2
ATOM      2  C   UNL     1      19.380   1.261  25.917  1.00  0.00     0.000 C 
BRANCH   2   3
ATOM      3  C   UNL     1      19.173   1.201  27.441  1.00  0.00     0.006 C 
BRANCH   3   4
ATOM      4  C   UNL     1      18.798   2.553  28.074  1.00  0.00     0.053 C 
BRANCH   4   5
ATOM      5  C   UNL     1      19.307   2.698  29.475  1.00  0.00     0.041 C 
ATOM      6  O   UNL     1      20.278   2.002  29.875  1.00  0.00    -0.550 OA
ATOM      7  O   UNL     1      18.730   3.627  30.332  1.00  0.00    -0.550 OA
ENDBRANCH   4   5
ENDBRANCH   3   4
ENDBRANCH   2   3
ENDBRANCH   1   2
BRANCH   1   8
ATOM      8  C   UNL     1      17.082   2.003  25.071  1.00  0.00     0.000 C 
BRANCH   8   9
ATOM      9  C   UNL     1      16.136   3.172  25.397  1.00  0.00     0.006 C 
BRANCH   9  10
ATOM     10  C   UNL     1      14.742   2.689  25.816  1.00  0.00     0.053 C 
BRANCH  10  11
ATOM     11  C   UNL     1      13.787   2.686  24.662  1.00  0.00     0.041 C 
ATOM     12  O   UNL     1      12.756   1.964  24.693  1.00  0.00    -0.550 OA
ATOM     13  O   UNL     1      14.053   3.457  23.537  1.00  0.00    -0.550 OA
ENDBRANCH  10  11
ENDBRANCH   9  10
ENDBRANCH   8   9
ENDBRANCH   1   8
TORSDOF 8
ENDMDL
MODEL 6
REMARK VINA RESULT:    -1.575      3.205      4.035
REMARK INTER + INTRA:          -2.701
REMARK INTER:                  -2.297
REMARK INTRA:                  -0.403
REMARK UNBOUND:                -0.389
REMARK SMILES O=C([O-])CCCCCCCC(=O)[O-]
REMARK SMILES IDX 7 1 6 2 5 3 4 4 2 5 1 6 3 7 8 8 9 9 10 10 11 11 12 12 13 13
REMARK H PARENT
REMARK Flexibility Score: inf
ROOT
ATOM      1  C   UNL     1      16.772   3.486  25.963  1.00  0.00     0.000 C 
ENDROOT
BRANCH   1   2
ATOM      2  C   UNL     1      15.241   3.486  26.116  1.00  0.00     0.000 C 
BRANCH   2   3
ATOM      3  C   UNL     1      14.562   2.312  25.386  1.00  0.00     0.006 C 
BRANCH   3   4
ATOM      4  C   UNL     1      13.253   2.695  24.673  1.00  0.00     0.053 C 
BRANCH   4   5
ATOM      5  C   UNL     1      13.487   3.419  23.383  1.00  0.00     0.041 C 
ATOM      6  O   UNL     1      13.979   2.814  22.394  1.00  0.00    -0.550 OA
ATOM      7  O   UNL     1      13.131   4.756  23.261  1.00  0.00    -0.550 OA
ENDBRANCH   4   5
ENDBRANCH   3   4
ENDBRANCH   2   3
ENDBRANCH   1   2
BRANCH   1   8
ATOM      8  C   UNL     1      17.266   2.414  24.978  1.00  0.00     0.000 C 
BRANCH   8   9
ATOM      9  C   UNL     1      17.994   1.256  25.682  1.00  0.00     0.006 C 
BRANCH   9  10
ATOM     10  C   UNL     1      19.348   1.690  26.259  1.00  0.00     0.053 C 
BRANCH  10  11
ATOM     11  C   UNL     1      20.488   1.000  25.575  1.00  0.00     0.041 C 
ATOM     12  O   UNL     1      20.265   0.144  24.678  1.00  0.00    -0.550 OA
ATOM     13  O   UNL     1      21.796   1.278  25.951  1.00  0.00    -0.550 OA
ENDBRANCH  10  11
ENDBRANCH   9  10
ENDBRANCH   8   9
ENDBRANCH   1   8
TORSDOF 8
ENDMDL
MODEL 7
REMARK VINA RESULT:    -1.492      3.102      6.548
REMARK INTER + INTRA:          -2.579
REMARK INTER:                  -2.320
REMARK INTRA:                  -0.259
REMARK UNBOUND:                -0.389
REMARK SMILES O=C([O-])CCCCCCCC(=O)[O-]
REMARK SMILES IDX 7 1 6 2 5 3 4 4 2 5 1 6 3 7 8 8 9 9 10 10 11 11 12 12 13 13
REMARK H PARENT
REMARK Flexibility Score: inf
ROOT
ATOM      1  C   UNL     1      16.681   3.113  24.999  1.00  0.00     0.000 C 
ENDROOT
BRANCH   1   2
ATOM      2  C   UNL     1      17.576   1.928  25.403  1.00  0.00     0.000 C 
BRANCH   2   3
ATOM      3  C   UNL     1      18.660   2.313  26.427  1.00  0.00     0.006 C 
BRANCH   3   4
ATOM      4  C   UNL     1      19.609   1.158  26.792  1.00  0.00     0.053 C 
BRANCH   4   5
ATOM      5  C   UNL     1      20.612   0.871  25.717  1.00  0.00     0.041 C 
ATOM      6  O   UNL     1      21.805   1.257  25.840  1.00  0.00    -0.550 OA
ATOM      7  O   UNL     1      20.238   0.147  24.592  1.00  0.00    -0.550 OA
ENDBRANCH   4   5
ENDBRANCH   3   4
ENDBRANCH   2   3
ENDBRANCH   1   2
BRANCH   1   8
ATOM      8  C   UNL     1      15.377   3.171  25.811  1.00  0.00     0.000 C 
BRANCH   8   9
ATOM      9  C   UNL     1      14.364   2.098  25.377  1.00  0.00     0.006 C 
BRANCH   9  10
ATOM     10  C   UNL     1      13.122   2.709  24.716  1.00  0.00     0.053 C 
BRANCH  10  11
ATOM     11  C   UNL     1      13.463   3.406  23.435  1.00  0.00     0.041 C 
ATOM     12  O   UNL     1      14.096   2.798  22.531  1.00  0.00    -0.550 OA
ATOM     13  O   UNL     1      13.113   4.738  23.253  1.00  0.00    -0.550 OA
ENDBRANCH  10  11
ENDBRANCH   9  10
ENDBRANCH   8   9
ENDBRANCH   1   8
TORSDOF 8
ENDMDL
MODEL 8
REMARK VINA RESULT:    -1.484     14.656     16.116
REMARK INTER + INTRA:          -2.567
REMARK INTER:                  -3.061
REMARK INTRA:                   0.494
REMARK UNBOUND:                -0.389
REMARK SMILES O=C([O-])CCCCCCCC(=O)[O-]
REMARK SMILES IDX 7 1 6 2 5 3 4 4 2 5 1 6 3 7 8 8 9 9 10 10 11 11 12 12 13 13
REMARK H PARENT
REMARK Flexibility Score: inf
ROOT
ATOM      1  C   UNL     1      11.338  15.414  21.935  1.00  0.00     0.000 C 
ENDROOT
BRANCH   1   2
ATOM      2  C   UNL     1      11.600  15.230  20.430  1.00  0.00     0.000 C 
BRANCH   2   3
ATOM      3  C   UNL     1      11.058  16.393  19.578  1.00  0.00     0.006 C 
BRANCH   3   4
ATOM      4  C   UNL     1      11.810  17.720  19.786  1.00  0.00     0.053 C 
BRANCH   4   5
ATOM      5  C   UNL     1      13.197  17.694  19.222  1.00  0.00     0.041 C 
ATOM      6  O   UNL     1      14.177  17.394  19.956  1.00  0.00    -0.550 OA
ATOM      7  O   UNL     1      13.406  17.969  17.877  1.00  0.00    -0.550 OA
ENDBRANCH   4   5
ENDBRANCH   3   4
ENDBRANCH   2   3
ENDBRANCH   1   2
BRANCH   1   8
ATOM      8  C   UNL     1      11.253  16.894  22.343  1.00  0.00     0.000 C 
BRANCH   8   9
ATOM      9  C   UNL     1      10.877  17.077  23.824  1.00  0.00     0.006 C 
BRANCH   9  10
ATOM     10  C   UNL     1      12.001  16.626  24.766  1.00  0.00     0.053 C 
BRANCH  10  11
ATOM     11  C   UNL     1      11.459  16.019  26.023  1.00  0.00     0.041 C 
ATOM     12  O   UNL     1      11.199  14.787  26.072  1.00  0.00    -0.550 OA
ATOM     13  O   UNL     1      11.208  16.819  27.130  1.00  0.00    -0.550 OA
ENDBRANCH  10  11
ENDBRANCH   9  10
ENDBRANCH   8   9
ENDBRANCH   1   8
TORSDOF 8
ENDMDL
