MODEL 1
REMARK VINA RESULT:    -5.802      0.000      0.000
REMARK INTER + INTRA:          -7.290
REMARK INTER:                  -7.159
REMARK INTRA:                  -0.131
REMARK UNBOUND:                -0.131
REMARK SMILES COc1cc(-c2oc3cc(O)cc(O)c3c(=O)c2O)ccc1O
REMARK SMILES IDX 6 1 18 2 16 3 17 4 15 5 13 6 12 7 10 8 9 9 8 10 7 11 5 12
REMARK SMILES IDX 3 13 22 14 4 15 21 16 20 17 2 18 1 19 23 20 19 22 14 24
REMARK SMILES IDX 11 26
REMARK H PARENT 23 21 19 23 14 25 11 27
REMARK Flexibility Score: inf
ROOT
ATOM      1  C   UNL     1       0.116 -19.016  -7.971  1.00  0.00     0.180 A 
ATOM      2  C   UNL     1       1.271 -19.295  -7.220  1.00  0.00     0.208 A 
ATOM      3  C   UNL     1       1.869 -20.560  -7.336  1.00  0.00     0.238 A 
ATOM      4  O   UNL     1       2.933 -20.786  -6.703  1.00  0.00    -0.285 OA
ATOM      5  C   UNL     1       1.296 -21.536  -8.187  1.00  0.00     0.111 A 
ATOM      6  C   UNL     1       1.794 -22.863  -8.351  1.00  0.00     0.134 A 
ATOM      7  C   UNL     1       1.225 -23.700  -9.318  1.00  0.00     0.093 A 
ATOM      8  C   UNL     1       0.133 -23.279 -10.082  1.00  0.00     0.123 A 
ATOM      9  C   UNL     1      -0.397 -22.007  -9.888  1.00  0.00     0.094 A 
ATOM     10  C   UNL     1       0.172 -21.136  -8.956  1.00  0.00     0.146 A 
ATOM     11  O   UNL     1      -0.359 -19.928  -8.810  1.00  0.00    -0.452 OA
ENDROOT
BRANCH   1  12
ATOM     12  C   UNL     1      -0.584 -17.713  -7.882  1.00  0.00     0.025 A 
ATOM     13  C   UNL     1      -2.605 -16.392  -7.485  1.00  0.00     0.161 A 
ATOM     14  C   UNL     1      -1.885 -15.220  -7.782  1.00  0.00     0.157 A 
ATOM     15  C   UNL     1      -1.948 -17.638  -7.545  1.00  0.00     0.062 A 
ATOM     16  C   UNL     1      -0.537 -15.300  -8.139  1.00  0.00     0.051 A 
ATOM     17  C   UNL     1       0.109 -16.536  -8.196  1.00  0.00     0.016 A 
BRANCH  13  18
ATOM     18  O   UNL     1      -3.962 -16.284  -7.140  1.00  0.00    -0.493 OA
ATOM     19  C   UNL     1      -5.024 -16.947  -7.819  1.00  0.00     0.278 C 
ENDBRANCH  13  18
BRANCH  14  20
ATOM     20  O   UNL     1      -2.495 -13.968  -7.731  1.00  0.00    -0.504 OA
ATOM     21  H   UNL     1      -2.396 -13.350  -6.934  1.00  0.00     0.293 HD
ENDBRANCH  14  20
ENDBRANCH   1  12
BRANCH   2  22
ATOM     22  O   UNL     1       1.832 -18.311  -6.402  1.00  0.00    -0.502 OA
ATOM     23  H   UNL     1       1.763 -17.322  -6.614  1.00  0.00     0.293 HD
ENDBRANCH   2  22
BRANCH   6  24
ATOM     24  O   UNL     1       2.820 -23.412  -7.576  1.00  0.00    -0.507 OA
ATOM     25  H   UNL     1       3.317 -24.261  -7.798  1.00  0.00     0.293 HD
ENDBRANCH   6  24
BRANCH   8  26
ATOM     26  O   UNL     1      -0.436 -24.125 -11.032  1.00  0.00    -0.508 OA
ATOM     27  H   UNL     1      -1.248 -24.692 -10.817  1.00  0.00     0.293 HD
ENDBRANCH   8  26
TORSDOF 6
ENDMDL
MODEL 2
REMARK VINA RESULT:    -5.596      3.799      4.673
REMARK INTER + INTRA:          -7.036
REMARK INTER:                  -6.670
REMARK INTRA:                  -0.366
REMARK UNBOUND:                -0.131
REMARK SMILES COc1cc(-c2oc3cc(O)cc(O)c3c(=O)c2O)ccc1O
REMARK SMILES IDX 6 1 18 2 16 3 17 4 15 5 13 6 12 7 10 8 9 9 8 10 7 11 5 12
REMARK SMILES IDX 3 13 22 14 4 15 21 16 20 17 2 18 1 19 23 20 19 22 14 24
REMARK SMILES IDX 11 26
REMARK H PARENT 23 21 19 23 14 25 11 27
REMARK Flexibility Score: inf
ROOT
ATOM      1  C   UNL     1       1.573 -17.132  -5.634  1.00  0.00     0.180 A 
ATOM      2  C   UNL     1       2.875 -16.644  -5.432  1.00  0.00     0.208 A 
ATOM      3  C   UNL     1       3.838 -17.488  -4.856  1.00  0.00     0.238 A 
ATOM      4  O   UNL     1       5.016 -17.064  -4.729  1.00  0.00    -0.285 OA
ATOM      5  C   UNL     1       3.482 -18.804  -4.473  1.00  0.00     0.111 A 
ATOM      6  C   UNL     1       4.365 -19.732  -3.844  1.00  0.00     0.134 A 
ATOM      7  C   UNL     1       3.944 -21.050  -3.629  1.00  0.00     0.093 A 
ATOM      8  C   UNL     1       2.648 -21.455  -3.961  1.00  0.00     0.123 A 
ATOM      9  C   UNL     1       1.760 -20.540  -4.521  1.00  0.00     0.094 A 
ATOM     10  C   UNL     1       2.163 -19.228  -4.781  1.00  0.00     0.146 A 
ATOM     11  O   UNL     1       1.288 -18.392  -5.324  1.00  0.00    -0.452 OA
ENDROOT
BRANCH   1  12
ATOM     12  C   UNL     1       0.498 -16.293  -6.212  1.00  0.00     0.025 A 
ATOM     13  C   UNL     1      -1.209 -14.553  -5.998  1.00  0.00     0.161 A 
ATOM     14  C   UNL     1      -1.575 -14.761  -7.341  1.00  0.00     0.157 A 
ATOM     15  C   UNL     1      -0.175 -15.330  -5.438  1.00  0.00     0.062 A 
ATOM     16  C   UNL     1      -0.921 -15.734  -8.101  1.00  0.00     0.051 A 
ATOM     17  C   UNL     1       0.103 -16.500  -7.541  1.00  0.00     0.016 A 
BRANCH  13  18
ATOM     18  O   UNL     1      -1.891 -13.577  -5.254  1.00  0.00    -0.493 OA
ATOM     19  C   UNL     1      -1.260 -12.548  -4.500  1.00  0.00     0.278 C 
ENDBRANCH  13  18
BRANCH  14  20
ATOM     20  O   UNL     1      -2.590 -14.013  -7.936  1.00  0.00    -0.504 OA
ATOM     21  H   UNL     1      -2.971 -14.245  -8.846  1.00  0.00     0.293 HD
ENDBRANCH  14  20
ENDBRANCH   1  12
BRANCH   2  22
ATOM     22  O   UNL     1       3.210 -15.349  -5.837  1.00  0.00    -0.502 OA
ATOM     23  H   UNL     1       3.842 -14.759  -5.307  1.00  0.00     0.293 HD
ENDBRANCH   2  22
BRANCH   6  24
ATOM     24  O   UNL     1       5.647 -19.405  -3.391  1.00  0.00    -0.507 OA
ATOM     25  H   UNL     1       6.403 -19.094  -3.981  1.00  0.00     0.293 HD
ENDBRANCH   6  24
BRANCH   8  26
ATOM     26  O   UNL     1       2.232 -22.764  -3.729  1.00  0.00    -0.508 OA
ATOM     27  H   UNL     1       2.832 -23.437  -3.266  1.00  0.00     0.293 HD
ENDBRANCH   8  26
TORSDOF 6
ENDMDL
MODEL 3
REMARK VINA RESULT:    -5.510      2.145      7.396
REMARK INTER + INTRA:          -6.930
REMARK INTER:                  -7.098
REMARK INTRA:                   0.169
REMARK UNBOUND:                -0.131
REMARK SMILES COc1cc(-c2oc3cc(O)cc(O)c3c(=O)c2O)ccc1O
REMARK SMILES IDX 6 1 18 2 16 3 17 4 15 5 13 6 12 7 10 8 9 9 8 10 7 11 5 12
REMARK SMILES IDX 3 13 22 14 4 15 21 16 20 17 2 18 1 19 23 20 19 22 14 24
REMARK SMILES IDX 11 26
REMARK H PARENT 23 21 19 23 14 25 11 27
REMARK Flexibility Score: inf
ROOT
ATOM      1  C   UNL     1      -1.028 -18.362  -8.004  1.00  0.00     0.180 A 
ATOM      2  C   UNL     1      -1.812 -17.355  -8.593  1.00  0.00     0.208 A 
ATOM      3  C   UNL     1      -1.981 -16.138  -7.915  1.00  0.00     0.238 A 
ATOM      4  O   UNL     1      -2.638 -15.221  -8.472  1.00  0.00    -0.285 OA
ATOM      5  C   UNL     1      -1.378 -15.948  -6.647  1.00  0.00     0.111 A 
ATOM      6  C   UNL     1      -1.516 -14.771  -5.852  1.00  0.00     0.134 A 
ATOM      7  C   UNL     1      -0.769 -14.641  -4.675  1.00  0.00     0.093 A 
ATOM      8  C   UNL     1       0.061 -15.674  -4.231  1.00  0.00     0.123 A 
ATOM      9  C   UNL     1       0.156 -16.851  -4.970  1.00  0.00     0.094 A 
ATOM     10  C   UNL     1      -0.549 -16.995  -6.167  1.00  0.00     0.146 A 
ATOM     11  O   UNL     1      -0.422 -18.129  -6.845  1.00  0.00    -0.452 OA
ENDROOT
BRANCH   1  12
ATOM     12  C   UNL     1      -0.825 -19.680  -8.647  1.00  0.00     0.025 A 
ATOM     13  C   UNL     1       0.603 -21.579  -9.233  1.00  0.00     0.161 A 
ATOM     14  C   UNL     1      -0.472 -22.158  -9.933  1.00  0.00     0.157 A 
ATOM     15  C   UNL     1       0.420 -20.334  -8.598  1.00  0.00     0.062 A 
ATOM     16  C   UNL     1      -1.700 -21.495 -10.001  1.00  0.00     0.051 A 
ATOM     17  C   UNL     1      -1.875 -20.263  -9.370  1.00  0.00     0.016 A 
BRANCH  13  18
ATOM     18  O   UNL     1       1.830 -22.261  -9.191  1.00  0.00    -0.493 OA
ATOM     19  C   UNL     1       2.177 -23.242  -8.220  1.00  0.00     0.278 C 
ENDBRANCH  13  18
BRANCH  14  20
ATOM     20  O   UNL     1      -0.335 -23.389 -10.573  1.00  0.00    -0.504 OA
ATOM     21  H   UNL     1       0.258 -23.514 -11.385  1.00  0.00     0.293 HD
ENDBRANCH  14  20
ENDBRANCH   1  12
BRANCH   2  22
ATOM     22  O   UNL     1      -2.380 -17.555  -9.854  1.00  0.00    -0.502 OA
ATOM     23  H   UNL     1      -2.885 -16.827 -10.345  1.00  0.00     0.293 HD
ENDBRANCH   2  22
BRANCH   6  24
ATOM     24  O   UNL     1      -2.386 -13.720  -6.158  1.00  0.00    -0.507 OA
ATOM     25  H   UNL     1      -3.301 -13.832  -6.567  1.00  0.00     0.293 HD
ENDBRANCH   6  24
BRANCH   8  26
ATOM     26  O   UNL     1       0.788 -15.543  -3.051  1.00  0.00    -0.508 OA
ATOM     27  H   UNL     1       0.501 -14.904  -2.318  1.00  0.00     0.293 HD
ENDBRANCH   8  26
TORSDOF 6
ENDMDL
MODEL 4
REMARK VINA RESULT:    -5.492      1.826      1.975
REMARK INTER + INTRA:          -6.907
REMARK INTER:                  -6.507
REMARK INTRA:                  -0.400
REMARK UNBOUND:                -0.131
REMARK SMILES COc1cc(-c2oc3cc(O)cc(O)c3c(=O)c2O)ccc1O
REMARK SMILES IDX 6 1 18 2 16 3 17 4 15 5 13 6 12 7 10 8 9 9 8 10 7 11 5 12
REMARK SMILES IDX 3 13 22 14 4 15 21 16 20 17 2 18 1 19 23 20 19 22 14 24
REMARK SMILES IDX 11 26
REMARK H PARENT 23 21 19 23 14 25 11 27
REMARK Flexibility Score: inf
ROOT
ATOM      1  C   UNL     1       0.108 -18.304  -7.670  1.00  0.00     0.180 A 
ATOM      2  C   UNL     1       1.350 -18.917  -7.430  1.00  0.00     0.208 A 
ATOM      3  C   UNL     1       1.576 -20.213  -7.920  1.00  0.00     0.238 A 
ATOM      4  O   UNL     1       2.708 -20.736  -7.750  1.00  0.00    -0.285 OA
ATOM      5  C   UNL     1       0.552 -20.887  -8.630  1.00  0.00     0.111 A 
ATOM      6  C   UNL     1       0.657 -22.217  -9.137  1.00  0.00     0.134 A 
ATOM      7  C   UNL     1      -0.370 -22.734  -9.937  1.00  0.00     0.093 A 
ATOM      8  C   UNL     1      -1.526 -21.992 -10.193  1.00  0.00     0.123 A 
ATOM      9  C   UNL     1      -1.663 -20.716  -9.654  1.00  0.00     0.094 A 
ATOM     10  C   UNL     1      -0.640 -20.159  -8.882  1.00  0.00     0.146 A 
ATOM     11  O   UNL     1      -0.807 -18.936  -8.396  1.00  0.00    -0.452 OA
ENDROOT
BRANCH   1  12
ATOM     12  C   UNL     1      -0.212 -16.950  -7.164  1.00  0.00     0.025 A 
ATOM     13  C   UNL     1      -1.182 -15.471  -5.473  1.00  0.00     0.161 A 
ATOM     14  C   UNL     1      -0.849 -14.359  -6.269  1.00  0.00     0.157 A 
ATOM     15  C   UNL     1      -0.866 -16.766  -5.932  1.00  0.00     0.062 A 
ATOM     16  C   UNL     1      -0.221 -14.546  -7.502  1.00  0.00     0.051 A 
ATOM     17  C   UNL     1       0.090 -15.830  -7.952  1.00  0.00     0.016 A 
BRANCH  13  18
ATOM     18  O   UNL     1      -1.824 -15.255  -4.243  1.00  0.00    -0.493 OA
ATOM     19  C   UNL     1      -3.234 -15.295  -4.049  1.00  0.00     0.278 C 
ENDBRANCH  13  18
BRANCH  14  20
ATOM     20  O   UNL     1      -1.141 -13.061  -5.852  1.00  0.00    -0.504 OA
ATOM     21  H   UNL     1      -0.419 -12.414  -5.553  1.00  0.00     0.293 HD
ENDBRANCH  14  20
ENDBRANCH   1  12
BRANCH   2  22
ATOM     22  O   UNL     1       2.354 -18.227  -6.746  1.00  0.00    -0.502 OA
ATOM     23  H   UNL     1       2.207 -17.819  -5.830  1.00  0.00     0.293 HD
ENDBRANCH   2  22
BRANCH   6  24
ATOM     24  O   UNL     1       1.727 -23.074  -8.863  1.00  0.00    -0.507 OA
ATOM     25  H   UNL     1       2.649 -22.772  -8.587  1.00  0.00     0.293 HD
ENDBRANCH   6  24
BRANCH   8  26
ATOM     26  O   UNL     1      -2.549 -22.521 -10.977  1.00  0.00    -0.508 OA
ATOM     27  H   UNL     1      -2.414 -22.719 -11.962  1.00  0.00     0.293 HD
ENDBRANCH   8  26
TORSDOF 6
ENDMDL
MODEL 5
REMARK VINA RESULT:    -5.492      2.674      7.275
REMARK INTER + INTRA:          -6.907
REMARK INTER:                  -6.525
REMARK INTRA:                  -0.382
REMARK UNBOUND:                -0.131
REMARK SMILES COc1cc(-c2oc3cc(O)cc(O)c3c(=O)c2O)ccc1O
REMARK SMILES IDX 6 1 18 2 16 3 17 4 15 5 13 6 12 7 10 8 9 9 8 10 7 11 5 12
REMARK SMILES IDX 3 13 22 14 4 15 21 16 20 17 2 18 1 19 23 20 19 22 14 24
REMARK SMILES IDX 11 26
REMARK H PARENT 23 21 19 23 14 25 11 27
REMARK Flexibility Score: inf
ROOT
ATOM      1  C   UNL     1      -2.172 -17.912  -7.739  1.00  0.00     0.180 A 
ATOM      2  C   UNL     1      -2.580 -16.686  -8.290  1.00  0.00     0.208 A 
ATOM      3  C   UNL     1      -2.192 -15.493  -7.660  1.00  0.00     0.238 A 
ATOM      4  O   UNL     1      -2.514 -14.397  -8.189  1.00  0.00    -0.285 OA
ATOM      5  C   UNL     1      -1.415 -15.540  -6.477  1.00  0.00     0.111 A 
ATOM      6  C   UNL     1      -1.000 -14.396  -5.733  1.00  0.00     0.134 A 
ATOM      7  C   UNL     1      -0.124 -14.555  -4.652  1.00  0.00     0.093 A 
ATOM      8  C   UNL     1       0.298 -15.825  -4.249  1.00  0.00     0.123 A 
ATOM      9  C   UNL     1      -0.150 -16.952  -4.932  1.00  0.00     0.094 A 
ATOM     10  C   UNL     1      -0.994 -16.822  -6.037  1.00  0.00     0.146 A 
ATOM     11  O   UNL     1      -1.389 -17.922  -6.666  1.00  0.00    -0.452 OA
ENDROOT
BRANCH   1  12
ATOM     12  C   UNL     1      -2.563 -19.212  -8.333  1.00  0.00     0.025 A 
ATOM     13  C   UNL     1      -2.107 -21.121  -9.793  1.00  0.00     0.161 A 
ATOM     14  C   UNL     1      -3.372 -21.650  -9.479  1.00  0.00     0.157 A 
ATOM     15  C   UNL     1      -1.712 -19.895  -9.220  1.00  0.00     0.062 A 
ATOM     16  C   UNL     1      -4.225 -20.958  -8.615  1.00  0.00     0.051 A 
ATOM     17  C   UNL     1      -3.828 -19.745  -8.051  1.00  0.00     0.016 A 
BRANCH  13  18
ATOM     18  O   UNL     1      -1.275 -21.832 -10.673  1.00  0.00    -0.493 OA
ATOM     19  C   UNL     1      -0.114 -22.557 -10.280  1.00  0.00     0.278 C 
ENDBRANCH  13  18
BRANCH  14  20
ATOM     20  O   UNL     1      -3.802 -22.861 -10.021  1.00  0.00    -0.504 OA
ATOM     21  H   UNL     1      -3.324 -23.736  -9.835  1.00  0.00     0.293 HD
ENDBRANCH  14  20
ENDBRANCH   1  12
BRANCH   2  22
ATOM     22  O   UNL     1      -3.328 -16.660  -9.471  1.00  0.00    -0.502 OA
ATOM     23  H   UNL     1      -3.129 -17.270 -10.255  1.00  0.00     0.293 HD
ENDBRANCH   2  22
BRANCH   6  24
ATOM     24  O   UNL     1      -1.436 -13.094  -5.996  1.00  0.00    -0.507 OA
ATOM     25  H   UNL     1      -2.397 -12.790  -5.953  1.00  0.00     0.293 HD
ENDBRANCH   6  24
BRANCH   8  26
ATOM     26  O   UNL     1       1.157 -15.975  -3.162  1.00  0.00    -0.508 OA
ATOM     27  H   UNL     1       1.082 -16.765  -2.532  1.00  0.00     0.293 HD
ENDBRANCH   8  26
TORSDOF 6
ENDMDL
MODEL 6
REMARK VINA RESULT:    -5.489      2.233      7.147
REMARK INTER + INTRA:          -6.903
REMARK INTER:                  -6.982
REMARK INTRA:                   0.078
REMARK UNBOUND:                -0.131
REMARK SMILES COc1cc(-c2oc3cc(O)cc(O)c3c(=O)c2O)ccc1O
REMARK SMILES IDX 6 1 18 2 16 3 17 4 15 5 13 6 12 7 10 8 9 9 8 10 7 11 5 12
REMARK SMILES IDX 3 13 22 14 4 15 21 16 20 17 2 18 1 19 23 20 19 22 14 24
REMARK SMILES IDX 11 26
REMARK H PARENT 23 21 19 23 14 25 11 27
REMARK Flexibility Score: inf
ROOT
ATOM      1  C   UNL     1      -0.941 -18.461  -8.019  1.00  0.00     0.180 A 
ATOM      2  C   UNL     1      -1.757 -17.491  -8.626  1.00  0.00     0.208 A 
ATOM      3  C   UNL     1      -1.974 -16.272  -7.964  1.00  0.00     0.238 A 
ATOM      4  O   UNL     1      -2.662 -15.387  -8.537  1.00  0.00    -0.285 OA
ATOM      5  C   UNL     1      -1.386 -16.044  -6.697  1.00  0.00     0.111 A 
ATOM      6  C   UNL     1      -1.571 -14.863  -5.918  1.00  0.00     0.134 A 
ATOM      7  C   UNL     1      -0.836 -14.691  -4.738  1.00  0.00     0.093 A 
ATOM      8  C   UNL     1       0.028 -15.687  -4.276  1.00  0.00     0.123 A 
ATOM      9  C   UNL     1       0.170 -16.869  -5.000  1.00  0.00     0.094 A 
ATOM     10  C   UNL     1      -0.522 -17.054  -6.198  1.00  0.00     0.146 A 
ATOM     11  O   UNL     1      -0.351 -18.191  -6.861  1.00  0.00    -0.452 OA
ENDROOT
BRANCH   1  12
ATOM     12  C   UNL     1      -0.686 -19.779  -8.645  1.00  0.00     0.025 A 
ATOM     13  C   UNL     1      -1.444 -21.727  -9.917  1.00  0.00     0.161 A 
ATOM     14  C   UNL     1      -0.170 -22.307  -9.769  1.00  0.00     0.157 A 
ATOM     15  C   UNL     1      -1.696 -20.464  -9.345  1.00  0.00     0.062 A 
ATOM     16  C   UNL     1       0.824 -21.635  -9.053  1.00  0.00     0.051 A 
ATOM     17  C   UNL     1       0.569 -20.384  -8.489  1.00  0.00     0.016 A 
BRANCH  13  18
ATOM     18  O   UNL     1      -2.428 -22.429 -10.631  1.00  0.00    -0.493 OA
ATOM     19  C   UNL     1      -3.448 -23.223 -10.033  1.00  0.00     0.278 C 
ENDBRANCH  13  18
BRANCH  14  20
ATOM     20  O   UNL     1       0.123 -23.553 -10.321  1.00  0.00    -0.504 OA
ATOM     21  H   UNL     1       0.782 -24.193  -9.893  1.00  0.00     0.293 HD
ENDBRANCH  14  20
ENDBRANCH   1  12
BRANCH   2  22
ATOM     22  O   UNL     1      -2.311 -17.728  -9.888  1.00  0.00    -0.502 OA
ATOM     23  H   UNL     1      -1.943 -18.429 -10.520  1.00  0.00     0.293 HD
ENDBRANCH   2  22
BRANCH   6  24
ATOM     24  O   UNL     1      -2.477 -13.848  -6.242  1.00  0.00    -0.507 OA
ATOM     25  H   UNL     1      -2.395 -12.888  -5.945  1.00  0.00     0.293 HD
ENDBRANCH   6  24
BRANCH   8  26
ATOM     26  O   UNL     1       0.744 -15.515  -3.094  1.00  0.00    -0.508 OA
ATOM     27  H   UNL     1       0.381 -14.953  -2.332  1.00  0.00     0.293 HD
ENDBRANCH   8  26
TORSDOF 6
ENDMDL
MODEL 7
REMARK VINA RESULT:    -5.331      2.506      3.186
REMARK INTER + INTRA:          -6.709
REMARK INTER:                  -6.336
REMARK INTRA:                  -0.373
REMARK UNBOUND:                -0.131
REMARK SMILES COc1cc(-c2oc3cc(O)cc(O)c3c(=O)c2O)ccc1O
REMARK SMILES IDX 6 1 18 2 16 3 17 4 15 5 13 6 12 7 10 8 9 9 8 10 7 11 5 12
REMARK SMILES IDX 3 13 22 14 4 15 21 16 20 17 2 18 1 19 23 20 19 22 14 24
REMARK SMILES IDX 11 26
REMARK H PARENT 23 21 19 23 14 25 11 27
REMARK Flexibility Score: inf
ROOT
ATOM      1  C   UNL     1       0.312 -16.969  -5.745  1.00  0.00     0.180 A 
ATOM      2  C   UNL     1       1.516 -17.197  -5.056  1.00  0.00     0.208 A 
ATOM      3  C   UNL     1       2.279 -18.331  -5.376  1.00  0.00     0.238 A 
ATOM      4  O   UNL     1       3.382 -18.501  -4.795  1.00  0.00    -0.285 OA
ATOM      5  C   UNL     1       1.821 -19.232  -6.368  1.00  0.00     0.111 A 
ATOM      6  C   UNL     1       2.492 -20.434  -6.744  1.00  0.00     0.134 A 
ATOM      7  C   UNL     1       2.015 -21.182  -7.828  1.00  0.00     0.093 A 
ATOM      8  C   UNL     1       0.854 -20.804  -8.507  1.00  0.00     0.123 A 
ATOM      9  C   UNL     1       0.159 -19.665  -8.109  1.00  0.00     0.094 A 
ATOM     10  C   UNL     1       0.630 -18.880  -7.055  1.00  0.00     0.146 A 
ATOM     11  O   UNL     1      -0.058 -17.797  -6.715  1.00  0.00    -0.452 OA
ENDROOT
BRANCH   1  12
ATOM     12  C   UNL     1      -0.558 -15.808  -5.445  1.00  0.00     0.025 A 
ATOM     13  C   UNL     1      -2.525 -14.828  -4.369  1.00  0.00     0.161 A 
ATOM     14  C   UNL     1      -2.212 -13.586  -4.950  1.00  0.00     0.157 A 
ATOM     15  C   UNL     1      -1.696 -15.939  -4.628  1.00  0.00     0.062 A 
ATOM     16  C   UNL     1      -1.095 -13.464  -5.780  1.00  0.00     0.051 A 
ATOM     17  C   UNL     1      -0.277 -14.567  -6.033  1.00  0.00     0.016 A 
BRANCH  13  18
ATOM     18  O   UNL     1      -3.661 -14.925  -3.549  1.00  0.00    -0.493 OA
ATOM     19  C   UNL     1      -4.725 -15.850  -3.748  1.00  0.00     0.278 C 
ENDBRANCH  13  18
BRANCH  14  20
ATOM     20  O   UNL     1      -3.004 -12.462  -4.718  1.00  0.00    -0.504 OA
ATOM     21  H   UNL     1      -4.016 -12.506  -4.710  1.00  0.00     0.293 HD
ENDBRANCH  14  20
ENDBRANCH   1  12
BRANCH   2  22
ATOM     22  O   UNL     1       1.960 -16.284  -4.096  1.00  0.00    -0.502 OA
ATOM     23  H   UNL     1       1.605 -15.336  -4.041  1.00  0.00     0.293 HD
ENDBRANCH   2  22
BRANCH   6  24
ATOM     24  O   UNL     1       3.606 -20.948  -6.073  1.00  0.00    -0.507 OA
ATOM     25  H   UNL     1       4.386 -21.405  -6.521  1.00  0.00     0.293 HD
ENDBRANCH   6  24
BRANCH   8  26
ATOM     26  O   UNL     1       0.378 -21.562  -9.575  1.00  0.00    -0.508 OA
ATOM     27  H   UNL     1      -0.182 -21.148 -10.312  1.00  0.00     0.293 HD
ENDBRANCH   8  26
TORSDOF 6
ENDMDL
MODEL 8
REMARK VINA RESULT:    -5.188      2.246      7.371
REMARK INTER + INTRA:          -6.533
REMARK INTER:                  -6.227
REMARK INTRA:                  -0.305
REMARK UNBOUND:                -0.131
REMARK SMILES COc1cc(-c2oc3cc(O)cc(O)c3c(=O)c2O)ccc1O
REMARK SMILES IDX 6 1 18 2 16 3 17 4 15 5 13 6 12 7 10 8 9 9 8 10 7 11 5 12
REMARK SMILES IDX 3 13 22 14 4 15 21 16 20 17 2 18 1 19 23 20 19 22 14 24
REMARK SMILES IDX 11 26
REMARK H PARENT 23 21 19 23 14 25 11 27
REMARK Flexibility Score: inf
ROOT
ATOM      1  C   UNL     1      -1.002 -17.775  -7.608  1.00  0.00     0.180 A 
ATOM      2  C   UNL     1      -0.311 -16.628  -8.037  1.00  0.00     0.208 A 
ATOM      3  C   UNL     1      -0.516 -15.416  -7.359  1.00  0.00     0.238 A 
ATOM      4  O   UNL     1       0.146 -14.405  -7.712  1.00  0.00    -0.285 OA
ATOM      5  C   UNL     1      -1.422 -15.361  -6.272  1.00  0.00     0.111 A 
ATOM      6  C   UNL     1      -1.738 -14.178  -5.538  1.00  0.00     0.134 A 
ATOM      7  C   UNL     1      -2.548 -14.267  -4.399  1.00  0.00     0.093 A 
ATOM      8  C   UNL     1      -3.106 -15.487  -4.006  1.00  0.00     0.123 A 
ATOM      9  C   UNL     1      -2.852 -16.636  -4.750  1.00  0.00     0.094 A 
ATOM     10  C   UNL     1      -2.018 -16.585  -5.870  1.00  0.00     0.146 A 
ATOM     11  O   UNL     1      -1.794 -17.705  -6.545  1.00  0.00    -0.452 OA
ENDROOT
BRANCH   1  12
ATOM     12  C   UNL     1      -0.855 -19.082  -8.289  1.00  0.00     0.025 A 
ATOM     13  C   UNL     1       0.455 -21.072  -8.842  1.00  0.00     0.161 A 
ATOM     14  C   UNL     1      -0.603 -21.534  -9.646  1.00  0.00     0.157 A 
ATOM     15  C   UNL     1       0.324 -19.839  -8.172  1.00  0.00     0.062 A 
ATOM     16  C   UNL     1      -1.765 -20.769  -9.780  1.00  0.00     0.051 A 
ATOM     17  C   UNL     1      -1.889 -19.549  -9.113  1.00  0.00     0.016 A 
BRANCH  13  18
ATOM     18  O   UNL     1       1.616 -21.856  -8.736  1.00  0.00    -0.493 OA
ATOM     19  C   UNL     1       1.958 -22.643  -7.600  1.00  0.00     0.278 C 
ENDBRANCH  13  18
BRANCH  14  20
ATOM     20  O   UNL     1      -0.517 -22.749 -10.324  1.00  0.00    -0.504 OA
ATOM     21  H   UNL     1      -1.062 -22.944 -11.156  1.00  0.00     0.293 HD
ENDBRANCH  14  20
ENDBRANCH   1  12
BRANCH   2  22
ATOM     22  O   UNL     1       0.595 -16.709  -9.098  1.00  0.00    -0.502 OA
ATOM     23  H   UNL     1       1.593 -16.593  -8.971  1.00  0.00     0.293 HD
ENDBRANCH   2  22
BRANCH   6  24
ATOM     24  O   UNL     1      -1.307 -12.898  -5.899  1.00  0.00    -0.507 OA
ATOM     25  H   UNL     1      -1.851 -12.238  -6.434  1.00  0.00     0.293 HD
ENDBRANCH   6  24
BRANCH   8  26
ATOM     26  O   UNL     1      -3.924 -15.563  -2.881  1.00  0.00    -0.508 OA
ATOM     27  H   UNL     1      -3.546 -15.474  -1.944  1.00  0.00     0.293 HD
ENDBRANCH   8  26
TORSDOF 6
ENDMDL
