MODEL 1
REMARK VINA RESULT:    -5.546      0.000      0.000
REMARK INTER + INTRA:          -5.968
REMARK INTER:                  -5.870
REMARK INTRA:                  -0.098
REMARK UNBOUND:                -0.098
REMARK SMILES C=C(C)[C@@H]1CC=C(C)C(=O)C1
REMARK SMILES IDX 8 1 7 2 6 3 5 4 4 5 11 6 9 7 10 8 2 9 1 10 3 11
REMARK H PARENT
REMARK Flexibility Score: inf
ROOT
ATOM      1  C   UNL     1      18.796  20.218  32.122  1.00  0.00     0.048 C 
ATOM      2  C   UNL     1      17.724  19.229  31.758  1.00  0.00    -0.012 C 
ATOM      3  C   UNL     1      16.575  19.659  31.209  1.00  0.00    -0.019 C 
ATOM      4  C   UNL     1      15.477  18.710  30.809  1.00  0.00     0.036 C 
ATOM      5  C   UNL     1      15.430  17.487  31.745  1.00  0.00     0.025 C 
ATOM      6  C   UNL     1      16.808  16.800  31.794  1.00  0.00     0.089 C 
ATOM      7  C   UNL     1      17.885  17.797  32.116  1.00  0.00     0.158 C 
ATOM      8  O   UNL     1      18.949  17.397  32.663  1.00  0.00    -0.295 OA
ENDROOT
BRANCH   5   9
ATOM      9  C   UNL     1      14.329  16.514  31.345  1.00  0.00    -0.077 C 
ATOM     10  C   UNL     1      14.306  15.254  31.814  1.00  0.00     0.008 C 
ATOM     11  C   UNL     1      13.236  16.955  30.406  1.00  0.00     0.039 C 
ENDBRANCH   5   9
TORSDOF 1
ENDMDL
MODEL 2
REMARK VINA RESULT:    -5.503      3.401      4.915
REMARK INTER + INTRA:          -5.923
REMARK INTER:                  -5.828
REMARK INTRA:                  -0.094
REMARK UNBOUND:                -0.098
REMARK SMILES C=C(C)[C@@H]1CC=C(C)C(=O)C1
REMARK SMILES IDX 8 1 7 2 6 3 5 4 4 5 11 6 9 7 10 8 2 9 1 10 3 11
REMARK H PARENT
REMARK Flexibility Score: inf
ROOT
ATOM      1  C   UNL     1      17.107  25.355  32.990  1.00  0.00     0.048 C 
ATOM      2  C   UNL     1      17.389  23.924  32.627  1.00  0.00    -0.012 C 
ATOM      3  C   UNL     1      16.993  23.445  31.434  1.00  0.00    -0.019 C 
ATOM      4  C   UNL     1      17.265  22.026  31.012  1.00  0.00     0.036 C 
ATOM      5  C   UNL     1      17.255  21.075  32.225  1.00  0.00     0.025 C 
ATOM      6  C   UNL     1      18.245  21.566  33.298  1.00  0.00     0.089 C 
ATOM      7  C   UNL     1      17.991  23.010  33.630  1.00  0.00     0.158 C 
ATOM      8  O   UNL     1      18.330  23.449  34.763  1.00  0.00    -0.295 OA
ENDROOT
BRANCH   5   9
ATOM      9  C   UNL     1      17.539  19.636  31.814  1.00  0.00    -0.077 C 
ATOM     10  C   UNL     1      18.789  19.142  31.815  1.00  0.00     0.008 C 
ATOM     11  C   UNL     1      16.407  18.734  31.393  1.00  0.00     0.039 C 
ENDBRANCH   5   9
TORSDOF 1
ENDMDL
MODEL 3
REMARK VINA RESULT:    -5.324      3.877      5.680
REMARK INTER + INTRA:          -5.733
REMARK INTER:                  -5.642
REMARK INTRA:                  -0.091
REMARK UNBOUND:                -0.098
REMARK SMILES C=C(C)[C@@H]1CC=C(C)C(=O)C1
REMARK SMILES IDX 8 1 7 2 6 3 5 4 4 5 11 6 9 7 10 8 2 9 1 10 3 11
REMARK H PARENT
REMARK Flexibility Score: inf
ROOT
ATOM      1  C   UNL     1      17.542  25.840  33.237  1.00  0.00     0.048 C 
ATOM      2  C   UNL     1      17.496  24.361  32.969  1.00  0.00    -0.012 C 
ATOM      3  C   UNL     1      18.049  23.505  33.845  1.00  0.00    -0.019 C 
ATOM      4  C   UNL     1      18.016  22.015  33.636  1.00  0.00     0.036 C 
ATOM      5  C   UNL     1      18.065  21.664  32.136  1.00  0.00     0.025 C 
ATOM      6  C   UNL     1      16.934  22.386  31.381  1.00  0.00     0.089 C 
ATOM      7  C   UNL     1      16.953  23.859  31.682  1.00  0.00     0.158 C 
ATOM      8  O   UNL     1      16.466  24.664  30.843  1.00  0.00    -0.295 OA
ENDROOT
BRANCH   5   9
ATOM      9  C   UNL     1      18.022  20.158  31.908  1.00  0.00    -0.077 C 
ATOM     10  C   UNL     1      19.093  19.383  32.152  1.00  0.00     0.008 C 
ATOM     11  C   UNL     1      16.761  19.508  31.399  1.00  0.00     0.039 C 
ENDBRANCH   5   9
TORSDOF 1
ENDMDL
MODEL 4
REMARK VINA RESULT:    -5.194      2.716      5.254
REMARK INTER + INTRA:          -5.595
REMARK INTER:                  -5.504
REMARK INTRA:                  -0.091
REMARK UNBOUND:                -0.098
REMARK SMILES C=C(C)[C@@H]1CC=C(C)C(=O)C1
REMARK SMILES IDX 8 1 7 2 6 3 5 4 4 5 11 6 9 7 10 8 2 9 1 10 3 11
REMARK H PARENT
REMARK Flexibility Score: inf
ROOT
ATOM      1  C   UNL     1      18.035  17.263  31.814  1.00  0.00     0.048 C 
ATOM      2  C   UNL     1      17.995  18.758  31.959  1.00  0.00    -0.012 C 
ATOM      3  C   UNL     1      18.920  19.383  32.709  1.00  0.00    -0.019 C 
ATOM      4  C   UNL     1      18.937  20.879  32.873  1.00  0.00     0.036 C 
ATOM      5  C   UNL     1      17.509  21.459  32.836  1.00  0.00     0.025 C 
ATOM      6  C   UNL     1      16.789  21.021  31.546  1.00  0.00     0.089 C 
ATOM      7  C   UNL     1      16.867  19.529  31.378  1.00  0.00     0.158 C 
ATOM      8  O   UNL     1      15.978  18.939  30.705  1.00  0.00    -0.295 OA
ENDROOT
BRANCH   5   9
ATOM      9  C   UNL     1      17.512  22.974  32.991  1.00  0.00    -0.077 C 
ATOM     10  C   UNL     1      17.818  23.556  34.163  1.00  0.00     0.008 C 
ATOM     11  C   UNL     1      17.168  23.854  31.817  1.00  0.00     0.039 C 
ENDBRANCH   5   9
TORSDOF 1
ENDMDL
MODEL 5
REMARK VINA RESULT:    -5.193      3.938      6.309
REMARK INTER + INTRA:          -5.594
REMARK INTER:                  -5.506
REMARK INTRA:                  -0.088
REMARK UNBOUND:                -0.098
REMARK SMILES C=C(C)[C@@H]1CC=C(C)C(=O)C1
REMARK SMILES IDX 8 1 7 2 6 3 5 4 4 5 11 6 9 7 10 8 2 9 1 10 3 11
REMARK H PARENT
REMARK Flexibility Score: inf
ROOT
ATOM      1  C   UNL     1      18.681  19.388  31.811  1.00  0.00     0.048 C 
ATOM      2  C   UNL     1      18.298  20.779  32.232  1.00  0.00    -0.012 C 
ATOM      3  C   UNL     1      18.612  21.217  33.464  1.00  0.00    -0.019 C 
ATOM      4  C   UNL     1      18.269  22.606  33.930  1.00  0.00     0.036 C 
ATOM      5  C   UNL     1      16.956  23.098  33.289  1.00  0.00     0.025 C 
ATOM      6  C   UNL     1      17.043  23.001  31.754  1.00  0.00     0.089 C 
ATOM      7  C   UNL     1      17.469  21.622  31.334  1.00  0.00     0.158 C 
ATOM      8  O   UNL     1      17.143  21.199  30.192  1.00  0.00    -0.295 OA
ENDROOT
BRANCH   5   9
ATOM      9  C   UNL     1      16.602  24.508  33.744  1.00  0.00    -0.077 C 
ATOM     10  C   UNL     1      15.568  24.736  34.571  1.00  0.00     0.008 C 
ATOM     11  C   UNL     1      17.417  25.682  33.267  1.00  0.00     0.039 C 
ENDBRANCH   5   9
TORSDOF 1
ENDMDL
MODEL 6
REMARK VINA RESULT:    -5.172      4.617      6.331
REMARK INTER + INTRA:          -5.572
REMARK INTER:                  -5.477
REMARK INTRA:                  -0.095
REMARK UNBOUND:                -0.098
REMARK SMILES C=C(C)[C@@H]1CC=C(C)C(=O)C1
REMARK SMILES IDX 8 1 7 2 6 3 5 4 4 5 11 6 9 7 10 8 2 9 1 10 3 11
REMARK H PARENT
REMARK Flexibility Score: inf
ROOT
ATOM      1  C   UNL     1      16.212  25.649  34.956  1.00  0.00     0.048 C 
ATOM      2  C   UNL     1      16.680  24.329  34.412  1.00  0.00    -0.012 C 
ATOM      3  C   UNL     1      17.870  23.832  34.791  1.00  0.00    -0.019 C 
ATOM      4  C   UNL     1      18.379  22.507  34.291  1.00  0.00     0.036 C 
ATOM      5  C   UNL     1      17.894  22.232  32.854  1.00  0.00     0.025 C 
ATOM      6  C   UNL     1      16.359  22.334  32.780  1.00  0.00     0.089 C 
ATOM      7  C   UNL     1      15.887  23.637  33.365  1.00  0.00     0.158 C 
ATOM      8  O   UNL     1      14.787  24.120  32.981  1.00  0.00    -0.295 OA
ENDROOT
BRANCH   5   9
ATOM      9  C   UNL     1      18.394  20.889  32.339  1.00  0.00    -0.077 C 
ATOM     10  C   UNL     1      18.223  20.525  31.056  1.00  0.00     0.008 C 
ATOM     11  C   UNL     1      19.096  19.936  33.272  1.00  0.00     0.039 C 
ENDBRANCH   5   9
TORSDOF 1
ENDMDL
MODEL 7
REMARK VINA RESULT:    -5.154      3.899      5.888
REMARK INTER + INTRA:          -5.553
REMARK INTER:                  -5.465
REMARK INTRA:                  -0.088
REMARK UNBOUND:                -0.098
REMARK SMILES C=C(C)[C@@H]1CC=C(C)C(=O)C1
REMARK SMILES IDX 8 1 7 2 6 3 5 4 4 5 11 6 9 7 10 8 2 9 1 10 3 11
REMARK H PARENT
REMARK Flexibility Score: inf
ROOT
ATOM      1  C   UNL     1      19.093  19.210  32.248  1.00  0.00     0.048 C 
ATOM      2  C   UNL     1      18.337  20.505  32.153  1.00  0.00    -0.012 C 
ATOM      3  C   UNL     1      17.702  20.828  31.013  1.00  0.00    -0.019 C 
ATOM      4  C   UNL     1      16.916  22.104  30.870  1.00  0.00     0.036 C 
ATOM      5  C   UNL     1      17.538  23.237  31.709  1.00  0.00     0.025 C 
ATOM      6  C   UNL     1      17.676  22.797  33.179  1.00  0.00     0.089 C 
ATOM      7  C   UNL     1      18.394  21.480  33.272  1.00  0.00     0.158 C 
ATOM      8  O   UNL     1      19.020  21.194  34.329  1.00  0.00    -0.295 OA
ENDROOT
BRANCH   5   9
ATOM      9  C   UNL     1      16.746  24.532  31.582  1.00  0.00    -0.077 C 
ATOM     10  C   UNL     1      17.249  25.598  30.936  1.00  0.00     0.008 C 
ATOM     11  C   UNL     1      15.370  24.637  32.186  1.00  0.00     0.039 C 
ENDBRANCH   5   9
TORSDOF 1
ENDMDL
MODEL 8
REMARK VINA RESULT:    -5.054      1.988      4.624
REMARK INTER + INTRA:          -5.447
REMARK INTER:                  -5.352
REMARK INTRA:                  -0.095
REMARK UNBOUND:                -0.098
REMARK SMILES C=C(C)[C@@H]1CC=C(C)C(=O)C1
REMARK SMILES IDX 8 1 7 2 6 3 5 4 4 5 11 6 9 7 10 8 2 9 1 10 3 11
REMARK H PARENT
REMARK Flexibility Score: inf
ROOT
ATOM      1  C   UNL     1      14.129  15.273  31.816  1.00  0.00     0.048 C 
ATOM      2  C   UNL     1      15.080  16.414  31.587  1.00  0.00    -0.012 C 
ATOM      3  C   UNL     1      16.266  16.435  32.220  1.00  0.00    -0.019 C 
ATOM      4  C   UNL     1      17.263  17.544  32.014  1.00  0.00     0.036 C 
ATOM      5  C   UNL     1      16.553  18.884  31.741  1.00  0.00     0.025 C 
ATOM      6  C   UNL     1      15.582  18.742  30.553  1.00  0.00     0.089 C 
ATOM      7  C   UNL     1      14.659  17.574  30.762  1.00  0.00     0.158 C 
ATOM      8  O   UNL     1      13.532  17.573  30.196  1.00  0.00    -0.295 OA
ENDROOT
BRANCH   5   9
ATOM      9  C   UNL     1      17.551  20.014  31.520  1.00  0.00    -0.077 C 
ATOM     10  C   UNL     1      18.753  20.013  32.120  1.00  0.00     0.008 C 
ATOM     11  C   UNL     1      17.199  21.164  30.612  1.00  0.00     0.039 C 
ENDBRANCH   5   9
TORSDOF 1
ENDMDL
MODEL 9
REMARK VINA RESULT:    -4.571      5.043      6.886
REMARK INTER + INTRA:          -4.936
REMARK INTER:                  -4.842
REMARK INTRA:                  -0.094
REMARK UNBOUND:                -0.098
REMARK SMILES C=C(C)[C@@H]1CC=C(C)C(=O)C1
REMARK SMILES IDX 8 1 7 2 6 3 5 4 4 5 11 6 9 7 10 8 2 9 1 10 3 11
REMARK H PARENT
REMARK Flexibility Score: inf
ROOT
ATOM      1  C   UNL     1      14.068  26.273  31.192  1.00  0.00     0.048 C 
ATOM      2  C   UNL     1      15.089  25.267  31.643  1.00  0.00    -0.012 C 
ATOM      3  C   UNL     1      16.197  25.061  30.910  1.00  0.00    -0.019 C 
ATOM      4  C   UNL     1      17.260  24.080  31.325  1.00  0.00     0.036 C 
ATOM      5  C   UNL     1      16.647  22.883  32.079  1.00  0.00     0.025 C 
ATOM      6  C   UNL     1      15.809  23.378  33.273  1.00  0.00     0.089 C 
ATOM      7  C   UNL     1      14.816  24.416  32.829  1.00  0.00     0.158 C 
ATOM      8  O   UNL     1      13.761  24.583  33.498  1.00  0.00    -0.295 OA
ENDROOT
BRANCH   5   9
ATOM      9  C   UNL     1      17.713  21.887  32.514  1.00  0.00    -0.077 C 
ATOM     10  C   UNL     1      18.317  21.987  33.711  1.00  0.00     0.008 C 
ATOM     11  C   UNL     1      18.111  20.759  31.597  1.00  0.00     0.039 C 
ENDBRANCH   5   9
TORSDOF 1
ENDMDL
