MODEL 1
REMARK VINA RESULT:    -4.549      0.000      0.000
REMARK INTER + INTRA:         -11.258
REMARK INTER:                  -8.803
REMARK INTRA:                  -2.455
REMARK UNBOUND:                -2.455
REMARK SMILES CCCCCCCCCCCCCCCCCC(=O)[O-]
REMARK SMILES IDX 10 1 11 2 12 3 13 4 14 5 15 6 16 7 17 8 18 9 19 10 20 11
REMARK SMILES IDX 9 12 8 13 7 14 6 15 5 16 4 17 3 18 2 19 1 20
REMARK H PARENT
REMARK Flexibility Score: inf
ROOT
ATOM      1  C   UNL     1      85.637 125.940 128.716  1.00  0.00     0.000 C 
ENDROOT
BRANCH   1   2
ATOM      2  C   UNL     1      86.720 124.944 128.261  1.00  0.00     0.000 C 
BRANCH   2   3
ATOM      3  C   UNL     1      86.818 123.721 129.198  1.00  0.00     0.000 C 
BRANCH   3   4
ATOM      4  C   UNL     1      88.210 123.536 129.826  1.00  0.00     0.000 C 
BRANCH   4   5
ATOM      5  C   UNL     1      88.149 122.960 131.248  1.00  0.00     0.000 C 
BRANCH   5   6
ATOM      6  C   UNL     1      86.704 122.929 131.768  1.00  0.00     0.000 C 
BRANCH   6   7
ATOM      7  C   UNL     1      86.172 121.501 131.963  1.00  0.00     0.006 C 
BRANCH   7   8
ATOM      8  C   UNL     1      87.190 120.428 131.550  1.00  0.00     0.053 C 
BRANCH   8   9
ATOM      9  C   UNL     1      86.822 119.841 130.225  1.00  0.00     0.041 C 
ATOM     10  O   UNL     1      87.630 119.892 129.261  1.00  0.00    -0.550 OA
ATOM     11  O   UNL     1      85.595 119.204 130.065  1.00  0.00    -0.550 OA
ENDBRANCH   8   9
ENDBRANCH   7   8
ENDBRANCH   6   7
ENDBRANCH   5   6
ENDBRANCH   4   5
ENDBRANCH   3   4
ENDBRANCH   2   3
ENDBRANCH   1   2
BRANCH   1  12
ATOM     12  C   UNL     1      84.787 125.390 129.882  1.00  0.00     0.000 C 
BRANCH  12  13
ATOM     13  C   UNL     1      83.303 125.787 129.805  1.00  0.00    -0.000 C 
BRANCH  13  14
ATOM     14  C   UNL     1      82.391 124.617 129.410  1.00  0.00    -0.000 C 
BRANCH  14  15
ATOM     15  C   UNL     1      83.200 123.325 129.234  1.00  0.00    -0.000 C 
BRANCH  15  16
ATOM     16  C   UNL     1      83.071 122.788 127.802  1.00  0.00    -0.000 C 
BRANCH  16  17
ATOM     17  C   UNL     1      82.834 123.900 126.762  1.00  0.00    -0.000 C 
BRANCH  17  18
ATOM     18  C   UNL     1      84.043 124.216 125.863  1.00  0.00    -0.000 C 
BRANCH  18  19
ATOM     19  C   UNL     1      84.714 122.956 125.295  1.00  0.00    -0.003 C 
ATOM     20  C   UNL     1      83.881 122.349 124.168  1.00  0.00     0.004 C 
ENDBRANCH  18  19
ENDBRANCH  17  18
ENDBRANCH  16  17
ENDBRANCH  15  16
ENDBRANCH  14  15
ENDBRANCH  13  14
ENDBRANCH  12  13
ENDBRANCH   1  12
TORSDOF 16
ENDMDL
MODEL 2
REMARK VINA RESULT:    -4.480      1.786      2.946
REMARK INTER + INTRA:         -11.125
REMARK INTER:                  -8.446
REMARK INTRA:                  -2.679
REMARK UNBOUND:                -2.455
REMARK SMILES CCCCCCCCCCCCCCCCCC(=O)[O-]
REMARK SMILES IDX 10 1 11 2 12 3 13 4 14 5 15 6 16 7 17 8 18 9 19 10 20 11
REMARK SMILES IDX 9 12 8 13 7 14 6 15 5 16 4 17 3 18 2 19 1 20
REMARK H PARENT
REMARK Flexibility Score: inf
ROOT
ATOM      1  C   UNL     1      85.058 124.717 127.587  1.00  0.00     0.000 C 
ENDROOT
BRANCH   1   2
ATOM      2  C   UNL     1      85.421 125.738 128.682  1.00  0.00     0.000 C 
BRANCH   2   3
ATOM      3  C   UNL     1      84.250 125.988 129.657  1.00  0.00     0.000 C 
BRANCH   3   4
ATOM      4  C   UNL     1      84.567 125.607 131.113  1.00  0.00     0.000 C 
BRANCH   4   5
ATOM      5  C   UNL     1      85.894 124.846 131.253  1.00  0.00     0.000 C 
BRANCH   5   6
ATOM      6  C   UNL     1      85.699 123.543 132.043  1.00  0.00     0.000 C 
BRANCH   6   7
ATOM      7  C   UNL     1      86.953 122.655 132.043  1.00  0.00     0.006 C 
BRANCH   7   8
ATOM      8  C   UNL     1      87.775 122.789 130.753  1.00  0.00     0.053 C 
BRANCH   8   9
ATOM      9  C   UNL     1      88.619 121.573 130.542  1.00  0.00     0.041 C 
ATOM     10  O   UNL     1      88.380 120.794 129.582  1.00  0.00    -0.550 OA
ATOM     11  O   UNL     1      89.693 121.317 131.388  1.00  0.00    -0.550 OA
ENDBRANCH   8   9
ENDBRANCH   7   8
ENDBRANCH   6   7
ENDBRANCH   5   6
ENDBRANCH   4   5
ENDBRANCH   3   4
ENDBRANCH   2   3
ENDBRANCH   1   2
BRANCH   1  12
ATOM     12  C   UNL     1      83.774 123.929 127.923  1.00  0.00     0.000 C 
BRANCH  12  13
ATOM     13  C   UNL     1      84.038 122.601 128.654  1.00  0.00    -0.000 C 
BRANCH  13  14
ATOM     14  C   UNL     1      85.328 121.909 128.189  1.00  0.00    -0.000 C 
BRANCH  14  15
ATOM     15  C   UNL     1      85.087 120.418 127.925  1.00  0.00    -0.000 C 
BRANCH  15  16
ATOM     16  C   UNL     1      83.637 120.165 127.487  1.00  0.00    -0.000 C 
BRANCH  16  17
ATOM     17  C   UNL     1      83.472 120.118 125.956  1.00  0.00    -0.000 C 
BRANCH  17  18
ATOM     18  C   UNL     1      82.869 121.388 125.328  1.00  0.00    -0.000 C 
BRANCH  18  19
ATOM     19  C   UNL     1      83.675 121.901 124.125  1.00  0.00    -0.003 C 
ATOM     20  C   UNL     1      84.932 122.639 124.579  1.00  0.00     0.004 C 
ENDBRANCH  18  19
ENDBRANCH  17  18
ENDBRANCH  16  17
ENDBRANCH  15  16
ENDBRANCH  14  15
ENDBRANCH  13  14
ENDBRANCH  12  13
ENDBRANCH   1  12
TORSDOF 16
ENDMDL
MODEL 3
REMARK VINA RESULT:    -4.472      2.193      5.659
REMARK INTER + INTRA:         -11.111
REMARK INTER:                  -8.804
REMARK INTRA:                  -2.306
REMARK UNBOUND:                -2.455
REMARK SMILES CCCCCCCCCCCCCCCCCC(=O)[O-]
REMARK SMILES IDX 10 1 11 2 12 3 13 4 14 5 15 6 16 7 17 8 18 9 19 10 20 11
REMARK SMILES IDX 9 12 8 13 7 14 6 15 5 16 4 17 3 18 2 19 1 20
REMARK H PARENT
REMARK Flexibility Score: inf
ROOT
ATOM      1  C   UNL     1      86.503 124.960 128.255  1.00  0.00     0.000 C 
ENDROOT
BRANCH   1   2
ATOM      2  C   UNL     1      85.385 125.956 128.616  1.00  0.00     0.000 C 
BRANCH   2   3
ATOM      3  C   UNL     1      84.561 125.490 129.835  1.00  0.00     0.000 C 
BRANCH   3   4
ATOM      4  C   UNL     1      83.113 125.104 129.490  1.00  0.00     0.000 C 
BRANCH   4   5
ATOM      5  C   UNL     1      83.027 123.895 128.548  1.00  0.00     0.000 C 
BRANCH   5   6
ATOM      6  C   UNL     1      82.078 124.179 127.375  1.00  0.00     0.000 C 
BRANCH   6   7
ATOM      7  C   UNL     1      82.481 123.437 126.090  1.00  0.00     0.006 C 
BRANCH   7   8
ATOM      8  C   UNL     1      83.833 123.907 125.535  1.00  0.00     0.053 C 
BRANCH   8   9
ATOM      9  C   UNL     1      84.409 122.874 124.619  1.00  0.00     0.041 C 
ATOM     10  O   UNL     1      85.606 122.506 124.751  1.00  0.00    -0.550 OA
ATOM     11  O   UNL     1      83.611 122.292 123.639  1.00  0.00    -0.550 OA
ENDBRANCH   8   9
ENDBRANCH   7   8
ENDBRANCH   6   7
ENDBRANCH   5   6
ENDBRANCH   4   5
ENDBRANCH   3   4
ENDBRANCH   2   3
ENDBRANCH   1   2
BRANCH   1  12
ATOM     12  C   UNL     1      86.650 123.837 129.304  1.00  0.00     0.000 C 
BRANCH  12  13
ATOM     13  C   UNL     1      88.070 123.715 129.883  1.00  0.00    -0.000 C 
BRANCH  13  14
ATOM     14  C   UNL     1      88.094 123.069 131.276  1.00  0.00    -0.000 C 
BRANCH  14  15
ATOM     15  C   UNL     1      86.680 122.973 131.861  1.00  0.00    -0.000 C 
BRANCH  15  16
ATOM     16  C   UNL     1      86.333 121.521 132.222  1.00  0.00    -0.000 C 
BRANCH  16  17
ATOM     17  C   UNL     1      87.293 120.498 131.585  1.00  0.00    -0.000 C 
BRANCH  17  18
ATOM     18  C   UNL     1      86.670 119.622 130.483  1.00  0.00    -0.000 C 
BRANCH  18  19
ATOM     19  C   UNL     1      86.966 120.139 129.067  1.00  0.00    -0.003 C 
ATOM     20  C   UNL     1      85.677 120.498 128.331  1.00  0.00     0.004 C 
ENDBRANCH  18  19
ENDBRANCH  17  18
ENDBRANCH  16  17
ENDBRANCH  15  16
ENDBRANCH  14  15
ENDBRANCH  13  14
ENDBRANCH  12  13
ENDBRANCH   1  12
TORSDOF 16
ENDMDL
MODEL 4
REMARK VINA RESULT:    -4.434      1.885      3.312
REMARK INTER + INTRA:         -11.037
REMARK INTER:                  -9.447
REMARK INTRA:                  -1.590
REMARK UNBOUND:                -2.455
REMARK SMILES CCCCCCCCCCCCCCCCCC(=O)[O-]
REMARK SMILES IDX 10 1 11 2 12 3 13 4 14 5 15 6 16 7 17 8 18 9 19 10 20 11
REMARK SMILES IDX 9 12 8 13 7 14 6 15 5 16 4 17 3 18 2 19 1 20
REMARK H PARENT
REMARK Flexibility Score: inf
ROOT
ATOM      1  C   UNL     1      85.100 124.817 127.659  1.00  0.00     0.000 C 
ENDROOT
BRANCH   1   2
ATOM      2  C   UNL     1      85.322 125.802 128.823  1.00  0.00     0.000 C 
BRANCH   2   3
ATOM      3  C   UNL     1      84.332 125.564 129.984  1.00  0.00     0.000 C 
BRANCH   3   4
ATOM      4  C   UNL     1      85.017 125.241 131.322  1.00  0.00     0.000 C 
BRANCH   4   5
ATOM      5  C   UNL     1      86.413 124.626 131.143  1.00  0.00     0.000 C 
BRANCH   5   6
ATOM      6  C   UNL     1      86.598 123.406 132.057  1.00  0.00     0.000 C 
BRANCH   6   7
ATOM      7  C   UNL     1      86.306 122.077 131.342  1.00  0.00     0.006 C 
BRANCH   7   8
ATOM      8  C   UNL     1      87.428 121.046 131.527  1.00  0.00     0.053 C 
BRANCH   8   9
ATOM      9  C   UNL     1      88.683 121.515 130.861  1.00  0.00     0.041 C 
ATOM     10  O   UNL     1      89.805 121.273 131.378  1.00  0.00    -0.550 OA
ATOM     11  O   UNL     1      88.613 122.191 129.647  1.00  0.00    -0.550 OA
ENDBRANCH   8   9
ENDBRANCH   7   8
ENDBRANCH   6   7
ENDBRANCH   5   6
ENDBRANCH   4   5
ENDBRANCH   3   4
ENDBRANCH   2   3
ENDBRANCH   1   2
BRANCH   1  12
ATOM     12  C   UNL     1      84.284 123.579 128.087  1.00  0.00     0.000 C 
BRANCH  12  13
ATOM     13  C   UNL     1      84.975 122.243 127.764  1.00  0.00    -0.000 C 
BRANCH  13  14
ATOM     14  C   UNL     1      84.397 121.557 126.517  1.00  0.00    -0.000 C 
BRANCH  14  15
ATOM     15  C   UNL     1      84.987 122.159 125.236  1.00  0.00    -0.000 C 
BRANCH  15  16
ATOM     16  C   UNL     1      83.874 122.570 124.260  1.00  0.00    -0.000 C 
BRANCH  16  17
ATOM     17  C   UNL     1      82.563 121.793 124.484  1.00  0.00    -0.000 C 
BRANCH  17  18
ATOM     18  C   UNL     1      82.003 121.090 123.234  1.00  0.00    -0.000 C 
BRANCH  18  19
ATOM     19  C   UNL     1      82.914 121.236 122.006  1.00  0.00    -0.003 C 
ATOM     20  C   UNL     1      82.940 119.949 121.184  1.00  0.00     0.004 C 
ENDBRANCH  18  19
ENDBRANCH  17  18
ENDBRANCH  16  17
ENDBRANCH  15  16
ENDBRANCH  14  15
ENDBRANCH  13  14
ENDBRANCH  12  13
ENDBRANCH   1  12
TORSDOF 16
ENDMDL
MODEL 5
REMARK VINA RESULT:    -4.306      1.735      4.080
REMARK INTER + INTRA:         -10.789
REMARK INTER:                  -7.924
REMARK INTRA:                  -2.865
REMARK UNBOUND:                -2.455
REMARK SMILES CCCCCCCCCCCCCCCCCC(=O)[O-]
REMARK SMILES IDX 10 1 11 2 12 3 13 4 14 5 15 6 16 7 17 8 18 9 19 10 20 11
REMARK SMILES IDX 9 12 8 13 7 14 6 15 5 16 4 17 3 18 2 19 1 20
REMARK H PARENT
REMARK Flexibility Score: inf
ROOT
ATOM      1  C   UNL     1      84.523 120.431 126.990  1.00  0.00     0.000 C 
ENDROOT
BRANCH   1   2
ATOM      2  C   UNL     1      84.101 120.263 128.461  1.00  0.00     0.000 C 
BRANCH   2   3
ATOM      3  C   UNL     1      84.885 121.201 129.404  1.00  0.00     0.000 C 
BRANCH   3   4
ATOM      4  C   UNL     1      83.985 122.111 130.257  1.00  0.00     0.000 C 
BRANCH   4   5
ATOM      5  C   UNL     1      84.565 122.383 131.652  1.00  0.00     0.000 C 
BRANCH   5   6
ATOM      6  C   UNL     1      86.018 121.896 131.748  1.00  0.00     0.000 C 
BRANCH   6   7
ATOM      7  C   UNL     1      87.033 123.050 131.739  1.00  0.00     0.006 C 
BRANCH   7   8
ATOM      8  C   UNL     1      88.017 122.963 130.563  1.00  0.00     0.053 C 
BRANCH   8   9
ATOM      9  C   UNL     1      88.688 121.627 130.541  1.00  0.00     0.041 C 
ATOM     10  O   UNL     1      89.526 121.322 131.430  1.00  0.00    -0.550 OA
ATOM     11  O   UNL     1      88.361 120.702 129.555  1.00  0.00    -0.550 OA
ENDBRANCH   8   9
ENDBRANCH   7   8
ENDBRANCH   6   7
ENDBRANCH   5   6
ENDBRANCH   4   5
ENDBRANCH   3   4
ENDBRANCH   2   3
ENDBRANCH   1   2
BRANCH   1  12
ATOM     12  C   UNL     1      83.311 120.540 126.041  1.00  0.00     0.000 C 
BRANCH  12  13
ATOM     13  C   UNL     1      83.052 121.969 125.533  1.00  0.00    -0.000 C 
BRANCH  13  14
ATOM     14  C   UNL     1      82.119 122.771 126.452  1.00  0.00    -0.000 C 
BRANCH  14  15
ATOM     15  C   UNL     1      82.818 124.030 126.981  1.00  0.00    -0.000 C 
BRANCH  15  16
ATOM     16  C   UNL     1      84.225 124.168 126.383  1.00  0.00    -0.000 C 
BRANCH  16  17
ATOM     17  C   UNL     1      85.330 124.237 127.455  1.00  0.00    -0.000 C 
BRANCH  17  18
ATOM     18  C   UNL     1      85.461 125.596 128.165  1.00  0.00    -0.000 C 
BRANCH  18  19
ATOM     19  C   UNL     1      85.203 125.510 129.677  1.00  0.00    -0.003 C 
ATOM     20  C   UNL     1      83.785 125.959 130.021  1.00  0.00     0.004 C 
ENDBRANCH  18  19
ENDBRANCH  17  18
ENDBRANCH  16  17
ENDBRANCH  15  16
ENDBRANCH  14  15
ENDBRANCH  13  14
ENDBRANCH  12  13
ENDBRANCH   1  12
TORSDOF 16
ENDMDL
MODEL 6
REMARK VINA RESULT:    -4.298      2.565      5.520
REMARK INTER + INTRA:         -10.774
REMARK INTER:                  -8.182
REMARK INTRA:                  -2.593
REMARK UNBOUND:                -2.455
REMARK SMILES CCCCCCCCCCCCCCCCCC(=O)[O-]
REMARK SMILES IDX 10 1 11 2 12 3 13 4 14 5 15 6 16 7 17 8 18 9 19 10 20 11
REMARK SMILES IDX 9 12 8 13 7 14 6 15 5 16 4 17 3 18 2 19 1 20
REMARK H PARENT
REMARK Flexibility Score: inf
ROOT
ATOM      1  C   UNL     1      85.599 126.003 128.728  1.00  0.00     0.000 C 
ENDROOT
BRANCH   1   2
ATOM      2  C   UNL     1      86.317 124.735 128.228  1.00  0.00     0.000 C 
BRANCH   2   3
ATOM      3  C   UNL     1      85.407 123.862 127.337  1.00  0.00     0.000 C 
BRANCH   3   4
ATOM      4  C   UNL     1      85.094 122.482 127.940  1.00  0.00     0.000 C 
BRANCH   4   5
ATOM      5  C   UNL     1      83.593 122.159 127.938  1.00  0.00     0.000 C 
BRANCH   5   6
ATOM      6  C   UNL     1      82.794 123.262 127.228  1.00  0.00     0.000 C 
BRANCH   6   7
ATOM      7  C   UNL     1      82.183 122.791 125.899  1.00  0.00     0.006 C 
BRANCH   7   8
ATOM      8  C   UNL     1      82.926 121.590 125.297  1.00  0.00     0.053 C 
BRANCH   8   9
ATOM      9  C   UNL     1      83.773 122.024 124.144  1.00  0.00     0.041 C 
ATOM     10  O   UNL     1      84.963 122.391 124.332  1.00  0.00    -0.550 OA
ATOM     11  O   UNL     1      83.257 121.990 122.852  1.00  0.00    -0.550 OA
ENDBRANCH   8   9
ENDBRANCH   7   8
ENDBRANCH   6   7
ENDBRANCH   5   6
ENDBRANCH   4   5
ENDBRANCH   3   4
ENDBRANCH   2   3
ENDBRANCH   1   2
BRANCH   1  12
ATOM     12  C   UNL     1      84.412 125.675 129.660  1.00  0.00     0.000 C 
BRANCH  12  13
ATOM     13  C   UNL     1      84.835 125.318 131.095  1.00  0.00    -0.000 C 
BRANCH  13  14
ATOM     14  C   UNL     1      84.762 123.811 131.381  1.00  0.00    -0.000 C 
BRANCH  14  15
ATOM     15  C   UNL     1      86.049 123.316 132.052  1.00  0.00    -0.000 C 
BRANCH  15  16
ATOM     16  C   UNL     1      87.243 124.205 131.672  1.00  0.00    -0.000 C 
BRANCH  16  17
ATOM     17  C   UNL     1      88.493 123.395 131.280  1.00  0.00    -0.000 C 
BRANCH  17  18
ATOM     18  C   UNL     1      88.303 121.868 131.274  1.00  0.00    -0.000 C 
BRANCH  18  19
ATOM     19  C   UNL     1      88.038 121.302 129.871  1.00  0.00    -0.003 C 
ATOM     20  C   UNL     1      87.096 120.102 129.930  1.00  0.00     0.004 C 
ENDBRANCH  18  19
ENDBRANCH  17  18
ENDBRANCH  16  17
ENDBRANCH  15  16
ENDBRANCH  14  15
ENDBRANCH  13  14
ENDBRANCH  12  13
ENDBRANCH   1  12
TORSDOF 16
ENDMDL
MODEL 7
REMARK VINA RESULT:    -4.270      3.068      6.186
REMARK INTER + INTRA:         -10.719
REMARK INTER:                  -8.417
REMARK INTRA:                  -2.303
REMARK UNBOUND:                -2.455
REMARK SMILES CCCCCCCCCCCCCCCCCC(=O)[O-]
REMARK SMILES IDX 10 1 11 2 12 3 13 4 14 5 15 6 16 7 17 8 18 9 19 10 20 11
REMARK SMILES IDX 9 12 8 13 7 14 6 15 5 16 4 17 3 18 2 19 1 20
REMARK H PARENT
REMARK Flexibility Score: inf
ROOT
ATOM      1  C   UNL     1      86.670 124.789 130.098  1.00  0.00     0.000 C 
ENDROOT
BRANCH   1   2
ATOM      2  C   UNL     1      86.702 124.603 128.569  1.00  0.00     0.000 C 
BRANCH   2   3
ATOM      3  C   UNL     1      85.305 124.764 127.933  1.00  0.00     0.000 C 
BRANCH   3   4
ATOM      4  C   UNL     1      84.951 123.651 126.932  1.00  0.00     0.000 C 
BRANCH   4   5
ATOM      5  C   UNL     1      84.061 124.145 125.783  1.00  0.00     0.000 C 
BRANCH   5   6
ATOM      6  C   UNL     1      84.357 123.376 124.488  1.00  0.00     0.000 C 
BRANCH   6   7
ATOM      7  C   UNL     1      83.933 121.900 124.562  1.00  0.00     0.006 C 
BRANCH   7   8
ATOM      8  C   UNL     1      82.572 121.641 123.901  1.00  0.00     0.053 C 
BRANCH   8   9
ATOM      9  C   UNL     1      82.754 120.977 122.573  1.00  0.00     0.041 C 
ATOM     10  O   UNL     1      83.040 121.660 121.555  1.00  0.00    -0.550 OA
ATOM     11  O   UNL     1      82.642 119.595 122.467  1.00  0.00    -0.550 OA
ENDBRANCH   8   9
ENDBRANCH   7   8
ENDBRANCH   6   7
ENDBRANCH   5   6
ENDBRANCH   4   5
ENDBRANCH   3   4
ENDBRANCH   2   3
ENDBRANCH   1   2
BRANCH   1  12
ATOM     12  C   UNL     1      87.778 123.984 130.810  1.00  0.00     0.000 C 
BRANCH  12  13
ATOM     13  C   UNL     1      88.277 122.773 130.003  1.00  0.00    -0.000 C 
BRANCH  13  14
ATOM     14  C   UNL     1      88.412 121.502 130.854  1.00  0.00    -0.000 C 
BRANCH  14  15
ATOM     15  C   UNL     1      87.246 120.541 130.596  1.00  0.00    -0.000 C 
BRANCH  15  16
ATOM     16  C   UNL     1      86.507 120.910 129.300  1.00  0.00    -0.000 C 
BRANCH  16  17
ATOM     17  C   UNL     1      84.975 120.873 129.451  1.00  0.00    -0.000 C 
BRANCH  17  18
ATOM     18  C   UNL     1      84.412 121.754 130.582  1.00  0.00    -0.000 C 
BRANCH  18  19
ATOM     19  C   UNL     1      83.280 122.681 130.113  1.00  0.00    -0.003 C 
ATOM     20  C   UNL     1      83.124 123.877 131.049  1.00  0.00     0.004 C 
ENDBRANCH  18  19
ENDBRANCH  17  18
ENDBRANCH  16  17
ENDBRANCH  15  16
ENDBRANCH  14  15
ENDBRANCH  13  14
ENDBRANCH  12  13
ENDBRANCH   1  12
TORSDOF 16
ENDMDL
MODEL 8
REMARK VINA RESULT:    -4.244      1.443      3.077
REMARK INTER + INTRA:         -10.668
REMARK INTER:                  -7.853
REMARK INTRA:                  -2.815
REMARK UNBOUND:                -2.455
REMARK SMILES CCCCCCCCCCCCCCCCCC(=O)[O-]
REMARK SMILES IDX 10 1 11 2 12 3 13 4 14 5 15 6 16 7 17 8 18 9 19 10 20 11
REMARK SMILES IDX 9 12 8 13 7 14 6 15 5 16 4 17 3 18 2 19 1 20
REMARK H PARENT
REMARK Flexibility Score: inf
ROOT
ATOM      1  C   UNL     1      85.724 123.890 128.073  1.00  0.00     0.000 C 
ENDROOT
BRANCH   1   2
ATOM      2  C   UNL     1      87.009 124.538 128.622  1.00  0.00     0.000 C 
BRANCH   2   3
ATOM      3  C   UNL     1      87.115 124.413 130.157  1.00  0.00     0.000 C 
BRANCH   3   4
ATOM      4  C   UNL     1      85.757 124.475 130.876  1.00  0.00     0.000 C 
BRANCH   4   5
ATOM      5  C   UNL     1      85.460 123.211 131.696  1.00  0.00     0.000 C 
BRANCH   5   6
ATOM      6  C   UNL     1      86.755 122.596 132.246  1.00  0.00     0.000 C 
BRANCH   6   7
ATOM      7  C   UNL     1      86.896 121.104 131.906  1.00  0.00     0.006 C 
BRANCH   7   8
ATOM      8  C   UNL     1      86.465 120.781 130.468  1.00  0.00     0.053 C 
BRANCH   8   9
ATOM      9  C   UNL     1      87.662 120.525 129.609  1.00  0.00     0.041 C 
ATOM     10  O   UNL     1      88.695 121.235 129.730  1.00  0.00    -0.550 OA
ATOM     11  O   UNL     1      87.648 119.476 128.695  1.00  0.00    -0.550 OA
ENDBRANCH   8   9
ENDBRANCH   7   8
ENDBRANCH   6   7
ENDBRANCH   5   6
ENDBRANCH   4   5
ENDBRANCH   3   4
ENDBRANCH   2   3
ENDBRANCH   1   2
BRANCH   1  12
ATOM     12  C   UNL     1      84.882 124.876 127.235  1.00  0.00     0.000 C 
BRANCH  12  13
ATOM     13  C   UNL     1      83.888 124.186 126.284  1.00  0.00    -0.000 C 
BRANCH  13  14
ATOM     14  C   UNL     1      84.530 123.054 125.469  1.00  0.00    -0.000 C 
BRANCH  14  15
ATOM     15  C   UNL     1      83.551 121.887 125.284  1.00  0.00    -0.000 C 
BRANCH  15  16
ATOM     16  C   UNL     1      84.096 120.607 125.936  1.00  0.00    -0.000 C 
BRANCH  16  17
ATOM     17  C   UNL     1      84.278 120.740 127.460  1.00  0.00    -0.000 C 
BRANCH  17  18
ATOM     18  C   UNL     1      82.971 120.755 128.271  1.00  0.00    -0.000 C 
BRANCH  18  19
ATOM     19  C   UNL     1      83.005 121.746 129.445  1.00  0.00    -0.003 C 
ATOM     20  C   UNL     1      82.135 122.968 129.159  1.00  0.00     0.004 C 
ENDBRANCH  18  19
ENDBRANCH  17  18
ENDBRANCH  16  17
ENDBRANCH  15  16
ENDBRANCH  14  15
ENDBRANCH  13  14
ENDBRANCH  12  13
ENDBRANCH   1  12
TORSDOF 16
ENDMDL
MODEL 9
REMARK VINA RESULT:    -4.239      2.219      3.673
REMARK INTER + INTRA:         -10.660
REMARK INTER:                  -8.118
REMARK INTRA:                  -2.541
REMARK UNBOUND:                -2.455
REMARK SMILES CCCCCCCCCCCCCCCCCC(=O)[O-]
REMARK SMILES IDX 10 1 11 2 12 3 13 4 14 5 15 6 16 7 17 8 18 9 19 10 20 11
REMARK SMILES IDX 9 12 8 13 7 14 6 15 5 16 4 17 3 18 2 19 1 20
REMARK H PARENT
REMARK Flexibility Score: inf
ROOT
ATOM      1  C   UNL     1      85.615 121.331 128.333  1.00  0.00     0.000 C 
ENDROOT
BRANCH   1   2
ATOM      2  C   UNL     1      86.806 120.692 129.072  1.00  0.00     0.000 C 
BRANCH   2   3
ATOM      3  C   UNL     1      86.405 120.139 130.456  1.00  0.00     0.000 C 
BRANCH   3   4
ATOM      4  C   UNL     1      86.943 120.971 131.632  1.00  0.00     0.000 C 
BRANCH   4   5
ATOM      5  C   UNL     1      87.456 122.352 131.199  1.00  0.00     0.000 C 
BRANCH   5   6
ATOM      6  C   UNL     1      86.770 123.469 131.998  1.00  0.00     0.000 C 
BRANCH   6   7
ATOM      7  C   UNL     1      86.652 124.781 131.207  1.00  0.00     0.006 C 
BRANCH   7   8
ATOM      8  C   UNL     1      85.689 124.670 130.017  1.00  0.00     0.053 C 
BRANCH   8   9
ATOM      9  C   UNL     1      86.353 125.141 128.762  1.00  0.00     0.041 C 
ATOM     10  O   UNL     1      87.259 124.451 128.225  1.00  0.00    -0.550 OA
ATOM     11  O   UNL     1      85.945 126.329 128.164  1.00  0.00    -0.550 OA
ENDBRANCH   8   9
ENDBRANCH   7   8
ENDBRANCH   6   7
ENDBRANCH   5   6
ENDBRANCH   4   5
ENDBRANCH   3   4
ENDBRANCH   2   3
ENDBRANCH   1   2
BRANCH   1  12
ATOM     12  C   UNL     1      84.264 120.720 128.761  1.00  0.00     0.000 C 
BRANCH  12  13
ATOM     13  C   UNL     1      83.272 121.751 129.327  1.00  0.00    -0.000 C 
BRANCH  13  14
ATOM     14  C   UNL     1      82.321 122.314 128.261  1.00  0.00    -0.000 C 
BRANCH  14  15
ATOM     15  C   UNL     1      82.651 123.779 127.949  1.00  0.00    -0.000 C 
BRANCH  15  16
ATOM     16  C   UNL     1      82.798 123.998 126.436  1.00  0.00    -0.000 C 
BRANCH  16  17
ATOM     17  C   UNL     1      84.268 124.030 125.975  1.00  0.00    -0.000 C 
BRANCH  17  18
ATOM     18  C   UNL     1      84.582 123.157 124.746  1.00  0.00    -0.000 C 
BRANCH  18  19
ATOM     19  C   UNL     1      83.905 121.779 124.802  1.00  0.00    -0.003 C 
ATOM     20  C   UNL     1      83.081 121.519 123.543  1.00  0.00     0.004 C 
ENDBRANCH  18  19
ENDBRANCH  17  18
ENDBRANCH  16  17
ENDBRANCH  15  16
ENDBRANCH  14  15
ENDBRANCH  13  14
ENDBRANCH  12  13
ENDBRANCH   1  12
TORSDOF 16
ENDMDL
