MODEL 1
REMARK VINA RESULT:    88.739      0.000      0.000
REMARK INTER + INTRA:          93.927
REMARK INTER:                  93.927
REMARK INTRA:                   0.000
REMARK UNBOUND:                 0.000
REMARK SMILES CC1(C)[C@H](O)CC[C@@]2(C)[C@@H]1CC[C@@]1(C)[C@@H]2C=CC2=C(O)C(=O)C(=O)[C@]21C
REMARK SMILES IDX 1 1 2 2 10 3 11 4 12 5 13 6 15 7 8 8 7 9 6 10 4 11 9 12
REMARK SMILES IDX 16 13 17 14 18 15 19 16 21 17 22 18 23 19 24 20 25 21 26 22
REMARK SMILES IDX 14 23 3 24 5 25 20 27
REMARK H PARENT 5 26 20 28
REMARK Flexibility Score: inf
ROOT
ATOM      1  C   UNL     1      15.647  11.285  25.946  1.00  0.00     0.014 C 
ATOM      2  C   UNL     1      15.366  11.963  24.572  1.00  0.00    -0.006 C 
ATOM      3  C   UNL     1      16.325  11.396  23.443  1.00  0.00     0.004 C 
ATOM      4  C   UNL     1      15.933  11.818  21.986  1.00  0.00     0.005 C 
ATOM      5  C   UNL     1      16.748  12.979  21.407  1.00  0.00     0.009 C 
ATOM      6  C   UNL     1      18.285  12.692  21.283  1.00  0.00    -0.009 C 
ATOM      7  C   UNL     1      18.713  11.582  22.363  1.00  0.00     0.025 C 
ATOM      8  C   UNL     1      17.870  11.600  23.731  1.00  0.00    -0.022 C 
ATOM      9  C   UNL     1      18.146  12.905  24.576  1.00  0.00     0.010 C 
ATOM     10  C   UNL     1      17.029  13.975  24.707  1.00  0.00     0.033 C 
ATOM     11  C   UNL     1      15.552  13.499  24.736  1.00  0.00     0.120 C 
ATOM     12  C   UNL     1      18.401  10.407  24.612  1.00  0.00     0.012 C 
ATOM     13  C   UNL     1      18.763  10.145  21.784  1.00  0.00    -0.022 C 
ATOM     14  C   UNL     1      18.391   9.802  20.552  1.00  0.00     0.005 C 
ATOM     15  C   UNL     1      18.113  10.848  19.589  1.00  0.00     0.012 C 
ATOM     16  C   UNL     1      17.343  10.738  18.510  1.00  0.00     0.171 C 
ATOM     17  C   UNL     1      17.229  12.030  17.873  1.00  0.00     0.264 C 
ATOM     18  O   UNL     1      16.570  12.297  16.834  1.00  0.00    -0.282 OA
ATOM     19  C   UNL     1      18.005  12.964  18.663  1.00  0.00     0.217 C 
ATOM     20  O   UNL     1      18.141  14.188  18.396  1.00  0.00    -0.289 OA
ATOM     21  C   UNL     1      18.666  12.225  19.806  1.00  0.00     0.069 C 
ATOM     22  C   UNL     1      20.193  12.184  19.541  1.00  0.00     0.026 C 
ATOM     23  C   UNL     1      19.048  14.027  21.546  1.00  0.00     0.013 C 
ATOM     24  C   UNL     1      13.874  11.618  24.271  1.00  0.00     0.014 C 
ENDROOT
BRANCH  11  25
ATOM     25  O   UNL     1      14.836  14.200  23.745  1.00  0.00    -0.393 OA
ATOM     26  H   UNL     1      15.409  14.945  23.424  1.00  0.00     0.210 HD
ENDBRANCH  11  25
BRANCH  16  27
ATOM     27  O   UNL     1      16.716   9.567  18.094  1.00  0.00    -0.504 OA
ATOM     28  H   UNL     1      15.721   9.438  18.225  1.00  0.00     0.293 HD
ENDBRANCH  16  27
TORSDOF 2
ENDMDL
MODEL 2
REMARK VINA RESULT:    89.422      2.148      4.011
REMARK INTER + INTRA:          94.650
REMARK INTER:                  94.650
REMARK INTRA:                   0.000
REMARK UNBOUND:                 0.000
REMARK SMILES CC1(C)[C@H](O)CC[C@@]2(C)[C@@H]1CC[C@@]1(C)[C@@H]2C=CC2=C(O)C(=O)C(=O)[C@]21C
REMARK SMILES IDX 1 1 2 2 10 3 11 4 12 5 13 6 15 7 8 8 7 9 6 10 4 11 9 12
REMARK SMILES IDX 16 13 17 14 18 15 19 16 21 17 22 18 23 19 24 20 25 21 26 22
REMARK SMILES IDX 14 23 3 24 5 25 20 27
REMARK H PARENT 5 26 20 28
REMARK Flexibility Score: inf
ROOT
ATOM      1  C   UNL     1      14.994  14.360  24.146  1.00  0.00     0.014 C 
ATOM      2  C   UNL     1      16.121  13.287  24.201  1.00  0.00    -0.006 C 
ATOM      3  C   UNL     1      16.750  13.037  22.766  1.00  0.00     0.004 C 
ATOM      4  C   UNL     1      18.063  12.183  22.772  1.00  0.00     0.005 C 
ATOM      5  C   UNL     1      17.876  10.707  22.405  1.00  0.00     0.009 C 
ATOM      6  C   UNL     1      17.312  10.465  20.962  1.00  0.00    -0.009 C 
ATOM      7  C   UNL     1      16.467  11.748  20.493  1.00  0.00     0.025 C 
ATOM      8  C   UNL     1      15.715  12.539  21.674  1.00  0.00    -0.022 C 
ATOM      9  C   UNL     1      14.553  11.680  22.311  1.00  0.00     0.010 C 
ATOM     10  C   UNL     1      14.719  11.127  23.752  1.00  0.00     0.033 C 
ATOM     11  C   UNL     1      15.520  11.972  24.778  1.00  0.00     0.120 C 
ATOM     12  C   UNL     1      15.007  13.782  21.016  1.00  0.00     0.012 C 
ATOM     13  C   UNL     1      17.280  12.738  19.621  1.00  0.00    -0.022 C 
ATOM     14  C   UNL     1      18.580  12.633  19.353  1.00  0.00     0.005 C 
ATOM     15  C   UNL     1      19.271  11.410  19.709  1.00  0.00     0.012 C 
ATOM     16  C   UNL     1      20.576  11.279  19.925  1.00  0.00     0.171 C 
ATOM     17  C   UNL     1      20.853   9.931  20.366  1.00  0.00     0.264 C 
ATOM     18  O   UNL     1      21.981   9.460  20.670  1.00  0.00    -0.282 OA
ATOM     19  C   UNL     1      19.588   9.228  20.406  1.00  0.00     0.217 C 
ATOM     20  O   UNL     1      19.449   8.021  20.738  1.00  0.00    -0.289 OA
ATOM     21  C   UNL     1      18.487  10.151  19.929  1.00  0.00     0.069 C 
ATOM     22  C   UNL     1      17.985   9.641  18.554  1.00  0.00     0.026 C 
ATOM     23  C   UNL     1      16.399   9.201  21.006  1.00  0.00     0.013 C 
ATOM     24  C   UNL     1      17.176  13.886  25.182  1.00  0.00     0.014 C 
ENDROOT
BRANCH  11  25
ATOM     25  O   UNL     1      16.529  11.162  25.335  1.00  0.00    -0.393 OA
ATOM     26  H   UNL     1      16.946  11.665  26.083  1.00  0.00     0.210 HD
ENDBRANCH  11  25
BRANCH  16  27
ATOM     27  O   UNL     1      21.513  12.299  19.787  1.00  0.00    -0.504 OA
ATOM     28  H   UNL     1      22.491  12.088  19.638  1.00  0.00     0.293 HD
ENDBRANCH  16  27
TORSDOF 2
ENDMDL
MODEL 3
REMARK VINA RESULT:    89.747      2.060      5.388
REMARK INTER + INTRA:          94.993
REMARK INTER:                  94.993
REMARK INTRA:                   0.000
REMARK UNBOUND:                 0.000
REMARK SMILES CC1(C)[C@H](O)CC[C@@]2(C)[C@@H]1CC[C@@]1(C)[C@@H]2C=CC2=C(O)C(=O)C(=O)[C@]21C
REMARK SMILES IDX 1 1 2 2 10 3 11 4 12 5 13 6 15 7 8 8 7 9 6 10 4 11 9 12
REMARK SMILES IDX 16 13 17 14 18 15 19 16 21 17 22 18 23 19 24 20 25 21 26 22
REMARK SMILES IDX 14 23 3 24 5 25 20 27
REMARK H PARENT 5 26 20 28
REMARK Flexibility Score: inf
ROOT
ATOM      1  C   UNL     1      18.645  16.303  18.922  1.00  0.00     0.014 C 
ATOM      2  C   UNL     1      17.608  15.147  18.809  1.00  0.00    -0.006 C 
ATOM      3  C   UNL     1      17.633  14.223  20.099  1.00  0.00     0.004 C 
ATOM      4  C   UNL     1      16.445  13.207  20.192  1.00  0.00     0.005 C 
ATOM      5  C   UNL     1      16.782  11.775  19.762  1.00  0.00     0.009 C 
ATOM      6  C   UNL     1      17.896  11.086  20.624  1.00  0.00    -0.009 C 
ATOM      7  C   UNL     1      18.847  12.209  21.271  1.00  0.00     0.025 C 
ATOM      8  C   UNL     1      19.033  13.538  20.387  1.00  0.00    -0.022 C 
ATOM      9  C   UNL     1      19.836  13.252  19.057  1.00  0.00     0.010 C 
ATOM     10  C   UNL     1      19.093  13.307  17.695  1.00  0.00     0.033 C 
ATOM     11  C   UNL     1      17.929  14.321  17.530  1.00  0.00     0.120 C 
ATOM     12  C   UNL     1      19.937  14.521  21.221  1.00  0.00     0.012 C 
ATOM     13  C   UNL     1      18.458  12.584  22.724  1.00  0.00    -0.022 C 
ATOM     14  C   UNL     1      17.387  12.129  23.372  1.00  0.00     0.005 C 
ATOM     15  C   UNL     1      16.624  11.045  22.788  1.00  0.00     0.012 C 
ATOM     16  C   UNL     1      15.348  10.762  23.031  1.00  0.00     0.171 C 
ATOM     17  C   UNL     1      14.927   9.681  22.169  1.00  0.00     0.264 C 
ATOM     18  O   UNL     1      13.780   9.164  22.124  1.00  0.00    -0.282 OA
ATOM     19  C   UNL     1      16.069   9.314  21.358  1.00  0.00     0.217 C 
ATOM     20  O   UNL     1      16.070   8.396  20.496  1.00  0.00    -0.289 OA
ATOM     21  C   UNL     1      17.259  10.160  21.757  1.00  0.00     0.069 C 
ATOM     22  C   UNL     1      18.291   9.247  22.466  1.00  0.00     0.026 C 
ATOM     23  C   UNL     1      18.723  10.151  19.688  1.00  0.00     0.013 C 
ATOM     24  C   UNL     1      16.235  15.875  18.664  1.00  0.00     0.014 C 
ENDROOT
BRANCH  11  25
ATOM     25  O   UNL     1      16.789  13.626  17.082  1.00  0.00    -0.393 OA
ATOM     26  H   UNL     1      16.277  14.232  16.486  1.00  0.00     0.210 HD
ENDBRANCH  11  25
BRANCH  16  27
ATOM     27  O   UNL     1      14.542  11.437  23.944  1.00  0.00    -0.504 OA
ATOM     28  H   UNL     1      13.736  11.964  23.633  1.00  0.00     0.293 HD
ENDBRANCH  16  27
TORSDOF 2
ENDMDL
MODEL 4
REMARK VINA RESULT:    90.667      1.413      5.845
REMARK INTER + INTRA:          95.967
REMARK INTER:                  95.967
REMARK INTRA:                   0.000
REMARK UNBOUND:                 0.000
REMARK SMILES CC1(C)[C@H](O)CC[C@@]2(C)[C@@H]1CC[C@@]1(C)[C@@H]2C=CC2=C(O)C(=O)C(=O)[C@]21C
REMARK SMILES IDX 1 1 2 2 10 3 11 4 12 5 13 6 15 7 8 8 7 9 6 10 4 11 9 12
REMARK SMILES IDX 16 13 17 14 18 15 19 16 21 17 22 18 23 19 24 20 25 21 26 22
REMARK SMILES IDX 14 23 3 24 5 25 20 27
REMARK H PARENT 5 26 20 28
REMARK Flexibility Score: inf
ROOT
ATOM      1  C   UNL     1      20.035  10.102  19.044  1.00  0.00     0.014 C 
ATOM      2  C   UNL     1      19.194  11.389  19.290  1.00  0.00    -0.006 C 
ATOM      3  C   UNL     1      18.883  11.588  20.833  1.00  0.00     0.004 C 
ATOM      4  C   UNL     1      18.281  12.988  21.199  1.00  0.00     0.005 C 
ATOM      5  C   UNL     1      16.762  13.009  21.392  1.00  0.00     0.009 C 
ATOM      6  C   UNL     1      16.244  12.095  22.557  1.00  0.00    -0.009 C 
ATOM      7  C   UNL     1      17.289  10.899  22.806  1.00  0.00     0.025 C 
ATOM      8  C   UNL     1      18.075  10.396  21.497  1.00  0.00    -0.022 C 
ATOM      9  C   UNL     1      17.111   9.689  20.466  1.00  0.00     0.010 C 
ATOM     10  C   UNL     1      16.781  10.398  19.125  1.00  0.00     0.033 C 
ATOM     11  C   UNL     1      17.877  11.280  18.469  1.00  0.00     0.120 C 
ATOM     12  C   UNL     1      19.082   9.280  21.968  1.00  0.00     0.012 C 
ATOM     13  C   UNL     1      18.290  11.183  23.954  1.00  0.00    -0.022 C 
ATOM     14  C   UNL     1      18.383  12.332  24.622  1.00  0.00     0.005 C 
ATOM     15  C   UNL     1      17.357  13.337  24.434  1.00  0.00     0.012 C 
ATOM     16  C   UNL     1      17.487  14.643  24.644  1.00  0.00     0.171 C 
ATOM     17  C   UNL     1      16.275  15.314  24.233  1.00  0.00     0.264 C 
ATOM     18  O   UNL     1      16.053  16.553  24.282  1.00  0.00    -0.282 OA
ATOM     19  C   UNL     1      15.370  14.297  23.741  1.00  0.00     0.217 C 
ATOM     20  O   UNL     1      14.209  14.520  23.307  1.00  0.00    -0.289 OA
ATOM     21  C   UNL     1      16.016  12.936  23.893  1.00  0.00     0.069 C 
ATOM     22  C   UNL     1      15.257  12.157  24.997  1.00  0.00     0.026 C 
ATOM     23  C   UNL     1      14.854  11.521  22.141  1.00  0.00     0.013 C 
ATOM     24  C   UNL     1      20.089  12.544  18.743  1.00  0.00     0.014 C 
ENDROOT
BRANCH  11  25
ATOM     25  O   UNL     1      17.334  12.556  18.219  1.00  0.00    -0.393 OA
ATOM     26  H   UNL     1      16.848  12.516  17.354  1.00  0.00     0.210 HD
ENDBRANCH  11  25
BRANCH  16  27
ATOM     27  O   UNL     1      18.632  15.260  25.141  1.00  0.00    -0.504 OA
ATOM     28  H   UNL     1      18.581  16.171  25.579  1.00  0.00     0.293 HD
ENDBRANCH  16  27
TORSDOF 2
ENDMDL
MODEL 5
REMARK VINA RESULT:    90.924      1.431      6.006
REMARK INTER + INTRA:          96.239
REMARK INTER:                  96.239
REMARK INTRA:                   0.000
REMARK UNBOUND:                 0.000
REMARK SMILES CC1(C)[C@H](O)CC[C@@]2(C)[C@@H]1CC[C@@]1(C)[C@@H]2C=CC2=C(O)C(=O)C(=O)[C@]21C
REMARK SMILES IDX 1 1 2 2 10 3 11 4 12 5 13 6 15 7 8 8 7 9 6 10 4 11 9 12
REMARK SMILES IDX 16 13 17 14 18 15 19 16 21 17 22 18 23 19 24 20 25 21 26 22
REMARK SMILES IDX 14 23 3 24 5 25 20 27
REMARK H PARENT 5 26 20 28
REMARK Flexibility Score: inf
ROOT
ATOM      1  C   UNL     1      19.303  13.870  17.294  1.00  0.00     0.014 C 
ATOM      2  C   UNL     1      18.003  13.859  18.150  1.00  0.00    -0.006 C 
ATOM      3  C   UNL     1      18.331  13.713  19.695  1.00  0.00     0.004 C 
ATOM      4  C   UNL     1      17.112  13.965  20.646  1.00  0.00     0.005 C 
ATOM      5  C   UNL     1      16.431  12.699  21.174  1.00  0.00     0.009 C 
ATOM      6  C   UNL     1      17.359  11.777  22.040  1.00  0.00    -0.009 C 
ATOM      7  C   UNL     1      18.892  12.013  21.619  1.00  0.00     0.025 C 
ATOM      8  C   UNL     1      19.126  12.395  20.075  1.00  0.00    -0.022 C 
ATOM      9  C   UNL     1      18.773  11.195  19.111  1.00  0.00     0.010 C 
ATOM     10  C   UNL     1      17.515  11.291  18.207  1.00  0.00     0.033 C 
ATOM     11  C   UNL     1      17.103  12.686  17.663  1.00  0.00     0.120 C 
ATOM     12  C   UNL     1      20.670  12.642  19.892  1.00  0.00     0.012 C 
ATOM     13  C   UNL     1      19.637  13.016  22.536  1.00  0.00    -0.022 C 
ATOM     14  C   UNL     1      19.074  13.719  23.518  1.00  0.00     0.005 C 
ATOM     15  C   UNL     1      17.722  13.396  23.924  1.00  0.00     0.012 C 
ATOM     16  C   UNL     1      16.868  14.212  24.534  1.00  0.00     0.171 C 
ATOM     17  C   UNL     1      15.589  13.552  24.665  1.00  0.00     0.264 C 
ATOM     18  O   UNL     1      14.548  14.034  25.185  1.00  0.00    -0.282 OA
ATOM     19  C   UNL     1      15.726  12.238  24.073  1.00  0.00     0.217 C 
ATOM     20  O   UNL     1      14.806  11.378  24.018  1.00  0.00    -0.289 OA
ATOM     21  C   UNL     1      17.150  12.048  23.597  1.00  0.00     0.069 C 
ATOM     22  C   UNL     1      17.832  10.995  24.509  1.00  0.00     0.026 C 
ATOM     23  C   UNL     1      16.948  10.295  21.779  1.00  0.00     0.013 C 
ATOM     24  C   UNL     1      17.328  15.232  17.844  1.00  0.00     0.014 C 
ENDROOT
BRANCH  11  25
ATOM     25  O   UNL     1      15.754  12.916  17.996  1.00  0.00    -0.393 OA
ATOM     26  H   UNL     1      15.566  12.444  18.849  1.00  0.00     0.210 HD
ENDBRANCH  11  25
BRANCH  16  27
ATOM     27  O   UNL     1      17.159  15.512  24.939  1.00  0.00    -0.504 OA
ATOM     28  H   UNL     1      17.705  15.685  25.773  1.00  0.00     0.293 HD
ENDBRANCH  16  27
TORSDOF 2
ENDMDL
