MODEL 1
REMARK VINA RESULT:    -3.485      0.000      0.000
REMARK INTER + INTRA:          -4.859
REMARK INTER:                  -4.708
REMARK INTRA:                  -0.151
REMARK UNBOUND:                -0.151
REMARK SMILES CCCCCCC=CC(=O)[O-]
REMARK SMILES IDX 5 1 6 2 7 3 8 4 9 5 10 6 11 7 4 8 3 9 2 10 1 11
REMARK H PARENT
REMARK Flexibility Score: inf
ROOT
ATOM      1  C   UNL     1      45.214 -23.732  -1.207  1.00  0.00     0.004 C 
ENDROOT
BRANCH   1   2
ATOM      2  C   UNL     1      45.756 -23.350   0.176  1.00  0.00     0.027 C 
BRANCH   2   3
ATOM      3  C   UNL     1      46.125 -24.565   0.980  1.00  0.00    -0.025 C 
ATOM      4  C   UNL     1      45.207 -25.464   1.352  1.00  0.00     0.020 C 
BRANCH   4   5
ATOM      5  C   UNL     1      45.543 -26.641   2.171  1.00  0.00     0.064 C 
ATOM      6  O   UNL     1      45.315 -27.809   1.758  1.00  0.00    -0.545 OA
ATOM      7  O   UNL     1      46.124 -26.459   3.419  1.00  0.00    -0.545 OA
ENDBRANCH   4   5
ENDBRANCH   2   3
ENDBRANCH   1   2
BRANCH   1   8
ATOM      8  C   UNL     1      46.077 -24.802  -1.893  1.00  0.00     0.000 C 
BRANCH   8   9
ATOM      9  C   UNL     1      45.384 -25.341  -3.154  1.00  0.00    -0.000 C 
BRANCH   9  10
ATOM     10  C   UNL     1      46.118 -24.947  -4.445  1.00  0.00    -0.003 C 
ATOM     11  C   UNL     1      45.162 -24.632  -5.596  1.00  0.00     0.004 C 
ENDBRANCH   9  10
ENDBRANCH   8   9
ENDBRANCH   1   8
TORSDOF 6
ENDMDL
MODEL 2
REMARK VINA RESULT:    -2.850      3.375      7.143
REMARK INTER + INTRA:          -4.000
REMARK INTER:                  -3.731
REMARK INTRA:                  -0.270
REMARK UNBOUND:                -0.151
REMARK SMILES CCCCCCC=CC(=O)[O-]
REMARK SMILES IDX 5 1 6 2 7 3 8 4 9 5 10 6 11 7 4 8 3 9 2 10 1 11
REMARK H PARENT
REMARK Flexibility Score: inf
ROOT
ATOM      1  C   UNL     1      45.247 -26.502   3.705  1.00  0.00     0.004 C 
ENDROOT
BRANCH   1   2
ATOM      2  C   UNL     1      45.957 -27.288   2.597  1.00  0.00     0.027 C 
BRANCH   2   3
ATOM      3  C   UNL     1      46.125 -26.462   1.353  1.00  0.00    -0.025 C 
ATOM      4  C   UNL     1      45.339 -25.410   1.099  1.00  0.00     0.020 C 
BRANCH   4   5
ATOM      5  C   UNL     1      45.465 -24.611  -0.132  1.00  0.00     0.064 C 
ATOM      6  O   UNL     1      45.421 -25.154  -1.268  1.00  0.00    -0.545 OA
ATOM      7  O   UNL     1      45.633 -23.236  -0.038  1.00  0.00    -0.545 OA
ENDBRANCH   4   5
ENDBRANCH   2   3
ENDBRANCH   1   2
BRANCH   1   8
ATOM      8  C   UNL     1      46.125 -26.337   4.954  1.00  0.00     0.000 C 
BRANCH   8   9
ATOM      9  C   UNL     1      46.098 -27.608   5.816  1.00  0.00    -0.000 C 
BRANCH   9  10
ATOM     10  C   UNL     1      46.007 -27.301   7.319  1.00  0.00    -0.003 C 
ATOM     11  C   UNL     1      46.007 -25.801   7.617  1.00  0.00     0.004 C 
ENDBRANCH   9  10
ENDBRANCH   8   9
ENDBRANCH   1   8
TORSDOF 6
ENDMDL
MODEL 3
REMARK VINA RESULT:    -2.701      2.928      4.528
REMARK INTER + INTRA:          -3.799
REMARK INTER:                  -3.637
REMARK INTRA:                  -0.163
REMARK UNBOUND:                -0.151
REMARK SMILES CCCCCCC=CC(=O)[O-]
REMARK SMILES IDX 5 1 6 2 7 3 8 4 9 5 10 6 11 7 4 8 3 9 2 10 1 11
REMARK H PARENT
REMARK Flexibility Score: inf
ROOT
ATOM      1  C   UNL     1      45.127 -26.625   2.389  1.00  0.00     0.004 C 
ENDROOT
BRANCH   1   2
ATOM      2  C   UNL     1      46.125 -26.141   3.448  1.00  0.00     0.027 C 
BRANCH   2   3
ATOM      3  C   UNL     1      46.100 -27.014   4.671  1.00  0.00    -0.025 C 
ATOM      4  C   UNL     1      46.083 -26.494   5.904  1.00  0.00     0.020 C 
BRANCH   4   5
ATOM      5  C   UNL     1      46.096 -27.334   7.113  1.00  0.00     0.064 C 
ATOM      6  O   UNL     1      46.099 -26.820   8.263  1.00  0.00    -0.545 OA
ATOM      7  O   UNL     1      46.103 -28.716   6.983  1.00  0.00    -0.545 OA
ENDBRANCH   4   5
ENDBRANCH   2   3
ENDBRANCH   1   2
BRANCH   1   8
ATOM      8  C   UNL     1      45.754 -26.695   0.989  1.00  0.00     0.000 C 
BRANCH   8   9
ATOM      9  C   UNL     1      46.089 -25.290   0.467  1.00  0.00    -0.000 C 
BRANCH   9  10
ATOM     10  C   UNL     1      45.467 -25.009  -0.910  1.00  0.00    -0.003 C 
ATOM     11  C   UNL     1      45.990 -23.719  -1.543  1.00  0.00     0.004 C 
ENDBRANCH   9  10
ENDBRANCH   8   9
ENDBRANCH   1   8
TORSDOF 6
ENDMDL
MODEL 4
REMARK VINA RESULT:    -2.400      2.263      3.728
REMARK INTER + INTRA:          -3.393
REMARK INTER:                  -3.215
REMARK INTRA:                  -0.177
REMARK UNBOUND:                -0.151
REMARK SMILES CCCCCCC=CC(=O)[O-]
REMARK SMILES IDX 5 1 6 2 7 3 8 4 9 5 10 6 11 7 4 8 3 9 2 10 1 11
REMARK H PARENT
REMARK Flexibility Score: inf
ROOT
ATOM      1  C   UNL     1      46.054 -24.493  -4.332  1.00  0.00     0.004 C 
ENDROOT
BRANCH   1   2
ATOM      2  C   UNL     1      46.034 -25.740  -3.439  1.00  0.00     0.027 C 
BRANCH   2   3
ATOM      3  C   UNL     1      46.125 -25.378  -1.983  1.00  0.00    -0.025 C 
ATOM      4  C   UNL     1      45.378 -24.401  -1.456  1.00  0.00     0.020 C 
BRANCH   4   5
ATOM      5  C   UNL     1      45.480 -24.008  -0.040  1.00  0.00     0.064 C 
ATOM      6  O   UNL     1      45.684 -22.810   0.291  1.00  0.00    -0.545 OA
ATOM      7  O   UNL     1      45.346 -24.976   0.947  1.00  0.00    -0.545 OA
ENDBRANCH   4   5
ENDBRANCH   2   3
ENDBRANCH   1   2
BRANCH   1   8
ATOM      8  C   UNL     1      46.125 -24.850  -5.824  1.00  0.00     0.000 C 
BRANCH   8   9
ATOM      9  C   UNL     1      45.737 -23.646  -6.696  1.00  0.00    -0.000 C 
BRANCH   9  10
ATOM     10  C   UNL     1      46.119 -23.839  -8.172  1.00  0.00    -0.003 C 
ATOM     11  C   UNL     1      45.848 -25.258  -8.673  1.00  0.00     0.004 C 
ENDBRANCH   9  10
ENDBRANCH   8   9
ENDBRANCH   1   8
TORSDOF 6
ENDMDL
MODEL 5
REMARK VINA RESULT:    -1.783      4.429      8.541
REMARK INTER + INTRA:          -2.559
REMARK INTER:                  -2.310
REMARK INTRA:                  -0.248
REMARK UNBOUND:                -0.151
REMARK SMILES CCCCCCC=CC(=O)[O-]
REMARK SMILES IDX 5 1 6 2 7 3 8 4 9 5 10 6 11 7 4 8 3 9 2 10 1 11
REMARK H PARENT
REMARK Flexibility Score: inf
ROOT
ATOM      1  C   UNL     1      45.640 -26.380   6.064  1.00  0.00     0.004 C 
ENDROOT
BRANCH   1   2
ATOM      2  C   UNL     1      46.110 -27.450   5.071  1.00  0.00     0.027 C 
BRANCH   2   3
ATOM      3  C   UNL     1      45.679 -27.129   3.667  1.00  0.00    -0.025 C 
ATOM      4  C   UNL     1      46.125 -26.041   3.029  1.00  0.00     0.020 C 
BRANCH   4   5
ATOM      5  C   UNL     1      45.686 -25.691   1.668  1.00  0.00     0.064 C 
ATOM      6  O   UNL     1      45.058 -24.623   1.440  1.00  0.00    -0.545 OA
ATOM      7  O   UNL     1      45.969 -26.553   0.617  1.00  0.00    -0.545 OA
ENDBRANCH   4   5
ENDBRANCH   2   3
ENDBRANCH   1   2
BRANCH   1   8
ATOM      8  C   UNL     1      45.858 -26.806   7.523  1.00  0.00     0.000 C 
BRANCH   8   9
ATOM      9  C   UNL     1      46.119 -28.316   7.621  1.00  0.00    -0.000 C 
BRANCH   9  10
ATOM     10  C   UNL     1      45.515 -28.938   8.890  1.00  0.00    -0.003 C 
ATOM     11  C   UNL     1      46.063 -30.335   9.183  1.00  0.00     0.004 C 
ENDBRANCH   9  10
ENDBRANCH   8   9
ENDBRANCH   1   8
TORSDOF 6
ENDMDL
