MODEL 1
REMARK VINA RESULT:    -3.950      0.000      0.000
REMARK INTER + INTRA:          -9.402
REMARK INTER:                  -7.645
REMARK INTRA:                  -1.758
REMARK UNBOUND:                -1.758
REMARK SMILES CCCCCCCCCCCCCCCCCC(=O)[O-]
REMARK SMILES IDX 10 1 11 2 12 3 13 4 14 5 15 6 16 7 17 8 18 9 19 10 20 11
REMARK SMILES IDX 9 12 8 13 7 14 6 15 5 16 4 17 3 18 2 19 1 20
REMARK H PARENT
REMARK Flexibility Score: inf
ROOT
ATOM      1  C   UNL     1     -96.559 149.188 236.716  1.00  0.00     0.000 C 
ENDROOT
BRANCH   1   2
ATOM      2  C   UNL     1     -97.231 150.058 235.643  1.00  0.00     0.000 C 
BRANCH   2   3
ATOM      3  C   UNL     1     -96.335 150.285 234.417  1.00  0.00     0.000 C 
BRANCH   3   4
ATOM      4  C   UNL     1     -95.868 151.746 234.341  1.00  0.00     0.000 C 
BRANCH   4   5
ATOM      5  C   UNL     1     -96.249 152.431 233.014  1.00  0.00     0.000 C 
BRANCH   5   6
ATOM      6  C   UNL     1     -97.566 153.227 233.049  1.00  0.00     0.000 C 
BRANCH   6   7
ATOM      7  C   UNL     1     -97.957 153.675 234.468  1.00  0.00     0.006 C 
BRANCH   7   8
ATOM      8  C   UNL     1     -97.357 155.041 234.828  1.00  0.00     0.053 C 
BRANCH   8   9
ATOM      9  C   UNL     1     -98.232 156.167 234.367  1.00  0.00     0.041 C 
ATOM     10  O   UNL     1     -99.483 156.028 234.341  1.00  0.00    -0.550 OA
ATOM     11  O   UNL     1     -97.662 157.357 233.935  1.00  0.00    -0.550 OA
ENDBRANCH   8   9
ENDBRANCH   7   8
ENDBRANCH   6   7
ENDBRANCH   5   6
ENDBRANCH   4   5
ENDBRANCH   3   4
ENDBRANCH   2   3
ENDBRANCH   1   2
BRANCH   1  12
ATOM     12  C   UNL     1     -95.066 149.504 236.886  1.00  0.00     0.000 C 
BRANCH  12  13
ATOM     13  C   UNL     1     -94.402 148.520 237.856  1.00  0.00    -0.000 C 
BRANCH  13  14
ATOM     14  C   UNL     1     -94.437 149.053 239.293  1.00  0.00    -0.000 C 
BRANCH  14  15
ATOM     15  C   UNL     1     -95.248 148.126 240.206  1.00  0.00    -0.000 C 
BRANCH  15  16
ATOM     16  C   UNL     1     -96.581 148.770 240.603  1.00  0.00    -0.000 C 
BRANCH  16  17
ATOM     17  C   UNL     1     -96.543 150.290 240.386  1.00  0.00    -0.000 C 
BRANCH  17  18
ATOM     18  C   UNL     1     -97.944 150.923 240.378  1.00  0.00    -0.000 C 
BRANCH  18  19
ATOM     19  C   UNL     1     -98.891 150.248 239.376  1.00  0.00    -0.003 C 
ATOM     20  C   UNL     1     -99.481 151.268 238.405  1.00  0.00     0.004 C 
ENDBRANCH  18  19
ENDBRANCH  17  18
ENDBRANCH  16  17
ENDBRANCH  15  16
ENDBRANCH  14  15
ENDBRANCH  13  14
ENDBRANCH  12  13
ENDBRANCH   1  12
TORSDOF 16
ENDMDL
MODEL 2
REMARK VINA RESULT:    -3.867      0.908      1.802
REMARK INTER + INTRA:          -9.242
REMARK INTER:                  -7.237
REMARK INTRA:                  -2.006
REMARK UNBOUND:                -1.758
REMARK SMILES CCCCCCCCCCCCCCCCCC(=O)[O-]
REMARK SMILES IDX 10 1 11 2 12 3 13 4 14 5 15 6 16 7 17 8 18 9 19 10 20 11
REMARK SMILES IDX 9 12 8 13 7 14 6 15 5 16 4 17 3 18 2 19 1 20
REMARK H PARENT
REMARK Flexibility Score: inf
ROOT
ATOM      1  C   UNL     1     -94.602 148.425 236.798  1.00  0.00     0.000 C 
ENDROOT
BRANCH   1   2
ATOM      2  C   UNL     1     -95.420 149.723 236.718  1.00  0.00     0.000 C 
BRANCH   2   3
ATOM      3  C   UNL     1     -96.835 149.499 236.166  1.00  0.00     0.000 C 
BRANCH   3   4
ATOM      4  C   UNL     1     -96.948 150.009 234.722  1.00  0.00     0.000 C 
BRANCH   4   5
ATOM      5  C   UNL     1     -95.804 150.963 234.329  1.00  0.00     0.000 C 
BRANCH   5   6
ATOM      6  C   UNL     1     -96.235 152.415 234.053  1.00  0.00     0.000 C 
BRANCH   6   7
ATOM      7  C   UNL     1     -97.762 152.601 234.078  1.00  0.00     0.006 C 
BRANCH   7   8
ATOM      8  C   UNL     1     -98.179 153.844 234.876  1.00  0.00     0.053 C 
BRANCH   8   9
ATOM      9  C   UNL     1     -98.144 155.080 234.031  1.00  0.00     0.041 C 
ATOM     10  O   UNL     1     -97.954 156.206 234.562  1.00  0.00    -0.550 OA
ATOM     11  O   UNL     1     -98.354 154.991 232.661  1.00  0.00    -0.550 OA
ENDBRANCH   8   9
ENDBRANCH   7   8
ENDBRANCH   6   7
ENDBRANCH   5   6
ENDBRANCH   4   5
ENDBRANCH   3   4
ENDBRANCH   2   3
ENDBRANCH   1   2
BRANCH   1  12
ATOM     12  C   UNL     1     -93.880 148.262 238.143  1.00  0.00     0.000 C 
BRANCH  12  13
ATOM     13  C   UNL     1     -94.601 149.037 239.252  1.00  0.00    -0.000 C 
BRANCH  13  14
ATOM     14  C   UNL     1     -95.461 148.101 240.110  1.00  0.00    -0.000 C 
BRANCH  14  15
ATOM     15  C   UNL     1     -96.642 148.855 240.732  1.00  0.00    -0.000 C 
BRANCH  15  16
ATOM     16  C   UNL     1     -96.589 150.347 240.385  1.00  0.00    -0.000 C 
BRANCH  16  17
ATOM     17  C   UNL     1     -98.003 150.937 240.277  1.00  0.00    -0.000 C 
BRANCH  17  18
ATOM     18  C   UNL     1     -98.795 150.365 239.090  1.00  0.00    -0.000 C 
BRANCH  18  19
ATOM     19  C   UNL     1     -99.317 151.459 238.148  1.00  0.00    -0.003 C 
ATOM     20  C   UNL     1    -100.608 151.023 237.462  1.00  0.00     0.004 C 
ENDBRANCH  18  19
ENDBRANCH  17  18
ENDBRANCH  16  17
ENDBRANCH  15  16
ENDBRANCH  14  15
ENDBRANCH  13  14
ENDBRANCH  12  13
ENDBRANCH   1  12
TORSDOF 16
ENDMDL
MODEL 3
REMARK VINA RESULT:    -3.802      2.068      2.581
REMARK INTER + INTRA:          -9.115
REMARK INTER:                  -6.940
REMARK INTRA:                  -2.176
REMARK UNBOUND:                -1.758
REMARK SMILES CCCCCCCCCCCCCCCCCC(=O)[O-]
REMARK SMILES IDX 10 1 11 2 12 3 13 4 14 5 15 6 16 7 17 8 18 9 19 10 20 11
REMARK SMILES IDX 9 12 8 13 7 14 6 15 5 16 4 17 3 18 2 19 1 20
REMARK H PARENT
REMARK Flexibility Score: inf
ROOT
ATOM      1  C   UNL     1     -96.680 149.400 235.959  1.00  0.00     0.000 C 
ENDROOT
BRANCH   1   2
ATOM      2  C   UNL     1     -96.547 149.925 234.521  1.00  0.00     0.000 C 
BRANCH   2   3
ATOM      3  C   UNL     1     -95.792 151.259 234.443  1.00  0.00     0.000 C 
BRANCH   3   4
ATOM      4  C   UNL     1     -95.923 151.884 233.046  1.00  0.00     0.000 C 
BRANCH   4   5
ATOM      5  C   UNL     1     -97.006 152.978 232.975  1.00  0.00     0.000 C 
BRANCH   5   6
ATOM      6  C   UNL     1     -97.309 153.678 234.313  1.00  0.00     0.000 C 
BRANCH   6   7
ATOM      7  C   UNL     1     -98.807 153.675 234.664  1.00  0.00     0.006 C 
BRANCH   7   8
ATOM      8  C   UNL     1     -99.145 152.639 235.745  1.00  0.00     0.053 C 
BRANCH   8   9
ATOM      9  C   UNL     1    -100.039 151.560 235.214  1.00  0.00     0.041 C 
ATOM     10  O   UNL     1    -101.035 151.177 235.883  1.00  0.00    -0.550 OA
ATOM     11  O   UNL     1     -99.753 150.956 233.997  1.00  0.00    -0.550 OA
ENDBRANCH   8   9
ENDBRANCH   7   8
ENDBRANCH   6   7
ENDBRANCH   5   6
ENDBRANCH   4   5
ENDBRANCH   3   4
ENDBRANCH   2   3
ENDBRANCH   1   2
BRANCH   1  12
ATOM     12  C   UNL     1     -95.416 149.644 236.797  1.00  0.00     0.000 C 
BRANCH  12  13
ATOM     13  C   UNL     1     -94.526 148.395 236.824  1.00  0.00    -0.000 C 
BRANCH  13  14
ATOM     14  C   UNL     1     -93.780 148.279 238.159  1.00  0.00    -0.000 C 
BRANCH  14  15
ATOM     15  C   UNL     1     -94.483 149.087 239.256  1.00  0.00    -0.000 C 
BRANCH  15  16
ATOM     16  C   UNL     1     -95.249 148.166 240.213  1.00  0.00    -0.000 C 
BRANCH  16  17
ATOM     17  C   UNL     1     -96.576 148.806 240.647  1.00  0.00    -0.000 C 
BRANCH  17  18
ATOM     18  C   UNL     1     -96.641 150.309 240.329  1.00  0.00    -0.000 C 
BRANCH  18  19
ATOM     19  C   UNL     1     -98.079 150.847 240.314  1.00  0.00    -0.003 C 
ATOM     20  C   UNL     1     -98.698 150.720 238.925  1.00  0.00     0.004 C 
ENDBRANCH  18  19
ENDBRANCH  17  18
ENDBRANCH  16  17
ENDBRANCH  15  16
ENDBRANCH  14  15
ENDBRANCH  13  14
ENDBRANCH  12  13
ENDBRANCH   1  12
TORSDOF 16
ENDMDL
MODEL 4
REMARK VINA RESULT:    -3.759      1.803      5.462
REMARK INTER + INTRA:          -9.033
REMARK INTER:                  -6.883
REMARK INTRA:                  -2.150
REMARK UNBOUND:                -1.758
REMARK SMILES CCCCCCCCCCCCCCCCCC(=O)[O-]
REMARK SMILES IDX 10 1 11 2 12 3 13 4 14 5 15 6 16 7 17 8 18 9 19 10 20 11
REMARK SMILES IDX 9 12 8 13 7 14 6 15 5 16 4 17 3 18 2 19 1 20
REMARK H PARENT
REMARK Flexibility Score: inf
ROOT
ATOM      1  C   UNL     1     -94.472 149.041 239.190  1.00  0.00     0.000 C 
ENDROOT
BRANCH   1   2
ATOM      2  C   UNL     1     -95.270 148.263 240.248  1.00  0.00     0.000 C 
BRANCH   2   3
ATOM      3  C   UNL     1     -96.680 148.831 240.463  1.00  0.00     0.000 C 
BRANCH   3   4
ATOM      4  C   UNL     1     -96.677 150.363 240.363  1.00  0.00     0.000 C 
BRANCH   4   5
ATOM      5  C   UNL     1     -98.082 150.956 240.147  1.00  0.00     0.000 C 
BRANCH   5   6
ATOM      6  C   UNL     1     -98.866 150.352 238.967  1.00  0.00     0.000 C 
BRANCH   6   7
ATOM      7  C   UNL     1    -100.010 151.259 238.482  1.00  0.00     0.006 C 
BRANCH   7   8
ATOM      8  C   UNL     1     -99.610 152.088 237.254  1.00  0.00     0.053 C 
BRANCH   8   9
ATOM      9  C   UNL     1    -100.473 151.772 236.070  1.00  0.00     0.041 C 
ATOM     10  O   UNL     1    -100.628 152.623 235.154  1.00  0.00    -0.550 OA
ATOM     11  O   UNL     1    -101.131 150.552 235.996  1.00  0.00    -0.550 OA
ENDBRANCH   8   9
ENDBRANCH   7   8
ENDBRANCH   6   7
ENDBRANCH   5   6
ENDBRANCH   4   5
ENDBRANCH   3   4
ENDBRANCH   2   3
ENDBRANCH   1   2
BRANCH   1  12
ATOM     12  C   UNL     1     -93.879 148.129 238.106  1.00  0.00     0.000 C 
BRANCH  12  13
ATOM     13  C   UNL     1     -94.556 148.371 236.752  1.00  0.00    -0.000 C 
BRANCH  13  14
ATOM     14  C   UNL     1     -95.431 149.629 236.790  1.00  0.00    -0.000 C 
BRANCH  14  15
ATOM     15  C   UNL     1     -96.807 149.363 236.167  1.00  0.00    -0.000 C 
BRANCH  15  16
ATOM     16  C   UNL     1     -97.129 150.396 235.081  1.00  0.00    -0.000 C 
BRANCH  16  17
ATOM     17  C   UNL     1     -95.867 150.780 234.296  1.00  0.00    -0.000 C 
BRANCH  17  18
ATOM     18  C   UNL     1     -95.931 152.209 233.732  1.00  0.00    -0.000 C 
BRANCH  18  19
ATOM     19  C   UNL     1     -97.197 152.960 234.170  1.00  0.00    -0.003 C 
ATOM     20  C   UNL     1     -97.901 153.595 232.975  1.00  0.00     0.004 C 
ENDBRANCH  18  19
ENDBRANCH  17  18
ENDBRANCH  16  17
ENDBRANCH  15  16
ENDBRANCH  14  15
ENDBRANCH  13  14
ENDBRANCH  12  13
ENDBRANCH   1  12
TORSDOF 16
ENDMDL
MODEL 5
REMARK VINA RESULT:    -3.759      2.247      3.450
REMARK INTER + INTRA:          -9.033
REMARK INTER:                  -6.810
REMARK INTRA:                  -2.223
REMARK UNBOUND:                -1.758
REMARK SMILES CCCCCCCCCCCCCCCCCC(=O)[O-]
REMARK SMILES IDX 10 1 11 2 12 3 13 4 14 5 15 6 16 7 17 8 18 9 19 10 20 11
REMARK SMILES IDX 9 12 8 13 7 14 6 15 5 16 4 17 3 18 2 19 1 20
REMARK H PARENT
REMARK Flexibility Score: inf
ROOT
ATOM      1  C   UNL     1     -93.627 147.425 237.803  1.00  0.00     0.000 C 
ENDROOT
BRANCH   1   2
ATOM      2  C   UNL     1     -93.403 146.976 236.351  1.00  0.00     0.000 C 
BRANCH   2   3
ATOM      3  C   UNL     1     -94.691 147.003 235.516  1.00  0.00     0.000 C 
BRANCH   3   4
ATOM      4  C   UNL     1     -94.601 148.054 234.400  1.00  0.00     0.000 C 
BRANCH   4   5
ATOM      5  C   UNL     1     -95.860 148.936 234.300  1.00  0.00     0.000 C 
BRANCH   5   6
ATOM      6  C   UNL     1     -95.702 150.358 234.867  1.00  0.00     0.000 C 
BRANCH   6   7
ATOM      7  C   UNL     1     -96.789 151.326 234.369  1.00  0.00     0.006 C 
BRANCH   7   8
ATOM      8  C   UNL     1     -96.198 152.502 233.580  1.00  0.00     0.053 C 
BRANCH   8   9
ATOM      9  C   UNL     1     -96.416 152.344 232.107  1.00  0.00     0.041 C 
ATOM     10  O   UNL     1     -97.022 153.236 231.456  1.00  0.00    -0.550 OA
ATOM     11  O   UNL     1     -95.979 151.196 231.459  1.00  0.00    -0.550 OA
ENDBRANCH   8   9
ENDBRANCH   7   8
ENDBRANCH   6   7
ENDBRANCH   5   6
ENDBRANCH   4   5
ENDBRANCH   3   4
ENDBRANCH   2   3
ENDBRANCH   1   2
BRANCH   1  12
ATOM     12  C   UNL     1     -94.242 148.829 237.900  1.00  0.00     0.000 C 
BRANCH  12  13
ATOM     13  C   UNL     1     -94.496 149.217 239.362  1.00  0.00    -0.000 C 
BRANCH  13  14
ATOM     14  C   UNL     1     -95.418 148.204 240.050  1.00  0.00    -0.000 C 
BRANCH  14  15
ATOM     15  C   UNL     1     -96.551 148.910 240.802  1.00  0.00    -0.000 C 
BRANCH  15  16
ATOM     16  C   UNL     1     -96.681 150.372 240.357  1.00  0.00    -0.000 C 
BRANCH  16  17
ATOM     17  C   UNL     1     -98.156 150.779 240.231  1.00  0.00    -0.000 C 
BRANCH  17  18
ATOM     18  C   UNL     1     -98.863 150.091 239.053  1.00  0.00    -0.000 C 
BRANCH  18  19
ATOM     19  C   UNL     1     -97.951 149.932 237.828  1.00  0.00    -0.003 C 
ATOM     20  C   UNL     1     -97.946 148.490 237.330  1.00  0.00     0.004 C 
ENDBRANCH  18  19
ENDBRANCH  17  18
ENDBRANCH  16  17
ENDBRANCH  15  16
ENDBRANCH  14  15
ENDBRANCH  13  14
ENDBRANCH  12  13
ENDBRANCH   1  12
TORSDOF 16
ENDMDL
MODEL 6
REMARK VINA RESULT:    -3.748      2.521      6.570
REMARK INTER + INTRA:          -9.011
REMARK INTER:                  -6.907
REMARK INTRA:                  -2.103
REMARK UNBOUND:                -1.758
REMARK SMILES CCCCCCCCCCCCCCCCCC(=O)[O-]
REMARK SMILES IDX 10 1 11 2 12 3 13 4 14 5 15 6 16 7 17 8 18 9 19 10 20 11
REMARK SMILES IDX 9 12 8 13 7 14 6 15 5 16 4 17 3 18 2 19 1 20
REMARK H PARENT
REMARK Flexibility Score: inf
ROOT
ATOM      1  C   UNL     1     -96.982 148.316 236.618  1.00  0.00     0.000 C 
ENDROOT
BRANCH   1   2
ATOM      2  C   UNL     1     -95.496 147.928 236.664  1.00  0.00     0.000 C 
BRANCH   2   3
ATOM      3  C   UNL     1     -94.608 149.047 237.228  1.00  0.00     0.000 C 
BRANCH   3   4
ATOM      4  C   UNL     1     -94.235 148.767 238.691  1.00  0.00     0.000 C 
BRANCH   4   5
ATOM      5  C   UNL     1     -95.136 149.513 239.695  1.00  0.00     0.000 C 
BRANCH   5   6
ATOM      6  C   UNL     1     -96.153 148.626 240.436  1.00  0.00     0.000 C 
BRANCH   6   7
ATOM      7  C   UNL     1     -97.282 149.434 241.098  1.00  0.00     0.006 C 
BRANCH   7   8
ATOM      8  C   UNL     1     -97.587 150.732 240.336  1.00  0.00     0.053 C 
BRANCH   8   9
ATOM      9  C   UNL     1     -98.975 150.727 239.772  1.00  0.00     0.041 C 
ATOM     10  O   UNL     1     -99.252 151.429 238.764  1.00  0.00    -0.550 OA
ATOM     11  O   UNL     1     -99.970 149.975 240.382  1.00  0.00    -0.550 OA
ENDBRANCH   8   9
ENDBRANCH   7   8
ENDBRANCH   6   7
ENDBRANCH   5   6
ENDBRANCH   4   5
ENDBRANCH   3   4
ENDBRANCH   2   3
ENDBRANCH   1   2
BRANCH   1  12
ATOM     12  C   UNL     1     -97.195 149.833 236.521  1.00  0.00     0.000 C 
BRANCH  12  13
ATOM     13  C   UNL     1     -98.058 150.191 235.305  1.00  0.00    -0.000 C 
BRANCH  13  14
ATOM     14  C   UNL     1     -97.220 150.218 234.022  1.00  0.00    -0.000 C 
BRANCH  14  15
ATOM     15  C   UNL     1     -95.862 150.887 234.265  1.00  0.00    -0.000 C 
BRANCH  15  16
ATOM     16  C   UNL     1     -95.946 152.402 234.046  1.00  0.00    -0.000 C 
BRANCH  16  17
ATOM     17  C   UNL     1     -96.855 152.735 232.854  1.00  0.00    -0.000 C 
BRANCH  17  18
ATOM     18  C   UNL     1     -97.978 153.718 233.221  1.00  0.00    -0.000 C 
BRANCH  18  19
ATOM     19  C   UNL     1     -97.774 154.358 234.602  1.00  0.00    -0.003 C 
ATOM     20  C   UNL     1     -97.866 155.879 234.522  1.00  0.00     0.004 C 
ENDBRANCH  18  19
ENDBRANCH  17  18
ENDBRANCH  16  17
ENDBRANCH  15  16
ENDBRANCH  14  15
ENDBRANCH  13  14
ENDBRANCH  12  13
ENDBRANCH   1  12
TORSDOF 16
ENDMDL
MODEL 7
REMARK VINA RESULT:    -3.717      3.593      7.015
REMARK INTER + INTRA:          -8.951
REMARK INTER:                  -7.108
REMARK INTRA:                  -1.843
REMARK UNBOUND:                -1.758
REMARK SMILES CCCCCCCCCCCCCCCCCC(=O)[O-]
REMARK SMILES IDX 10 1 11 2 12 3 13 4 14 5 15 6 16 7 17 8 18 9 19 10 20 11
REMARK SMILES IDX 9 12 8 13 7 14 6 15 5 16 4 17 3 18 2 19 1 20
REMARK H PARENT
REMARK Flexibility Score: inf
ROOT
ATOM      1  C   UNL     1     -97.035 149.676 235.732  1.00  0.00     0.000 C 
ENDROOT
BRANCH   1   2
ATOM      2  C   UNL     1     -95.524 149.710 236.007  1.00  0.00     0.000 C 
BRANCH   2   3
ATOM      3  C   UNL     1     -95.063 148.572 236.929  1.00  0.00     0.000 C 
BRANCH   3   4
ATOM      4  C   UNL     1     -94.215 149.114 238.089  1.00  0.00     0.000 C 
BRANCH   4   5
ATOM      5  C   UNL     1     -94.824 148.817 239.472  1.00  0.00     0.000 C 
BRANCH   5   6
ATOM      6  C   UNL     1     -95.757 149.913 240.019  1.00  0.00     0.000 C 
BRANCH   6   7
ATOM      7  C   UNL     1     -97.000 149.344 240.725  1.00  0.00     0.006 C 
BRANCH   7   8
ATOM      8  C   UNL     1     -97.986 150.446 241.135  1.00  0.00     0.053 C 
BRANCH   8   9
ATOM      9  C   UNL     1     -98.680 150.115 242.421  1.00  0.00     0.041 C 
ATOM     10  O   UNL     1     -99.156 148.964 242.607  1.00  0.00    -0.550 OA
ATOM     11  O   UNL     1     -98.831 151.089 243.399  1.00  0.00    -0.550 OA
ENDBRANCH   8   9
ENDBRANCH   7   8
ENDBRANCH   6   7
ENDBRANCH   5   6
ENDBRANCH   4   5
ENDBRANCH   3   4
ENDBRANCH   2   3
ENDBRANCH   1   2
BRANCH   1  12
ATOM     12  C   UNL     1     -97.871 149.656 237.019  1.00  0.00     0.000 C 
BRANCH  12  13
ATOM     13  C   UNL     1     -99.261 150.260 236.782  1.00  0.00    -0.000 C 
BRANCH  13  14
ATOM     14  C   UNL     1     -99.474 151.509 237.644  1.00  0.00    -0.000 C 
BRANCH  14  15
ATOM     15  C   UNL     1     -99.976 152.684 236.797  1.00  0.00    -0.000 C 
BRANCH  15  16
ATOM     16  C   UNL     1     -99.283 152.714 235.430  1.00  0.00    -0.000 C 
BRANCH  16  17
ATOM     17  C   UNL     1     -98.897 154.149 235.041  1.00  0.00    -0.000 C 
BRANCH  17  18
ATOM     18  C   UNL     1     -97.535 154.225 234.331  1.00  0.00    -0.000 C 
BRANCH  18  19
ATOM     19  C   UNL     1     -97.331 153.084 233.324  1.00  0.00    -0.003 C 
ATOM     20  C   UNL     1     -95.985 152.398 233.536  1.00  0.00     0.004 C 
ENDBRANCH  18  19
ENDBRANCH  17  18
ENDBRANCH  16  17
ENDBRANCH  15  16
ENDBRANCH  14  15
ENDBRANCH  13  14
ENDBRANCH  12  13
ENDBRANCH   1  12
TORSDOF 16
ENDMDL
MODEL 8
REMARK VINA RESULT:    -3.713      1.302      2.032
REMARK INTER + INTRA:          -8.943
REMARK INTER:                  -6.531
REMARK INTRA:                  -2.412
REMARK UNBOUND:                -1.758
REMARK SMILES CCCCCCCCCCCCCCCCCC(=O)[O-]
REMARK SMILES IDX 10 1 11 2 12 3 13 4 14 5 15 6 16 7 17 8 18 9 19 10 20 11
REMARK SMILES IDX 9 12 8 13 7 14 6 15 5 16 4 17 3 18 2 19 1 20
REMARK H PARENT
REMARK Flexibility Score: inf
ROOT
ATOM      1  C   UNL     1     -97.051 148.173 236.335  1.00  0.00     0.000 C 
ENDROOT
BRANCH   1   2
ATOM      2  C   UNL     1     -97.563 149.566 236.729  1.00  0.00     0.000 C 
BRANCH   2   3
ATOM      3  C   UNL     1     -98.229 150.306 235.560  1.00  0.00     0.000 C 
BRANCH   3   4
ATOM      4  C   UNL     1     -97.332 150.284 234.314  1.00  0.00     0.000 C 
BRANCH   4   5
ATOM      5  C   UNL     1     -96.117 151.224 234.430  1.00  0.00     0.000 C 
BRANCH   5   6
ATOM      6  C   UNL     1     -96.189 152.489 233.555  1.00  0.00     0.000 C 
BRANCH   6   7
ATOM      7  C   UNL     1     -96.931 153.649 234.239  1.00  0.00     0.006 C 
BRANCH   7   8
ATOM      8  C   UNL     1     -98.389 153.759 233.770  1.00  0.00     0.053 C 
BRANCH   8   9
ATOM      9  C   UNL     1     -99.276 154.301 234.849  1.00  0.00     0.041 C 
ATOM     10  O   UNL     1     -99.823 153.520 235.672  1.00  0.00    -0.550 OA
ATOM     11  O   UNL     1     -99.525 155.665 234.924  1.00  0.00    -0.550 OA
ENDBRANCH   8   9
ENDBRANCH   7   8
ENDBRANCH   6   7
ENDBRANCH   5   6
ENDBRANCH   4   5
ENDBRANCH   3   4
ENDBRANCH   2   3
ENDBRANCH   1   2
BRANCH   1  12
ATOM     12  C   UNL     1     -95.544 148.006 236.574  1.00  0.00     0.000 C 
BRANCH  12  13
ATOM     13  C   UNL     1     -94.969 149.213 237.324  1.00  0.00    -0.000 C 
BRANCH  13  14
ATOM     14  C   UNL     1     -93.904 148.778 238.337  1.00  0.00    -0.000 C 
BRANCH  14  15
ATOM     15  C   UNL     1     -94.309 147.476 239.038  1.00  0.00    -0.000 C 
BRANCH  15  16
ATOM     16  C   UNL     1     -94.998 147.762 240.377  1.00  0.00    -0.000 C 
BRANCH  16  17
ATOM     17  C   UNL     1     -96.459 147.288 240.356  1.00  0.00    -0.000 C 
BRANCH  17  18
ATOM     18  C   UNL     1     -97.457 148.450 240.226  1.00  0.00    -0.000 C 
BRANCH  18  19
ATOM     19  C   UNL     1     -96.824 149.811 240.547  1.00  0.00    -0.003 C 
ATOM     20  C   UNL     1     -97.829 150.943 240.359  1.00  0.00     0.004 C 
ENDBRANCH  18  19
ENDBRANCH  17  18
ENDBRANCH  16  17
ENDBRANCH  15  16
ENDBRANCH  14  15
ENDBRANCH  13  14
ENDBRANCH  12  13
ENDBRANCH   1  12
TORSDOF 16
ENDMDL
MODEL 9
REMARK VINA RESULT:    -3.673      1.426      2.740
REMARK INTER + INTRA:          -8.866
REMARK INTER:                  -6.332
REMARK INTRA:                  -2.534
REMARK UNBOUND:                -1.758
REMARK SMILES CCCCCCCCCCCCCCCCCC(=O)[O-]
REMARK SMILES IDX 10 1 11 2 12 3 13 4 14 5 15 6 16 7 17 8 18 9 19 10 20 11
REMARK SMILES IDX 9 12 8 13 7 14 6 15 5 16 4 17 3 18 2 19 1 20
REMARK H PARENT
REMARK Flexibility Score: inf
ROOT
ATOM      1  C   UNL     1     -94.254 149.105 238.323  1.00  0.00     0.000 C 
ENDROOT
BRANCH   1   2
ATOM      2  C   UNL     1     -94.512 147.948 237.345  1.00  0.00     0.000 C 
BRANCH   2   3
ATOM      3  C   UNL     1     -95.537 148.307 236.259  1.00  0.00     0.000 C 
BRANCH   3   4
ATOM      4  C   UNL     1     -95.580 149.824 236.023  1.00  0.00     0.000 C 
BRANCH   4   5
ATOM      5  C   UNL     1     -96.004 150.198 234.590  1.00  0.00     0.000 C 
BRANCH   5   6
ATOM      6  C   UNL     1     -95.760 151.669 234.205  1.00  0.00     0.000 C 
BRANCH   6   7
ATOM      7  C   UNL     1     -97.005 152.346 233.609  1.00  0.00     0.006 C 
BRANCH   7   8
ATOM      8  C   UNL     1     -98.203 152.299 234.567  1.00  0.00     0.053 C 
BRANCH   8   9
ATOM      9  C   UNL     1     -98.622 153.673 234.996  1.00  0.00     0.041 C 
ATOM     10  O   UNL     1     -99.768 153.865 235.480  1.00  0.00    -0.550 OA
ATOM     11  O   UNL     1     -97.756 154.746 234.828  1.00  0.00    -0.550 OA
ENDBRANCH   8   9
ENDBRANCH   7   8
ENDBRANCH   6   7
ENDBRANCH   5   6
ENDBRANCH   4   5
ENDBRANCH   3   4
ENDBRANCH   2   3
ENDBRANCH   1   2
BRANCH   1  12
ATOM     12  C   UNL     1     -94.978 148.919 239.664  1.00  0.00     0.000 C 
BRANCH  12  13
ATOM     13  C   UNL     1     -95.739 150.190 240.060  1.00  0.00    -0.000 C 
BRANCH  13  14
ATOM     14  C   UNL     1     -97.029 149.849 240.814  1.00  0.00    -0.000 C 
BRANCH  14  15
ATOM     15  C   UNL     1     -97.311 148.343 240.771  1.00  0.00    -0.000 C 
BRANCH  15  16
ATOM     16  C   UNL     1     -98.639 148.051 240.062  1.00  0.00    -0.000 C 
BRANCH  16  17
ATOM     17  C   UNL     1     -98.426 147.862 238.553  1.00  0.00    -0.000 C 
BRANCH  17  18
ATOM     18  C   UNL     1     -99.293 148.810 237.709  1.00  0.00    -0.000 C 
BRANCH  18  19
ATOM     19  C   UNL     1     -98.687 150.216 237.592  1.00  0.00    -0.003 C 
ATOM     20  C   UNL     1     -99.539 151.245 238.328  1.00  0.00     0.004 C 
ENDBRANCH  18  19
ENDBRANCH  17  18
ENDBRANCH  16  17
ENDBRANCH  15  16
ENDBRANCH  14  15
ENDBRANCH  13  14
ENDBRANCH  12  13
ENDBRANCH   1  12
TORSDOF 16
ENDMDL
