MODEL 1
REMARK VINA RESULT:    -4.574      0.000      0.000
REMARK INTER + INTRA:         -18.622
REMARK INTER:                 -12.062
REMARK INTRA:                  -6.560
REMARK UNBOUND:                -6.560
REMARK SMILES CCCCCCCCCCCCCCCCCCCCCCCCCCCCCC(=O)[O-]
REMARK SMILES IDX 16 1 17 2 18 3 19 4 20 5 21 6 22 7 23 8 24 9 25 10 26 11
REMARK SMILES IDX 27 12 28 13 29 14 30 15 31 16 32 17 15 18 14 19 13 20 12 21
REMARK SMILES IDX 11 22 10 23 9 24 8 25 7 26 6 27 5 28 4 29 3 30 2 31 1 32
REMARK H PARENT
REMARK Flexibility Score: inf
ROOT
ATOM      1  C   UNL     1      16.674  -2.127  20.945  1.00  0.00     0.000 C 
ENDROOT
BRANCH   1   2
ATOM      2  C   UNL     1      18.141  -2.509  20.703  1.00  0.00     0.000 C 
BRANCH   2   3
ATOM      3  C   UNL     1      18.642  -2.039  19.328  1.00  0.00     0.000 C 
BRANCH   3   4
ATOM      4  C   UNL     1      20.178  -1.948  19.261  1.00  0.00     0.000 C 
BRANCH   4   5
ATOM      5  C   UNL     1      20.755  -2.488  17.939  1.00  0.00     0.000 C 
BRANCH   5   6
ATOM      6  C   UNL     1      22.215  -2.976  18.017  1.00  0.00     0.000 C 
BRANCH   6   7
ATOM      7  C   UNL     1      22.877  -2.857  19.402  1.00  0.00     0.000 C 
BRANCH   7   8
ATOM      8  C   UNL     1      23.035  -4.187  20.162  1.00  0.00     0.000 C 
BRANCH   8   9
ATOM      9  C   UNL     1      22.633  -5.442  19.364  1.00  0.00     0.000 C 
BRANCH   9  10
ATOM     10  C   UNL     1      21.406  -6.194  19.914  1.00  0.00     0.000 C 
BRANCH  10  11
ATOM     11  C   UNL     1      20.044  -5.549  19.586  1.00  0.00     0.000 C 
BRANCH  11  12
ATOM     12  C   UNL     1      18.834  -6.171  20.306  1.00  0.00     0.000 C 
BRANCH  12  13
ATOM     13  C   UNL     1      17.642  -6.520  19.397  1.00  0.00     0.006 C 
BRANCH  13  14
ATOM     14  C   UNL     1      16.526  -5.460  19.392  1.00  0.00     0.053 C 
BRANCH  14  15
ATOM     15  C   UNL     1      16.447  -4.730  18.087  1.00  0.00     0.041 C 
ATOM     16  O   UNL     1      15.381  -4.160  17.741  1.00  0.00    -0.550 OA
ATOM     17  O   UNL     1      17.558  -4.668  17.254  1.00  0.00    -0.550 OA
ENDBRANCH  14  15
ENDBRANCH  13  14
ENDBRANCH  12  13
ENDBRANCH  11  12
ENDBRANCH  10  11
ENDBRANCH   9  10
ENDBRANCH   8   9
ENDBRANCH   7   8
ENDBRANCH   6   7
ENDBRANCH   5   6
ENDBRANCH   4   5
ENDBRANCH   3   4
ENDBRANCH   2   3
ENDBRANCH   1   2
BRANCH   1  18
ATOM     18  C   UNL     1      16.148  -2.702  22.270  1.00  0.00     0.000 C 
BRANCH  18  19
ATOM     19  C   UNL     1      17.126  -3.744  22.859  1.00  0.00     0.000 C 
BRANCH  19  20
ATOM     20  C   UNL     1      16.767  -4.215  24.278  1.00  0.00     0.000 C 
BRANCH  20  21
ATOM     21  C   UNL     1      16.956  -3.131  25.358  1.00  0.00     0.000 C 
BRANCH  21  22
ATOM     22  C   UNL     1      18.020  -2.083  24.960  1.00  0.00     0.000 C 
BRANCH  22  23
ATOM     23  C   UNL     1      17.496  -0.635  24.989  1.00  0.00     0.000 C 
BRANCH  23  24
ATOM     24  C   UNL     1      18.496   0.425  24.489  1.00  0.00    -0.000 C 
BRANCH  24  25
ATOM     25  C   UNL     1      18.477   0.588  22.959  1.00  0.00    -0.000 C 
BRANCH  25  26
ATOM     26  C   UNL     1      19.777   0.077  22.315  1.00  0.00    -0.000 C 
BRANCH  26  27
ATOM     27  C   UNL     1      20.873  -0.200  23.360  1.00  0.00    -0.000 C 
BRANCH  27  28
ATOM     28  C   UNL     1      21.972  -1.142  22.847  1.00  0.00    -0.000 C 
BRANCH  28  29
ATOM     29  C   UNL     1      21.846  -2.572  23.412  1.00  0.00    -0.000 C 
BRANCH  29  30
ATOM     30  C   UNL     1      20.737  -3.387  22.730  1.00  0.00    -0.000 C 
BRANCH  30  31
ATOM     31  C   UNL     1      20.531  -4.786  23.345  1.00  0.00    -0.003 C 
ATOM     32  C   UNL     1      20.735  -4.784  24.857  1.00  0.00     0.004 C 
ENDBRANCH  30  31
ENDBRANCH  29  30
ENDBRANCH  28  29
ENDBRANCH  27  28
ENDBRANCH  26  27
ENDBRANCH  25  26
ENDBRANCH  24  25
ENDBRANCH  23  24
ENDBRANCH  22  23
ENDBRANCH  21  22
ENDBRANCH  20  21
ENDBRANCH  19  20
ENDBRANCH  18  19
ENDBRANCH   1  18
TORSDOF 28
ENDMDL
MODEL 2
REMARK VINA RESULT:    -4.482      1.434      3.325
REMARK INTER + INTRA:         -18.379
REMARK INTER:                 -12.640
REMARK INTRA:                  -5.739
REMARK UNBOUND:                -6.560
REMARK SMILES CCCCCCCCCCCCCCCCCCCCCCCCCCCCCC(=O)[O-]
REMARK SMILES IDX 16 1 17 2 18 3 19 4 20 5 21 6 22 7 23 8 24 9 25 10 26 11
REMARK SMILES IDX 27 12 28 13 29 14 30 15 31 16 32 17 15 18 14 19 13 20 12 21
REMARK SMILES IDX 11 22 10 23 9 24 8 25 7 26 6 27 5 28 4 29 3 30 2 31 1 32
REMARK H PARENT
REMARK Flexibility Score: inf
ROOT
ATOM      1  C   UNL     1      17.889  -4.602  20.921  1.00  0.00     0.000 C 
ENDROOT
BRANCH   1   2
ATOM      2  C   UNL     1      16.985  -3.687  20.081  1.00  0.00     0.000 C 
BRANCH   2   3
ATOM      3  C   UNL     1      17.797  -2.725  19.198  1.00  0.00     0.000 C 
BRANCH   3   4
ATOM      4  C   UNL     1      19.302  -2.759  19.520  1.00  0.00     0.000 C 
BRANCH   4   5
ATOM      5  C   UNL     1      20.141  -1.899  18.558  1.00  0.00     0.000 C 
BRANCH   5   6
ATOM      6  C   UNL     1      20.908  -2.688  17.478  1.00  0.00     0.000 C 
BRANCH   6   7
ATOM      7  C   UNL     1      22.314  -3.168  17.886  1.00  0.00     0.000 C 
BRANCH   7   8
ATOM      8  C   UNL     1      22.525  -4.692  17.819  1.00  0.00     0.000 C 
BRANCH   8   9
ATOM      9  C   UNL     1      21.229  -5.524  17.761  1.00  0.00     0.000 C 
BRANCH   9  10
ATOM     10  C   UNL     1      20.975  -6.413  18.993  1.00  0.00     0.000 C 
BRANCH  10  11
ATOM     11  C   UNL     1      19.993  -7.579  18.765  1.00  0.00     0.000 C 
BRANCH  11  12
ATOM     12  C   UNL     1      18.592  -7.384  19.373  1.00  0.00     0.000 C 
BRANCH  12  13
ATOM     13  C   UNL     1      17.448  -7.260  18.350  1.00  0.00     0.006 C 
BRANCH  13  14
ATOM     14  C   UNL     1      17.705  -6.219  17.246  1.00  0.00     0.053 C 
BRANCH  14  15
ATOM     15  C   UNL     1      16.437  -5.776  16.583  1.00  0.00     0.041 C 
ATOM     16  O   UNL     1      15.493  -5.305  17.267  1.00  0.00    -0.550 OA
ATOM     17  O   UNL     1      16.300  -5.873  15.203  1.00  0.00    -0.550 OA
ENDBRANCH  14  15
ENDBRANCH  13  14
ENDBRANCH  12  13
ENDBRANCH  11  12
ENDBRANCH  10  11
ENDBRANCH   9  10
ENDBRANCH   8   9
ENDBRANCH   7   8
ENDBRANCH   6   7
ENDBRANCH   5   6
ENDBRANCH   4   5
ENDBRANCH   3   4
ENDBRANCH   2   3
ENDBRANCH   1   2
BRANCH   1  18
ATOM     18  C   UNL     1      17.769  -4.295  22.423  1.00  0.00     0.000 C 
BRANCH  18  19
ATOM     19  C   UNL     1      19.005  -4.803  23.200  1.00  0.00     0.000 C 
BRANCH  19  20
ATOM     20  C   UNL     1      20.218  -5.131  22.313  1.00  0.00     0.000 C 
BRANCH  20  21
ATOM     21  C   UNL     1      21.530  -4.473  22.785  1.00  0.00     0.000 C 
BRANCH  21  22
ATOM     22  C   UNL     1      22.360  -3.908  21.609  1.00  0.00     0.000 C 
BRANCH  22  23
ATOM     23  C   UNL     1      22.341  -2.370  21.528  1.00  0.00     0.000 C 
BRANCH  23  24
ATOM     24  C   UNL     1      22.241  -1.652  22.887  1.00  0.00    -0.000 C 
BRANCH  24  25
ATOM     25  C   UNL     1      21.088  -0.635  22.941  1.00  0.00    -0.000 C 
BRANCH  25  26
ATOM     26  C   UNL     1      19.715  -1.325  22.883  1.00  0.00    -0.000 C 
BRANCH  26  27
ATOM     27  C   UNL     1      18.576  -0.328  22.607  1.00  0.00    -0.000 C 
BRANCH  27  28
ATOM     28  C   UNL     1      17.255  -0.715  23.291  1.00  0.00    -0.000 C 
BRANCH  28  29
ATOM     29  C   UNL     1      17.116  -0.114  24.704  1.00  0.00    -0.000 C 
BRANCH  29  30
ATOM     30  C   UNL     1      16.525  -1.103  25.718  1.00  0.00    -0.000 C 
BRANCH  30  31
ATOM     31  C   UNL     1      17.134  -2.518  25.628  1.00  0.00    -0.003 C 
ATOM     32  C   UNL     1      16.067  -3.590  25.429  1.00  0.00     0.004 C 
ENDBRANCH  30  31
ENDBRANCH  29  30
ENDBRANCH  28  29
ENDBRANCH  27  28
ENDBRANCH  26  27
ENDBRANCH  25  26
ENDBRANCH  24  25
ENDBRANCH  23  24
ENDBRANCH  22  23
ENDBRANCH  21  22
ENDBRANCH  20  21
ENDBRANCH  19  20
ENDBRANCH  18  19
ENDBRANCH   1  18
TORSDOF 28
ENDMDL
MODEL 3
REMARK VINA RESULT:    -4.459      1.525      4.027
REMARK INTER + INTRA:         -18.319
REMARK INTER:                 -11.990
REMARK INTRA:                  -6.329
REMARK UNBOUND:                -6.560
REMARK SMILES CCCCCCCCCCCCCCCCCCCCCCCCCCCCCC(=O)[O-]
REMARK SMILES IDX 16 1 17 2 18 3 19 4 20 5 21 6 22 7 23 8 24 9 25 10 26 11
REMARK SMILES IDX 27 12 28 13 29 14 30 15 31 16 32 17 15 18 14 19 13 20 12 21
REMARK SMILES IDX 11 22 10 23 9 24 8 25 7 26 6 27 5 28 4 29 3 30 2 31 1 32
REMARK H PARENT
REMARK Flexibility Score: inf
ROOT
ATOM      1  C   UNL     1      19.973  -2.876  19.639  1.00  0.00     0.000 C 
ENDROOT
BRANCH   1   2
ATOM      2  C   UNL     1      20.293  -2.305  18.250  1.00  0.00     0.000 C 
BRANCH   2   3
ATOM      3  C   UNL     1      21.143  -3.271  17.409  1.00  0.00     0.000 C 
BRANCH   3   4
ATOM      4  C   UNL     1      22.585  -3.396  17.934  1.00  0.00     0.000 C 
BRANCH   4   5
ATOM      5  C   UNL     1      23.109  -4.843  17.912  1.00  0.00     0.000 C 
BRANCH   5   6
ATOM      6  C   UNL     1      23.099  -5.562  19.276  1.00  0.00     0.000 C 
BRANCH   6   7
ATOM      7  C   UNL     1      22.138  -6.761  19.383  1.00  0.00     0.000 C 
BRANCH   7   8
ATOM      8  C   UNL     1      20.717  -6.415  19.866  1.00  0.00     0.000 C 
BRANCH   8   9
ATOM      9  C   UNL     1      19.633  -6.454  18.771  1.00  0.00     0.000 C 
BRANCH   9  10
ATOM     10  C   UNL     1      18.392  -7.297  19.121  1.00  0.00     0.000 C 
BRANCH  10  11
ATOM     11  C   UNL     1      17.040  -6.591  18.896  1.00  0.00     0.000 C 
BRANCH  11  12
ATOM     12  C   UNL     1      16.807  -5.333  19.754  1.00  0.00     0.000 C 
BRANCH  12  13
ATOM     13  C   UNL     1      16.601  -4.031  18.958  1.00  0.00     0.006 C 
BRANCH  13  14
ATOM     14  C   UNL     1      16.925  -4.153  17.459  1.00  0.00     0.053 C 
BRANCH  14  15
ATOM     15  C   UNL     1      15.698  -4.047  16.606  1.00  0.00     0.041 C 
ATOM     16  O   UNL     1      14.642  -3.549  17.072  1.00  0.00    -0.550 OA
ATOM     17  O   UNL     1      15.724  -4.487  15.288  1.00  0.00    -0.550 OA
ENDBRANCH  14  15
ENDBRANCH  13  14
ENDBRANCH  12  13
ENDBRANCH  11  12
ENDBRANCH  10  11
ENDBRANCH   9  10
ENDBRANCH   8   9
ENDBRANCH   7   8
ENDBRANCH   6   7
ENDBRANCH   5   6
ENDBRANCH   4   5
ENDBRANCH   3   4
ENDBRANCH   2   3
ENDBRANCH   1   2
BRANCH   1  18
ATOM     18  C   UNL     1      20.680  -2.089  20.754  1.00  0.00     0.000 C 
BRANCH  18  19
ATOM     19  C   UNL     1      21.575  -3.013  21.613  1.00  0.00     0.000 C 
BRANCH  19  20
ATOM     20  C   UNL     1      20.974  -3.378  22.981  1.00  0.00     0.000 C 
BRANCH  20  21
ATOM     21  C   UNL     1      20.512  -4.845  23.085  1.00  0.00     0.000 C 
BRANCH  21  22
ATOM     22  C   UNL     1      19.038  -5.030  22.657  1.00  0.00     0.000 C 
BRANCH  22  23
ATOM     23  C   UNL     1      18.029  -4.452  23.667  1.00  0.00     0.000 C 
BRANCH  23  24
ATOM     24  C   UNL     1      16.891  -3.624  23.042  1.00  0.00    -0.000 C 
BRANCH  24  25
ATOM     25  C   UNL     1      17.400  -2.381  22.292  1.00  0.00    -0.000 C 
BRANCH  25  26
ATOM     26  C   UNL     1      16.413  -1.206  22.400  1.00  0.00    -0.000 C 
BRANCH  26  27
ATOM     27  C   UNL     1      17.126   0.123  22.707  1.00  0.00    -0.000 C 
BRANCH  27  28
ATOM     28  C   UNL     1      18.652   0.042  22.542  1.00  0.00    -0.000 C 
BRANCH  28  29
ATOM     29  C   UNL     1      19.244   1.285  21.846  1.00  0.00    -0.000 C 
BRANCH  29  30
ATOM     30  C   UNL     1      18.481   1.677  20.573  1.00  0.00    -0.000 C 
BRANCH  30  31
ATOM     31  C   UNL     1      18.714   0.713  19.391  1.00  0.00    -0.003 C 
ATOM     32  C   UNL     1      17.440  -0.025  18.993  1.00  0.00     0.004 C 
ENDBRANCH  30  31
ENDBRANCH  29  30
ENDBRANCH  28  29
ENDBRANCH  27  28
ENDBRANCH  26  27
ENDBRANCH  25  26
ENDBRANCH  24  25
ENDBRANCH  23  24
ENDBRANCH  22  23
ENDBRANCH  21  22
ENDBRANCH  20  21
ENDBRANCH  19  20
ENDBRANCH  18  19
ENDBRANCH   1  18
TORSDOF 28
ENDMDL
MODEL 4
REMARK VINA RESULT:    -4.442      1.946      4.506
REMARK INTER + INTRA:         -18.274
REMARK INTER:                 -12.069
REMARK INTRA:                  -6.205
REMARK UNBOUND:                -6.560
REMARK SMILES CCCCCCCCCCCCCCCCCCCCCCCCCCCCCC(=O)[O-]
REMARK SMILES IDX 16 1 17 2 18 3 19 4 20 5 21 6 22 7 23 8 24 9 25 10 26 11
REMARK SMILES IDX 27 12 28 13 29 14 30 15 31 16 32 17 15 18 14 19 13 20 12 21
REMARK SMILES IDX 11 22 10 23 9 24 8 25 7 26 6 27 5 28 4 29 3 30 2 31 1 32
REMARK H PARENT
REMARK Flexibility Score: inf
ROOT
ATOM      1  C   UNL     1      20.213  -2.263  18.463  1.00  0.00     0.000 C 
ENDROOT
BRANCH   1   2
ATOM      2  C   UNL     1      20.802  -3.191  17.390  1.00  0.00     0.000 C 
BRANCH   2   3
ATOM      3  C   UNL     1      22.321  -3.368  17.551  1.00  0.00     0.000 C 
BRANCH   3   4
ATOM      4  C   UNL     1      22.728  -4.846  17.702  1.00  0.00     0.000 C 
BRANCH   4   5
ATOM      5  C   UNL     1      23.059  -5.232  19.154  1.00  0.00     0.000 C 
BRANCH   5   6
ATOM      6  C   UNL     1      22.186  -6.356  19.746  1.00  0.00     0.000 C 
BRANCH   6   7
ATOM      7  C   UNL     1      20.775  -5.929  20.193  1.00  0.00     0.000 C 
BRANCH   7   8
ATOM      8  C   UNL     1      19.621  -6.557  19.391  1.00  0.00     0.000 C 
BRANCH   8   9
ATOM      9  C   UNL     1      18.224  -5.992  19.714  1.00  0.00     0.000 C 
BRANCH   9  10
ATOM     10  C   UNL     1      17.610  -5.111  18.609  1.00  0.00     0.000 C 
BRANCH  10  11
ATOM     11  C   UNL     1      16.811  -3.893  19.114  1.00  0.00     0.000 C 
BRANCH  11  12
ATOM     12  C   UNL     1      16.950  -3.596  20.619  1.00  0.00     0.000 C 
BRANCH  12  13
ATOM     13  C   UNL     1      16.855  -2.108  21.001  1.00  0.00     0.006 C 
BRANCH  13  14
ATOM     14  C   UNL     1      17.070  -1.142  19.822  1.00  0.00     0.053 C 
BRANCH  14  15
ATOM     15  C   UNL     1      17.567   0.197  20.274  1.00  0.00     0.041 C 
ATOM     16  O   UNL     1      18.639   0.665  19.814  1.00  0.00    -0.550 OA
ATOM     17  O   UNL     1      16.836   0.937  21.196  1.00  0.00    -0.550 OA
ENDBRANCH  14  15
ENDBRANCH  13  14
ENDBRANCH  12  13
ENDBRANCH  11  12
ENDBRANCH  10  11
ENDBRANCH   9  10
ENDBRANCH   8   9
ENDBRANCH   7   8
ENDBRANCH   6   7
ENDBRANCH   5   6
ENDBRANCH   4   5
ENDBRANCH   3   4
ENDBRANCH   2   3
ENDBRANCH   1   2
BRANCH   1  18
ATOM     18  C   UNL     1      21.124  -2.171  19.698  1.00  0.00     0.000 C 
BRANCH  18  19
ATOM     19  C   UNL     1      20.360  -2.544  20.989  1.00  0.00     0.000 C 
BRANCH  19  20
ATOM     20  C   UNL     1      21.267  -2.953  22.162  1.00  0.00     0.000 C 
BRANCH  20  21
ATOM     21  C   UNL     1      22.713  -2.432  22.041  1.00  0.00     0.000 C 
BRANCH  21  22
ATOM     22  C   UNL     1      22.942  -1.138  22.856  1.00  0.00     0.000 C 
BRANCH  22  23
ATOM     23  C   UNL     1      21.925  -0.943  23.996  1.00  0.00     0.000 C 
BRANCH  23  24
ATOM     24  C   UNL     1      21.245   0.438  24.026  1.00  0.00    -0.000 C 
BRANCH  24  25
ATOM     25  C   UNL     1      19.952   0.485  23.192  1.00  0.00    -0.000 C 
BRANCH  25  26
ATOM     26  C   UNL     1      18.893  -0.493  23.727  1.00  0.00    -0.000 C 
BRANCH  26  27
ATOM     27  C   UNL     1      18.153   0.066  24.955  1.00  0.00    -0.000 C 
BRANCH  27  28
ATOM     28  C   UNL     1      16.776  -0.579  25.177  1.00  0.00    -0.000 C 
BRANCH  28  29
ATOM     29  C   UNL     1      16.870  -2.068  25.570  1.00  0.00    -0.000 C 
BRANCH  29  30
ATOM     30  C   UNL     1      16.180  -2.996  24.561  1.00  0.00    -0.000 C 
BRANCH  30  31
ATOM     31  C   UNL     1      17.026  -4.226  24.172  1.00  0.00    -0.003 C 
ATOM     32  C   UNL     1      18.519  -3.979  24.366  1.00  0.00     0.004 C 
ENDBRANCH  30  31
ENDBRANCH  29  30
ENDBRANCH  28  29
ENDBRANCH  27  28
ENDBRANCH  26  27
ENDBRANCH  25  26
ENDBRANCH  24  25
ENDBRANCH  23  24
ENDBRANCH  22  23
ENDBRANCH  21  22
ENDBRANCH  20  21
ENDBRANCH  19  20
ENDBRANCH  18  19
ENDBRANCH   1  18
TORSDOF 28
ENDMDL
MODEL 5
REMARK VINA RESULT:    -4.441      3.082      7.327
REMARK INTER + INTRA:         -18.269
REMARK INTER:                 -12.410
REMARK INTRA:                  -5.859
REMARK UNBOUND:                -6.560
REMARK SMILES CCCCCCCCCCCCCCCCCCCCCCCCCCCCCC(=O)[O-]
REMARK SMILES IDX 16 1 17 2 18 3 19 4 20 5 21 6 22 7 23 8 24 9 25 10 26 11
REMARK SMILES IDX 27 12 28 13 29 14 30 15 31 16 32 17 15 18 14 19 13 20 12 21
REMARK SMILES IDX 11 22 10 23 9 24 8 25 7 26 6 27 5 28 4 29 3 30 2 31 1 32
REMARK H PARENT
REMARK Flexibility Score: inf
ROOT
ATOM      1  C   UNL     1      17.635  -2.670  20.703  1.00  0.00     0.000 C 
ENDROOT
BRANCH   1   2
ATOM      2  C   UNL     1      16.416  -3.459  21.203  1.00  0.00     0.000 C 
BRANCH   2   3
ATOM      3  C   UNL     1      16.015  -3.059  22.633  1.00  0.00     0.000 C 
BRANCH   3   4
ATOM      4  C   UNL     1      16.783  -3.855  23.704  1.00  0.00     0.000 C 
BRANCH   4   5
ATOM      5  C   UNL     1      16.350  -3.504  25.139  1.00  0.00     0.000 C 
BRANCH   5   6
ATOM      6  C   UNL     1      17.158  -2.373  25.805  1.00  0.00     0.000 C 
BRANCH   6   7
ATOM      7  C   UNL     1      16.554  -0.962  25.668  1.00  0.00     0.000 C 
BRANCH   7   8
ATOM      8  C   UNL     1      17.493   0.089  25.047  1.00  0.00     0.000 C 
BRANCH   8   9
ATOM      9  C   UNL     1      17.835  -0.144  23.563  1.00  0.00     0.000 C 
BRANCH   9  10
ATOM     10  C   UNL     1      19.190  -0.832  23.311  1.00  0.00     0.000 C 
BRANCH  10  11
ATOM     11  C   UNL     1      20.325   0.107  22.856  1.00  0.00     0.000 C 
BRANCH  11  12
ATOM     12  C   UNL     1      20.996   0.916  23.982  1.00  0.00     0.000 C 
BRANCH  12  13
ATOM     13  C   UNL     1      20.920   2.445  23.819  1.00  0.00     0.006 C 
BRANCH  13  14
ATOM     14  C   UNL     1      19.837   2.918  22.833  1.00  0.00     0.053 C 
BRANCH  14  15
ATOM     15  C   UNL     1      18.939   3.954  23.437  1.00  0.00     0.041 C 
ATOM     16  O   UNL     1      19.067   5.166  23.125  1.00  0.00    -0.550 OA
ATOM     17  O   UNL     1      17.948   3.580  24.337  1.00  0.00    -0.550 OA
ENDBRANCH  14  15
ENDBRANCH  13  14
ENDBRANCH  12  13
ENDBRANCH  11  12
ENDBRANCH  10  11
ENDBRANCH   9  10
ENDBRANCH   8   9
ENDBRANCH   7   8
ENDBRANCH   6   7
ENDBRANCH   5   6
ENDBRANCH   4   5
ENDBRANCH   3   4
ENDBRANCH   2   3
ENDBRANCH   1   2
BRANCH   1  18
ATOM     18  C   UNL     1      17.221  -1.352  20.029  1.00  0.00     0.000 C 
BRANCH  18  19
ATOM     19  C   UNL     1      18.300  -0.867  19.033  1.00  0.00     0.000 C 
BRANCH  19  20
ATOM     20  C   UNL     1      19.741  -1.193  19.458  1.00  0.00     0.000 C 
BRANCH  20  21
ATOM     21  C   UNL     1      20.463  -2.171  18.509  1.00  0.00     0.000 C 
BRANCH  21  22
ATOM     22  C   UNL     1      21.734  -2.778  19.146  1.00  0.00     0.000 C 
BRANCH  22  23
ATOM     23  C   UNL     1      21.787  -2.620  20.678  1.00  0.00     0.000 C 
BRANCH  23  24
ATOM     24  C   UNL     1      22.711  -3.621  21.398  1.00  0.00    -0.000 C 
BRANCH  24  25
ATOM     25  C   UNL     1      21.965  -4.482  22.432  1.00  0.00    -0.000 C 
BRANCH  25  26
ATOM     26  C   UNL     1      20.460  -4.166  22.459  1.00  0.00    -0.000 C 
BRANCH  26  27
ATOM     27  C   UNL     1      19.606  -5.368  22.019  1.00  0.00    -0.000 C 
BRANCH  27  28
ATOM     28  C   UNL     1      20.058  -5.971  20.680  1.00  0.00    -0.000 C 
BRANCH  28  29
ATOM     29  C   UNL     1      18.891  -6.174  19.691  1.00  0.00    -0.000 C 
BRANCH  29  30
ATOM     30  C   UNL     1      19.187  -5.607  18.296  1.00  0.00    -0.000 C 
BRANCH  30  31
ATOM     31  C   UNL     1      17.942  -5.521  17.387  1.00  0.00    -0.003 C 
ATOM     32  C   UNL     1      17.297  -4.139  17.429  1.00  0.00     0.004 C 
ENDBRANCH  30  31
ENDBRANCH  29  30
ENDBRANCH  28  29
ENDBRANCH  27  28
ENDBRANCH  26  27
ENDBRANCH  25  26
ENDBRANCH  24  25
ENDBRANCH  23  24
ENDBRANCH  22  23
ENDBRANCH  21  22
ENDBRANCH  20  21
ENDBRANCH  19  20
ENDBRANCH  18  19
ENDBRANCH   1  18
TORSDOF 28
ENDMDL
MODEL 6
REMARK VINA RESULT:    -4.438      4.352      7.888
REMARK INTER + INTRA:         -18.262
REMARK INTER:                 -13.000
REMARK INTRA:                  -5.262
REMARK UNBOUND:                -6.560
REMARK SMILES CCCCCCCCCCCCCCCCCCCCCCCCCCCCCC(=O)[O-]
REMARK SMILES IDX 16 1 17 2 18 3 19 4 20 5 21 6 22 7 23 8 24 9 25 10 26 11
REMARK SMILES IDX 27 12 28 13 29 14 30 15 31 16 32 17 15 18 14 19 13 20 12 21
REMARK SMILES IDX 11 22 10 23 9 24 8 25 7 26 6 27 5 28 4 29 3 30 2 31 1 32
REMARK H PARENT
REMARK Flexibility Score: inf
ROOT
ATOM      1  C   UNL     1      16.825  -3.518  21.327  1.00  0.00     0.000 C 
ENDROOT
BRANCH   1   2
ATOM      2  C   UNL     1      15.960  -2.955  22.465  1.00  0.00     0.000 C 
BRANCH   2   3
ATOM      3  C   UNL     1      16.276  -3.622  23.815  1.00  0.00     0.000 C 
BRANCH   3   4
ATOM      4  C   UNL     1      16.014  -2.685  25.008  1.00  0.00     0.000 C 
BRANCH   4   5
ATOM      5  C   UNL     1      17.303  -2.281  25.748  1.00  0.00     0.000 C 
BRANCH   5   6
ATOM      6  C   UNL     1      18.305  -1.461  24.912  1.00  0.00     0.000 C 
BRANCH   6   7
ATOM      7  C   UNL     1      17.750  -0.155  24.313  1.00  0.00     0.000 C 
BRANCH   7   8
ATOM      8  C   UNL     1      18.176   0.125  22.860  1.00  0.00     0.000 C 
BRANCH   8   9
ATOM      9  C   UNL     1      19.647   0.552  22.687  1.00  0.00     0.000 C 
BRANCH   9  10
ATOM     10  C   UNL     1      20.356   0.970  23.989  1.00  0.00     0.000 C 
BRANCH  10  11
ATOM     11  C   UNL     1      21.186   2.266  23.893  1.00  0.00     0.000 C 
BRANCH  11  12
ATOM     12  C   UNL     1      20.386   3.530  23.524  1.00  0.00     0.000 C 
BRANCH  12  13
ATOM     13  C   UNL     1      21.240   4.755  23.149  1.00  0.00     0.006 C 
BRANCH  13  14
ATOM     14  C   UNL     1      20.627   6.101  23.576  1.00  0.00     0.053 C 
BRANCH  14  15
ATOM     15  C   UNL     1      21.676   7.116  23.911  1.00  0.00     0.041 C 
ATOM     16  O   UNL     1      22.168   7.843  23.010  1.00  0.00    -0.550 OA
ATOM     17  O   UNL     1      22.104   7.271  25.224  1.00  0.00    -0.550 OA
ENDBRANCH  14  15
ENDBRANCH  13  14
ENDBRANCH  12  13
ENDBRANCH  11  12
ENDBRANCH  10  11
ENDBRANCH   9  10
ENDBRANCH   8   9
ENDBRANCH   7   8
ENDBRANCH   6   7
ENDBRANCH   5   6
ENDBRANCH   4   5
ENDBRANCH   3   4
ENDBRANCH   2   3
ENDBRANCH   1   2
BRANCH   1  18
ATOM     18  C   UNL     1      18.324  -3.437  21.659  1.00  0.00     0.000 C 
BRANCH  18  19
ATOM     19  C   UNL     1      19.025  -4.795  21.424  1.00  0.00     0.000 C 
BRANCH  19  20
ATOM     20  C   UNL     1      19.401  -5.542  22.715  1.00  0.00     0.000 C 
BRANCH  20  21
ATOM     21  C   UNL     1      19.892  -4.618  23.847  1.00  0.00     0.000 C 
BRANCH  21  22
ATOM     22  C   UNL     1      21.359  -4.174  23.649  1.00  0.00     0.000 C 
BRANCH  22  23
ATOM     23  C   UNL     1      21.523  -2.651  23.484  1.00  0.00     0.000 C 
BRANCH  23  24
ATOM     24  C   UNL     1      22.078  -2.206  22.118  1.00  0.00    -0.000 C 
BRANCH  24  25
ATOM     25  C   UNL     1      22.897  -3.306  21.420  1.00  0.00    -0.000 C 
BRANCH  25  26
ATOM     26  C   UNL     1      22.952  -3.096  19.897  1.00  0.00    -0.000 C 
BRANCH  26  27
ATOM     27  C   UNL     1      21.685  -3.615  19.193  1.00  0.00    -0.000 C 
BRANCH  27  28
ATOM     28  C   UNL     1      21.194  -2.687  18.072  1.00  0.00    -0.000 C 
BRANCH  28  29
ATOM     29  C   UNL     1      19.756  -2.178  18.304  1.00  0.00    -0.000 C 
BRANCH  29  30
ATOM     30  C   UNL     1      19.672  -1.108  19.401  1.00  0.00    -0.000 C 
BRANCH  30  31
ATOM     31  C   UNL     1      18.612  -0.021  19.125  1.00  0.00    -0.003 C 
ATOM     32  C   UNL     1      17.196  -0.588  19.120  1.00  0.00     0.004 C 
ENDBRANCH  30  31
ENDBRANCH  29  30
ENDBRANCH  28  29
ENDBRANCH  27  28
ENDBRANCH  26  27
ENDBRANCH  25  26
ENDBRANCH  24  25
ENDBRANCH  23  24
ENDBRANCH  22  23
ENDBRANCH  21  22
ENDBRANCH  20  21
ENDBRANCH  19  20
ENDBRANCH  18  19
ENDBRANCH   1  18
TORSDOF 28
ENDMDL
MODEL 7
REMARK VINA RESULT:    -4.415      2.028      5.247
REMARK INTER + INTRA:         -18.201
REMARK INTER:                 -12.499
REMARK INTRA:                  -5.702
REMARK UNBOUND:                -6.560
REMARK SMILES CCCCCCCCCCCCCCCCCCCCCCCCCCCCCC(=O)[O-]
REMARK SMILES IDX 16 1 17 2 18 3 19 4 20 5 21 6 22 7 23 8 24 9 25 10 26 11
REMARK SMILES IDX 27 12 28 13 29 14 30 15 31 16 32 17 15 18 14 19 13 20 12 21
REMARK SMILES IDX 11 22 10 23 9 24 8 25 7 26 6 27 5 28 4 29 3 30 2 31 1 32
REMARK H PARENT
REMARK Flexibility Score: inf
ROOT
ATOM      1  C   UNL     1      18.195  -0.426  23.542  1.00  0.00     0.000 C 
ENDROOT
BRANCH   1   2
ATOM      2  C   UNL     1      19.537  -0.108  22.866  1.00  0.00     0.000 C 
BRANCH   2   3
ATOM      3  C   UNL     1      20.674   0.058  23.887  1.00  0.00     0.000 C 
BRANCH   3   4
ATOM      4  C   UNL     1      21.872  -0.863  23.589  1.00  0.00     0.000 C 
BRANCH   4   5
ATOM      5  C   UNL     1      21.504  -2.052  22.682  1.00  0.00     0.000 C 
BRANCH   5   6
ATOM      6  C   UNL     1      22.504  -2.338  21.544  1.00  0.00     0.000 C 
BRANCH   6   7
ATOM      7  C   UNL     1      22.672  -3.823  21.172  1.00  0.00     0.000 C 
BRANCH   7   8
ATOM      8  C   UNL     1      22.903  -4.095  19.673  1.00  0.00     0.000 C 
BRANCH   8   9
ATOM      9  C   UNL     1      22.540  -2.925  18.739  1.00  0.00     0.000 C 
BRANCH   9  10
ATOM     10  C   UNL     1      21.529  -3.272  17.629  1.00  0.00     0.000 C 
BRANCH  10  11
ATOM     11  C   UNL     1      20.120  -2.677  17.820  1.00  0.00     0.000 C 
BRANCH  11  12
ATOM     12  C   UNL     1      19.988  -1.661  18.969  1.00  0.00     0.000 C 
BRANCH  12  13
ATOM     13  C   UNL     1      18.603  -1.611  19.640  1.00  0.00     0.006 C 
BRANCH  13  14
ATOM     14  C   UNL     1      17.634  -0.598  19.003  1.00  0.00     0.053 C 
BRANCH  14  15
ATOM     15  C   UNL     1      17.439   0.613  19.863  1.00  0.00     0.041 C 
ATOM     16  O   UNL     1      16.372   0.767  20.510  1.00  0.00    -0.550 OA
ATOM     17  O   UNL     1      18.444   1.568  19.961  1.00  0.00    -0.550 OA
ENDBRANCH  14  15
ENDBRANCH  13  14
ENDBRANCH  12  13
ENDBRANCH  11  12
ENDBRANCH  10  11
ENDBRANCH   9  10
ENDBRANCH   8   9
ENDBRANCH   7   8
ENDBRANCH   6   7
ENDBRANCH   5   6
ENDBRANCH   4   5
ENDBRANCH   3   4
ENDBRANCH   2   3
ENDBRANCH   1   2
BRANCH   1  18
ATOM     18  C   UNL     1      18.151   0.093  24.989  1.00  0.00     0.000 C 
BRANCH  18  19
ATOM     19  C   UNL     1      17.282  -0.818  25.886  1.00  0.00     0.000 C 
BRANCH  19  20
ATOM     20  C   UNL     1      16.403  -1.813  25.110  1.00  0.00     0.000 C 
BRANCH  20  21
ATOM     21  C   UNL     1      16.734  -3.291  25.399  1.00  0.00     0.000 C 
BRANCH  21  22
ATOM     22  C   UNL     1      17.291  -4.022  24.156  1.00  0.00     0.000 C 
BRANCH  22  23
ATOM     23  C   UNL     1      18.822  -4.195  24.181  1.00  0.00     0.000 C 
BRANCH  23  24
ATOM     24  C   UNL     1      19.415  -4.881  22.936  1.00  0.00    -0.000 C 
BRANCH  24  25
ATOM     25  C   UNL     1      18.644  -4.547  21.647  1.00  0.00    -0.000 C 
BRANCH  25  26
ATOM     26  C   UNL     1      19.284  -5.205  20.413  1.00  0.00    -0.000 C 
BRANCH  26  27
ATOM     27  C   UNL     1      18.233  -5.640  19.376  1.00  0.00    -0.000 C 
BRANCH  27  28
ATOM     28  C   UNL     1      16.810  -5.182  19.732  1.00  0.00    -0.000 C 
BRANCH  28  29
ATOM     29  C   UNL     1      16.199  -4.247  18.668  1.00  0.00    -0.000 C 
BRANCH  29  30
ATOM     30  C   UNL     1      16.851  -4.408  17.287  1.00  0.00    -0.000 C 
BRANCH  30  31
ATOM     31  C   UNL     1      15.834  -4.493  16.129  1.00  0.00    -0.003 C 
ATOM     32  C   UNL     1      14.425  -4.113  16.574  1.00  0.00     0.004 C 
ENDBRANCH  30  31
ENDBRANCH  29  30
ENDBRANCH  28  29
ENDBRANCH  27  28
ENDBRANCH  26  27
ENDBRANCH  25  26
ENDBRANCH  24  25
ENDBRANCH  23  24
ENDBRANCH  22  23
ENDBRANCH  21  22
ENDBRANCH  20  21
ENDBRANCH  19  20
ENDBRANCH  18  19
ENDBRANCH   1  18
TORSDOF 28
ENDMDL
MODEL 8
REMARK VINA RESULT:    -4.343      1.423      3.543
REMARK INTER + INTRA:         -18.012
REMARK INTER:                 -11.504
REMARK INTRA:                  -6.509
REMARK UNBOUND:                -6.560
REMARK SMILES CCCCCCCCCCCCCCCCCCCCCCCCCCCCCC(=O)[O-]
REMARK SMILES IDX 16 1 17 2 18 3 19 4 20 5 21 6 22 7 23 8 24 9 25 10 26 11
REMARK SMILES IDX 27 12 28 13 29 14 30 15 31 16 32 17 15 18 14 19 13 20 12 21
REMARK SMILES IDX 11 22 10 23 9 24 8 25 7 26 6 27 5 28 4 29 3 30 2 31 1 32
REMARK H PARENT
REMARK Flexibility Score: inf
ROOT
ATOM      1  C   UNL     1      16.712  -1.676  21.973  1.00  0.00     0.000 C 
ENDROOT
BRANCH   1   2
ATOM      2  C   UNL     1      17.623  -2.221  20.863  1.00  0.00     0.000 C 
BRANCH   2   3
ATOM      3  C   UNL     1      17.481  -1.425  19.555  1.00  0.00     0.000 C 
BRANCH   3   4
ATOM      4  C   UNL     1      18.841  -1.120  18.901  1.00  0.00     0.000 C 
BRANCH   4   5
ATOM      5  C   UNL     1      19.938  -2.122  19.302  1.00  0.00     0.000 C 
BRANCH   5   6
ATOM      6  C   UNL     1      20.638  -2.830  18.124  1.00  0.00     0.000 C 
BRANCH   6   7
ATOM      7  C   UNL     1      22.163  -2.990  18.264  1.00  0.00     0.000 C 
BRANCH   7   8
ATOM      8  C   UNL     1      22.721  -4.344  17.786  1.00  0.00     0.000 C 
BRANCH   8   9
ATOM      9  C   UNL     1      22.595  -5.493  18.805  1.00  0.00     0.000 C 
BRANCH   9  10
ATOM     10  C   UNL     1      21.461  -6.494  18.515  1.00  0.00     0.000 C 
BRANCH  10  11
ATOM     11  C   UNL     1      20.583  -6.857  19.729  1.00  0.00     0.000 C 
BRANCH  11  12
ATOM     12  C   UNL     1      19.066  -6.857  19.464  1.00  0.00     0.000 C 
BRANCH  12  13
ATOM     13  C   UNL     1      18.370  -5.498  19.663  1.00  0.00     0.006 C 
BRANCH  13  14
ATOM     14  C   UNL     1      16.857  -5.522  19.383  1.00  0.00     0.053 C 
BRANCH  14  15
ATOM     15  C   UNL     1      16.521  -4.930  18.049  1.00  0.00     0.041 C 
ATOM     16  O   UNL     1      15.392  -5.130  17.531  1.00  0.00    -0.550 OA
ATOM     17  O   UNL     1      17.451  -4.144  17.380  1.00  0.00    -0.550 OA
ENDBRANCH  14  15
ENDBRANCH  13  14
ENDBRANCH  12  13
ENDBRANCH  11  12
ENDBRANCH  10  11
ENDBRANCH   9  10
ENDBRANCH   8   9
ENDBRANCH   7   8
ENDBRANCH   6   7
ENDBRANCH   5   6
ENDBRANCH   4   5
ENDBRANCH   3   4
ENDBRANCH   2   3
ENDBRANCH   1   2
BRANCH   1  18
ATOM     18  C   UNL     1      16.845  -2.493  23.269  1.00  0.00     0.000 C 
BRANCH  18  19
ATOM     19  C   UNL     1      17.893  -3.619  23.118  1.00  0.00     0.000 C 
BRANCH  19  20
ATOM     20  C   UNL     1      19.008  -3.587  24.177  1.00  0.00     0.000 C 
BRANCH  20  21
ATOM     21  C   UNL     1      20.228  -4.461  23.822  1.00  0.00     0.000 C 
BRANCH  21  22
ATOM     22  C   UNL     1      20.627  -4.336  22.334  1.00  0.00     0.000 C 
BRANCH  22  23
ATOM     23  C   UNL     1      22.036  -3.749  22.124  1.00  0.00     0.000 C 
BRANCH  23  24
ATOM     24  C   UNL     1      22.074  -2.224  21.908  1.00  0.00    -0.000 C 
BRANCH  24  25
ATOM     25  C   UNL     1      22.509  -1.454  23.167  1.00  0.00    -0.000 C 
BRANCH  25  26
ATOM     26  C   UNL     1      21.387  -0.544  23.695  1.00  0.00    -0.000 C 
BRANCH  26  27
ATOM     27  C   UNL     1      20.272  -0.335  22.655  1.00  0.00    -0.000 C 
BRANCH  27  28
ATOM     28  C   UNL     1      19.550   1.012  22.806  1.00  0.00    -0.000 C 
BRANCH  28  29
ATOM     29  C   UNL     1      18.758   1.411  21.544  1.00  0.00    -0.000 C 
BRANCH  29  30
ATOM     30  C   UNL     1      17.379   2.003  21.866  1.00  0.00    -0.000 C 
BRANCH  30  31
ATOM     31  C   UNL     1      16.352   1.833  20.727  1.00  0.00    -0.003 C 
ATOM     32  C   UNL     1      16.940   2.192  19.366  1.00  0.00     0.004 C 
ENDBRANCH  30  31
ENDBRANCH  29  30
ENDBRANCH  28  29
ENDBRANCH  27  28
ENDBRANCH  26  27
ENDBRANCH  25  26
ENDBRANCH  24  25
ENDBRANCH  23  24
ENDBRANCH  22  23
ENDBRANCH  21  22
ENDBRANCH  20  21
ENDBRANCH  19  20
ENDBRANCH  18  19
ENDBRANCH   1  18
TORSDOF 28
ENDMDL
MODEL 9
REMARK VINA RESULT:    -4.337      2.177      6.679
REMARK INTER + INTRA:         -17.996
REMARK INTER:                 -12.583
REMARK INTRA:                  -5.413
REMARK UNBOUND:                -6.560
REMARK SMILES CCCCCCCCCCCCCCCCCCCCCCCCCCCCCC(=O)[O-]
REMARK SMILES IDX 16 1 17 2 18 3 19 4 20 5 21 6 22 7 23 8 24 9 25 10 26 11
REMARK SMILES IDX 27 12 28 13 29 14 30 15 31 16 32 17 15 18 14 19 13 20 12 21
REMARK SMILES IDX 11 22 10 23 9 24 8 25 7 26 6 27 5 28 4 29 3 30 2 31 1 32
REMARK H PARENT
REMARK Flexibility Score: inf
ROOT
ATOM      1  C   UNL     1      19.969  -2.524  18.858  1.00  0.00     0.000 C 
ENDROOT
BRANCH   1   2
ATOM      2  C   UNL     1      19.416  -1.119  19.140  1.00  0.00     0.000 C 
BRANCH   2   3
ATOM      3  C   UNL     1      18.955  -0.961  20.598  1.00  0.00     0.000 C 
BRANCH   3   4
ATOM      4  C   UNL     1      19.002   0.502  21.075  1.00  0.00     0.000 C 
BRANCH   4   5
ATOM      5  C   UNL     1      19.674   0.664  22.450  1.00  0.00     0.000 C 
BRANCH   5   6
ATOM      6  C   UNL     1      20.200  -0.642  23.078  1.00  0.00     0.000 C 
BRANCH   6   7
ATOM      7  C   UNL     1      21.732  -0.748  23.191  1.00  0.00     0.000 C 
BRANCH   7   8
ATOM      8  C   UNL     1      22.349  -1.989  22.518  1.00  0.00     0.000 C 
BRANCH   8   9
ATOM      9  C   UNL     1      21.356  -3.133  22.234  1.00  0.00     0.000 C 
BRANCH   9  10
ATOM     10  C   UNL     1      21.639  -4.440  22.998  1.00  0.00     0.000 C 
BRANCH  10  11
ATOM     11  C   UNL     1      20.790  -4.651  24.268  1.00  0.00     0.000 C 
BRANCH  11  12
ATOM     12  C   UNL     1      19.464  -3.869  24.306  1.00  0.00     0.000 C 
BRANCH  12  13
ATOM     13  C   UNL     1      18.311  -4.502  23.507  1.00  0.00     0.006 C 
BRANCH  13  14
ATOM     14  C   UNL     1      17.341  -3.480  22.889  1.00  0.00     0.053 C 
BRANCH  14  15
ATOM     15  C   UNL     1      16.552  -2.750  23.932  1.00  0.00     0.041 C 
ATOM     16  O   UNL     1      16.404  -1.503  23.860  1.00  0.00    -0.550 OA
ATOM     17  O   UNL     1      15.967  -3.449  24.981  1.00  0.00    -0.550 OA
ENDBRANCH  14  15
ENDBRANCH  13  14
ENDBRANCH  12  13
ENDBRANCH  11  12
ENDBRANCH  10  11
ENDBRANCH   9  10
ENDBRANCH   8   9
ENDBRANCH   7   8
ENDBRANCH   6   7
ENDBRANCH   5   6
ENDBRANCH   4   5
ENDBRANCH   3   4
ENDBRANCH   2   3
ENDBRANCH   1   2
BRANCH   1  18
ATOM     18  C   UNL     1      20.680  -2.592  17.497  1.00  0.00     0.000 C 
BRANCH  18  19
ATOM     19  C   UNL     1      21.767  -3.692  17.485  1.00  0.00     0.000 C 
BRANCH  19  20
ATOM     20  C   UNL     1      22.850  -3.520  18.564  1.00  0.00     0.000 C 
BRANCH  20  21
ATOM     21  C   UNL     1      23.116  -4.797  19.386  1.00  0.00     0.000 C 
BRANCH  21  22
ATOM     22  C   UNL     1      22.510  -6.057  18.727  1.00  0.00     0.000 C 
BRANCH  22  23
ATOM     23  C   UNL     1      21.667  -6.910  19.695  1.00  0.00     0.000 C 
BRANCH  23  24
ATOM     24  C   UNL     1      20.149  -6.872  19.435  1.00  0.00    -0.000 C 
BRANCH  24  25
ATOM     25  C   UNL     1      19.406  -5.912  20.381  1.00  0.00    -0.000 C 
BRANCH  25  26
ATOM     26  C   UNL     1      18.018  -5.534  19.837  1.00  0.00    -0.000 C 
BRANCH  26  27
ATOM     27  C   UNL     1      17.597  -6.424  18.654  1.00  0.00    -0.000 C 
BRANCH  27  28
ATOM     28  C   UNL     1      17.625  -5.689  17.305  1.00  0.00    -0.000 C 
BRANCH  28  29
ATOM     29  C   UNL     1      17.243  -4.199  17.429  1.00  0.00    -0.000 C 
BRANCH  29  30
ATOM     30  C   UNL     1      15.970  -3.843  16.649  1.00  0.00    -0.000 C 
BRANCH  30  31
ATOM     31  C   UNL     1      14.839  -4.881  16.804  1.00  0.00    -0.003 C 
ATOM     32  C   UNL     1      13.552  -4.433  16.117  1.00  0.00     0.004 C 
ENDBRANCH  30  31
ENDBRANCH  29  30
ENDBRANCH  28  29
ENDBRANCH  27  28
ENDBRANCH  26  27
ENDBRANCH  25  26
ENDBRANCH  24  25
ENDBRANCH  23  24
ENDBRANCH  22  23
ENDBRANCH  21  22
ENDBRANCH  20  21
ENDBRANCH  19  20
ENDBRANCH  18  19
ENDBRANCH   1  18
TORSDOF 28
ENDMDL
