MODEL 1
REMARK VINA RESULT:    -5.793      0.000      0.000
REMARK INTER + INTRA:          -6.786
REMARK INTER:                  -6.639
REMARK INTRA:                  -0.147
REMARK UNBOUND:                -0.147
REMARK SMILES O=C([O-])C=Cc1ccc(O)cc1
REMARK SMILES IDX 6 1 7 2 12 3 8 4 11 5 9 6 5 7 4 8 2 9 1 10 3 11 10 12
REMARK H PARENT 10 13
REMARK Flexibility Score: inf
ROOT
ATOM      1  C   UNL     1      10.646  -3.961  19.748  1.00  0.00    -0.025 A 
ATOM      2  C   UNL     1       9.260  -4.217  19.732  1.00  0.00     0.012 A 
ATOM      3  C   UNL     1      11.535  -5.050  19.773  1.00  0.00     0.012 A 
ATOM      4  C   UNL     1       8.782  -5.530  19.764  1.00  0.00     0.047 A 
ATOM      5  C   UNL     1      11.054  -6.362  19.805  1.00  0.00     0.047 A 
ATOM      6  C   UNL     1       9.678  -6.606  19.804  1.00  0.00     0.115 A 
ENDROOT
BRANCH   1   7
ATOM      7  C   UNL     1      11.207  -2.588  19.704  1.00  0.00     0.010 C 
ATOM      8  C   UNL     1      12.354  -2.270  19.086  1.00  0.00     0.025 C 
BRANCH   8   9
ATOM      9  C   UNL     1      12.865  -0.891  19.058  1.00  0.00     0.064 C 
ATOM     10  O   UNL     1      14.006  -0.643  19.529  1.00  0.00    -0.545 OA
ATOM     11  O   UNL     1      12.109   0.144  18.523  1.00  0.00    -0.545 OA
ENDBRANCH   8   9
ENDBRANCH   1   7
BRANCH   6  12
ATOM     12  O   UNL     1       9.212  -7.918  19.837  1.00  0.00    -0.508 OA
ATOM     13  H   UNL     1       8.430  -8.187  20.423  1.00  0.00     0.293 HD
ENDBRANCH   6  12
TORSDOF 3
ENDMDL
MODEL 2
REMARK VINA RESULT:    -5.335      1.363      5.880
REMARK INTER + INTRA:          -6.262
REMARK INTER:                  -6.110
REMARK INTRA:                  -0.152
REMARK UNBOUND:                -0.147
REMARK SMILES O=C([O-])C=Cc1ccc(O)cc1
REMARK SMILES IDX 6 1 7 2 12 3 8 4 11 5 9 6 5 7 4 8 2 9 1 10 3 11 10 12
REMARK H PARENT 10 13
REMARK Flexibility Score: inf
ROOT
ATOM      1  C   UNL     1      11.708  -2.616  19.111  1.00  0.00    -0.025 A 
ATOM      2  C   UNL     1      12.900  -1.909  19.369  1.00  0.00     0.012 A 
ATOM      3  C   UNL     1      10.617  -1.924  18.560  1.00  0.00     0.012 A 
ATOM      4  C   UNL     1      12.983  -0.539  19.102  1.00  0.00     0.047 A 
ATOM      5  C   UNL     1      10.702  -0.554  18.294  1.00  0.00     0.047 A 
ATOM      6  C   UNL     1      11.883   0.142  18.567  1.00  0.00     0.115 A 
ENDROOT
BRANCH   1   7
ATOM      7  C   UNL     1      11.571  -4.072  19.364  1.00  0.00     0.010 C 
ATOM      8  C   UNL     1      10.394  -4.691  19.534  1.00  0.00     0.025 C 
BRANCH   8   9
ATOM      9  C   UNL     1      10.306  -6.140  19.771  1.00  0.00     0.064 C 
ATOM     10  O   UNL     1      11.354  -6.796  20.008  1.00  0.00    -0.545 OA
ATOM     11  O   UNL     1       9.083  -6.801  19.736  1.00  0.00    -0.545 OA
ENDBRANCH   8   9
ENDBRANCH   1   7
BRANCH   6  12
ATOM     12  O   UNL     1      11.954   1.507  18.298  1.00  0.00    -0.508 OA
ATOM     13  H   UNL     1      11.941   2.194  19.043  1.00  0.00     0.293 HD
ENDBRANCH   6  12
TORSDOF 3
ENDMDL
MODEL 3
REMARK VINA RESULT:    -5.166     12.248     14.600
REMARK INTER + INTRA:          -6.067
REMARK INTER:                  -5.923
REMARK INTRA:                  -0.145
REMARK UNBOUND:                -0.147
REMARK SMILES O=C([O-])C=Cc1ccc(O)cc1
REMARK SMILES IDX 6 1 7 2 12 3 8 4 11 5 9 6 5 7 4 8 2 9 1 10 3 11 10 12
REMARK H PARENT 10 13
REMARK Flexibility Score: inf
ROOT
ATOM      1  C   UNL     1       6.641   5.577  10.278  1.00  0.00    -0.025 A 
ATOM      2  C   UNL     1       5.876   6.264   9.314  1.00  0.00     0.012 A 
ATOM      3  C   UNL     1       7.435   6.320  11.167  1.00  0.00     0.012 A 
ATOM      4  C   UNL     1       5.928   7.659   9.232  1.00  0.00     0.047 A 
ATOM      5  C   UNL     1       7.487   7.714  11.082  1.00  0.00     0.047 A 
ATOM      6  C   UNL     1       6.737   8.387  10.114  1.00  0.00     0.115 A 
ENDROOT
BRANCH   1   7
ATOM      7  C   UNL     1       6.612   4.100  10.416  1.00  0.00     0.010 C 
ATOM      8  C   UNL     1       7.707   3.346  10.591  1.00  0.00     0.025 C 
BRANCH   8   9
ATOM      9  C   UNL     1       7.629   1.884  10.734  1.00  0.00     0.064 C 
ATOM     10  O   UNL     1       6.849   1.228   9.996  1.00  0.00    -0.545 OA
ATOM     11  O   UNL     1       8.401   1.213  11.676  1.00  0.00    -0.545 OA
ENDBRANCH   8   9
ENDBRANCH   1   7
BRANCH   6  12
ATOM     12  O   UNL     1       6.798   9.777  10.040  1.00  0.00    -0.508 OA
ATOM     13  H   UNL     1       7.578  10.250   9.599  1.00  0.00     0.293 HD
ENDBRANCH   6  12
TORSDOF 3
ENDMDL
MODEL 4
REMARK VINA RESULT:    -4.939     11.554     12.995
REMARK INTER + INTRA:          -5.808
REMARK INTER:                  -5.656
REMARK INTRA:                  -0.152
REMARK UNBOUND:                -0.147
REMARK SMILES O=C([O-])C=Cc1ccc(O)cc1
REMARK SMILES IDX 6 1 7 2 12 3 8 4 11 5 9 6 5 7 4 8 2 9 1 10 3 11 10 12
REMARK H PARENT 10 13
REMARK Flexibility Score: inf
ROOT
ATOM      1  C   UNL     1       7.051   4.209  10.515  1.00  0.00    -0.025 A 
ATOM      2  C   UNL     1       6.585   3.092   9.793  1.00  0.00     0.012 A 
ATOM      3  C   UNL     1       8.009   4.013  11.523  1.00  0.00     0.012 A 
ATOM      4  C   UNL     1       7.054   1.809  10.094  1.00  0.00     0.047 A 
ATOM      5  C   UNL     1       8.476   2.729  11.822  1.00  0.00     0.047 A 
ATOM      6  C   UNL     1       7.998   1.625  11.111  1.00  0.00     0.115 A 
ENDROOT
BRANCH   1   7
ATOM      7  C   UNL     1       6.595   5.592  10.228  1.00  0.00     0.010 C 
ATOM      8  C   UNL     1       7.202   6.690  10.701  1.00  0.00     0.025 C 
BRANCH   8   9
ATOM      9  C   UNL     1       6.721   8.043  10.381  1.00  0.00     0.064 C 
ATOM     10  O   UNL     1       7.068   9.013  11.105  1.00  0.00    -0.545 OA
ATOM     11  O   UNL     1       5.887   8.270   9.292  1.00  0.00    -0.545 OA
ENDBRANCH   8   9
ENDBRANCH   1   7
BRANCH   6  12
ATOM     12  O   UNL     1       8.471   0.351  11.420  1.00  0.00    -0.508 OA
ATOM     13  H   UNL     1       8.083  -0.477  10.984  1.00  0.00     0.293 HD
ENDBRANCH   6  12
TORSDOF 3
ENDMDL
MODEL 5
REMARK VINA RESULT:    -4.930      2.473      3.068
REMARK INTER + INTRA:          -5.797
REMARK INTER:                  -5.646
REMARK INTRA:                  -0.152
REMARK UNBOUND:                -0.147
REMARK SMILES O=C([O-])C=Cc1ccc(O)cc1
REMARK SMILES IDX 6 1 7 2 12 3 8 4 11 5 9 6 5 7 4 8 2 9 1 10 3 11 10 12
REMARK H PARENT 10 13
REMARK Flexibility Score: inf
ROOT
ATOM      1  C   UNL     1       9.614  -3.091  19.547  1.00  0.00    -0.025 A 
ATOM      2  C   UNL     1       8.930  -4.267  19.917  1.00  0.00     0.012 A 
ATOM      3  C   UNL     1      10.985  -3.170  19.254  1.00  0.00     0.012 A 
ATOM      4  C   UNL     1       9.613  -5.483  20.012  1.00  0.00     0.047 A 
ATOM      5  C   UNL     1      11.666  -4.387  19.351  1.00  0.00     0.047 A 
ATOM      6  C   UNL     1      10.984  -5.545  19.733  1.00  0.00     0.115 A 
ENDROOT
BRANCH   1   7
ATOM      7  C   UNL     1       8.934  -1.778  19.419  1.00  0.00     0.010 C 
ATOM      8  C   UNL     1       9.449  -0.734  18.753  1.00  0.00     0.025 C 
BRANCH   8   9
ATOM      9  C   UNL     1       8.734   0.546  18.643  1.00  0.00     0.064 C 
ATOM     10  O   UNL     1       7.536   0.557  18.254  1.00  0.00    -0.545 OA
ATOM     11  O   UNL     1       9.358   1.748  18.957  1.00  0.00    -0.545 OA
ENDBRANCH   8   9
ENDBRANCH   1   7
BRANCH   6  12
ATOM     12  O   UNL     1      11.674  -6.751  19.826  1.00  0.00    -0.508 OA
ATOM     13  H   UNL     1      11.307  -7.532  20.358  1.00  0.00     0.293 HD
ENDBRANCH   6  12
TORSDOF 3
ENDMDL
MODEL 6
REMARK VINA RESULT:    -4.897      8.878     10.713
REMARK INTER + INTRA:          -5.759
REMARK INTER:                  -5.606
REMARK INTRA:                  -0.154
REMARK UNBOUND:                -0.147
REMARK SMILES O=C([O-])C=Cc1ccc(O)cc1
REMARK SMILES IDX 6 1 7 2 12 3 8 4 11 5 9 6 5 7 4 8 2 9 1 10 3 11 10 12
REMARK H PARENT 10 13
REMARK Flexibility Score: inf
ROOT
ATOM      1  C   UNL     1      19.861  -4.877  18.648  1.00  0.00    -0.025 A 
ATOM      2  C   UNL     1      19.462  -3.624  18.140  1.00  0.00     0.012 A 
ATOM      3  C   UNL     1      20.879  -4.923  19.614  1.00  0.00     0.012 A 
ATOM      4  C   UNL     1      20.088  -2.452  18.576  1.00  0.00     0.047 A 
ATOM      5  C   UNL     1      21.504  -3.750  20.048  1.00  0.00     0.047 A 
ATOM      6  C   UNL     1      21.113  -2.513  19.528  1.00  0.00     0.115 A 
ENDROOT
BRANCH   1   7
ATOM      7  C   UNL     1      19.221  -6.150  18.229  1.00  0.00     0.010 C 
ATOM      8  C   UNL     1      19.689  -7.362  18.557  1.00  0.00     0.025 C 
BRANCH   8   9
ATOM      9  C   UNL     1      19.015  -8.598  18.128  1.00  0.00     0.064 C 
ATOM     10  O   UNL     1      18.198  -8.559  17.171  1.00  0.00    -0.545 OA
ATOM     11  O   UNL     1      19.262  -9.809  18.764  1.00  0.00    -0.545 OA
ENDBRANCH   8   9
ENDBRANCH   1   7
BRANCH   6  12
ATOM     12  O   UNL     1      21.745  -1.352  19.968  1.00  0.00    -0.508 OA
ATOM     13  H   UNL     1      21.218  -0.576  20.353  1.00  0.00     0.293 HD
ENDBRANCH   6  12
TORSDOF 3
ENDMDL
MODEL 7
REMARK VINA RESULT:    -4.761      8.700     10.680
REMARK INTER + INTRA:          -5.603
REMARK INTER:                  -5.463
REMARK INTRA:                  -0.140
REMARK UNBOUND:                -0.147
REMARK SMILES O=C([O-])C=Cc1ccc(O)cc1
REMARK SMILES IDX 6 1 7 2 12 3 8 4 11 5 9 6 5 7 4 8 2 9 1 10 3 11 10 12
REMARK H PARENT 10 13
REMARK Flexibility Score: inf
ROOT
ATOM      1  C   UNL     1      19.764  -4.781  18.995  1.00  0.00    -0.025 A 
ATOM      2  C   UNL     1      20.918  -4.794  19.805  1.00  0.00     0.012 A 
ATOM      3  C   UNL     1      19.324  -3.557  18.463  1.00  0.00     0.012 A 
ATOM      4  C   UNL     1      21.596  -3.605  20.090  1.00  0.00     0.047 A 
ATOM      5  C   UNL     1      20.004  -2.369  18.751  1.00  0.00     0.047 A 
ATOM      6  C   UNL     1      21.138  -2.389  19.566  1.00  0.00     0.115 A 
ENDROOT
BRANCH   1   7
ATOM      7  C   UNL     1      19.015  -6.015  18.651  1.00  0.00     0.010 C 
ATOM      8  C   UNL     1      19.585  -7.221  18.521  1.00  0.00     0.025 C 
BRANCH   8   9
ATOM      9  C   UNL     1      18.800  -8.420  18.190  1.00  0.00     0.064 C 
ATOM     10  O   UNL     1      18.179  -8.473  17.096  1.00  0.00    -0.545 OA
ATOM     11  O   UNL     1      18.728  -9.497  19.067  1.00  0.00    -0.545 OA
ENDBRANCH   8   9
ENDBRANCH   1   7
BRANCH   6  12
ATOM     12  O   UNL     1      21.805  -1.199  19.846  1.00  0.00    -0.508 OA
ATOM     13  H   UNL     1      22.814  -1.165  19.932  1.00  0.00     0.293 HD
ENDBRANCH   6  12
TORSDOF 3
ENDMDL
MODEL 8
REMARK VINA RESULT:    -4.457      8.405      9.045
REMARK INTER + INTRA:          -5.255
REMARK INTER:                  -5.110
REMARK INTRA:                  -0.144
REMARK UNBOUND:                -0.147
REMARK SMILES O=C([O-])C=Cc1ccc(O)cc1
REMARK SMILES IDX 6 1 7 2 12 3 8 4 11 5 9 6 5 7 4 8 2 9 1 10 3 11 10 12
REMARK H PARENT 10 13
REMARK Flexibility Score: inf
ROOT
ATOM      1  C   UNL     1      19.569  -6.328  19.084  1.00  0.00    -0.025 A 
ATOM      2  C   UNL     1      20.136  -7.490  19.648  1.00  0.00     0.012 A 
ATOM      3  C   UNL     1      18.670  -6.465  18.013  1.00  0.00     0.012 A 
ATOM      4  C   UNL     1      19.825  -8.751  19.132  1.00  0.00     0.047 A 
ATOM      5  C   UNL     1      18.361  -7.728  17.499  1.00  0.00     0.047 A 
ATOM      6  C   UNL     1      18.939  -8.873  18.054  1.00  0.00     0.115 A 
ENDROOT
BRANCH   1   7
ATOM      7  C   UNL     1      19.855  -4.967  19.601  1.00  0.00     0.010 C 
ATOM      8  C   UNL     1      20.016  -3.891  18.818  1.00  0.00     0.025 C 
BRANCH   8   9
ATOM      9  C   UNL     1      20.287  -2.557  19.377  1.00  0.00     0.064 C 
ATOM     10  O   UNL     1      19.341  -1.881  19.859  1.00  0.00    -0.545 OA
ATOM     11  O   UNL     1      21.573  -2.027  19.378  1.00  0.00    -0.545 OA
ENDBRANCH   8   9
ENDBRANCH   1   7
BRANCH   6  12
ATOM     12  O   UNL     1      18.624 -10.125  17.531  1.00  0.00    -0.508 OA
ATOM     13  H   UNL     1      17.684 -10.351  17.228  1.00  0.00     0.293 HD
ENDBRANCH   6  12
TORSDOF 3
ENDMDL
MODEL 9
REMARK VINA RESULT:    -4.424      3.648      4.696
REMARK INTER + INTRA:          -5.217
REMARK INTER:                  -5.078
REMARK INTRA:                  -0.139
REMARK UNBOUND:                -0.147
REMARK SMILES O=C([O-])C=Cc1ccc(O)cc1
REMARK SMILES IDX 6 1 7 2 12 3 8 4 11 5 9 6 5 7 4 8 2 9 1 10 3 11 10 12
REMARK H PARENT 10 13
REMARK Flexibility Score: inf
ROOT
ATOM      1  C   UNL     1       9.712  -1.070  18.599  1.00  0.00    -0.025 A 
ATOM      2  C   UNL     1       9.471  -2.117  19.512  1.00  0.00     0.012 A 
ATOM      3  C   UNL     1      10.867  -1.120  17.801  1.00  0.00     0.012 A 
ATOM      4  C   UNL     1      10.380  -3.172  19.635  1.00  0.00     0.047 A 
ATOM      5  C   UNL     1      11.775  -2.176  17.927  1.00  0.00     0.047 A 
ATOM      6  C   UNL     1      11.536  -3.202  18.845  1.00  0.00     0.115 A 
ENDROOT
BRANCH   1   7
ATOM      7  C   UNL     1       8.774   0.066  18.420  1.00  0.00     0.010 C 
ATOM      8  C   UNL     1       9.028   1.315  18.836  1.00  0.00     0.025 C 
BRANCH   8   9
ATOM      9  C   UNL     1       8.073   2.414  18.626  1.00  0.00     0.064 C 
ATOM     10  O   UNL     1       7.137   2.272  17.796  1.00  0.00    -0.545 OA
ATOM     11  O   UNL     1       8.187   3.609  19.327  1.00  0.00    -0.545 OA
ENDBRANCH   8   9
ENDBRANCH   1   7
BRANCH   6  12
ATOM     12  O   UNL     1      12.449  -4.248  18.961  1.00  0.00    -0.508 OA
ATOM     13  H   UNL     1      13.299  -4.150  19.504  1.00  0.00     0.293 HD
ENDBRANCH   6  12
TORSDOF 3
ENDMDL
