MODEL 1
REMARK VINA RESULT:    -6.355      0.000      0.000
REMARK INTER + INTRA:          -8.623
REMARK INTER:                  -8.027
REMARK INTRA:                  -0.595
REMARK UNBOUND:                -0.595
REMARK SMILES O=C(C=Cc1ccc(O)cc1)c1ccc(O)cc1O
REMARK SMILES IDX 4 1 3 2 5 3 6 4 7 5 8 6 11 7 10 8 9 9 2 11 1 12 12 13 18 14
REMARK SMILES IDX 13 15 17 16 14 17 15 18 19 19 16 21
REMARK H PARENT 9 10 19 20 16 22
REMARK Flexibility Score: inf
ROOT
ATOM      1  C   UNL     1      58.576  -4.407  -9.122  1.00  0.00     0.012 C 
ATOM      2  C   UNL     1      59.214  -4.457  -7.944  1.00  0.00     0.053 C 
ENDROOT
BRANCH   1   3
ATOM      3  C   UNL     1      57.099  -4.370  -9.262  1.00  0.00    -0.025 A 
ATOM      4  C   UNL     1      56.461  -5.430  -9.928  1.00  0.00     0.012 A 
ATOM      5  C   UNL     1      55.073  -5.436 -10.092  1.00  0.00     0.047 A 
ATOM      6  C   UNL     1      54.303  -4.378  -9.603  1.00  0.00     0.115 A 
ATOM      7  C   UNL     1      56.317  -3.298  -8.785  1.00  0.00     0.012 A 
ATOM      8  C   UNL     1      54.928  -3.308  -8.951  1.00  0.00     0.047 A 
BRANCH   6   9
ATOM      9  O   UNL     1      52.921  -4.396  -9.773  1.00  0.00    -0.508 OA
ATOM     10  H   UNL     1      52.496  -4.248 -10.681  1.00  0.00     0.293 HD
ENDBRANCH   6   9
ENDBRANCH   1   3
BRANCH   2  11
ATOM     11  C   UNL     1      60.687  -4.493  -7.832  1.00  0.00     0.189 C 
ATOM     12  O   UNL     1      61.356  -4.806  -8.854  1.00  0.00    -0.289 OA
BRANCH  11  13
ATOM     13  C   UNL     1      61.410  -4.186  -6.576  1.00  0.00     0.064 A 
ATOM     14  C   UNL     1      62.507  -3.298  -6.555  1.00  0.00     0.130 A 
ATOM     15  C   UNL     1      61.021  -4.825  -5.387  1.00  0.00     0.020 A 
ATOM     16  C   UNL     1      63.165  -3.031  -5.347  1.00  0.00     0.093 A 
ATOM     17  C   UNL     1      61.686  -4.556  -4.188  1.00  0.00     0.047 A 
ATOM     18  C   UNL     1      62.758  -3.656  -4.164  1.00  0.00     0.119 A 
BRANCH  14  19
ATOM     19  O   UNL     1      62.951  -2.699  -7.734  1.00  0.00    -0.507 OA
ATOM     20  H   UNL     1      62.854  -3.157  -8.633  1.00  0.00     0.293 HD
ENDBRANCH  14  19
BRANCH  18  21
ATOM     21  O   UNL     1      63.425  -3.377  -2.973  1.00  0.00    -0.508 OA
ATOM     22  H   UNL     1      63.990  -2.543  -2.866  1.00  0.00     0.293 HD
ENDBRANCH  18  21
ENDBRANCH  11  13
ENDBRANCH   2  11
TORSDOF 6
ENDMDL
MODEL 2
REMARK VINA RESULT:    -5.370      1.810      2.515
REMARK INTER + INTRA:          -7.378
REMARK INTER:                  -6.707
REMARK INTRA:                  -0.671
REMARK UNBOUND:                -0.595
REMARK SMILES O=C(C=Cc1ccc(O)cc1)c1ccc(O)cc1O
REMARK SMILES IDX 4 1 3 2 5 3 6 4 7 5 8 6 11 7 10 8 9 9 2 11 1 12 12 13 18 14
REMARK SMILES IDX 13 15 17 16 14 17 15 18 19 19 16 21
REMARK H PARENT 9 10 19 20 16 22
REMARK Flexibility Score: inf
ROOT
ATOM      1  C   UNL     1      59.692  -4.509  -7.752  1.00  0.00     0.012 C 
ATOM      2  C   UNL     1      59.837  -3.898  -6.568  1.00  0.00     0.053 C 
ENDROOT
BRANCH   1   3
ATOM      3  C   UNL     1      58.379  -4.767  -8.395  1.00  0.00    -0.025 A 
ATOM      4  C   UNL     1      57.351  -3.825  -8.222  1.00  0.00     0.012 A 
ATOM      5  C   UNL     1      56.094  -4.027  -8.801  1.00  0.00     0.047 A 
ATOM      6  C   UNL     1      55.844  -5.178  -9.553  1.00  0.00     0.115 A 
ATOM      7  C   UNL     1      58.114  -5.933  -9.142  1.00  0.00     0.012 A 
ATOM      8  C   UNL     1      56.856  -6.132  -9.719  1.00  0.00     0.047 A 
BRANCH   6   9
ATOM      9  O   UNL     1      54.588  -5.367 -10.124  1.00  0.00    -0.508 OA
ATOM     10  H   UNL     1      53.941  -6.060  -9.766  1.00  0.00     0.293 HD
ENDBRANCH   6   9
ENDBRANCH   1   3
BRANCH   2  11
ATOM     11  C   UNL     1      61.157  -3.654  -5.950  1.00  0.00     0.189 C 
ATOM     12  O   UNL     1      61.721  -2.547  -6.164  1.00  0.00    -0.289 OA
BRANCH  11  13
ATOM     13  C   UNL     1      61.848  -4.651  -5.099  1.00  0.00     0.064 A 
ATOM     14  C   UNL     1      63.232  -4.893  -5.225  1.00  0.00     0.130 A 
ATOM     15  C   UNL     1      61.100  -5.402  -4.177  1.00  0.00     0.020 A 
ATOM     16  C   UNL     1      63.852  -5.844  -4.401  1.00  0.00     0.093 A 
ATOM     17  C   UNL     1      61.724  -6.350  -3.363  1.00  0.00     0.047 A 
ATOM     18  C   UNL     1      63.102  -6.571  -3.471  1.00  0.00     0.119 A 
BRANCH  14  19
ATOM     19  O   UNL     1      63.985  -4.205  -6.176  1.00  0.00    -0.507 OA
ATOM     20  H   UNL     1      64.145  -3.207  -6.107  1.00  0.00     0.293 HD
ENDBRANCH  14  19
BRANCH  18  21
ATOM     21  O   UNL     1      63.736  -7.512  -2.661  1.00  0.00    -0.508 OA
ATOM     22  H   UNL     1      63.527  -7.586  -1.673  1.00  0.00     0.293 HD
ENDBRANCH  18  21
ENDBRANCH  11  13
ENDBRANCH   2  11
TORSDOF 6
ENDMDL
MODEL 3
REMARK VINA RESULT:    -5.148     10.693     13.975
REMARK INTER + INTRA:          -7.097
REMARK INTER:                  -6.345
REMARK INTRA:                  -0.752
REMARK UNBOUND:                -0.595
REMARK SMILES O=C(C=Cc1ccc(O)cc1)c1ccc(O)cc1O
REMARK SMILES IDX 4 1 3 2 5 3 6 4 7 5 8 6 11 7 10 8 9 9 2 11 1 12 12 13 18 14
REMARK SMILES IDX 13 15 17 16 14 17 15 18 19 19 16 21
REMARK H PARENT 9 10 19 20 16 22
REMARK Flexibility Score: inf
ROOT
ATOM      1  C   UNL     1      47.242  -7.556  -3.976  1.00  0.00     0.012 C 
ATOM      2  C   UNL     1      46.645  -8.659  -3.503  1.00  0.00     0.053 C 
ENDROOT
BRANCH   1   3
ATOM      3  C   UNL     1      47.964  -7.496  -5.271  1.00  0.00    -0.025 A 
ATOM      4  C   UNL     1      47.468  -8.245  -6.351  1.00  0.00     0.012 A 
ATOM      5  C   UNL     1      48.117  -8.227  -7.589  1.00  0.00     0.047 A 
ATOM      6  C   UNL     1      49.279  -7.470  -7.763  1.00  0.00     0.115 A 
ATOM      7  C   UNL     1      49.145  -6.747  -5.450  1.00  0.00     0.012 A 
ATOM      8  C   UNL     1      49.792  -6.732  -6.689  1.00  0.00     0.047 A 
BRANCH   6   9
ATOM      9  O   UNL     1      49.916  -7.461  -9.001  1.00  0.00    -0.508 OA
ATOM     10  H   UNL     1      49.605  -8.054  -9.761  1.00  0.00     0.293 HD
ENDBRANCH   6   9
ENDBRANCH   1   3
BRANCH   2  11
ATOM     11  C   UNL     1      45.931  -8.691  -2.209  1.00  0.00     0.189 C 
ATOM     12  O   UNL     1      44.769  -9.177  -2.180  1.00  0.00    -0.289 OA
BRANCH  11  13
ATOM     13  C   UNL     1      46.516  -8.171  -0.951  1.00  0.00     0.064 A 
ATOM     14  C   UNL     1      45.951  -7.069  -0.276  1.00  0.00     0.130 A 
ATOM     15  C   UNL     1      47.684  -8.763  -0.442  1.00  0.00     0.020 A 
ATOM     16  C   UNL     1      46.532  -6.606   0.914  1.00  0.00     0.093 A 
ATOM     17  C   UNL     1      48.259  -8.293   0.740  1.00  0.00     0.047 A 
ATOM     18  C   UNL     1      47.683  -7.215   1.423  1.00  0.00     0.119 A 
BRANCH  14  19
ATOM     19  O   UNL     1      44.827  -6.425  -0.795  1.00  0.00    -0.507 OA
ATOM     20  H   UNL     1      43.902  -6.833  -0.726  1.00  0.00     0.293 HD
ENDBRANCH  14  19
BRANCH  18  21
ATOM     21  O   UNL     1      48.246  -6.741   2.606  1.00  0.00    -0.508 OA
ATOM     22  H   UNL     1      47.729  -6.134   3.232  1.00  0.00     0.293 HD
ENDBRANCH  18  21
ENDBRANCH  11  13
ENDBRANCH   2  11
TORSDOF 6
ENDMDL
MODEL 4
REMARK VINA RESULT:    -5.133     10.586     13.891
REMARK INTER + INTRA:          -7.078
REMARK INTER:                  -6.486
REMARK INTRA:                  -0.592
REMARK UNBOUND:                -0.595
REMARK SMILES O=C(C=Cc1ccc(O)cc1)c1ccc(O)cc1O
REMARK SMILES IDX 4 1 3 2 5 3 6 4 7 5 8 6 11 7 10 8 9 9 2 11 1 12 12 13 18 14
REMARK SMILES IDX 13 15 17 16 14 17 15 18 19 19 16 21
REMARK H PARENT 9 10 19 20 16 22
REMARK Flexibility Score: inf
ROOT
ATOM      1  C   UNL     1      47.002  -8.239  -4.583  1.00  0.00     0.012 C 
ATOM      2  C   UNL     1      47.303  -7.896  -3.323  1.00  0.00     0.053 C 
ENDROOT
BRANCH   1   3
ATOM      3  C   UNL     1      47.823  -7.864  -5.761  1.00  0.00    -0.025 A 
ATOM      4  C   UNL     1      48.991  -7.111  -5.553  1.00  0.00     0.012 A 
ATOM      5  C   UNL     1      49.793  -6.728  -6.631  1.00  0.00     0.047 A 
ATOM      6  C   UNL     1      49.435  -7.081  -7.935  1.00  0.00     0.115 A 
ATOM      7  C   UNL     1      47.460  -8.204  -7.080  1.00  0.00     0.012 A 
ATOM      8  C   UNL     1      48.265  -7.818  -8.157  1.00  0.00     0.047 A 
BRANCH   6   9
ATOM      9  O   UNL     1      50.243  -6.693  -9.000  1.00  0.00    -0.508 OA
ATOM     10  H   UNL     1      50.855  -5.888  -8.936  1.00  0.00     0.293 HD
ENDBRANCH   6   9
ENDBRANCH   1   3
BRANCH   2  11
ATOM     11  C   UNL     1      46.467  -8.283  -2.166  1.00  0.00     0.189 C 
ATOM     12  O   UNL     1      45.379  -8.880  -2.390  1.00  0.00    -0.289 OA
BRANCH  11  13
ATOM     13  C   UNL     1      46.845  -7.995  -0.764  1.00  0.00     0.064 A 
ATOM     14  C   UNL     1      46.124  -7.067   0.018  1.00  0.00     0.130 A 
ATOM     15  C   UNL     1      47.972  -8.627  -0.213  1.00  0.00     0.020 A 
ATOM     16  C   UNL     1      46.511  -6.822   1.343  1.00  0.00     0.093 A 
ATOM     17  C   UNL     1      48.353  -8.373   1.106  1.00  0.00     0.047 A 
ATOM     18  C   UNL     1      47.622  -7.472   1.889  1.00  0.00     0.119 A 
BRANCH  14  19
ATOM     19  O   UNL     1      45.039  -6.380  -0.526  1.00  0.00    -0.507 OA
ATOM     20  H   UNL     1      44.272  -6.867  -0.975  1.00  0.00     0.293 HD
ENDBRANCH  14  19
BRANCH  18  21
ATOM     21  O   UNL     1      47.991  -7.215   3.208  1.00  0.00    -0.508 OA
ATOM     22  H   UNL     1      48.748  -7.719   3.653  1.00  0.00     0.293 HD
ENDBRANCH  18  21
ENDBRANCH  11  13
ENDBRANCH   2  11
TORSDOF 6
ENDMDL
MODEL 5
REMARK VINA RESULT:    -4.900     11.821     15.068
REMARK INTER + INTRA:          -6.784
REMARK INTER:                  -6.197
REMARK INTRA:                  -0.587
REMARK UNBOUND:                -0.595
REMARK SMILES O=C(C=Cc1ccc(O)cc1)c1ccc(O)cc1O
REMARK SMILES IDX 4 1 3 2 5 3 6 4 7 5 8 6 11 7 10 8 9 9 2 11 1 12 12 13 18 14
REMARK SMILES IDX 13 15 17 16 14 17 15 18 19 19 16 21
REMARK H PARENT 9 10 19 20 16 22
REMARK Flexibility Score: inf
ROOT
ATOM      1  C   UNL     1      46.168  -8.122  -3.252  1.00  0.00     0.012 C 
ATOM      2  C   UNL     1      46.104  -7.101  -2.386  1.00  0.00     0.053 C 
ENDROOT
BRANCH   1   3
ATOM      3  C   UNL     1      47.025  -8.128  -4.463  1.00  0.00    -0.025 A 
ATOM      4  C   UNL     1      48.002  -7.127  -4.599  1.00  0.00     0.012 A 
ATOM      5  C   UNL     1      48.828  -7.085  -5.725  1.00  0.00     0.047 A 
ATOM      6  C   UNL     1      48.684  -8.037  -6.738  1.00  0.00     0.115 A 
ATOM      7  C   UNL     1      46.876  -9.075  -5.496  1.00  0.00     0.012 A 
ATOM      8  C   UNL     1      47.705  -9.031  -6.622  1.00  0.00     0.047 A 
BRANCH   6   9
ATOM      9  O   UNL     1      49.514  -7.985  -7.855  1.00  0.00    -0.508 OA
ATOM     10  H   UNL     1      49.409  -7.265  -8.560  1.00  0.00     0.293 HD
ENDBRANCH   6   9
ENDBRANCH   1   3
BRANCH   2  11
ATOM     11  C   UNL     1      45.241  -7.122  -1.186  1.00  0.00     0.189 C 
ATOM     12  O   UNL     1      43.994  -7.024  -1.346  1.00  0.00    -0.289 OA
BRANCH  11  13
ATOM     13  C   UNL     1      45.774  -7.244   0.191  1.00  0.00     0.064 A 
ATOM     14  C   UNL     1      45.081  -6.711   1.299  1.00  0.00     0.130 A 
ATOM     15  C   UNL     1      47.017  -7.866   0.393  1.00  0.00     0.020 A 
ATOM     16  C   UNL     1      45.616  -6.848   2.588  1.00  0.00     0.093 A 
ATOM     17  C   UNL     1      47.546  -7.993   1.679  1.00  0.00     0.047 A 
ATOM     18  C   UNL     1      46.845  -7.488   2.781  1.00  0.00     0.119 A 
BRANCH  14  19
ATOM     19  O   UNL     1      43.875  -6.035   1.117  1.00  0.00    -0.507 OA
ATOM     20  H   UNL     1      43.516  -5.826   0.193  1.00  0.00     0.293 HD
ENDBRANCH  14  19
BRANCH  18  21
ATOM     21  O   UNL     1      47.360  -7.613   4.069  1.00  0.00    -0.508 OA
ATOM     22  H   UNL     1      48.264  -8.039   4.238  1.00  0.00     0.293 HD
ENDBRANCH  18  21
ENDBRANCH  11  13
ENDBRANCH   2  11
TORSDOF 6
ENDMDL
MODEL 6
REMARK VINA RESULT:    -4.448      1.535      7.656
REMARK INTER + INTRA:          -6.213
REMARK INTER:                  -5.599
REMARK INTRA:                  -0.614
REMARK UNBOUND:                -0.595
REMARK SMILES O=C(C=Cc1ccc(O)cc1)c1ccc(O)cc1O
REMARK SMILES IDX 4 1 3 2 5 3 6 4 7 5 8 6 11 7 10 8 9 9 2 11 1 12 12 13 18 14
REMARK SMILES IDX 13 15 17 16 14 17 15 18 19 19 16 21
REMARK H PARENT 9 10 19 20 16 22
REMARK Flexibility Score: inf
ROOT
ATOM      1  C   UNL     1      61.214  -4.039  -7.655  1.00  0.00     0.012 C 
ATOM      2  C   UNL     1      59.922  -4.335  -7.858  1.00  0.00     0.053 C 
ENDROOT
BRANCH   1   3
ATOM      3  C   UNL     1      61.915  -4.239  -6.362  1.00  0.00    -0.025 A 
ATOM      4  C   UNL     1      61.221  -4.863  -5.312  1.00  0.00     0.012 A 
ATOM      5  C   UNL     1      61.836  -5.067  -4.073  1.00  0.00     0.047 A 
ATOM      6  C   UNL     1      63.149  -4.640  -3.861  1.00  0.00     0.115 A 
ATOM      7  C   UNL     1      63.235  -3.797  -6.136  1.00  0.00     0.012 A 
ATOM      8  C   UNL     1      63.846  -4.002  -4.895  1.00  0.00     0.047 A 
BRANCH   6   9
ATOM      9  O   UNL     1      63.750  -4.849  -2.623  1.00  0.00    -0.508 OA
ATOM     10  H   UNL     1      63.426  -4.373  -1.789  1.00  0.00     0.293 HD
ENDBRANCH   6   9
ENDBRANCH   1   3
BRANCH   2  11
ATOM     11  C   UNL     1      59.249  -4.126  -9.158  1.00  0.00     0.189 C 
ATOM     12  O   UNL     1      59.936  -3.701 -10.125  1.00  0.00    -0.289 OA
BRANCH  11  13
ATOM     13  C   UNL     1      57.806  -4.385  -9.370  1.00  0.00     0.064 A 
ATOM     14  C   UNL     1      56.914  -3.347  -9.717  1.00  0.00     0.130 A 
ATOM     15  C   UNL     1      57.307  -5.684  -9.181  1.00  0.00     0.020 A 
ATOM     16  C   UNL     1      55.555  -3.631  -9.912  1.00  0.00     0.093 A 
ATOM     17  C   UNL     1      55.950  -5.957  -9.372  1.00  0.00     0.047 A 
ATOM     18  C   UNL     1      55.072  -4.932  -9.741  1.00  0.00     0.119 A 
BRANCH  14  19
ATOM     19  O   UNL     1      57.375  -2.037  -9.850  1.00  0.00    -0.507 OA
ATOM     20  H   UNL     1      56.832  -1.247  -9.523  1.00  0.00     0.293 HD
ENDBRANCH  14  19
BRANCH  18  21
ATOM     21  O   UNL     1      53.717  -5.194  -9.939  1.00  0.00    -0.508 OA
ATOM     22  H   UNL     1      53.021  -4.461  -9.870  1.00  0.00     0.293 HD
ENDBRANCH  18  21
ENDBRANCH  11  13
ENDBRANCH   2  11
TORSDOF 6
ENDMDL
MODEL 7
REMARK VINA RESULT:    -4.419     10.945     14.052
REMARK INTER + INTRA:          -6.177
REMARK INTER:                  -5.544
REMARK INTRA:                  -0.633
REMARK UNBOUND:                -0.595
REMARK SMILES O=C(C=Cc1ccc(O)cc1)c1ccc(O)cc1O
REMARK SMILES IDX 4 1 3 2 5 3 6 4 7 5 8 6 11 7 10 8 9 9 2 11 1 12 12 13 18 14
REMARK SMILES IDX 13 15 17 16 14 17 15 18 19 19 16 21
REMARK H PARENT 9 10 19 20 16 22
REMARK Flexibility Score: inf
ROOT
ATOM      1  C   UNL     1      48.453  -7.803  -4.144  1.00  0.00     0.012 C 
ATOM      2  C   UNL     1      47.651  -8.682  -3.525  1.00  0.00     0.053 C 
ENDROOT
BRANCH   1   3
ATOM      3  C   UNL     1      48.466  -7.586  -5.612  1.00  0.00    -0.025 A 
ATOM      4  C   UNL     1      49.603  -7.001  -6.193  1.00  0.00     0.012 A 
ATOM      5  C   UNL     1      49.661  -6.770  -7.571  1.00  0.00     0.047 A 
ATOM      6  C   UNL     1      48.578  -7.111  -8.387  1.00  0.00     0.115 A 
ATOM      7  C   UNL     1      47.373  -7.914  -6.439  1.00  0.00     0.012 A 
ATOM      8  C   UNL     1      47.433  -7.681  -7.817  1.00  0.00     0.047 A 
BRANCH   6   9
ATOM      9  O   UNL     1      48.648  -6.876  -9.757  1.00  0.00    -0.508 OA
ATOM     10  H   UNL     1      48.984  -5.995 -10.127  1.00  0.00     0.293 HD
ENDBRANCH   6   9
ENDBRANCH   1   3
BRANCH   2  11
ATOM     11  C   UNL     1      47.658  -8.877  -2.060  1.00  0.00     0.189 C 
ATOM     12  O   UNL     1      48.458  -9.722  -1.574  1.00  0.00    -0.289 OA
BRANCH  11  13
ATOM     13  C   UNL     1      46.765  -8.133  -1.142  1.00  0.00     0.064 A 
ATOM     14  C   UNL     1      47.196  -7.730   0.140  1.00  0.00     0.130 A 
ATOM     15  C   UNL     1      45.445  -7.860  -1.540  1.00  0.00     0.020 A 
ATOM     16  C   UNL     1      46.323  -7.025   0.981  1.00  0.00     0.093 A 
ATOM     17  C   UNL     1      44.580  -7.162  -0.693  1.00  0.00     0.047 A 
ATOM     18  C   UNL     1      45.018  -6.740   0.567  1.00  0.00     0.119 A 
BRANCH  14  19
ATOM     19  O   UNL     1      48.482  -8.044   0.581  1.00  0.00    -0.507 OA
ATOM     20  H   UNL     1      48.641  -8.728   1.312  1.00  0.00     0.293 HD
ENDBRANCH  14  19
BRANCH  18  21
ATOM     21  O   UNL     1      44.165  -6.040   1.418  1.00  0.00    -0.508 OA
ATOM     22  H   UNL     1      43.354  -6.481   1.835  1.00  0.00     0.293 HD
ENDBRANCH  18  21
ENDBRANCH  11  13
ENDBRANCH   2  11
TORSDOF 6
ENDMDL
MODEL 8
REMARK VINA RESULT:    -4.410     10.603     14.330
REMARK INTER + INTRA:          -6.165
REMARK INTER:                  -5.787
REMARK INTRA:                  -0.378
REMARK UNBOUND:                -0.595
REMARK SMILES O=C(C=Cc1ccc(O)cc1)c1ccc(O)cc1O
REMARK SMILES IDX 4 1 3 2 5 3 6 4 7 5 8 6 11 7 10 8 9 9 2 11 1 12 12 13 18 14
REMARK SMILES IDX 13 15 17 16 14 17 15 18 19 19 16 21
REMARK H PARENT 9 10 19 20 16 22
REMARK Flexibility Score: inf
ROOT
ATOM      1  C   UNL     1      46.611  -8.222  -2.216  1.00  0.00     0.012 C 
ATOM      2  C   UNL     1      47.503  -8.219  -3.217  1.00  0.00     0.053 C 
ENDROOT
BRANCH   1   3
ATOM      3  C   UNL     1      46.952  -7.915  -0.804  1.00  0.00    -0.025 A 
ATOM      4  C   UNL     1      47.934  -8.691  -0.167  1.00  0.00     0.012 A 
ATOM      5  C   UNL     1      48.284  -8.444   1.164  1.00  0.00     0.047 A 
ATOM      6  C   UNL     1      47.650  -7.427   1.881  1.00  0.00     0.115 A 
ATOM      7  C   UNL     1      46.305  -6.899  -0.070  1.00  0.00     0.012 A 
ATOM      8  C   UNL     1      46.658  -6.656   1.261  1.00  0.00     0.047 A 
BRANCH   6   9
ATOM      9  O   UNL     1      48.008  -7.191   3.206  1.00  0.00    -0.508 OA
ATOM     10  H   UNL     1      47.345  -7.310   3.963  1.00  0.00     0.293 HD
ENDBRANCH   6   9
ENDBRANCH   1   3
BRANCH   2  11
ATOM     11  C   UNL     1      47.136  -8.529  -4.615  1.00  0.00     0.189 C 
ATOM     12  O   UNL     1      46.110  -9.232  -4.822  1.00  0.00    -0.289 OA
BRANCH  11  13
ATOM     13  C   UNL     1      47.922  -8.059  -5.779  1.00  0.00     0.064 A 
ATOM     14  C   UNL     1      47.656  -8.525  -7.084  1.00  0.00     0.130 A 
ATOM     15  C   UNL     1      48.983  -7.162  -5.574  1.00  0.00     0.020 A 
ATOM     16  C   UNL     1      48.421  -8.056  -8.162  1.00  0.00     0.093 A 
ATOM     17  C   UNL     1      49.743  -6.703  -6.652  1.00  0.00     0.047 A 
ATOM     18  C   UNL     1      49.462  -7.147  -7.950  1.00  0.00     0.119 A 
BRANCH  14  19
ATOM     19  O   UNL     1      46.648  -9.464  -7.306  1.00  0.00    -0.507 OA
ATOM     20  H   UNL     1      46.211  -9.965  -6.542  1.00  0.00     0.293 HD
ENDBRANCH  14  19
BRANCH  18  21
ATOM     21  O   UNL     1      50.210  -6.692  -9.034  1.00  0.00    -0.508 OA
ATOM     22  H   UNL     1      51.019  -6.096  -8.905  1.00  0.00     0.293 HD
ENDBRANCH  18  21
ENDBRANCH  11  13
ENDBRANCH   2  11
TORSDOF 6
ENDMDL
MODEL 9
REMARK VINA RESULT:    -4.214      1.408      7.693
REMARK INTER + INTRA:          -5.918
REMARK INTER:                  -5.259
REMARK INTRA:                  -0.659
REMARK UNBOUND:                -0.595
REMARK SMILES O=C(C=Cc1ccc(O)cc1)c1ccc(O)cc1O
REMARK SMILES IDX 4 1 3 2 5 3 6 4 7 5 8 6 11 7 10 8 9 9 2 11 1 12 12 13 18 14
REMARK SMILES IDX 13 15 17 16 14 17 15 18 19 19 16 21
REMARK H PARENT 9 10 19 20 16 22
REMARK Flexibility Score: inf
ROOT
ATOM      1  C   UNL     1      60.701  -4.331  -7.607  1.00  0.00     0.012 C 
ATOM      2  C   UNL     1      59.697  -5.210  -7.732  1.00  0.00     0.053 C 
ENDROOT
BRANCH   1   3
ATOM      3  C   UNL     1      61.506  -4.165  -6.371  1.00  0.00    -0.025 A 
ATOM      4  C   UNL     1      62.755  -3.528  -6.463  1.00  0.00     0.012 A 
ATOM      5  C   UNL     1      63.553  -3.355  -5.329  1.00  0.00     0.047 A 
ATOM      6  C   UNL     1      63.120  -3.827  -4.087  1.00  0.00     0.115 A 
ATOM      7  C   UNL     1      61.083  -4.652  -5.117  1.00  0.00     0.012 A 
ATOM      8  C   UNL     1      61.884  -4.478  -3.984  1.00  0.00     0.047 A 
BRANCH   6   9
ATOM      9  O   UNL     1      63.924  -3.649  -2.964  1.00  0.00    -0.508 OA
ATOM     10  H   UNL     1      64.851  -4.055  -2.906  1.00  0.00     0.293 HD
ENDBRANCH   6   9
ENDBRANCH   1   3
BRANCH   2  11
ATOM     11  C   UNL     1      58.910  -5.354  -8.976  1.00  0.00     0.189 C 
ATOM     12  O   UNL     1      59.449  -5.931  -9.958  1.00  0.00    -0.289 OA
BRANCH  11  13
ATOM     13  C   UNL     1      57.526  -4.846  -9.119  1.00  0.00     0.064 A 
ATOM     14  C   UNL     1      56.503  -5.643  -9.676  1.00  0.00     0.130 A 
ATOM     15  C   UNL     1      57.235  -3.528  -8.732  1.00  0.00     0.020 A 
ATOM     16  C   UNL     1      55.204  -5.129  -9.794  1.00  0.00     0.093 A 
ATOM     17  C   UNL     1      55.940  -3.021  -8.858  1.00  0.00     0.047 A 
ATOM     18  C   UNL     1      54.920  -3.822  -9.386  1.00  0.00     0.119 A 
BRANCH  14  19
ATOM     19  O   UNL     1      56.781  -6.934 -10.125  1.00  0.00    -0.507 OA
ATOM     20  H   UNL     1      57.674  -7.379  -9.946  1.00  0.00     0.293 HD
ENDBRANCH  14  19
BRANCH  18  21
ATOM     21  O   UNL     1      53.623  -3.329  -9.513  1.00  0.00    -0.508 OA
ATOM     22  H   UNL     1      52.930  -3.471  -8.787  1.00  0.00     0.293 HD
ENDBRANCH  18  21
ENDBRANCH  11  13
ENDBRANCH   2  11
TORSDOF 6
ENDMDL
