MODEL 1
REMARK VINA RESULT:    -3.709      0.000      0.000
REMARK INTER + INTRA:          -5.342
REMARK INTER:                  -5.661
REMARK INTRA:                   0.320
REMARK UNBOUND:                 0.320
REMARK SMILES CC1=CCC[C@H](C)C(=O)C[C@H](C(C)C)C(=O)C1
REMARK SMILES IDX 8 1 9 2 6 3 7 4 5 5 4 6 3 7 2 8 1 9 10 11 11 12 15 13 16 14
REMARK SMILES IDX 17 15 12 17 13 18 14 19
REMARK H PARENT
REMARK Flexibility Score: 70.00
ROOT
ATOM      1  C   UNL     1      17.320  22.713  35.287  1.00  0.00     0.136 C 
ATOM      2  O   UNL     1      17.647  23.405  34.333  1.00  0.00    -0.299 OA
ENDROOT
BRANCH   1   3
ATOM      3  C   UNL     1      17.967  21.339  35.414  1.00  0.00     0.053 C 
ATOM      4  C   UNL     1      18.948  21.146  34.247  1.00  0.00     0.016 C 
BRANCH   3   5
ATOM      5  C   UNL     1      18.695  21.022  36.749  1.00  0.00     0.015 C 
BRANCH   5   6
ATOM      6  C   UNL     1      18.289  19.720  37.473  1.00  0.00     0.028 C 
BRANCH   6   7
ATOM      7  C   UNL     1      18.124  19.885  38.964  1.00  0.00    -0.028 C 
ATOM      8  C   UNL     1      16.983  20.244  39.599  1.00  0.00    -0.070 CG0
ATOM      9  C   UNL     1      17.014  20.330  41.104  1.00  0.00     0.039 C 
ATOM     10  G   UNL     1      15.671  20.527  38.889  1.00  0.00     0.000 G0
ENDBRANCH   6   7
ENDBRANCH   5   6
ENDBRANCH   3   5
ENDBRANCH   1   3
BRANCH   1  11
ATOM     11  C   UNL     1      16.341  23.303  36.280  1.00  0.00     0.087 C 
BRANCH  11  12
ATOM     12  C   UNL     1      15.351  22.252  36.854  1.00  0.00     0.066 C 
BRANCH  12  13
ATOM     13  C   UNL     1      15.627  21.949  38.324  1.00  0.00     0.140 C 
ATOM     14  O   UNL     1      15.849  22.885  39.080  1.00  0.00    -0.299 OA
BRANCH  13  15
ATOM     15  C   UNL     1      15.655  20.550  38.891  1.00  0.00     0.106 CG0
ATOM     16  G   UNL     1      16.983  20.262  39.568  1.00  0.00     0.000 G0
ENDBRANCH  13  15
ENDBRANCH  12  13
BRANCH  12  17
ATOM     17  C   UNL     1      13.859  22.634  36.596  1.00  0.00    -0.006 C 
ATOM     18  C   UNL     1      12.892  21.706  37.354  1.00  0.00     0.008 C 
ATOM     19  C   UNL     1      13.573  24.091  37.003  1.00  0.00     0.008 C 
ENDBRANCH  12  17
ENDBRANCH  11  12
ENDBRANCH   1  11
TORSDOF 1
ENDMDL
MODEL 2
REMARK VINA RESULT:    -3.470     12.815     15.701
REMARK INTER + INTRA:          -4.976
REMARK INTER:                  -5.517
REMARK INTRA:                   0.541
REMARK UNBOUND:                 0.320
REMARK SMILES CC1=CCC[C@H](C)C(=O)C[C@H](C(C)C)C(=O)C1
REMARK SMILES IDX 8 1 9 2 6 3 7 4 5 5 4 6 3 7 2 8 1 9 10 11 11 12 15 13 16 14
REMARK SMILES IDX 17 15 12 17 13 18 14 19
REMARK H PARENT
REMARK Flexibility Score: 70.00
ROOT
ATOM      1  C   UNL     1      17.074  11.289  51.128  1.00  0.00     0.136 C 
ATOM      2  O   UNL     1      16.747  10.385  51.886  1.00  0.00    -0.299 OA
ENDROOT
BRANCH   1   3
ATOM      3  C   UNL     1      17.996  12.370  51.679  1.00  0.00     0.053 C 
ATOM      4  C   UNL     1      18.619  11.866  52.990  1.00  0.00     0.016 C 
BRANCH   3   5
ATOM      5  C   UNL     1      19.125  12.880  50.742  1.00  0.00     0.015 C 
BRANCH   5   6
ATOM      6  C   UNL     1      18.746  13.132  49.267  1.00  0.00     0.028 C 
BRANCH   6   7
ATOM      7  C   UNL     1      18.057  14.455  49.038  1.00  0.00    -0.028 C 
ATOM      8  C   UNL     1      16.871  14.630  48.407  1.00  0.00    -0.070 CG0
ATOM      9  C   UNL     1      16.334  16.035  48.300  1.00  0.00     0.039 C 
ATOM     10  G   UNL     1      16.037  13.496  47.838  1.00  0.00     0.000 G0
ENDBRANCH   6   7
ENDBRANCH   5   6
ENDBRANCH   3   5
ENDBRANCH   1   3
BRANCH   1  11
ATOM     11  C   UNL     1      16.573  11.224  49.701  1.00  0.00     0.087 C 
BRANCH  11  12
ATOM     12  C   UNL     1      15.097  11.686  49.553  1.00  0.00     0.066 C 
BRANCH  12  13
ATOM     13  C   UNL     1      14.985  13.015  48.813  1.00  0.00     0.140 C 
ATOM     14  O   UNL     1      14.004  13.717  49.022  1.00  0.00    -0.299 OA
BRANCH  13  15
ATOM     15  C   UNL     1      16.015  13.503  47.824  1.00  0.00     0.106 CG0
ATOM     16  G   UNL     1      16.868  14.607  48.424  1.00  0.00     0.000 G0
ENDBRANCH  13  15
ENDBRANCH  12  13
BRANCH  12  17
ATOM     17  C   UNL     1      14.185  10.581  48.932  1.00  0.00    -0.006 C 
ATOM     18  C   UNL     1      14.951   9.263  48.716  1.00  0.00     0.008 C 
ATOM     19  C   UNL     1      12.956  10.303  49.818  1.00  0.00     0.008 C 
ENDBRANCH  12  17
ENDBRANCH  11  12
ENDBRANCH   1  11
TORSDOF 1
ENDMDL
MODEL 3
REMARK VINA RESULT:    -3.422     12.340     15.318
REMARK INTER + INTRA:          -4.903
REMARK INTER:                  -4.546
REMARK INTRA:                  -0.357
REMARK UNBOUND:                 0.320
REMARK SMILES CC1=CCC[C@H](C)C(=O)C[C@H](C(C)C)C(=O)C1
REMARK SMILES IDX 8 1 9 2 6 3 7 4 5 5 4 6 3 7 2 8 1 9 10 11 11 12 15 13 16 14
REMARK SMILES IDX 17 15 12 17 13 18 14 19
REMARK H PARENT
REMARK Flexibility Score: 70.00
ROOT
ATOM      1  C   UNL     1      16.452  13.274  49.208  1.00  0.00     0.136 C 
ATOM      2  O   UNL     1      16.447  14.366  49.761  1.00  0.00    -0.299 OA
ENDROOT
BRANCH   1   3
ATOM      3  C   UNL     1      17.414  12.220  49.741  1.00  0.00     0.053 C 
ATOM      4  C   UNL     1      18.746  12.900  50.093  1.00  0.00     0.016 C 
BRANCH   3   5
ATOM      5  C   UNL     1      16.935  11.376  50.955  1.00  0.00     0.015 C 
BRANCH   5   6
ATOM      6  C   UNL     1      16.406   9.958  50.654  1.00  0.00     0.028 C 
BRANCH   6   7
ATOM      7  C   UNL     1      14.911   9.902  50.451  1.00  0.00    -0.028 C 
ATOM      8  C   UNL     1      14.280   9.730  49.265  1.00  0.00    -0.070 CG0
ATOM      9  C   UNL     1      12.773   9.676  49.274  1.00  0.00     0.039 C 
ATOM     10  G   UNL     1      14.999   9.552  47.940  1.00  0.00     0.000 G0
ENDBRANCH   6   7
ENDBRANCH   5   6
ENDBRANCH   3   5
ENDBRANCH   1   3
BRANCH   1  11
ATOM     11  C   UNL     1      15.467  13.055  48.078  1.00  0.00     0.087 C 
BRANCH  11  12
ATOM     12  C   UNL     1      15.900  11.921  47.107  1.00  0.00     0.066 C 
BRANCH  12  13
ATOM     13  C   UNL     1      14.887  10.781  47.072  1.00  0.00     0.140 C 
ATOM     14  O   UNL     1      13.930  10.874  46.315  1.00  0.00    -0.299 OA
BRANCH  13  15
ATOM     15  C   UNL     1      14.996   9.548  47.937  1.00  0.00     0.106 CG0
ATOM     16  G   UNL     1      14.290   9.749  49.266  1.00  0.00     0.000 G0
ENDBRANCH  13  15
ENDBRANCH  12  13
BRANCH  12  17
ATOM     17  C   UNL     1      16.243  12.455  45.681  1.00  0.00    -0.006 C 
ATOM     18  C   UNL     1      15.528  13.785  45.381  1.00  0.00     0.008 C 
ATOM     19  C   UNL     1      17.760  12.655  45.505  1.00  0.00     0.008 C 
ENDBRANCH  12  17
ENDBRANCH  11  12
ENDBRANCH   1  11
TORSDOF 1
ENDMDL
MODEL 4
REMARK VINA RESULT:    -3.251      1.888      2.632
REMARK INTER + INTRA:          -4.642
REMARK INTER:                  -4.277
REMARK INTRA:                  -0.365
REMARK UNBOUND:                 0.320
REMARK SMILES CC1=CCC[C@H](C)C(=O)C[C@H](C(C)C)C(=O)C1
REMARK SMILES IDX 8 1 9 2 6 3 7 4 5 5 4 6 3 7 2 8 1 9 10 11 11 12 15 13 16 14
REMARK SMILES IDX 17 15 12 17 13 18 14 19
REMARK H PARENT
REMARK Flexibility Score: 70.00
ROOT
ATOM      1  C   UNL     1      15.763  23.603  37.513  1.00  0.00     0.136 C 
ATOM      2  O   UNL     1      16.699  24.390  37.525  1.00  0.00    -0.299 OA
ENDROOT
BRANCH   1   3
ATOM      3  C   UNL     1      15.910  22.348  36.660  1.00  0.00     0.053 C 
ATOM      4  C   UNL     1      16.235  22.767  35.219  1.00  0.00     0.016 C 
BRANCH   3   5
ATOM      5  C   UNL     1      16.947  21.291  37.131  1.00  0.00     0.015 C 
BRANCH   5   6
ATOM      6  C   UNL     1      17.100  21.095  38.654  1.00  0.00     0.028 C 
BRANCH   6   7
ATOM      7  C   UNL     1      16.172  20.049  39.225  1.00  0.00    -0.028 C 
ATOM      8  C   UNL     1      15.222  20.264  40.165  1.00  0.00    -0.070 CG0
ATOM      9  C   UNL     1      14.376  19.090  40.589  1.00  0.00     0.039 C 
ATOM     10  G   UNL     1      14.936  21.620  40.787  1.00  0.00     0.000 G0
ENDBRANCH   6   7
ENDBRANCH   5   6
ENDBRANCH   3   5
ENDBRANCH   1   3
BRANCH   1  11
ATOM     11  C   UNL     1      14.566  23.921  38.385  1.00  0.00     0.087 C 
BRANCH  11  12
ATOM     12  C   UNL     1      13.682  22.677  38.680  1.00  0.00     0.066 C 
BRANCH  12  13
ATOM     13  C   UNL     1      13.731  22.278  40.152  1.00  0.00     0.140 C 
ATOM     14  O   UNL     1      12.757  22.517  40.853  1.00  0.00    -0.299 OA
BRANCH  13  15
ATOM     15  C   UNL     1      14.926  21.615  40.792  1.00  0.00     0.106 CG0
ATOM     16  G   UNL     1      15.203  20.262  40.160  1.00  0.00     0.000 G0
ENDBRANCH  13  15
ENDBRANCH  12  13
BRANCH  12  17
ATOM     17  C   UNL     1      12.220  22.846  38.158  1.00  0.00    -0.006 C 
ATOM     18  C   UNL     1      12.118  23.955  37.094  1.00  0.00     0.008 C 
ATOM     19  C   UNL     1      11.680  21.533  37.562  1.00  0.00     0.008 C 
ENDBRANCH  12  17
ENDBRANCH  11  12
ENDBRANCH   1  11
TORSDOF 1
ENDMDL
MODEL 5
REMARK VINA RESULT:    -3.250     14.169     15.293
REMARK INTER + INTRA:          -4.640
REMARK INTER:                  -4.509
REMARK INTRA:                  -0.132
REMARK UNBOUND:                 0.320
REMARK SMILES CC1=CCC[C@H](C)C(=O)C[C@H](C(C)C)C(=O)C1
REMARK SMILES IDX 8 1 9 2 6 3 7 4 5 5 4 6 3 7 2 8 1 9 10 11 11 12 15 13 16 14
REMARK SMILES IDX 17 15 12 17 13 18 14 19
REMARK H PARENT
REMARK Flexibility Score: 70.00
ROOT
ATOM      1  C   UNL     1       0.467  24.475  40.501  1.00  0.00     0.136 C 
ATOM      2  O   UNL     1      -0.336  24.936  41.301  1.00  0.00    -0.299 OA
ENDROOT
BRANCH   1   3
ATOM      3  C   UNL     1       1.717  25.296  40.207  1.00  0.00     0.053 C 
ATOM      4  C   UNL     1       1.295  26.735  39.874  1.00  0.00     0.016 C 
BRANCH   3   5
ATOM      5  C   UNL     1       2.816  25.327  41.306  1.00  0.00     0.015 C 
BRANCH   5   6
ATOM      6  C   UNL     1       3.777  24.121  41.366  1.00  0.00     0.028 C 
BRANCH   6   7
ATOM      7  C   UNL     1       3.648  23.309  42.632  1.00  0.00    -0.028 C 
ATOM      8  C   UNL     1       3.338  21.992  42.699  1.00  0.00    -0.070 CG0
ATOM      9  C   UNL     1       3.282  21.353  44.063  1.00  0.00     0.039 C 
ATOM     10  G   UNL     1       3.082  21.119  41.483  1.00  0.00     0.000 G0
ENDBRANCH   6   7
ENDBRANCH   5   6
ENDBRANCH   3   5
ENDBRANCH   1   3
BRANCH   1  11
ATOM     11  C   UNL     1       0.170  23.111  39.914  1.00  0.00     0.087 C 
BRANCH  11  12
ATOM     12  C   UNL     1       1.444  22.243  39.718  1.00  0.00     0.066 C 
BRANCH  12  13
ATOM     13  C   UNL     1       1.702  21.328  40.912  1.00  0.00     0.140 C 
ATOM     14  O   UNL     1       0.747  20.765  41.430  1.00  0.00    -0.299 OA
BRANCH  13  15
ATOM     15  C   UNL     1       3.074  21.094  41.496  1.00  0.00     0.106 CG0
ATOM     16  G   UNL     1       3.323  22.003  42.686  1.00  0.00     0.000 G0
ENDBRANCH  13  15
ENDBRANCH  12  13
BRANCH  12  17
ATOM     17  C   UNL     1       1.435  21.466  38.364  1.00  0.00    -0.006 C 
ATOM     18  C   UNL     1       0.028  20.950  38.011  1.00  0.00     0.008 C 
ATOM     19  C   UNL     1       1.949  22.344  37.208  1.00  0.00     0.008 C 
ENDBRANCH  12  17
ENDBRANCH  11  12
ENDBRANCH   1  11
TORSDOF 1
ENDMDL
MODEL 6
REMARK VINA RESULT:    -3.189      2.401      4.608
REMARK INTER + INTRA:          -4.546
REMARK INTER:                  -4.225
REMARK INTRA:                  -0.321
REMARK UNBOUND:                 0.320
REMARK SMILES CC1=CCC[C@H](C)C(=O)C[C@H](C(C)C)C(=O)C1
REMARK SMILES IDX 8 1 9 2 6 3 7 4 5 5 4 6 3 7 2 8 1 9 10 11 11 12 15 13 16 14
REMARK SMILES IDX 17 15 12 17 13 18 14 19
REMARK H PARENT
REMARK Flexibility Score: 70.00
ROOT
ATOM      1  C   UNL     1      13.593  19.993  38.487  1.00  0.00     0.136 C 
ATOM      2  O   UNL     1      14.129  19.062  37.902  1.00  0.00    -0.299 OA
ENDROOT
BRANCH   1   3
ATOM      3  C   UNL     1      14.046  20.282  39.913  1.00  0.00     0.053 C 
ATOM      4  C   UNL     1      13.651  19.095  40.805  1.00  0.00     0.016 C 
BRANCH   3   5
ATOM      5  C   UNL     1      15.551  20.601  40.126  1.00  0.00     0.015 C 
BRANCH   5   6
ATOM      6  C   UNL     1      16.067  21.941  39.558  1.00  0.00     0.028 C 
BRANCH   6   7
ATOM      7  C   UNL     1      16.507  21.857  38.117  1.00  0.00    -0.028 C 
ATOM      8  C   UNL     1      15.995  22.576  37.090  1.00  0.00    -0.070 CG0
ATOM      9  C   UNL     1      16.589  22.366  35.720  1.00  0.00     0.039 C 
ATOM     10  G   UNL     1      14.888  23.604  37.244  1.00  0.00     0.000 G0
ENDBRANCH   6   7
ENDBRANCH   5   6
ENDBRANCH   3   5
ENDBRANCH   1   3
BRANCH   1  11
ATOM     11  C   UNL     1      12.566  20.804  37.725  1.00  0.00     0.087 C 
BRANCH  11  12
ATOM     12  C   UNL     1      12.674  22.331  37.996  1.00  0.00     0.066 C 
BRANCH  12  13
ATOM     13  C   UNL     1      13.534  23.037  36.952  1.00  0.00     0.140 C 
ATOM     14  O   UNL     1      13.107  23.127  35.809  1.00  0.00    -0.299 OA
BRANCH  13  15
ATOM     15  C   UNL     1      14.894  23.620  37.255  1.00  0.00     0.106 CG0
ATOM     16  G   UNL     1      15.984  22.576  37.089  1.00  0.00     0.000 G0
ENDBRANCH  13  15
ENDBRANCH  12  13
BRANCH  12  17
ATOM     17  C   UNL     1      11.278  23.006  38.172  1.00  0.00    -0.006 C 
ATOM     18  C   UNL     1      10.175  22.243  37.416  1.00  0.00     0.008 C 
ATOM     19  C   UNL     1      10.885  23.107  39.657  1.00  0.00     0.008 C 
ENDBRANCH  12  17
ENDBRANCH  11  12
ENDBRANCH   1  11
TORSDOF 1
ENDMDL
MODEL 7
REMARK VINA RESULT:    -3.164     15.106     16.590
REMARK INTER + INTRA:          -4.509
REMARK INTER:                  -4.180
REMARK INTRA:                  -0.328
REMARK UNBOUND:                 0.320
REMARK SMILES CC1=CCC[C@H](C)C(=O)C[C@H](C(C)C)C(=O)C1
REMARK SMILES IDX 8 1 9 2 6 3 7 4 5 5 4 6 3 7 2 8 1 9 10 11 11 12 15 13 16 14
REMARK SMILES IDX 17 15 12 17 13 18 14 19
REMARK H PARENT
REMARK Flexibility Score: 70.00
ROOT
ATOM      1  C   UNL     1       0.121  22.179  38.872  1.00  0.00     0.136 C 
ATOM      2  O   UNL     1      -0.599  21.844  37.941  1.00  0.00    -0.299 OA
ENDROOT
BRANCH   1   3
ATOM      3  C   UNL     1       1.524  22.670  38.534  1.00  0.00     0.053 C 
ATOM      4  C   UNL     1       2.011  21.942  37.272  1.00  0.00     0.016 C 
BRANCH   3   5
ATOM      5  C   UNL     1       1.710  24.201  38.344  1.00  0.00     0.015 C 
BRANCH   5   6
ATOM      6  C   UNL     1       2.153  25.009  39.582  1.00  0.00     0.028 C 
BRANCH   6   7
ATOM      7  C   UNL     1       1.048  25.836  40.191  1.00  0.00    -0.028 C 
ATOM      8  C   UNL     1       0.559  25.701  41.447  1.00  0.00    -0.070 CG0
ATOM      9  C   UNL     1      -0.535  26.644  41.880  1.00  0.00     0.039 C 
ATOM     10  G   UNL     1       1.072  24.684  42.452  1.00  0.00     0.000 G0
ENDBRANCH   6   7
ENDBRANCH   5   6
ENDBRANCH   3   5
ENDBRANCH   1   3
BRANCH   1  11
ATOM     11  C   UNL     1      -0.463  22.123  40.268  1.00  0.00     0.087 C 
BRANCH  11  12
ATOM     12  C   UNL     1       0.611  22.268  41.382  1.00  0.00     0.066 C 
BRANCH  12  13
ATOM     13  C   UNL     1       0.274  23.391  42.358  1.00  0.00     0.140 C 
ATOM     14  O   UNL     1      -0.693  23.253  43.094  1.00  0.00    -0.299 OA
BRANCH  13  15
ATOM     15  C   UNL     1       1.066  24.673  42.452  1.00  0.00     0.106 CG0
ATOM     16  G   UNL     1       0.546  25.708  41.470  1.00  0.00     0.000 G0
ENDBRANCH  13  15
ENDBRANCH  12  13
BRANCH  12  17
ATOM     17  C   UNL     1       0.903  20.917  42.108  1.00  0.00    -0.006 C 
ATOM     18  C   UNL     1       0.088  19.757  41.507  1.00  0.00     0.008 C 
ATOM     19  C   UNL     1       2.399  20.558  42.047  1.00  0.00     0.008 C 
ENDBRANCH  12  17
ENDBRANCH  11  12
ENDBRANCH   1  11
TORSDOF 1
ENDMDL
MODEL 8
REMARK VINA RESULT:    -3.142      4.973      8.151
REMARK INTER + INTRA:          -4.476
REMARK INTER:                  -4.005
REMARK INTRA:                  -0.471
REMARK UNBOUND:                 0.320
REMARK SMILES CC1=CCC[C@H](C)C(=O)C[C@H](C(C)C)C(=O)C1
REMARK SMILES IDX 8 1 9 2 6 3 7 4 5 5 4 6 3 7 2 8 1 9 10 11 11 12 15 13 16 14
REMARK SMILES IDX 17 15 12 17 13 18 14 19
REMARK H PARENT
REMARK Flexibility Score: 70.00
ROOT
ATOM      1  C   UNL     1      10.174  21.042  40.041  1.00  0.00     0.136 C 
ATOM      2  O   UNL     1      10.033  20.205  40.922  1.00  0.00    -0.299 OA
ENDROOT
BRANCH   1   3
ATOM      3  C   UNL     1       9.110  21.102  38.952  1.00  0.00     0.053 C 
ATOM      4  C   UNL     1       8.845  19.677  38.442  1.00  0.00     0.016 C 
BRANCH   3   5
ATOM      5  C   UNL     1       7.757  21.772  39.321  1.00  0.00     0.015 C 
BRANCH   5   6
ATOM      6  C   UNL     1       7.676  23.306  39.176  1.00  0.00     0.028 C 
BRANCH   6   7
ATOM      7  C   UNL     1       8.040  24.053  40.436  1.00  0.00    -0.028 C 
ATOM      8  C   UNL     1       9.078  24.911  40.575  1.00  0.00    -0.070 CG0
ATOM      9  C   UNL     1       9.262  25.579  41.914  1.00  0.00     0.039 C 
ATOM     10  G   UNL     1      10.041  25.266  39.455  1.00  0.00     0.000 G0
ENDBRANCH   6   7
ENDBRANCH   5   6
ENDBRANCH   3   5
ENDBRANCH   1   3
BRANCH   1  11
ATOM     11  C   UNL     1      11.364  21.974  40.140  1.00  0.00     0.087 C 
BRANCH  11  12
ATOM     12  C   UNL     1      11.412  23.021  38.992  1.00  0.00     0.066 C 
BRANCH  12  13
ATOM     13  C   UNL     1      11.310  24.450  39.517  1.00  0.00     0.140 C 
ATOM     14  O   UNL     1      12.298  24.952  40.036  1.00  0.00    -0.299 OA
BRANCH  13  15
ATOM     15  C   UNL     1      10.046  25.272  39.443  1.00  0.00     0.106 CG0
ATOM     16  G   UNL     1       9.086  24.899  40.560  1.00  0.00     0.000 G0
ENDBRANCH  13  15
ENDBRANCH  12  13
BRANCH  12  17
ATOM     17  C   UNL     1      12.643  22.820  38.053  1.00  0.00    -0.006 C 
ATOM     18  C   UNL     1      13.725  21.943  38.708  1.00  0.00     0.008 C 
ATOM     19  C   UNL     1      12.229  22.183  36.713  1.00  0.00     0.008 C 
ENDBRANCH  12  17
ENDBRANCH  11  12
ENDBRANCH   1  11
TORSDOF 1
ENDMDL
MODEL 9
REMARK VINA RESULT:    -3.052      3.822      6.346
REMARK INTER + INTRA:          -4.339
REMARK INTER:                  -4.124
REMARK INTRA:                  -0.215
REMARK UNBOUND:                 0.320
REMARK SMILES CC1=CCC[C@H](C)C(=O)C[C@H](C(C)C)C(=O)C1
REMARK SMILES IDX 8 1 9 2 6 3 7 4 5 5 4 6 3 7 2 8 1 9 10 11 11 12 15 13 16 14
REMARK SMILES IDX 17 15 12 17 13 18 14 19
REMARK H PARENT
REMARK Flexibility Score: 70.00
ROOT
ATOM      1  C   UNL     1       9.998  20.088  39.218  1.00  0.00     0.136 C 
ATOM      2  O   UNL     1       8.896  19.598  39.421  1.00  0.00    -0.299 OA
ENDROOT
BRANCH   1   3
ATOM      3  C   UNL     1      11.174  19.524  40.006  1.00  0.00     0.053 C 
ATOM      4  C   UNL     1      10.792  18.134  40.536  1.00  0.00     0.016 C 
BRANCH   3   5
ATOM      5  C   UNL     1      12.539  19.430  39.268  1.00  0.00     0.015 C 
BRANCH   5   6
ATOM      6  C   UNL     1      13.569  20.542  39.563  1.00  0.00     0.028 C 
BRANCH   6   7
ATOM      7  C   UNL     1      14.227  21.099  38.325  1.00  0.00    -0.028 C 
ATOM      8  C   UNL     1      14.023  22.335  37.809  1.00  0.00    -0.070 CG0
ATOM      9  C   UNL     1      14.798  22.716  36.573  1.00  0.00     0.039 C 
ATOM     10  G   UNL     1      13.093  23.367  38.423  1.00  0.00     0.000 G0
ENDBRANCH   6   7
ENDBRANCH   5   6
ENDBRANCH   3   5
ENDBRANCH   1   3
BRANCH   1  11
ATOM     11  C   UNL     1      10.102  21.174  38.168  1.00  0.00     0.087 C 
BRANCH  11  12
ATOM     12  C   UNL     1      10.567  22.538  38.749  1.00  0.00     0.066 C 
BRANCH  12  13
ATOM     13  C   UNL     1      11.671  23.172  37.908  1.00  0.00     0.140 C 
ATOM     14  O   UNL     1      11.405  23.523  36.766  1.00  0.00    -0.299 OA
BRANCH  13  15
ATOM     15  C   UNL     1      13.081  23.374  38.407  1.00  0.00     0.106 CG0
ATOM     16  G   UNL     1      14.024  22.343  37.812  1.00  0.00     0.000 G0
ENDBRANCH  13  15
ENDBRANCH  12  13
BRANCH  12  17
ATOM     17  C   UNL     1       9.376  23.516  39.001  1.00  0.00    -0.006 C 
ATOM     18  C   UNL     1       8.158  23.172  38.124  1.00  0.00     0.008 C 
ATOM     19  C   UNL     1       8.944  23.507  40.479  1.00  0.00     0.008 C 
ENDBRANCH  12  17
ENDBRANCH  11  12
ENDBRANCH   1  11
TORSDOF 1
ENDMDL
