MODEL 1
REMARK VINA RESULT:    -4.283      0.000      0.000
REMARK INTER + INTRA:          -4.910
REMARK INTER:                  -4.784
REMARK INTRA:                  -0.126
REMARK UNBOUND:                -0.126
REMARK SMILES COc1cc2ccc(=O)oc2cc1OC
REMARK SMILES IDX 3 1 13 2 12 3 11 4 5 5 4 6 6 7 7 8 8 9 9 10 10 11 2 12 1 13
REMARK SMILES IDX 14 14 15 15
REMARK H PARENT
REMARK Flexibility Score: inf
ROOT
ATOM      1  C   UNL     1      73.940  39.969  21.238  1.00  0.00     0.161 A 
ATOM      2  C   UNL     1      72.714  39.474  21.713  1.00  0.00     0.164 A 
ATOM      3  C   UNL     1      72.127  38.350  21.100  1.00  0.00     0.098 A 
ATOM      4  C   UNL     1      72.757  37.724  20.021  1.00  0.00     0.142 A 
ATOM      5  C   UNL     1      73.987  38.220  19.542  1.00  0.00     0.022 A 
ATOM      6  C   UNL     1      74.574  39.337  20.149  1.00  0.00     0.062 A 
ATOM      7  C   UNL     1      74.592  37.571  18.461  1.00  0.00     0.019 A 
ATOM      8  C   UNL     1      73.968  36.462  17.891  1.00  0.00     0.094 A 
ATOM      9  C   UNL     1      72.747  36.027  18.419  1.00  0.00     0.336 A 
ATOM     10  O   UNL     1      72.167  35.028  17.919  1.00  0.00    -0.246 OA
ATOM     11  O   UNL     1      72.194  36.663  19.449  1.00  0.00    -0.423 OA
ENDROOT
BRANCH   1  12
ATOM     12  O   UNL     1      74.496  41.091  21.873  1.00  0.00    -0.493 OA
ATOM     13  C   UNL     1      75.751  41.099  22.545  1.00  0.00     0.278 C 
ENDBRANCH   1  12
BRANCH   2  14
ATOM     14  O   UNL     1      72.109  40.128  22.799  1.00  0.00    -0.493 OA
ATOM     15  C   UNL     1      70.761  40.585  22.817  1.00  0.00     0.278 C 
ENDBRANCH   2  14
TORSDOF 2
ENDMDL
MODEL 2
REMARK VINA RESULT:    -4.135      2.995      4.535
REMARK INTER + INTRA:          -4.744
REMARK INTER:                  -4.645
REMARK INTRA:                  -0.099
REMARK UNBOUND:                -0.126
REMARK SMILES COc1cc2ccc(=O)oc2cc1OC
REMARK SMILES IDX 3 1 13 2 12 3 11 4 5 5 4 6 6 7 7 8 8 9 9 10 10 11 2 12 1 13
REMARK SMILES IDX 14 14 15 15
REMARK H PARENT
REMARK Flexibility Score: inf
ROOT
ATOM      1  C   UNL     1      74.814  40.100  21.897  1.00  0.00     0.161 A 
ATOM      2  C   UNL     1      74.736  40.103  20.494  1.00  0.00     0.164 A 
ATOM      3  C   UNL     1      73.485  40.238  19.862  1.00  0.00     0.098 A 
ATOM      4  C   UNL     1      72.320  40.368  20.623  1.00  0.00     0.142 A 
ATOM      5  C   UNL     1      72.396  40.366  22.030  1.00  0.00     0.022 A 
ATOM      6  C   UNL     1      73.638  40.233  22.663  1.00  0.00     0.062 A 
ATOM      7  C   UNL     1      71.211  40.500  22.761  1.00  0.00     0.019 A 
ATOM      8  C   UNL     1      69.999  40.630  22.086  1.00  0.00     0.094 A 
ATOM      9  C   UNL     1      70.000  40.623  20.687  1.00  0.00     0.336 A 
ATOM     10  O   UNL     1      68.917  40.740  20.057  1.00  0.00    -0.246 OA
ATOM     11  O   UNL     1      71.142  40.495  20.015  1.00  0.00    -0.423 OA
ENDROOT
BRANCH   1  12
ATOM     12  O   UNL     1      76.078  39.965  22.493  1.00  0.00    -0.493 OA
ATOM     13  C   UNL     1      76.393  40.372  23.821  1.00  0.00     0.278 C 
ENDBRANCH   1  12
BRANCH   2  14
ATOM     14  O   UNL     1      75.928  39.969  19.762  1.00  0.00    -0.493 OA
ATOM     15  C   UNL     1      76.705  41.058  19.278  1.00  0.00     0.278 C 
ENDBRANCH   2  14
TORSDOF 2
ENDMDL
MODEL 3
REMARK VINA RESULT:    -4.010      2.364      4.713
REMARK INTER + INTRA:          -4.605
REMARK INTER:                  -4.472
REMARK INTRA:                  -0.134
REMARK UNBOUND:                -0.126
REMARK SMILES COc1cc2ccc(=O)oc2cc1OC
REMARK SMILES IDX 3 1 13 2 12 3 11 4 5 5 4 6 6 7 7 8 8 9 9 10 10 11 2 12 1 13
REMARK SMILES IDX 14 14 15 15
REMARK H PARENT
REMARK Flexibility Score: inf
ROOT
ATOM      1  C   UNL     1      73.881  39.641  21.175  1.00  0.00     0.161 A 
ATOM      2  C   UNL     1      73.601  39.710  19.799  1.00  0.00     0.164 A 
ATOM      3  C   UNL     1      72.299  40.026  19.364  1.00  0.00     0.098 A 
ATOM      4  C   UNL     1      71.284  40.271  20.292  1.00  0.00     0.142 A 
ATOM      5  C   UNL     1      71.563  40.203  21.672  1.00  0.00     0.022 A 
ATOM      6  C   UNL     1      72.855  39.890  22.110  1.00  0.00     0.062 A 
ATOM      7  C   UNL     1      70.525  40.455  22.575  1.00  0.00     0.019 A 
ATOM      8  C   UNL     1      69.255  40.763  22.090  1.00  0.00     0.094 A 
ATOM      9  C   UNL     1      69.052  40.812  20.707  1.00  0.00     0.336 A 
ATOM     10  O   UNL     1      67.913  41.089  20.248  1.00  0.00    -0.246 OA
ATOM     11  O   UNL     1      70.057  40.569  19.870  1.00  0.00    -0.423 OA
ENDROOT
BRANCH   1  12
ATOM     12  O   UNL     1      75.190  39.324  21.573  1.00  0.00    -0.493 OA
ATOM     13  C   UNL     1      76.034  40.184  22.332  1.00  0.00     0.278 C 
ENDBRANCH   1  12
BRANCH   2  14
ATOM     14  O   UNL     1      74.646  39.456  18.895  1.00  0.00    -0.493 OA
ATOM     15  C   UNL     1      74.771  38.271  18.118  1.00  0.00     0.278 C 
ENDBRANCH   2  14
TORSDOF 2
ENDMDL
MODEL 4
REMARK VINA RESULT:    -3.917      3.071      4.267
REMARK INTER + INTRA:          -4.501
REMARK INTER:                  -4.381
REMARK INTRA:                  -0.121
REMARK UNBOUND:                -0.126
REMARK SMILES COc1cc2ccc(=O)oc2cc1OC
REMARK SMILES IDX 3 1 13 2 12 3 11 4 5 5 4 6 6 7 7 8 8 9 9 10 10 11 2 12 1 13
REMARK SMILES IDX 14 14 15 15
REMARK H PARENT
REMARK Flexibility Score: inf
ROOT
ATOM      1  C   UNL     1      75.084  40.075  20.496  1.00  0.00     0.161 A 
ATOM      2  C   UNL     1      75.019  40.019  21.899  1.00  0.00     0.164 A 
ATOM      3  C   UNL     1      73.769  40.069  22.545  1.00  0.00     0.098 A 
ATOM      4  C   UNL     1      72.592  40.175  21.799  1.00  0.00     0.142 A 
ATOM      5  C   UNL     1      72.655  40.232  20.392  1.00  0.00     0.022 A 
ATOM      6  C   UNL     1      73.895  40.182  19.745  1.00  0.00     0.062 A 
ATOM      7  C   UNL     1      71.458  40.336  19.675  1.00  0.00     0.019 A 
ATOM      8  C   UNL     1      70.248  40.382  20.365  1.00  0.00     0.094 A 
ATOM      9  C   UNL     1      70.262  40.322  21.762  1.00  0.00     0.336 A 
ATOM     10  O   UNL     1      69.180  40.361  22.405  1.00  0.00    -0.246 OA
ATOM     11  O   UNL     1      71.415  40.221  22.420  1.00  0.00    -0.423 OA
ENDROOT
BRANCH   1  12
ATOM     12  O   UNL     1      76.347  40.022  19.885  1.00  0.00    -0.493 OA
ATOM     13  C   UNL     1      76.982  41.125  19.246  1.00  0.00     0.278 C 
ENDBRANCH   1  12
BRANCH   2  14
ATOM     14  O   UNL     1      76.223  39.914  22.616  1.00  0.00    -0.493 OA
ATOM     15  C   UNL     1      76.411  40.376  23.948  1.00  0.00     0.278 C 
ENDBRANCH   2  14
TORSDOF 2
ENDMDL
MODEL 5
REMARK VINA RESULT:    -3.660      2.738      4.674
REMARK INTER + INTRA:          -4.214
REMARK INTER:                  -4.053
REMARK INTRA:                  -0.160
REMARK UNBOUND:                -0.126
REMARK SMILES COc1cc2ccc(=O)oc2cc1OC
REMARK SMILES IDX 3 1 13 2 12 3 11 4 5 5 4 6 6 7 7 8 8 9 9 10 10 11 2 12 1 13
REMARK SMILES IDX 14 14 15 15
REMARK H PARENT
REMARK Flexibility Score: inf
ROOT
ATOM      1  C   UNL     1      71.910  40.011  19.839  1.00  0.00     0.161 A 
ATOM      2  C   UNL     1      71.397  39.883  21.141  1.00  0.00     0.164 A 
ATOM      3  C   UNL     1      72.268  39.943  22.246  1.00  0.00     0.098 A 
ATOM      4  C   UNL     1      73.640  40.128  22.054  1.00  0.00     0.142 A 
ATOM      5  C   UNL     1      74.156  40.257  20.749  1.00  0.00     0.022 A 
ATOM      6  C   UNL     1      73.294  40.198  19.648  1.00  0.00     0.062 A 
ATOM      7  C   UNL     1      75.533  40.442  20.592  1.00  0.00     0.019 A 
ATOM      8  C   UNL     1      76.351  40.493  21.720  1.00  0.00     0.094 A 
ATOM      9  C   UNL     1      75.769  40.357  22.985  1.00  0.00     0.336 A 
ATOM     10  O   UNL     1      76.489  40.401  24.016  1.00  0.00    -0.246 OA
ATOM     11  O   UNL     1      74.455  40.183  23.106  1.00  0.00    -0.423 OA
ENDROOT
BRANCH   1  12
ATOM     12  O   UNL     1      71.012  39.948  18.761  1.00  0.00    -0.493 OA
ATOM     13  C   UNL     1      70.467  41.083  18.096  1.00  0.00     0.278 C 
ENDBRANCH   1  12
BRANCH   2  14
ATOM     14  O   UNL     1      70.013  39.698  21.295  1.00  0.00    -0.493 OA
ATOM     15  C   UNL     1      69.094  40.728  21.638  1.00  0.00     0.278 C 
ENDBRANCH   2  14
TORSDOF 2
ENDMDL
MODEL 6
REMARK VINA RESULT:    -3.471      1.895      2.682
REMARK INTER + INTRA:          -4.003
REMARK INTER:                  -3.887
REMARK INTRA:                  -0.115
REMARK UNBOUND:                -0.126
REMARK SMILES COc1cc2ccc(=O)oc2cc1OC
REMARK SMILES IDX 3 1 13 2 12 3 11 4 5 5 4 6 6 7 7 8 8 9 9 10 10 11 2 12 1 13
REMARK SMILES IDX 14 14 15 15
REMARK H PARENT
REMARK Flexibility Score: inf
ROOT
ATOM      1  C   UNL     1      75.881  40.131  19.796  1.00  0.00     0.161 A 
ATOM      2  C   UNL     1      75.308  40.001  21.073  1.00  0.00     0.164 A 
ATOM      3  C   UNL     1      74.329  39.015  21.305  1.00  0.00     0.098 A 
ATOM      4  C   UNL     1      73.925  38.165  20.272  1.00  0.00     0.142 A 
ATOM      5  C   UNL     1      74.499  38.293  18.991  1.00  0.00     0.022 A 
ATOM      6  C   UNL     1      75.472  39.272  18.756  1.00  0.00     0.062 A 
ATOM      7  C   UNL     1      74.073  37.426  17.980  1.00  0.00     0.019 A 
ATOM      8  C   UNL     1      73.101  36.467  18.263  1.00  0.00     0.094 A 
ATOM      9  C   UNL     1      72.576  36.399  19.558  1.00  0.00     0.336 A 
ATOM     10  O   UNL     1      71.698  35.540  19.835  1.00  0.00    -0.246 OA
ATOM     11  O   UNL     1      72.999  37.236  20.502  1.00  0.00    -0.423 OA
ENDROOT
BRANCH   1  12
ATOM     12  O   UNL     1      76.854  41.125  19.601  1.00  0.00    -0.493 OA
ATOM     13  C   UNL     1      77.938  41.025  18.683  1.00  0.00     0.278 C 
ENDBRANCH   1  12
BRANCH   2  14
ATOM     14  O   UNL     1      75.738  40.874  22.086  1.00  0.00    -0.493 OA
ATOM     15  C   UNL     1      76.266  40.457  23.340  1.00  0.00     0.278 C 
ENDBRANCH   2  14
TORSDOF 2
ENDMDL
MODEL 7
REMARK VINA RESULT:    -3.123      2.920      4.409
REMARK INTER + INTRA:          -3.614
REMARK INTER:                  -3.464
REMARK INTRA:                  -0.150
REMARK UNBOUND:                -0.126
REMARK SMILES COc1cc2ccc(=O)oc2cc1OC
REMARK SMILES IDX 3 1 13 2 12 3 11 4 5 5 4 6 6 7 7 8 8 9 9 10 10 11 2 12 1 13
REMARK SMILES IDX 14 14 15 15
REMARK H PARENT
REMARK Flexibility Score: inf
ROOT
ATOM      1  C   UNL     1      72.002  40.063  21.047  1.00  0.00     0.161 A 
ATOM      2  C   UNL     1      71.737  40.183  19.673  1.00  0.00     0.164 A 
ATOM      3  C   UNL     1      72.794  40.425  18.773  1.00  0.00     0.098 A 
ATOM      4  C   UNL     1      74.105  40.546  19.241  1.00  0.00     0.142 A 
ATOM      5  C   UNL     1      74.373  40.426  20.620  1.00  0.00     0.022 A 
ATOM      6  C   UNL     1      73.326  40.185  21.517  1.00  0.00     0.062 A 
ATOM      7  C   UNL     1      75.696  40.551  21.055  1.00  0.00     0.019 A 
ATOM      8  C   UNL     1      76.705  40.790  20.123  1.00  0.00     0.094 A 
ATOM      9  C   UNL     1      76.364  40.898  18.770  1.00  0.00     0.336 A 
ATOM     10  O   UNL     1      77.259  41.113  17.912  1.00  0.00    -0.246 OA
ATOM     11  O   UNL     1      75.097  40.774  18.383  1.00  0.00    -0.423 OA
ENDROOT
BRANCH   1  12
ATOM     12  O   UNL     1      70.924  39.822  21.915  1.00  0.00    -0.493 OA
ATOM     13  C   UNL     1      70.431  40.756  22.870  1.00  0.00     0.278 C 
ENDBRANCH   1  12
BRANCH   2  14
ATOM     14  O   UNL     1      70.407  40.056  19.239  1.00  0.00    -0.493 OA
ATOM     15  C   UNL     1      69.621  41.125  18.724  1.00  0.00     0.278 C 
ENDBRANCH   2  14
TORSDOF 2
ENDMDL
MODEL 8
REMARK VINA RESULT:    -2.955      2.026      5.458
REMARK INTER + INTRA:          -3.426
REMARK INTER:                  -3.393
REMARK INTRA:                  -0.033
REMARK UNBOUND:                -0.126
REMARK SMILES COc1cc2ccc(=O)oc2cc1OC
REMARK SMILES IDX 3 1 13 2 12 3 11 4 5 5 4 6 6 7 7 8 8 9 9 10 10 11 2 12 1 13
REMARK SMILES IDX 14 14 15 15
REMARK H PARENT
REMARK Flexibility Score: inf
ROOT
ATOM      1  C   UNL     1      72.894  39.254  19.273  1.00  0.00     0.161 A 
ATOM      2  C   UNL     1      74.085  38.532  19.087  1.00  0.00     0.164 A 
ATOM      3  C   UNL     1      75.131  38.654  20.023  1.00  0.00     0.098 A 
ATOM      4  C   UNL     1      74.991  39.490  21.134  1.00  0.00     0.142 A 
ATOM      5  C   UNL     1      73.796  40.214  21.322  1.00  0.00     0.022 A 
ATOM      6  C   UNL     1      72.754  40.096  20.395  1.00  0.00     0.062 A 
ATOM      7  C   UNL     1      73.688  41.040  22.445  1.00  0.00     0.019 A 
ATOM      8  C   UNL     1      74.753  41.125  23.339  1.00  0.00     0.094 A 
ATOM      9  C   UNL     1      75.909  40.377  23.088  1.00  0.00     0.336 A 
ATOM     10  O   UNL     1      76.882  40.438  23.884  1.00  0.00    -0.246 OA
ATOM     11  O   UNL     1      75.986  39.598  22.012  1.00  0.00    -0.423 OA
ENDROOT
BRANCH   1  12
ATOM     12  O   UNL     1      71.872  39.107  18.321  1.00  0.00    -0.493 OA
ATOM     13  C   UNL     1      70.753  39.980  18.196  1.00  0.00     0.278 C 
ENDBRANCH   1  12
BRANCH   2  14
ATOM     14  O   UNL     1      74.191  37.703  17.958  1.00  0.00    -0.493 OA
ATOM     15  C   UNL     1      73.675  36.379  17.878  1.00  0.00     0.278 C 
ENDBRANCH   2  14
TORSDOF 2
ENDMDL
MODEL 9
REMARK VINA RESULT:    -2.717      3.025      4.454
REMARK INTER + INTRA:          -3.161
REMARK INTER:                  -3.058
REMARK INTRA:                  -0.103
REMARK UNBOUND:                -0.126
REMARK SMILES COc1cc2ccc(=O)oc2cc1OC
REMARK SMILES IDX 3 1 13 2 12 3 11 4 5 5 4 6 6 7 7 8 8 9 9 10 10 11 2 12 1 13
REMARK SMILES IDX 14 14 15 15
REMARK H PARENT
REMARK Flexibility Score: inf
ROOT
ATOM      1  C   UNL     1      74.221  40.413  19.751  1.00  0.00     0.161 A 
ATOM      2  C   UNL     1      74.077  40.612  21.134  1.00  0.00     0.164 A 
ATOM      3  C   UNL     1      72.794  40.797  21.686  1.00  0.00     0.098 A 
ATOM      4  C   UNL     1      71.663  40.783  20.864  1.00  0.00     0.142 A 
ATOM      5  C   UNL     1      71.806  40.583  19.476  1.00  0.00     0.022 A 
ATOM      6  C   UNL     1      73.079  40.398  18.924  1.00  0.00     0.062 A 
ATOM      7  C   UNL     1      70.654  40.573  18.683  1.00  0.00     0.019 A 
ATOM      8  C   UNL     1      69.409  40.761  19.280  1.00  0.00     0.094 A 
ATOM      9  C   UNL     1      69.344  40.954  20.664  1.00  0.00     0.336 A 
ATOM     10  O   UNL     1      68.229  41.125  21.223  1.00  0.00    -0.246 OA
ATOM     11  O   UNL     1      70.455  40.958  21.396  1.00  0.00    -0.423 OA
ENDROOT
BRANCH   1  12
ATOM     12  O   UNL     1      75.515  40.231  19.235  1.00  0.00    -0.493 OA
ATOM     13  C   UNL     1      75.812  39.557  18.017  1.00  0.00     0.278 C 
ENDBRANCH   1  12
BRANCH   2  14
ATOM     14  O   UNL     1      75.235  40.621  21.928  1.00  0.00    -0.493 OA
ATOM     15  C   UNL     1      75.244  40.479  23.344  1.00  0.00     0.278 C 
ENDBRANCH   2  14
TORSDOF 2
ENDMDL
