MODEL 1
REMARK VINA RESULT:    -4.439      0.000      0.000
REMARK INTER + INTRA:          -5.151
REMARK INTER:                  -5.088
REMARK INTRA:                  -0.064
REMARK UNBOUND:                -0.064
REMARK SMILES CC(C)[C@@H]([NH3+])C(=O)[O-]
REMARK SMILES IDX 4 1 5 2 6 6 7 7 8 8 2 9 1 10 3 11
REMARK H PARENT 5 3 5 4 5 5
REMARK Flexibility Score: inf
ROOT
ATOM      1  C   UNL     1      20.214  -5.018  16.421  1.00  0.00     0.230 C 
ENDROOT
BRANCH   1   2
ATOM      2  N   UNL     1      19.271  -5.103  17.548  1.00  0.00    -0.350 N 
ATOM      3  H   UNL     1      18.461  -4.456  17.418  1.00  0.00     0.345 HD
ATOM      4  H   UNL     1      18.907  -6.081  17.622  1.00  0.00     0.345 HD
ATOM      5  H   UNL     1      19.756  -4.878  18.445  1.00  0.00     0.345 HD
ENDBRANCH   1   2
BRANCH   1   6
ATOM      6  C   UNL     1      20.996  -6.302  16.282  1.00  0.00     0.099 C 
ATOM      7  O   UNL     1      22.139  -6.399  16.801  1.00  0.00    -0.544 OA
ATOM      8  O   UNL     1      20.489  -7.367  15.546  1.00  0.00    -0.544 OA
ENDBRANCH   1   6
BRANCH   1   9
ATOM      9  C   UNL     1      19.524  -4.641  15.074  1.00  0.00     0.047 C 
ATOM     10  C   UNL     1      20.476  -3.885  14.135  1.00  0.00     0.014 C 
ATOM     11  C   UNL     1      18.217  -3.850  15.253  1.00  0.00     0.014 C 
ENDBRANCH   1   9
TORSDOF 3
ENDMDL
MODEL 2
REMARK VINA RESULT:    -4.417      1.724      1.981
REMARK INTER + INTRA:          -5.126
REMARK INTER:                  -5.080
REMARK INTRA:                  -0.046
REMARK UNBOUND:                -0.064
REMARK SMILES CC(C)[C@@H]([NH3+])C(=O)[O-]
REMARK SMILES IDX 4 1 5 2 6 6 7 7 8 8 2 9 1 10 3 11
REMARK H PARENT 5 3 5 4 5 5
REMARK Flexibility Score: inf
ROOT
ATOM      1  C   UNL     1      21.157  -4.739  16.421  1.00  0.00     0.230 C 
ENDROOT
BRANCH   1   2
ATOM      2  N   UNL     1      21.013  -5.521  17.660  1.00  0.00    -0.350 N 
ATOM      3  H   UNL     1      21.281  -4.961  18.500  1.00  0.00     0.345 HD
ATOM      4  H   UNL     1      20.016  -5.821  17.766  1.00  0.00     0.345 HD
ATOM      5  H   UNL     1      21.599  -6.384  17.615  1.00  0.00     0.345 HD
ENDBRANCH   1   2
BRANCH   1   6
ATOM      6  C   UNL     1      21.518  -5.637  15.263  1.00  0.00     0.099 C 
ATOM      7  O   UNL     1      20.829  -6.665  15.028  1.00  0.00    -0.544 OA
ATOM      8  O   UNL     1      22.633  -5.369  14.476  1.00  0.00    -0.544 OA
ENDBRANCH   1   6
BRANCH   1   9
ATOM      9  C   UNL     1      19.897  -3.884  16.089  1.00  0.00     0.047 C 
ATOM     10  C   UNL     1      20.256  -2.412  15.832  1.00  0.00     0.014 C 
ATOM     11  C   UNL     1      18.790  -3.981  17.151  1.00  0.00     0.014 C 
ENDBRANCH   1   9
TORSDOF 3
ENDMDL
MODEL 3
REMARK VINA RESULT:    -4.362      2.113      2.685
REMARK INTER + INTRA:          -5.063
REMARK INTER:                  -4.989
REMARK INTRA:                  -0.075
REMARK UNBOUND:                -0.064
REMARK SMILES CC(C)[C@@H]([NH3+])C(=O)[O-]
REMARK SMILES IDX 4 1 5 2 6 6 7 7 8 8 2 9 1 10 3 11
REMARK H PARENT 5 3 5 4 5 5
REMARK Flexibility Score: inf
ROOT
ATOM      1  C   UNL     1      20.642  -4.658  15.244  1.00  0.00     0.230 C 
ENDROOT
BRANCH   1   2
ATOM      2  N   UNL     1      20.914  -4.272  13.851  1.00  0.00    -0.350 N 
ATOM      3  H   UNL     1      20.234  -3.555  13.512  1.00  0.00     0.345 HD
ATOM      4  H   UNL     1      21.879  -3.871  13.784  1.00  0.00     0.345 HD
ATOM      5  H   UNL     1      20.877  -5.109  13.227  1.00  0.00     0.345 HD
ENDBRANCH   1   2
BRANCH   1   6
ATOM      6  C   UNL     1      21.897  -4.564  16.079  1.00  0.00     0.099 C 
ATOM      7  O   UNL     1      22.478  -5.614  16.459  1.00  0.00    -0.544 OA
ATOM      8  O   UNL     1      22.396  -3.328  16.475  1.00  0.00    -0.544 OA
ENDBRANCH   1   6
BRANCH   1   9
ATOM      9  C   UNL     1      19.484  -3.838  15.890  1.00  0.00     0.047 C 
ATOM     10  C   UNL     1      19.107  -4.377  17.279  1.00  0.00     0.014 C 
ATOM     11  C   UNL     1      18.232  -3.738  15.003  1.00  0.00     0.014 C 
ENDBRANCH   1   9
TORSDOF 3
ENDMDL
MODEL 4
REMARK VINA RESULT:    -4.352      1.726      2.352
REMARK INTER + INTRA:          -5.051
REMARK INTER:                  -5.004
REMARK INTRA:                  -0.048
REMARK UNBOUND:                -0.064
REMARK SMILES CC(C)[C@@H]([NH3+])C(=O)[O-]
REMARK SMILES IDX 4 1 5 2 6 6 7 7 8 8 2 9 1 10 3 11
REMARK H PARENT 5 3 5 4 5 5
REMARK Flexibility Score: inf
ROOT
ATOM      1  C   UNL     1      20.272  -5.165  14.819  1.00  0.00     0.230 C 
ENDROOT
BRANCH   1   2
ATOM      2  N   UNL     1      21.285  -4.602  13.912  1.00  0.00    -0.350 N 
ATOM      3  H   UNL     1      22.224  -5.029  14.075  1.00  0.00     0.345 HD
ATOM      4  H   UNL     1      21.004  -4.787  12.921  1.00  0.00     0.345 HD
ATOM      5  H   UNL     1      21.347  -3.567  14.034  1.00  0.00     0.345 HD
ENDBRANCH   1   2
BRANCH   1   6
ATOM      6  C   UNL     1      20.874  -6.244  15.687  1.00  0.00     0.099 C 
ATOM      7  O   UNL     1      20.419  -7.417  15.636  1.00  0.00    -0.544 OA
ATOM      8  O   UNL     1      21.898  -5.948  16.580  1.00  0.00    -0.544 OA
ENDBRANCH   1   6
BRANCH   1   9
ATOM      9  C   UNL     1      19.563  -4.084  15.690  1.00  0.00     0.047 C 
ATOM     10  C   UNL     1      18.129  -3.812  15.209  1.00  0.00     0.014 C 
ATOM     11  C   UNL     1      20.347  -2.765  15.791  1.00  0.00     0.014 C 
ENDBRANCH   1   9
TORSDOF 3
ENDMDL
MODEL 5
REMARK VINA RESULT:    -4.339      2.265      2.750
REMARK INTER + INTRA:          -5.036
REMARK INTER:                  -4.987
REMARK INTRA:                  -0.049
REMARK UNBOUND:                -0.064
REMARK SMILES CC(C)[C@@H]([NH3+])C(=O)[O-]
REMARK SMILES IDX 4 1 5 2 6 6 7 7 8 8 2 9 1 10 3 11
REMARK H PARENT 5 3 5 4 5 5
REMARK Flexibility Score: inf
ROOT
ATOM      1  C   UNL     1      20.034  -6.011  15.365  1.00  0.00     0.230 C 
ENDROOT
BRANCH   1   2
ATOM      2  N   UNL     1      20.668  -7.316  15.119  1.00  0.00    -0.350 N 
ATOM      3  H   UNL     1      20.849  -7.468  14.101  1.00  0.00     0.345 HD
ATOM      4  H   UNL     1      21.580  -7.360  15.629  1.00  0.00     0.345 HD
ATOM      5  H   UNL     1      20.065  -8.087  15.484  1.00  0.00     0.345 HD
ENDBRANCH   1   2
BRANCH   1   6
ATOM      6  C   UNL     1      19.477  -5.944  16.766  1.00  0.00     0.099 C 
ATOM      7  O   UNL     1      19.273  -7.006  17.411  1.00  0.00    -0.544 OA
ATOM      8  O   UNL     1      19.140  -4.723  17.340  1.00  0.00    -0.544 OA
ENDBRANCH   1   6
BRANCH   1   9
ATOM      9  C   UNL     1      20.988  -4.808  15.089  1.00  0.00     0.047 C 
ATOM     10  C   UNL     1      20.390  -3.826  14.070  1.00  0.00     0.014 C 
ATOM     11  C   UNL     1      22.400  -5.230  14.652  1.00  0.00     0.014 C 
ENDBRANCH   1   9
TORSDOF 3
ENDMDL
MODEL 6
REMARK VINA RESULT:    -4.318      1.991      2.079
REMARK INTER + INTRA:          -5.012
REMARK INTER:                  -5.082
REMARK INTRA:                   0.070
REMARK UNBOUND:                -0.064
REMARK SMILES CC(C)[C@@H]([NH3+])C(=O)[O-]
REMARK SMILES IDX 4 1 5 2 6 6 7 7 8 8 2 9 1 10 3 11
REMARK H PARENT 5 3 5 4 5 5
REMARK Flexibility Score: inf
ROOT
ATOM      1  C   UNL     1      19.772  -4.808  14.744  1.00  0.00     0.230 C 
ENDROOT
BRANCH   1   2
ATOM      2  N   UNL     1      20.967  -4.589  13.913  1.00  0.00    -0.350 N 
ATOM      3  H   UNL     1      21.017  -5.275  13.127  1.00  0.00     0.345 HD
ATOM      4  H   UNL     1      20.936  -3.624  13.509  1.00  0.00     0.345 HD
ATOM      5  H   UNL     1      21.832  -4.660  14.493  1.00  0.00     0.345 HD
ENDBRANCH   1   2
BRANCH   1   6
ATOM      6  C   UNL     1      19.938  -6.039  15.603  1.00  0.00     0.099 C 
ATOM      7  O   UNL     1      21.037  -6.259  16.176  1.00  0.00    -0.544 OA
ATOM      8  O   UNL     1      18.905  -6.960  15.731  1.00  0.00    -0.544 OA
ENDBRANCH   1   6
BRANCH   1   9
ATOM      9  C   UNL     1      19.400  -3.570  15.616  1.00  0.00     0.047 C 
ATOM     10  C   UNL     1      20.592  -2.617  15.796  1.00  0.00     0.014 C 
ATOM     11  C   UNL     1      18.804  -3.939  16.985  1.00  0.00     0.014 C 
ENDBRANCH   1   9
TORSDOF 3
ENDMDL
MODEL 7
REMARK VINA RESULT:    -4.166      2.373      3.048
REMARK INTER + INTRA:          -4.838
REMARK INTER:                  -4.773
REMARK INTRA:                  -0.066
REMARK UNBOUND:                -0.064
REMARK SMILES CC(C)[C@@H]([NH3+])C(=O)[O-]
REMARK SMILES IDX 4 1 5 2 6 6 7 7 8 8 2 9 1 10 3 11
REMARK H PARENT 5 3 5 4 5 5
REMARK Flexibility Score: inf
ROOT
ATOM      1  C   UNL     1      21.452  -5.510  17.008  1.00  0.00     0.230 C 
ENDROOT
BRANCH   1   2
ATOM      2  N   UNL     1      22.121  -6.820  17.051  1.00  0.00    -0.350 N 
ATOM      3  H   UNL     1      23.137  -6.724  17.278  1.00  0.00     0.345 HD
ATOM      4  H   UNL     1      21.672  -7.415  17.786  1.00  0.00     0.345 HD
ATOM      5  H   UNL     1      22.014  -7.314  16.137  1.00  0.00     0.345 HD
ENDBRANCH   1   2
BRANCH   1   6
ATOM      6  C   UNL     1      22.202  -4.558  16.108  1.00  0.00     0.099 C 
ATOM      7  O   UNL     1      22.291  -4.798  14.876  1.00  0.00    -0.544 OA
ATOM      8  O   UNL     1      22.839  -3.438  16.632  1.00  0.00    -0.544 OA
ENDBRANCH   1   6
BRANCH   1   9
ATOM      9  C   UNL     1      19.953  -5.604  16.590  1.00  0.00     0.047 C 
ATOM     10  C   UNL     1      19.140  -4.406  17.106  1.00  0.00     0.014 C 
ATOM     11  C   UNL     1      19.279  -6.921  17.008  1.00  0.00     0.014 C 
ENDBRANCH   1   9
TORSDOF 3
ENDMDL
MODEL 8
REMARK VINA RESULT:    -4.080      2.852      3.377
REMARK INTER + INTRA:          -4.740
REMARK INTER:                  -4.679
REMARK INTRA:                  -0.061
REMARK UNBOUND:                -0.064
REMARK SMILES CC(C)[C@@H]([NH3+])C(=O)[O-]
REMARK SMILES IDX 4 1 5 2 6 6 7 7 8 8 2 9 1 10 3 11
REMARK H PARENT 5 3 5 4 5 5
REMARK Flexibility Score: inf
ROOT
ATOM      1  C   UNL     1      20.721  -4.791  16.392  1.00  0.00     0.230 C 
ENDROOT
BRANCH   1   2
ATOM      2  N   UNL     1      20.971  -5.394  17.711  1.00  0.00    -0.350 N 
ATOM      3  H   UNL     1      20.566  -4.815  18.480  1.00  0.00     0.345 HD
ATOM      4  H   UNL     1      20.533  -6.344  17.746  1.00  0.00     0.345 HD
ATOM      5  H   UNL     1      21.996  -5.514  17.869  1.00  0.00     0.345 HD
ENDBRANCH   1   2
BRANCH   1   6
ATOM      6  C   UNL     1      19.731  -3.657  16.503  1.00  0.00     0.099 C 
ATOM      7  O   UNL     1      19.971  -2.557  15.940  1.00  0.00    -0.544 OA
ATOM      8  O   UNL     1      18.573  -3.797  17.261  1.00  0.00    -0.544 OA
ENDBRANCH   1   6
BRANCH   1   9
ATOM      9  C   UNL     1      22.026  -4.320  15.680  1.00  0.00     0.047 C 
ATOM     10  C   UNL     1      22.508  -5.340  14.637  1.00  0.00     0.014 C 
ATOM     11  C   UNL     1      23.167  -3.976  16.651  1.00  0.00     0.014 C 
ENDBRANCH   1   9
TORSDOF 3
ENDMDL
MODEL 9
REMARK VINA RESULT:    -4.031      2.034      2.114
REMARK INTER + INTRA:          -4.684
REMARK INTER:                  -4.754
REMARK INTRA:                   0.070
REMARK UNBOUND:                -0.064
REMARK SMILES CC(C)[C@@H]([NH3+])C(=O)[O-]
REMARK SMILES IDX 4 1 5 2 6 6 7 7 8 8 2 9 1 10 3 11
REMARK H PARENT 5 3 5 4 5 5
REMARK Flexibility Score: inf
ROOT
ATOM      1  C   UNL     1      20.820  -5.668  15.753  1.00  0.00     0.230 C 
ENDROOT
BRANCH   1   2
ATOM      2  N   UNL     1      20.822  -6.937  15.009  1.00  0.00    -0.350 N 
ATOM      3  H   UNL     1      20.167  -7.631  15.434  1.00  0.00     0.345 HD
ATOM      4  H   UNL     1      20.523  -6.761  14.021  1.00  0.00     0.345 HD
ATOM      5  H   UNL     1      21.785  -7.340  14.978  1.00  0.00     0.345 HD
ENDBRANCH   1   2
BRANCH   1   6
ATOM      6  C   UNL     1      22.186  -5.026  15.716  1.00  0.00     0.099 C 
ATOM      7  O   UNL     1      22.517  -4.203  16.610  1.00  0.00    -0.544 OA
ATOM      8  O   UNL     1      23.072  -5.298  14.679  1.00  0.00    -0.544 OA
ENDBRANCH   1   6
BRANCH   1   9
ATOM      9  C   UNL     1      19.727  -4.672  15.259  1.00  0.00     0.047 C 
ATOM     10  C   UNL     1      20.245  -3.768  14.130  1.00  0.00     0.014 C 
ATOM     11  C   UNL     1      19.119  -3.818  16.384  1.00  0.00     0.014 C 
ENDBRANCH   1   9
TORSDOF 3
ENDMDL
