MODEL 1
REMARK VINA RESULT:    -3.355      0.000      0.000
REMARK INTER + INTRA:          -5.086
REMARK INTER:                  -4.727
REMARK INTRA:                  -0.358
REMARK UNBOUND:                -0.358
REMARK SMILES CCCCCCCCC(=O)[O-]
REMARK SMILES IDX 6 1 7 2 8 3 9 4 10 5 11 6 5 7 4 8 3 9 2 10 1 11
REMARK H PARENT
REMARK Flexibility Score: inf
ROOT
ATOM      1  C   UNL     1      46.912  31.333  90.154  1.00  0.00     0.000 C 
ENDROOT
BRANCH   1   2
ATOM      2  C   UNL     1      45.566  31.715  90.783  1.00  0.00     0.006 C 
BRANCH   2   3
ATOM      3  C   UNL     1      44.888  30.495  91.414  1.00  0.00     0.053 C 
BRANCH   3   4
ATOM      4  C   UNL     1      43.723  30.918  92.251  1.00  0.00     0.041 C 
ATOM      5  O   UNL     1      43.821  31.913  93.016  1.00  0.00    -0.550 OA
ATOM      6  O   UNL     1      42.545  30.183  92.223  1.00  0.00    -0.550 OA
ENDBRANCH   3   4
ENDBRANCH   2   3
ENDBRANCH   1   2
BRANCH   1   7
ATOM      7  C   UNL     1      47.341  29.926  90.584  1.00  0.00     0.000 C 
BRANCH   7   8
ATOM      8  C   UNL     1      48.861  29.847  90.774  1.00  0.00    -0.000 C 
BRANCH   8   9
ATOM      9  C   UNL     1      49.452  31.235  91.062  1.00  0.00    -0.000 C 
BRANCH   9  10
ATOM     10  C   UNL     1      50.646  31.181  92.026  1.00  0.00    -0.003 C 
ATOM     11  C   UNL     1      50.687  32.371  92.984  1.00  0.00     0.004 C 
ENDBRANCH   9  10
ENDBRANCH   8   9
ENDBRANCH   7   8
ENDBRANCH   1   7
TORSDOF 7
ENDMDL
MODEL 2
REMARK VINA RESULT:    -3.175     16.498     18.037
REMARK INTER + INTRA:          -4.833
REMARK INTER:                  -4.043
REMARK INTRA:                  -0.790
REMARK UNBOUND:                -0.358
REMARK SMILES CCCCCCCCC(=O)[O-]
REMARK SMILES IDX 6 1 7 2 8 3 9 4 10 5 11 6 5 7 4 8 3 9 2 10 1 11
REMARK H PARENT
REMARK Flexibility Score: inf
ROOT
ATOM      1  C   UNL     1      39.469  21.714  78.859  1.00  0.00     0.000 C 
ENDROOT
BRANCH   1   2
ATOM      2  C   UNL     1      40.305  20.493  78.458  1.00  0.00     0.006 C 
BRANCH   2   3
ATOM      3  C   UNL     1      41.178  20.017  79.623  1.00  0.00     0.053 C 
BRANCH   3   4
ATOM      4  C   UNL     1      42.597  20.442  79.422  1.00  0.00     0.041 C 
ATOM      5  O   UNL     1      43.032  21.483  79.982  1.00  0.00    -0.550 OA
ATOM      6  O   UNL     1      43.428  19.717  78.578  1.00  0.00    -0.550 OA
ENDBRANCH   3   4
ENDBRANCH   2   3
ENDBRANCH   1   2
BRANCH   1   7
ATOM      7  C   UNL     1      39.265  21.767  80.378  1.00  0.00     0.000 C 
BRANCH   7   8
ATOM      8  C   UNL     1      37.779  21.913  80.729  1.00  0.00    -0.000 C 
BRANCH   8   9
ATOM      9  C   UNL     1      36.969  20.719  80.203  1.00  0.00    -0.000 C 
BRANCH   9  10
ATOM     10  C   UNL     1      37.255  19.423  80.977  1.00  0.00    -0.003 C 
ATOM     11  C   UNL     1      37.623  18.257  80.061  1.00  0.00     0.004 C 
ENDBRANCH   9  10
ENDBRANCH   8   9
ENDBRANCH   7   8
ENDBRANCH   1   7
TORSDOF 7
ENDMDL
MODEL 3
REMARK VINA RESULT:    -3.062     17.071     17.811
REMARK INTER + INTRA:          -4.673
REMARK INTER:                  -4.260
REMARK INTRA:                  -0.413
REMARK UNBOUND:                -0.358
REMARK SMILES CCCCCCCCC(=O)[O-]
REMARK SMILES IDX 6 1 7 2 8 3 9 4 10 5 11 6 5 7 4 8 3 9 2 10 1 11
REMARK H PARENT
REMARK Flexibility Score: inf
ROOT
ATOM      1  C   UNL     1      39.526  21.820  78.907  1.00  0.00     0.000 C 
ENDROOT
BRANCH   1   2
ATOM      2  C   UNL     1      38.743  21.141  80.037  1.00  0.00     0.006 C 
BRANCH   2   3
ATOM      3  C   UNL     1      38.914  19.620  79.988  1.00  0.00     0.053 C 
BRANCH   3   4
ATOM      4  C   UNL     1      37.642  18.936  80.376  1.00  0.00     0.041 C 
ATOM      5  O   UNL     1      37.398  17.771  79.966  1.00  0.00    -0.550 OA
ATOM      6  O   UNL     1      36.702  19.604  81.151  1.00  0.00    -0.550 OA
ENDBRANCH   3   4
ENDBRANCH   2   3
ENDBRANCH   1   2
BRANCH   1   7
ATOM      7  C   UNL     1      40.385  20.804  78.145  1.00  0.00     0.000 C 
BRANCH   7   8
ATOM      8  C   UNL     1      41.502  21.505  77.362  1.00  0.00    -0.000 C 
BRANCH   8   9
ATOM      9  C   UNL     1      42.777  21.624  78.210  1.00  0.00    -0.000 C 
BRANCH   9  10
ATOM     10  C   UNL     1      43.187  20.290  78.852  1.00  0.00    -0.003 C 
ATOM     11  C   UNL     1      44.437  19.685  78.214  1.00  0.00     0.004 C 
ENDBRANCH   9  10
ENDBRANCH   8   9
ENDBRANCH   7   8
ENDBRANCH   1   7
TORSDOF 7
ENDMDL
MODEL 4
REMARK VINA RESULT:    -3.045     16.354     17.464
REMARK INTER + INTRA:          -4.649
REMARK INTER:                  -3.817
REMARK INTRA:                  -0.833
REMARK UNBOUND:                -0.358
REMARK SMILES CCCCCCCCC(=O)[O-]
REMARK SMILES IDX 6 1 7 2 8 3 9 4 10 5 11 6 5 7 4 8 3 9 2 10 1 11
REMARK H PARENT
REMARK Flexibility Score: inf
ROOT
ATOM      1  C   UNL     1      38.657  23.081  80.186  1.00  0.00     0.000 C 
ENDROOT
BRANCH   1   2
ATOM      2  C   UNL     1      38.026  21.985  81.054  1.00  0.00     0.006 C 
BRANCH   2   3
ATOM      3  C   UNL     1      37.216  21.006  80.201  1.00  0.00     0.053 C 
BRANCH   3   4
ATOM      4  C   UNL     1      37.221  19.644  80.819  1.00  0.00     0.041 C 
ATOM      5  O   UNL     1      37.119  19.514  82.067  1.00  0.00    -0.550 OA
ATOM      6  O   UNL     1      37.388  18.519  80.021  1.00  0.00    -0.550 OA
ENDBRANCH   3   4
ENDBRANCH   2   3
ENDBRANCH   1   2
BRANCH   1   7
ATOM      7  C   UNL     1      38.815  22.611  78.736  1.00  0.00     0.000 C 
BRANCH   7   8
ATOM      8  C   UNL     1      40.275  22.259  78.426  1.00  0.00    -0.000 C 
BRANCH   8   9
ATOM      9  C   UNL     1      40.433  20.757  78.150  1.00  0.00    -0.000 C 
BRANCH   9  10
ATOM     10  C   UNL     1      40.724  19.948  79.423  1.00  0.00    -0.003 C 
ATOM     11  C   UNL     1      41.640  20.688  80.397  1.00  0.00     0.004 C 
ENDBRANCH   9  10
ENDBRANCH   8   9
ENDBRANCH   7   8
ENDBRANCH   1   7
TORSDOF 7
ENDMDL
MODEL 5
REMARK VINA RESULT:    -3.044     17.487     18.824
REMARK INTER + INTRA:          -4.648
REMARK INTER:                  -4.468
REMARK INTRA:                  -0.179
REMARK UNBOUND:                -0.358
REMARK SMILES CCCCCCCCC(=O)[O-]
REMARK SMILES IDX 6 1 7 2 8 3 9 4 10 5 11 6 5 7 4 8 3 9 2 10 1 11
REMARK H PARENT
REMARK Flexibility Score: inf
ROOT
ATOM      1  C   UNL     1      43.816  20.739  78.899  1.00  0.00     0.000 C 
ENDROOT
BRANCH   1   2
ATOM      2  C   UNL     1      44.587  20.290  77.651  1.00  0.00     0.006 C 
BRANCH   2   3
ATOM      3  C   UNL     1      45.375  19.006  77.924  1.00  0.00     0.053 C 
BRANCH   3   4
ATOM      4  C   UNL     1      45.569  18.231  76.660  1.00  0.00     0.041 C 
ATOM      5  O   UNL     1      45.713  18.833  75.564  1.00  0.00    -0.550 OA
ATOM      6  O   UNL     1      45.543  16.843  76.684  1.00  0.00    -0.550 OA
ENDBRANCH   3   4
ENDBRANCH   2   3
ENDBRANCH   1   2
BRANCH   1   7
ATOM      7  C   UNL     1      42.464  20.023  78.997  1.00  0.00     0.000 C 
BRANCH   7   8
ATOM      8  C   UNL     1      41.587  20.650  80.089  1.00  0.00    -0.000 C 
BRANCH   8   9
ATOM      9  C   UNL     1      40.123  20.739  79.636  1.00  0.00    -0.000 C 
BRANCH   9  10
ATOM     10  C   UNL     1      39.311  19.490  80.009  1.00  0.00    -0.003 C 
ATOM     11  C   UNL     1      37.970  19.828  80.660  1.00  0.00     0.004 C 
ENDBRANCH   9  10
ENDBRANCH   8   9
ENDBRANCH   7   8
ENDBRANCH   1   7
TORSDOF 7
ENDMDL
MODEL 6
REMARK VINA RESULT:    -3.043      3.279      5.748
REMARK INTER + INTRA:          -4.646
REMARK INTER:                  -4.367
REMARK INTRA:                  -0.279
REMARK UNBOUND:                -0.358
REMARK SMILES CCCCCCCCC(=O)[O-]
REMARK SMILES IDX 6 1 7 2 8 3 9 4 10 5 11 6 5 7 4 8 3 9 2 10 1 11
REMARK H PARENT
REMARK Flexibility Score: inf
ROOT
ATOM      1  C   UNL     1      47.638  30.525  90.470  1.00  0.00     0.000 C 
ENDROOT
BRANCH   1   2
ATOM      2  C   UNL     1      48.963  31.297  90.457  1.00  0.00     0.006 C 
BRANCH   2   3
ATOM      3  C   UNL     1      49.982  30.657  91.405  1.00  0.00     0.053 C 
BRANCH   3   4
ATOM      4  C   UNL     1      50.873  31.700  91.999  1.00  0.00     0.041 C 
ATOM      5  O   UNL     1      52.061  31.820  91.600  1.00  0.00    -0.550 OA
ATOM      6  O   UNL     1      50.407  32.509  93.027  1.00  0.00    -0.550 OA
ENDBRANCH   3   4
ENDBRANCH   2   3
ENDBRANCH   1   2
BRANCH   1   7
ATOM      7  C   UNL     1      46.502  31.373  89.887  1.00  0.00     0.000 C 
BRANCH   7   8
ATOM      8  C   UNL     1      45.380  31.572  90.914  1.00  0.00    -0.000 C 
BRANCH   8   9
ATOM      9  C   UNL     1      44.832  30.222  91.399  1.00  0.00    -0.000 C 
BRANCH   9  10
ATOM     10  C   UNL     1      44.049  30.340  92.716  1.00  0.00    -0.003 C 
ATOM     11  C   UNL     1      43.697  31.784  93.067  1.00  0.00     0.004 C 
ENDBRANCH   9  10
ENDBRANCH   8   9
ENDBRANCH   7   8
ENDBRANCH   1   7
TORSDOF 7
ENDMDL
MODEL 7
REMARK VINA RESULT:    -3.033     17.779     19.028
REMARK INTER + INTRA:          -4.633
REMARK INTER:                  -4.113
REMARK INTRA:                  -0.519
REMARK UNBOUND:                -0.358
REMARK SMILES CCCCCCCCC(=O)[O-]
REMARK SMILES IDX 6 1 7 2 8 3 9 4 10 5 11 6 5 7 4 8 3 9 2 10 1 11
REMARK H PARENT
REMARK Flexibility Score: inf
ROOT
ATOM      1  C   UNL     1      47.376  20.447  78.529  1.00  0.00     0.000 C 
ENDROOT
BRANCH   1   2
ATOM      2  C   UNL     1      46.832  19.014  78.471  1.00  0.00     0.006 C 
BRANCH   2   3
ATOM      3  C   UNL     1      45.556  18.943  77.627  1.00  0.00     0.053 C 
BRANCH   3   4
ATOM      4  C   UNL     1      45.695  17.913  76.552  1.00  0.00     0.041 C 
ATOM      5  O   UNL     1      45.782  18.264  75.346  1.00  0.00    -0.550 OA
ATOM      6  O   UNL     1      45.681  16.563  76.876  1.00  0.00    -0.550 OA
ENDBRANCH   3   4
ENDBRANCH   2   3
ENDBRANCH   1   2
BRANCH   1   7
ATOM      7  C   UNL     1      48.869  20.483  78.186  1.00  0.00     0.000 C 
BRANCH   7   8
ATOM      8  C   UNL     1      49.134  21.387  76.976  1.00  0.00    -0.000 C 
BRANCH   8   9
ATOM      9  C   UNL     1      47.861  21.573  76.138  1.00  0.00    -0.000 C 
BRANCH   9  10
ATOM     10  C   UNL     1      47.952  20.891  74.764  1.00  0.00    -0.003 C 
ATOM     11  C   UNL     1      47.124  21.602  73.695  1.00  0.00     0.004 C 
ENDBRANCH   9  10
ENDBRANCH   8   9
ENDBRANCH   7   8
ENDBRANCH   1   7
TORSDOF 7
ENDMDL
MODEL 8
REMARK VINA RESULT:    -3.026     17.235     18.418
REMARK INTER + INTRA:          -4.622
REMARK INTER:                  -4.252
REMARK INTRA:                  -0.370
REMARK UNBOUND:                -0.358
REMARK SMILES CCCCCCCCC(=O)[O-]
REMARK SMILES IDX 6 1 7 2 8 3 9 4 10 5 11 6 5 7 4 8 3 9 2 10 1 11
REMARK H PARENT
REMARK Flexibility Score: inf
ROOT
ATOM      1  C   UNL     1      41.204  20.018  79.934  1.00  0.00     0.000 C 
ENDROOT
BRANCH   1   2
ATOM      2  C   UNL     1      39.812  19.704  79.373  1.00  0.00     0.006 C 
BRANCH   2   3
ATOM      3  C   UNL     1      38.715  20.312  80.251  1.00  0.00     0.053 C 
BRANCH   3   4
ATOM      4  C   UNL     1      37.743  19.260  80.680  1.00  0.00     0.041 C 
ATOM      5  O   UNL     1      37.019  19.443  81.693  1.00  0.00    -0.550 OA
ATOM      6  O   UNL     1      37.672  18.056  79.991  1.00  0.00    -0.550 OA
ENDBRANCH   3   4
ENDBRANCH   2   3
ENDBRANCH   1   2
BRANCH   1   7
ATOM      7  C   UNL     1      42.125  20.574  78.841  1.00  0.00     0.000 C 
BRANCH   7   8
ATOM      8  C   UNL     1      41.445  21.717  78.077  1.00  0.00    -0.000 C 
BRANCH   8   9
ATOM      9  C   UNL     1      41.672  21.579  76.565  1.00  0.00    -0.000 C 
BRANCH   9  10
ATOM     10  C   UNL     1      40.382  21.773  75.752  1.00  0.00    -0.003 C 
ATOM     11  C   UNL     1      40.409  21.035  74.415  1.00  0.00     0.004 C 
ENDBRANCH   9  10
ENDBRANCH   8   9
ENDBRANCH   7   8
ENDBRANCH   1   7
TORSDOF 7
ENDMDL
MODEL 9
REMARK VINA RESULT:    -2.964     13.618     15.011
REMARK INTER + INTRA:          -4.535
REMARK INTER:                  -3.961
REMARK INTRA:                  -0.574
REMARK UNBOUND:                -0.358
REMARK SMILES CCCCCCCCC(=O)[O-]
REMARK SMILES IDX 6 1 7 2 8 3 9 4 10 5 11 6 5 7 4 8 3 9 2 10 1 11
REMARK H PARENT
REMARK Flexibility Score: inf
ROOT
ATOM      1  C   UNL     1      52.694  19.390  84.464  1.00  0.00     0.000 C 
ENDROOT
BRANCH   1   2
ATOM      2  C   UNL     1      52.102  18.722  85.712  1.00  0.00     0.006 C 
BRANCH   2   3
ATOM      3  C   UNL     1      51.067  19.629  86.382  1.00  0.00     0.053 C 
BRANCH   3   4
ATOM      4  C   UNL     1      49.715  19.415  85.782  1.00  0.00     0.041 C 
ATOM      5  O   UNL     1      48.850  20.328  85.825  1.00  0.00    -0.550 OA
ATOM      6  O   UNL     1      49.392  18.188  85.216  1.00  0.00    -0.550 OA
ENDBRANCH   3   4
ENDBRANCH   2   3
ENDBRANCH   1   2
BRANCH   1   7
ATOM      7  C   UNL     1      53.958  20.185  84.813  1.00  0.00     0.000 C 
BRANCH   7   8
ATOM      8  C   UNL     1      55.002  19.290  85.491  1.00  0.00    -0.000 C 
BRANCH   8   9
ATOM      9  C   UNL     1      55.780  18.467  84.454  1.00  0.00    -0.000 C 
BRANCH   9  10
ATOM     10  C   UNL     1      55.852  16.976  84.814  1.00  0.00    -0.003 C 
ATOM     11  C   UNL     1      55.362  16.685  86.232  1.00  0.00     0.004 C 
ENDBRANCH   9  10
ENDBRANCH   8   9
ENDBRANCH   7   8
ENDBRANCH   1   7
TORSDOF 7
ENDMDL
