MODEL 1
REMARK VINA RESULT:    -4.267      0.000      0.000
REMARK INTER + INTRA:          -6.679
REMARK INTER:                  -6.263
REMARK INTRA:                  -0.416
REMARK UNBOUND:                -0.416
REMARK SMILES O=C([O-])CCCCCCCC(=O)[O-]
REMARK SMILES IDX 7 1 6 2 5 3 4 4 2 5 1 6 3 7 8 8 9 9 10 10 11 11 12 12 13 13
REMARK H PARENT
REMARK Flexibility Score: inf
ROOT
ATOM      1  C   UNL     1      16.793 -35.462  -2.035  1.00  0.00     0.000 C 
ENDROOT
BRANCH   1   2
ATOM      2  C   UNL     1      17.907 -36.450  -2.425  1.00  0.00     0.000 C 
BRANCH   2   3
ATOM      3  C   UNL     1      17.782 -37.855  -1.800  1.00  0.00     0.006 C 
BRANCH   3   4
ATOM      4  C   UNL     1      17.384 -37.861  -0.315  1.00  0.00     0.053 C 
BRANCH   4   5
ATOM      5  C   UNL     1      18.464 -37.297   0.557  1.00  0.00     0.041 C 
ATOM      6  O   UNL     1      18.350 -36.138   1.036  1.00  0.00    -0.550 OA
ATOM      7  O   UNL     1      19.610 -38.038   0.813  1.00  0.00    -0.550 OA
ENDBRANCH   4   5
ENDBRANCH   3   4
ENDBRANCH   2   3
ENDBRANCH   1   2
BRANCH   1   8
ATOM      8  C   UNL     1      17.310 -34.030  -1.824  1.00  0.00     0.000 C 
BRANCH   8   9
ATOM      9  C   UNL     1      16.233 -33.000  -2.182  1.00  0.00     0.006 C 
BRANCH   9  10
ATOM     10  C   UNL     1      14.830 -33.566  -1.947  1.00  0.00     0.053 C 
BRANCH  10  11
ATOM     11  C   UNL     1      14.116 -32.777  -0.895  1.00  0.00     0.041 C 
ATOM     12  O   UNL     1      14.003 -31.528  -1.008  1.00  0.00    -0.550 OA
ATOM     13  O   UNL     1      13.533 -33.426   0.185  1.00  0.00    -0.550 OA
ENDBRANCH  10  11
ENDBRANCH   9  10
ENDBRANCH   8   9
ENDBRANCH   1   8
TORSDOF 8
ENDMDL
MODEL 2
REMARK VINA RESULT:    -4.237      1.489      2.497
REMARK INTER + INTRA:          -6.635
REMARK INTER:                  -5.972
REMARK INTRA:                  -0.663
REMARK UNBOUND:                -0.416
REMARK SMILES O=C([O-])CCCCCCCC(=O)[O-]
REMARK SMILES IDX 7 1 6 2 5 3 4 4 2 5 1 6 3 7 8 8 9 9 10 10 11 11 12 12 13 13
REMARK H PARENT
REMARK Flexibility Score: inf
ROOT
ATOM      1  C   UNL     1      16.812 -37.562  -2.343  1.00  0.00     0.000 C 
ENDROOT
BRANCH   1   2
ATOM      2  C   UNL     1      15.840 -37.590  -1.149  1.00  0.00     0.000 C 
BRANCH   2   3
ATOM      3  C   UNL     1      16.146 -38.662  -0.083  1.00  0.00     0.006 C 
BRANCH   3   4
ATOM      4  C   UNL     1      17.129 -38.213   1.010  1.00  0.00     0.053 C 
BRANCH   4   5
ATOM      5  C   UNL     1      18.504 -38.763   0.788  1.00  0.00     0.041 C 
ATOM      6  O   UNL     1      18.674 -40.002   0.641  1.00  0.00    -0.550 OA
ATOM      7  O   UNL     1      19.601 -37.912   0.778  1.00  0.00    -0.550 OA
ENDBRANCH   4   5
ENDBRANCH   3   4
ENDBRANCH   2   3
ENDBRANCH   1   2
BRANCH   1   8
ATOM      8  C   UNL     1      17.760 -36.353  -2.315  1.00  0.00     0.000 C 
BRANCH   8   9
ATOM      9  C   UNL     1      17.301 -35.320  -1.280  1.00  0.00     0.006 C 
BRANCH   9  10
ATOM     10  C   UNL     1      17.232 -33.919  -1.894  1.00  0.00     0.053 C 
BRANCH  10  11
ATOM     11  C   UNL     1      15.811 -33.472  -2.023  1.00  0.00     0.041 C 
ATOM     12  O   UNL     1      14.890 -34.321  -2.158  1.00  0.00    -0.550 OA
ATOM     13  O   UNL     1      15.496 -32.122  -1.946  1.00  0.00    -0.550 OA
ENDBRANCH  10  11
ENDBRANCH   9  10
ENDBRANCH   8   9
ENDBRANCH   1   8
TORSDOF 8
ENDMDL
MODEL 3
REMARK VINA RESULT:    -4.171      1.619      5.617
REMARK INTER + INTRA:          -6.538
REMARK INTER:                  -6.009
REMARK INTRA:                  -0.529
REMARK UNBOUND:                -0.416
REMARK SMILES O=C([O-])CCCCCCCC(=O)[O-]
REMARK SMILES IDX 7 1 6 2 5 3 4 4 2 5 1 6 3 7 8 8 9 9 10 10 11 11 12 12 13 13
REMARK H PARENT
REMARK Flexibility Score: inf
ROOT
ATOM      1  C   UNL     1      16.922 -34.031  -1.311  1.00  0.00     0.000 C 
ENDROOT
BRANCH   1   2
ATOM      2  C   UNL     1      16.151 -32.987  -2.138  1.00  0.00     0.000 C 
BRANCH   2   3
ATOM      3  C   UNL     1      14.655 -32.851  -1.788  1.00  0.00     0.006 C 
BRANCH   3   4
ATOM      4  C   UNL     1      13.719 -33.730  -2.632  1.00  0.00     0.053 C 
BRANCH   4   5
ATOM      5  C   UNL     1      13.450 -35.051  -1.979  1.00  0.00     0.041 C 
ATOM      6  O   UNL     1      13.513 -36.114  -2.651  1.00  0.00    -0.550 OA
ATOM      7  O   UNL     1      13.097 -35.105  -0.637  1.00  0.00    -0.550 OA
ENDBRANCH   4   5
ENDBRANCH   3   4
ENDBRANCH   2   3
ENDBRANCH   1   2
BRANCH   1   8
ATOM      8  C   UNL     1      17.675 -35.048  -2.183  1.00  0.00     0.000 C 
BRANCH   8   9
ATOM      9  C   UNL     1      16.997 -36.422  -2.132  1.00  0.00     0.006 C 
BRANCH   9  10
ATOM     10  C   UNL     1      18.034 -37.543  -2.016  1.00  0.00     0.053 C 
BRANCH  10  11
ATOM     11  C   UNL     1      18.228 -37.931  -0.585  1.00  0.00     0.041 C 
ATOM     12  O   UNL     1      17.332 -37.687   0.265  1.00  0.00    -0.550 OA
ATOM     13  O   UNL     1      19.379 -38.605  -0.197  1.00  0.00    -0.550 OA
ENDBRANCH  10  11
ENDBRANCH   9  10
ENDBRANCH   8   9
ENDBRANCH   1   8
TORSDOF 8
ENDMDL
MODEL 4
REMARK VINA RESULT:    -4.138      0.850      5.713
REMARK INTER + INTRA:          -6.490
REMARK INTER:                  -6.014
REMARK INTRA:                  -0.476
REMARK UNBOUND:                -0.416
REMARK SMILES O=C([O-])CCCCCCCC(=O)[O-]
REMARK SMILES IDX 7 1 6 2 5 3 4 4 2 5 1 6 3 7 8 8 9 9 10 10 11 11 12 12 13 13
REMARK H PARENT
REMARK Flexibility Score: inf
ROOT
ATOM      1  C   UNL     1      16.068 -35.994  -2.133  1.00  0.00     0.000 C 
ENDROOT
BRANCH   1   2
ATOM      2  C   UNL     1      17.340 -35.152  -1.927  1.00  0.00     0.000 C 
BRANCH   2   3
ATOM      3  C   UNL     1      17.095 -33.656  -1.641  1.00  0.00     0.006 C 
BRANCH   3   4
ATOM      4  C   UNL     1      15.863 -33.065  -2.345  1.00  0.00     0.053 C 
BRANCH   4   5
ATOM      5  C   UNL     1      14.846 -32.563  -1.367  1.00  0.00     0.041 C 
ATOM      6  O   UNL     1      14.357 -33.340  -0.506  1.00  0.00    -0.550 OA
ATOM      7  O   UNL     1      14.414 -31.244  -1.427  1.00  0.00    -0.550 OA
ENDBRANCH   4   5
ENDBRANCH   3   4
ENDBRANCH   2   3
ENDBRANCH   1   2
BRANCH   1   8
ATOM      8  C   UNL     1      16.360 -37.497  -2.263  1.00  0.00     0.000 C 
BRANCH   8   9
ATOM      9  C   UNL     1      17.715 -37.850  -1.638  1.00  0.00     0.006 C 
BRANCH   9  10
ATOM     10  C   UNL     1      17.533 -38.527  -0.277  1.00  0.00     0.053 C 
BRANCH  10  11
ATOM     11  C   UNL     1      18.309 -37.802   0.776  1.00  0.00     0.041 C 
ATOM     12  O   UNL     1      17.710 -37.123   1.650  1.00  0.00    -0.550 OA
ATOM     13  O   UNL     1      19.693 -37.915   0.822  1.00  0.00    -0.550 OA
ENDBRANCH  10  11
ENDBRANCH   9  10
ENDBRANCH   8   9
ENDBRANCH   1   8
TORSDOF 8
ENDMDL
MODEL 5
REMARK VINA RESULT:    -4.092      1.238      5.995
REMARK INTER + INTRA:          -6.422
REMARK INTER:                  -5.978
REMARK INTRA:                  -0.445
REMARK UNBOUND:                -0.416
REMARK SMILES O=C([O-])CCCCCCCC(=O)[O-]
REMARK SMILES IDX 7 1 6 2 5 3 4 4 2 5 1 6 3 7 8 8 9 9 10 10 11 11 12 12 13 13
REMARK H PARENT
REMARK Flexibility Score: inf
ROOT
ATOM      1  C   UNL     1      17.767 -35.723  -2.097  1.00  0.00     0.000 C 
ENDROOT
BRANCH   1   2
ATOM      2  C   UNL     1      17.483 -34.211  -2.074  1.00  0.00     0.000 C 
BRANCH   2   3
ATOM      3  C   UNL     1      16.141 -33.807  -1.430  1.00  0.00     0.006 C 
BRANCH   3   4
ATOM      4  C   UNL     1      15.491 -32.555  -2.042  1.00  0.00     0.053 C 
BRANCH   4   5
ATOM      5  C   UNL     1      14.355 -32.049  -1.207  1.00  0.00     0.041 C 
ATOM      6  O   UNL     1      13.972 -30.855  -1.317  1.00  0.00    -0.550 OA
ATOM      7  O   UNL     1      13.743 -32.886  -0.283  1.00  0.00    -0.550 OA
ENDBRANCH   4   5
ENDBRANCH   3   4
ENDBRANCH   2   3
ENDBRANCH   1   2
BRANCH   1   8
ATOM      8  C   UNL     1      16.493 -36.573  -1.979  1.00  0.00     0.000 C 
BRANCH   8   9
ATOM      9  C   UNL     1      16.578 -37.526  -0.781  1.00  0.00     0.006 C 
BRANCH   9  10
ATOM     10  C   UNL     1      17.704 -37.115   0.171  1.00  0.00     0.053 C 
BRANCH  10  11
ATOM     11  C   UNL     1      18.518 -38.306   0.565  1.00  0.00     0.041 C 
ATOM     12  O   UNL     1      19.445 -38.716  -0.183  1.00  0.00    -0.550 OA
ATOM     13  O   UNL     1      18.287 -38.935   1.781  1.00  0.00    -0.550 OA
ENDBRANCH  10  11
ENDBRANCH   9  10
ENDBRANCH   8   9
ENDBRANCH   1   8
TORSDOF 8
ENDMDL
MODEL 6
REMARK VINA RESULT:    -4.021      1.224      1.665
REMARK INTER + INTRA:          -6.318
REMARK INTER:                  -5.796
REMARK INTRA:                  -0.522
REMARK UNBOUND:                -0.416
REMARK SMILES O=C([O-])CCCCCCCC(=O)[O-]
REMARK SMILES IDX 7 1 6 2 5 3 4 4 2 5 1 6 3 7 8 8 9 9 10 10 11 11 12 12 13 13
REMARK H PARENT
REMARK Flexibility Score: inf
ROOT
ATOM      1  C   UNL     1      17.553 -35.347  -2.102  1.00  0.00     0.000 C 
ENDROOT
BRANCH   1   2
ATOM      2  C   UNL     1      16.519 -36.487  -2.139  1.00  0.00     0.000 C 
BRANCH   2   3
ATOM      3  C   UNL     1      17.112 -37.910  -2.089  1.00  0.00     0.006 C 
BRANCH   3   4
ATOM      4  C   UNL     1      17.062 -38.575  -0.704  1.00  0.00     0.053 C 
BRANCH   4   5
ATOM      5  C   UNL     1      18.258 -38.228   0.128  1.00  0.00     0.041 C 
ATOM      6  O   UNL     1      19.396 -38.666  -0.187  1.00  0.00    -0.550 OA
ATOM      7  O   UNL     1      18.112 -37.451   1.269  1.00  0.00    -0.550 OA
ENDBRANCH   4   5
ENDBRANCH   3   4
ENDBRANCH   2   3
ENDBRANCH   1   2
BRANCH   1   8
ATOM      8  C   UNL     1      17.066 -34.122  -1.313  1.00  0.00     0.000 C 
BRANCH   8   9
ATOM      9  C   UNL     1      16.350 -33.126  -2.233  1.00  0.00     0.006 C 
BRANCH   9  10
ATOM     10  C   UNL     1      15.029 -32.659  -1.616  1.00  0.00     0.053 C 
BRANCH  10  11
ATOM     11  C   UNL     1      14.071 -33.802  -1.502  1.00  0.00     0.041 C 
ATOM     12  O   UNL     1      13.648 -34.164  -0.372  1.00  0.00    -0.550 OA
ATOM     13  O   UNL     1      13.608 -34.439  -2.646  1.00  0.00    -0.550 OA
ENDBRANCH  10  11
ENDBRANCH   9  10
ENDBRANCH   8   9
ENDBRANCH   1   8
TORSDOF 8
ENDMDL
MODEL 7
REMARK VINA RESULT:    -3.974      2.739      5.623
REMARK INTER + INTRA:          -6.249
REMARK INTER:                  -5.448
REMARK INTRA:                  -0.801
REMARK UNBOUND:                -0.416
REMARK SMILES O=C([O-])CCCCCCCC(=O)[O-]
REMARK SMILES IDX 7 1 6 2 5 3 4 4 2 5 1 6 3 7 8 8 9 9 10 10 11 11 12 12 13 13
REMARK H PARENT
REMARK Flexibility Score: inf
ROOT
ATOM      1  C   UNL     1      17.092 -35.296   1.837  1.00  0.00     0.000 C 
ENDROOT
BRANCH   1   2
ATOM      2  C   UNL     1      17.846 -34.853   0.571  1.00  0.00     0.000 C 
BRANCH   2   3
ATOM      3  C   UNL     1      16.951 -34.502  -0.635  1.00  0.00     0.006 C 
BRANCH   3   4
ATOM      4  C   UNL     1      17.472 -35.013  -1.988  1.00  0.00     0.053 C 
BRANCH   4   5
ATOM      5  C   UNL     1      17.256 -36.486  -2.152  1.00  0.00     0.041 C 
ATOM      6  O   UNL     1      18.216 -37.234  -2.473  1.00  0.00    -0.550 OA
ATOM      7  O   UNL     1      15.988 -37.027  -1.983  1.00  0.00    -0.550 OA
ENDBRANCH   4   5
ENDBRANCH   3   4
ENDBRANCH   2   3
ENDBRANCH   1   2
BRANCH   1   8
ATOM      8  C   UNL     1      16.013 -36.352   1.552  1.00  0.00     0.000 C 
BRANCH   8   9
ATOM      9  C   UNL     1      16.425 -37.721   2.107  1.00  0.00     0.006 C 
BRANCH   9  10
ATOM     10  C   UNL     1      17.165 -38.543   1.048  1.00  0.00     0.053 C 
BRANCH  10  11
ATOM     11  C   UNL     1      18.608 -38.688   1.412  1.00  0.00     0.041 C 
ATOM     12  O   UNL     1      18.941 -39.336   2.439  1.00  0.00    -0.550 OA
ATOM     13  O   UNL     1      19.590 -38.148   0.591  1.00  0.00    -0.550 OA
ENDBRANCH  10  11
ENDBRANCH   9  10
ENDBRANCH   8   9
ENDBRANCH   1   8
TORSDOF 8
ENDMDL
MODEL 8
REMARK VINA RESULT:    -3.813      2.471      4.883
REMARK INTER + INTRA:          -6.012
REMARK INTER:                  -5.210
REMARK INTRA:                  -0.802
REMARK UNBOUND:                -0.416
REMARK SMILES O=C([O-])CCCCCCCC(=O)[O-]
REMARK SMILES IDX 7 1 6 2 5 3 4 4 2 5 1 6 3 7 8 8 9 9 10 10 11 11 12 12 13 13
REMARK H PARENT
REMARK Flexibility Score: inf
ROOT
ATOM      1  C   UNL     1      16.932 -34.426  -0.659  1.00  0.00     0.000 C 
ENDROOT
BRANCH   1   2
ATOM      2  C   UNL     1      17.826 -34.806   0.535  1.00  0.00     0.000 C 
BRANCH   2   3
ATOM      3  C   UNL     1      17.102 -35.521   1.694  1.00  0.00     0.006 C 
BRANCH   3   4
ATOM      4  C   UNL     1      15.585 -35.281   1.743  1.00  0.00     0.053 C 
BRANCH   4   5
ATOM      5  C   UNL     1      14.809 -36.529   1.451  1.00  0.00     0.041 C 
ATOM      6  O   UNL     1      14.728 -37.441   2.315  1.00  0.00    -0.550 OA
ATOM      7  O   UNL     1      14.205 -36.699   0.212  1.00  0.00    -0.550 OA
ENDBRANCH   4   5
ENDBRANCH   3   4
ENDBRANCH   2   3
ENDBRANCH   1   2
BRANCH   1   8
ATOM      8  C   UNL     1      17.408 -35.042  -1.983  1.00  0.00     0.000 C 
BRANCH   8   9
ATOM      9  C   UNL     1      16.945 -36.498  -2.110  1.00  0.00     0.006 C 
BRANCH   9  10
ATOM     10  C   UNL     1      18.138 -37.458  -2.085  1.00  0.00     0.053 C 
BRANCH  10  11
ATOM     11  C   UNL     1      18.202 -38.181  -0.777  1.00  0.00     0.041 C 
ATOM     12  O   UNL     1      19.313 -38.391  -0.223  1.00  0.00    -0.550 OA
ATOM     13  O   UNL     1      17.032 -38.580  -0.145  1.00  0.00    -0.550 OA
ENDBRANCH  10  11
ENDBRANCH   9  10
ENDBRANCH   8   9
ENDBRANCH   1   8
TORSDOF 8
ENDMDL
MODEL 9
REMARK VINA RESULT:    -3.800      2.357      5.010
REMARK INTER + INTRA:          -5.993
REMARK INTER:                  -5.149
REMARK INTRA:                  -0.845
REMARK UNBOUND:                -0.416
REMARK SMILES O=C([O-])CCCCCCCC(=O)[O-]
REMARK SMILES IDX 7 1 6 2 5 3 4 4 2 5 1 6 3 7 8 8 9 9 10 10 11 11 12 12 13 13
REMARK H PARENT
REMARK Flexibility Score: inf
ROOT
ATOM      1  C   UNL     1      17.781 -36.326  -2.090  1.00  0.00     0.000 C 
ENDROOT
BRANCH   1   2
ATOM      2  C   UNL     1      17.399 -34.836  -2.147  1.00  0.00     0.000 C 
BRANCH   2   3
ATOM      3  C   UNL     1      17.160 -34.169  -0.776  1.00  0.00     0.006 C 
BRANCH   3   4
ATOM      4  C   UNL     1      17.753 -34.935   0.418  1.00  0.00     0.053 C 
BRANCH   4   5
ATOM      5  C   UNL     1      16.697 -35.355   1.393  1.00  0.00     0.041 C 
ATOM      6  O   UNL     1      16.902 -35.255   2.631  1.00  0.00    -0.550 OA
ATOM      7  O   UNL     1      15.499 -35.891   0.936  1.00  0.00    -0.550 OA
ENDBRANCH   4   5
ENDBRANCH   3   4
ENDBRANCH   2   3
ENDBRANCH   1   2
BRANCH   1   8
ATOM      8  C   UNL     1      16.561 -37.259  -2.123  1.00  0.00     0.000 C 
BRANCH   8   9
ATOM      9  C   UNL     1      16.752 -38.446  -1.172  1.00  0.00     0.006 C 
BRANCH   9  10
ATOM     10  C   UNL     1      18.068 -38.325  -0.398  1.00  0.00     0.053 C 
BRANCH  10  11
ATOM     11  C   UNL     1      17.880 -38.748   1.024  1.00  0.00     0.041 C 
ATOM     12  O   UNL     1      16.722 -38.920   1.487  1.00  0.00    -0.550 OA
ATOM     13  O   UNL     1      18.985 -39.000   1.827  1.00  0.00    -0.550 OA
ENDBRANCH  10  11
ENDBRANCH   9  10
ENDBRANCH   8   9
ENDBRANCH   1   8
TORSDOF 8
ENDMDL
