MODEL 1
REMARK VINA RESULT:    -4.300      0.000      0.000
REMARK INTER + INTRA:          -5.886
REMARK INTER:                  -6.060
REMARK INTRA:                   0.174
REMARK UNBOUND:                 0.174
REMARK SMILES CC1=CCC(=C(C)C)C(=O)CC(C)=CCC1
REMARK SMILES IDX 12 1 14 2 13 3 15 4 16 5 2 6 1 7 3 8 11 10 9 11 10 12 5 13
REMARK SMILES IDX 6 14 7 15 8 16 4 17
REMARK H PARENT
REMARK Flexibility Score: 60.00
ROOT
ATOM      1  C   UNL     1      99.666 118.621 125.954  1.00  0.00    -0.070 C 
ATOM      2  C   UNL     1     100.110 117.489 126.552  1.00  0.00    -0.027 C 
ATOM      3  C   UNL     1      99.931 119.934 126.646  1.00  0.00     0.039 C 
ENDROOT
BRANCH   2   4
ATOM      4  C   UNL     1      99.916 116.093 126.019  1.00  0.00     0.032 C 
BRANCH   4   5
ATOM      5  C   UNL     1     101.171 115.602 125.278  1.00  0.00     0.034 C 
BRANCH   5   6
ATOM      6  C   UNL     1     100.858 114.729 124.077  1.00  0.00    -0.077 C 
ATOM      7  C   UNL     1     100.579 113.263 124.305  1.00  0.00     0.039 C 
ATOM      8  C   UNL     1     100.731 115.204 122.813  1.00  0.00    -0.023 CG0
ATOM      9  G   UNL     1     101.059 116.601 122.329  1.00  0.00     0.000 G0
ENDBRANCH   5   6
ENDBRANCH   4   5
ENDBRANCH   2   4
BRANCH   1  10
ATOM     10  C   UNL     1      98.929 118.628 124.622  1.00  0.00     0.111 C 
BRANCH  10  11
ATOM     11  C   UNL     1      99.889 118.642 123.456  1.00  0.00     0.163 C 
ATOM     12  O   UNL     1     100.707 119.601 123.410  1.00  0.00    -0.294 OA
BRANCH  11  13
ATOM     13  C   UNL     1      99.906 117.602 122.365  1.00  0.00    -0.002 C 
ATOM     14  C   UNL     1      98.901 117.532 121.436  1.00  0.00    -0.069 C 
ATOM     15  C   UNL     1      98.872 116.447 120.380  1.00  0.00     0.039 C 
ATOM     16  C   UNL     1      97.794 118.562 121.372  1.00  0.00     0.039 C 
BRANCH  13  17
ATOM     17  C   UNL     1     101.062 116.606 122.307  1.00  0.00     0.066 CG0
ATOM     18  G   UNL     1     100.719 115.216 122.802  1.00  0.00     0.000 G0
ENDBRANCH  13  17
ENDBRANCH  11  13
ENDBRANCH  10  11
ENDBRANCH   1  10
TORSDOF 0
ENDMDL
MODEL 2
REMARK VINA RESULT:    -4.171      1.412      2.377
REMARK INTER + INTRA:          -5.704
REMARK INTER:                  -5.867
REMARK INTRA:                   0.164
REMARK UNBOUND:                 0.174
REMARK SMILES CC1=CCC(=C(C)C)C(=O)CC(C)=CCC1
REMARK SMILES IDX 12 1 14 2 13 3 15 4 16 5 2 6 1 7 3 8 11 10 9 11 10 12 5 13
REMARK SMILES IDX 6 14 7 15 8 16 4 17
REMARK H PARENT
REMARK Flexibility Score: 60.00
ROOT
ATOM      1  C   UNL     1      99.315 119.390 124.633  1.00  0.00    -0.070 C 
ATOM      2  C   UNL     1      99.289 118.920 125.904  1.00  0.00    -0.027 C 
ATOM      3  C   UNL     1      98.254 120.382 124.228  1.00  0.00     0.039 C 
ENDROOT
BRANCH   2   4
ATOM      4  C   UNL     1     100.251 117.910 126.475  1.00  0.00     0.032 C 
BRANCH   4   5
ATOM      5  C   UNL     1      99.849 116.477 126.085  1.00  0.00     0.034 C 
BRANCH   5   6
ATOM      6  C   UNL     1     101.022 115.624 125.640  1.00  0.00    -0.077 C 
ATOM      7  C   UNL     1     102.089 115.282 126.650  1.00  0.00     0.039 C 
ATOM      8  C   UNL     1     101.128 115.075 124.404  1.00  0.00    -0.023 CG0
ATOM      9  G   UNL     1     100.245 115.356 123.206  1.00  0.00     0.000 G0
ENDBRANCH   5   6
ENDBRANCH   4   5
ENDBRANCH   2   4
BRANCH   1  10
ATOM     10  C   UNL     1     100.362 118.974 123.610  1.00  0.00     0.111 C 
BRANCH  10  11
ATOM     11  C   UNL     1      99.844 117.887 122.697  1.00  0.00     0.163 C 
ATOM     12  O   UNL     1      98.716 118.084 122.167  1.00  0.00    -0.294 OA
BRANCH  11  13
ATOM     13  C   UNL     1     100.583 116.605 122.409  1.00  0.00    -0.002 C 
ATOM     14  C   UNL     1     101.548 116.546 121.437  1.00  0.00    -0.069 C 
ATOM     15  C   UNL     1     102.245 115.246 121.092  1.00  0.00     0.039 C 
ATOM     16  C   UNL     1     102.014 117.777 120.692  1.00  0.00     0.039 C 
BRANCH  13  17
ATOM     17  C   UNL     1     100.237 115.353 123.211  1.00  0.00     0.066 CG0
ATOM     18  G   UNL     1     101.136 115.102 124.403  1.00  0.00     0.000 G0
ENDBRANCH  13  17
ENDBRANCH  11  13
ENDBRANCH  10  11
ENDBRANCH   1  10
TORSDOF 0
ENDMDL
MODEL 3
REMARK VINA RESULT:    -4.167      1.924      4.161
REMARK INTER + INTRA:          -5.698
REMARK INTER:                  -6.196
REMARK INTRA:                   0.498
REMARK UNBOUND:                 0.174
REMARK SMILES CC1=CCC(=C(C)C)C(=O)CC(C)=CCC1
REMARK SMILES IDX 12 1 14 2 13 3 15 4 16 5 2 6 1 7 3 8 11 10 9 11 10 12 5 13
REMARK SMILES IDX 6 14 7 15 8 16 4 17
REMARK H PARENT
REMARK Flexibility Score: 60.00
ROOT
ATOM      1  C   UNL     1     100.950 113.416 125.471  1.00  0.00    -0.070 C 
ATOM      2  C   UNL     1     101.220 112.626 124.403  1.00  0.00    -0.027 C 
ATOM      3  C   UNL     1     100.079 112.849 126.563  1.00  0.00     0.039 C 
ENDROOT
BRANCH   2   4
ATOM      4  C   UNL     1     102.049 113.031 123.212  1.00  0.00     0.032 C 
BRANCH   4   5
ATOM      5  C   UNL     1     101.207 113.809 122.187  1.00  0.00     0.034 C 
BRANCH   5   6
ATOM      6  C   UNL     1     101.674 115.237 121.983  1.00  0.00    -0.077 C 
ATOM      7  C   UNL     1     102.936 115.477 121.189  1.00  0.00     0.039 C 
ATOM      8  C   UNL     1     100.979 116.325 122.401  1.00  0.00    -0.023 CG0
ATOM      9  G   UNL     1      99.755 116.333 123.293  1.00  0.00     0.000 G0
ENDBRANCH   5   6
ENDBRANCH   4   5
ENDBRANCH   2   4
BRANCH   1  10
ATOM     10  C   UNL     1     101.490 114.831 125.621  1.00  0.00     0.111 C 
BRANCH  10  11
ATOM     11  C   UNL     1     100.374 115.835 125.790  1.00  0.00     0.163 C 
ATOM     12  O   UNL     1      99.753 115.811 126.887  1.00  0.00    -0.294 OA
BRANCH  11  13
ATOM     13  C   UNL     1      99.967 116.828 124.731  1.00  0.00    -0.002 C 
ATOM     14  C   UNL     1      99.792 118.154 125.031  1.00  0.00    -0.069 C 
ATOM     15  C   UNL     1      99.314 119.146 123.990  1.00  0.00     0.039 C 
ATOM     16  C   UNL     1     100.117 118.717 126.397  1.00  0.00     0.039 C 
BRANCH  13  17
ATOM     17  C   UNL     1      99.737 116.338 123.303  1.00  0.00     0.066 CG0
ATOM     18  G   UNL     1     100.978 116.329 122.435  1.00  0.00     0.000 G0
ENDBRANCH  13  17
ENDBRANCH  11  13
ENDBRANCH  10  11
ENDBRANCH   1  10
TORSDOF 0
ENDMDL
MODEL 4
REMARK VINA RESULT:    -4.055      2.465      4.874
REMARK INTER + INTRA:          -5.541
REMARK INTER:                  -5.680
REMARK INTRA:                   0.140
REMARK UNBOUND:                 0.174
REMARK SMILES CC1=CCC(=C(C)C)C(=O)CC(C)=CCC1
REMARK SMILES IDX 12 1 14 2 13 3 15 4 16 5 2 6 1 7 3 8 11 10 9 11 10 12 5 13
REMARK SMILES IDX 6 14 7 15 8 16 4 17
REMARK H PARENT
REMARK Flexibility Score: 60.00
ROOT
ATOM      1  C   UNL     1     100.686 114.222 125.855  1.00  0.00    -0.070 C 
ATOM      2  C   UNL     1      99.662 115.006 125.440  1.00  0.00    -0.027 C 
ATOM      3  C   UNL     1     100.345 112.900 126.497  1.00  0.00     0.039 C 
ENDROOT
BRANCH   2   4
ATOM      4  C   UNL     1      99.812 116.363 124.802  1.00  0.00     0.032 C 
BRANCH   4   5
ATOM      5  C   UNL     1      99.382 116.333 123.325  1.00  0.00     0.034 C 
BRANCH   5   6
ATOM      6  C   UNL     1     100.547 116.402 122.357  1.00  0.00    -0.077 C 
ATOM      7  C   UNL     1     100.953 117.749 121.810  1.00  0.00     0.039 C 
ATOM      8  C   UNL     1     101.306 115.330 122.014  1.00  0.00    -0.023 CG0
ATOM      9  G   UNL     1     101.034 113.879 122.350  1.00  0.00     0.000 G0
ENDBRANCH   5   6
ENDBRANCH   4   5
ENDBRANCH   2   4
BRANCH   1  10
ATOM     10  C   UNL     1     102.150 114.605 125.696  1.00  0.00     0.111 C 
BRANCH  10  11
ATOM     11  C   UNL     1     102.690 114.184 124.350  1.00  0.00     0.163 C 
ATOM     12  O   UNL     1     103.816 114.650 124.021  1.00  0.00    -0.294 OA
BRANCH  11  13
ATOM     13  C   UNL     1     101.962 113.269 123.398  1.00  0.00    -0.002 C 
ATOM     14  C   UNL     1     102.120 111.909 123.460  1.00  0.00    -0.069 C 
ATOM     15  C   UNL     1     101.448 110.987 122.463  1.00  0.00     0.039 C 
ATOM     16  C   UNL     1     102.924 111.243 124.555  1.00  0.00     0.039 C 
BRANCH  13  17
ATOM     17  C   UNL     1     101.041 113.878 122.343  1.00  0.00     0.066 CG0
ATOM     18  G   UNL     1     101.321 115.332 122.029  1.00  0.00     0.000 G0
ENDBRANCH  13  17
ENDBRANCH  11  13
ENDBRANCH  10  11
ENDBRANCH   1  10
TORSDOF 0
ENDMDL
MODEL 5
REMARK VINA RESULT:    -3.991      1.612      2.418
REMARK INTER + INTRA:          -5.450
REMARK INTER:                  -5.872
REMARK INTRA:                   0.422
REMARK UNBOUND:                 0.174
REMARK SMILES CC1=CCC(=C(C)C)C(=O)CC(C)=CCC1
REMARK SMILES IDX 12 1 14 2 13 3 15 4 16 5 2 6 1 7 3 8 11 10 9 11 10 12 5 13
REMARK SMILES IDX 6 14 7 15 8 16 4 17
REMARK H PARENT
REMARK Flexibility Score: 60.00
ROOT
ATOM      1  C   UNL     1      99.814 117.968 124.589  1.00  0.00    -0.070 C 
ATOM      2  C   UNL     1     100.050 117.667 125.889  1.00  0.00    -0.027 C 
ATOM      3  C   UNL     1      99.883 119.417 124.178  1.00  0.00     0.039 C 
ENDROOT
BRANCH   2   4
ATOM      4  C   UNL     1     100.001 116.283 126.482  1.00  0.00     0.032 C 
BRANCH   4   5
ATOM      5  C   UNL     1     101.293 115.504 126.182  1.00  0.00     0.034 C 
BRANCH   5   6
ATOM      6  C   UNL     1     101.046 114.148 125.549  1.00  0.00    -0.077 C 
ATOM      7  C   UNL     1     100.352 113.086 126.366  1.00  0.00     0.039 C 
ATOM      8  C   UNL     1     101.338 113.856 124.256  1.00  0.00    -0.023 CG0
ATOM      9  G   UNL     1     102.120 114.714 123.284  1.00  0.00     0.000 G0
ENDBRANCH   5   6
ENDBRANCH   4   5
ENDBRANCH   2   4
BRANCH   1  10
ATOM     10  C   UNL     1      99.495 116.919 123.533  1.00  0.00     0.111 C 
BRANCH  10  11
ATOM     11  C   UNL     1     100.637 116.749 122.558  1.00  0.00     0.163 C 
ATOM     12  O   UNL     1     101.057 117.796 121.993  1.00  0.00    -0.294 OA
BRANCH  11  13
ATOM     13  C   UNL     1     101.270 115.422 122.225  1.00  0.00    -0.002 C 
ATOM     14  C   UNL     1     101.088 114.837 120.999  1.00  0.00    -0.069 C 
ATOM     15  C   UNL     1     101.661 113.471 120.680  1.00  0.00     0.039 C 
ATOM     16  C   UNL     1     100.355 115.538 119.876  1.00  0.00     0.039 C 
BRANCH  13  17
ATOM     17  C   UNL     1     102.120 114.720 123.281  1.00  0.00     0.066 CG0
ATOM     18  G   UNL     1     101.336 113.856 124.246  1.00  0.00     0.000 G0
ENDBRANCH  13  17
ENDBRANCH  11  13
ENDBRANCH  10  11
ENDBRANCH   1  10
TORSDOF 0
ENDMDL
MODEL 6
REMARK VINA RESULT:    -3.974      2.217      4.273
REMARK INTER + INTRA:          -5.427
REMARK INTER:                  -5.756
REMARK INTRA:                   0.329
REMARK UNBOUND:                 0.174
REMARK SMILES CC1=CCC(=C(C)C)C(=O)CC(C)=CCC1
REMARK SMILES IDX 12 1 14 2 13 3 15 4 16 5 2 6 1 7 3 8 11 10 9 11 10 12 5 13
REMARK SMILES IDX 6 14 7 15 8 16 4 17
REMARK H PARENT
REMARK Flexibility Score: 60.00
ROOT
ATOM      1  C   UNL     1     101.830 112.609 123.800  1.00  0.00    -0.070 C 
ATOM      2  C   UNL     1     101.424 112.450 125.083  1.00  0.00    -0.027 C 
ATOM      3  C   UNL     1     103.132 111.968 123.390  1.00  0.00     0.039 C 
ENDROOT
BRANCH   2   4
ATOM      4  C   UNL     1     100.168 113.037 125.674  1.00  0.00     0.032 C 
BRANCH   4   5
ATOM      5  C   UNL     1     100.486 113.922 126.891  1.00  0.00     0.034 C 
BRANCH   5   6
ATOM      6  C   UNL     1     101.509 115.003 126.599  1.00  0.00    -0.077 C 
ATOM      7  C   UNL     1     102.790 115.019 127.396  1.00  0.00     0.039 C 
ATOM      8  C   UNL     1     101.379 115.912 125.600  1.00  0.00    -0.023 CG0
ATOM      9  G   UNL     1     100.153 116.155 124.745  1.00  0.00     0.000 G0
ENDBRANCH   5   6
ENDBRANCH   4   5
ENDBRANCH   2   4
BRANCH   1  10
ATOM     10  C   UNL     1     101.034 113.387 122.762  1.00  0.00     0.111 C 
BRANCH  10  11
ATOM     11  C   UNL     1     101.377 114.858 122.789  1.00  0.00     0.163 C 
ATOM     12  O   UNL     1     102.547 115.172 122.436  1.00  0.00    -0.294 OA
BRANCH  11  13
ATOM     13  C   UNL     1     100.419 115.939 123.222  1.00  0.00    -0.002 C 
ATOM     14  C   UNL     1      99.781 116.731 122.303  1.00  0.00    -0.069 C 
ATOM     15  C   UNL     1      98.873 117.866 122.731  1.00  0.00     0.039 C 
ATOM     16  C   UNL     1      99.900 116.489 120.814  1.00  0.00     0.039 C 
BRANCH  13  17
ATOM     17  C   UNL     1     100.168 116.155 124.712  1.00  0.00     0.066 CG0
ATOM     18  G   UNL     1     101.375 115.911 125.594  1.00  0.00     0.000 G0
ENDBRANCH  13  17
ENDBRANCH  11  13
ENDBRANCH  10  11
ENDBRANCH   1  10
TORSDOF 0
ENDMDL
MODEL 7
REMARK VINA RESULT:    -3.931      2.312      4.385
REMARK INTER + INTRA:          -5.366
REMARK INTER:                  -5.437
REMARK INTRA:                   0.070
REMARK UNBOUND:                 0.174
REMARK SMILES CC1=CCC(=C(C)C)C(=O)CC(C)=CCC1
REMARK SMILES IDX 12 1 14 2 13 3 15 4 16 5 2 6 1 7 3 8 11 10 9 11 10 12 5 13
REMARK SMILES IDX 6 14 7 15 8 16 4 17
REMARK H PARENT
REMARK Flexibility Score: 60.00
ROOT
ATOM      1  C   UNL     1     100.984 114.249 126.081  1.00  0.00    -0.070 C 
ATOM      2  C   UNL     1     100.277 115.338 126.468  1.00  0.00    -0.027 C 
ATOM      3  C   UNL     1     100.752 112.958 126.826  1.00  0.00     0.039 C 
ENDROOT
BRANCH   2   4
ATOM      4  C   UNL     1     100.396 116.711 125.857  1.00  0.00     0.032 C 
BRANCH   4   5
ATOM      5  C   UNL     1      99.444 116.870 124.659  1.00  0.00     0.034 C 
BRANCH   5   6
ATOM      6  C   UNL     1     100.069 117.600 123.486  1.00  0.00    -0.077 C 
ATOM      7  C   UNL     1     100.301 119.087 123.602  1.00  0.00     0.039 C 
ATOM      8  C   UNL     1     100.512 116.981 122.363  1.00  0.00    -0.023 CG0
ATOM      9  G   UNL     1     100.299 115.532 121.979  1.00  0.00     0.000 G0
ENDBRANCH   5   6
ENDBRANCH   4   5
ENDBRANCH   2   4
BRANCH   1  10
ATOM     10  C   UNL     1     101.984 114.265 124.933  1.00  0.00     0.111 C 
BRANCH  10  11
ATOM     11  C   UNL     1     101.350 113.809 123.640  1.00  0.00     0.163 C 
ATOM     12  O   UNL     1     100.730 112.711 123.670  1.00  0.00    -0.294 OA
BRANCH  11  13
ATOM     13  C   UNL     1     101.434 114.576 122.344  1.00  0.00    -0.002 C 
ATOM     14  C   UNL     1     102.512 114.441 121.509  1.00  0.00    -0.069 C 
ATOM     15  C   UNL     1     102.639 115.260 120.241  1.00  0.00     0.039 C 
ATOM     16  C   UNL     1     103.609 113.431 121.770  1.00  0.00     0.039 C 
BRANCH  13  17
ATOM     17  C   UNL     1     100.299 115.525 121.969  1.00  0.00     0.066 CG0
ATOM     18  G   UNL     1     100.532 116.969 122.360  1.00  0.00     0.000 G0
ENDBRANCH  13  17
ENDBRANCH  11  13
ENDBRANCH  10  11
ENDBRANCH   1  10
TORSDOF 0
ENDMDL
MODEL 8
REMARK VINA RESULT:    -3.928      2.259      4.343
REMARK INTER + INTRA:          -5.362
REMARK INTER:                  -5.534
REMARK INTRA:                   0.171
REMARK UNBOUND:                 0.174
REMARK SMILES CC1=CCC(=C(C)C)C(=O)CC(C)=CCC1
REMARK SMILES IDX 12 1 14 2 13 3 15 4 16 5 2 6 1 7 3 8 11 10 9 11 10 12 5 13
REMARK SMILES IDX 6 14 7 15 8 16 4 17
REMARK H PARENT
REMARK Flexibility Score: 60.00
ROOT
ATOM      1  C   UNL     1     102.487 113.367 125.210  1.00  0.00    -0.070 C 
ATOM      2  C   UNL     1     102.027 113.822 126.401  1.00  0.00    -0.027 C 
ATOM      3  C   UNL     1     102.706 111.883 125.061  1.00  0.00     0.039 C 
ENDROOT
BRANCH   2   4
ATOM      4  C   UNL     1     101.773 115.269 126.736  1.00  0.00     0.032 C 
BRANCH   4   5
ATOM      5  C   UNL     1     100.297 115.641 126.514  1.00  0.00     0.034 C 
BRANCH   5   6
ATOM      6  C   UNL     1     100.111 116.936 125.748  1.00  0.00    -0.077 C 
ATOM      7  C   UNL     1     100.250 118.242 126.493  1.00  0.00     0.039 C 
ATOM      8  C   UNL     1      99.908 116.997 124.408  1.00  0.00    -0.023 CG0
ATOM      9  G   UNL     1      99.635 115.834 123.476  1.00  0.00     0.000 G0
ENDBRANCH   5   6
ENDBRANCH   4   5
ENDBRANCH   2   4
BRANCH   1  10
ATOM     10  C   UNL     1     102.781 114.276 124.025  1.00  0.00     0.111 C 
BRANCH  10  11
ATOM     11  C   UNL     1     101.668 114.232 123.004  1.00  0.00     0.163 C 
ATOM     12  O   UNL     1     101.438 113.115 122.466  1.00  0.00    -0.294 OA
BRANCH  11  13
ATOM     13  C   UNL     1     100.851 115.432 122.596  1.00  0.00    -0.002 C 
ATOM     14  C   UNL     1     101.177 116.169 121.487  1.00  0.00    -0.069 C 
ATOM     15  C   UNL     1     100.406 117.417 121.110  1.00  0.00     0.039 C 
ATOM     16  C   UNL     1     102.285 115.752 120.544  1.00  0.00     0.039 C 
BRANCH  13  17
ATOM     17  C   UNL     1      99.647 115.834 123.445  1.00  0.00     0.066 CG0
ATOM     18  G   UNL     1      99.904 116.983 124.396  1.00  0.00     0.000 G0
ENDBRANCH  13  17
ENDBRANCH  11  13
ENDBRANCH  10  11
ENDBRANCH   1  10
TORSDOF 0
ENDMDL
MODEL 9
REMARK VINA RESULT:    -3.887      1.661      4.089
REMARK INTER + INTRA:          -5.303
REMARK INTER:                  -5.470
REMARK INTRA:                   0.167
REMARK UNBOUND:                 0.174
REMARK SMILES CC1=CCC(=C(C)C)C(=O)CC(C)=CCC1
REMARK SMILES IDX 12 1 14 2 13 3 15 4 16 5 2 6 1 7 3 8 11 10 9 11 10 12 5 13
REMARK SMILES IDX 6 14 7 15 8 16 4 17
REMARK H PARENT
REMARK Flexibility Score: 60.00
ROOT
ATOM      1  C   UNL     1     100.765 116.489 120.449  1.00  0.00    -0.070 C 
ATOM      2  C   UNL     1     101.233 115.229 120.625  1.00  0.00    -0.027 C 
ATOM      3  C   UNL     1     100.052 116.801 119.158  1.00  0.00     0.039 C 
ENDROOT
BRANCH   2   4
ATOM      4  C   UNL     1     101.987 114.746 121.837  1.00  0.00     0.032 C 
BRANCH   4   5
ATOM      5  C   UNL     1     101.066 113.962 122.788  1.00  0.00     0.034 C 
BRANCH   5   6
ATOM      6  C   UNL     1     101.288 114.294 124.251  1.00  0.00    -0.077 C 
ATOM      7  C   UNL     1     102.380 113.568 124.998  1.00  0.00     0.039 C 
ATOM      8  C   UNL     1     100.617 115.271 124.912  1.00  0.00    -0.023 CG0
ATOM      9  G   UNL     1      99.422 116.054 124.409  1.00  0.00     0.000 G0
ENDBRANCH   5   6
ENDBRANCH   4   5
ENDBRANCH   2   4
BRANCH   1  10
ATOM     10  C   UNL     1     100.913 117.589 121.491  1.00  0.00     0.111 C 
BRANCH  10  11
ATOM     11  C   UNL     1      99.697 117.675 122.383  1.00  0.00     0.163 C 
ATOM     12  O   UNL     1      98.606 117.971 121.824  1.00  0.00    -0.294 OA
BRANCH  11  13
ATOM     13  C   UNL     1      99.728 117.448 123.874  1.00  0.00    -0.002 C 
ATOM     14  C   UNL     1     100.043 118.463 124.740  1.00  0.00    -0.069 C 
ATOM     15  C   UNL     1     100.146 118.226 126.233  1.00  0.00     0.039 C 
ATOM     16  C   UNL     1     100.252 119.885 124.268  1.00  0.00     0.039 C 
BRANCH  13  17
ATOM     17  C   UNL     1      99.410 116.058 124.419  1.00  0.00     0.066 CG0
ATOM     18  G   UNL     1     100.617 115.278 124.893  1.00  0.00     0.000 G0
ENDBRANCH  13  17
ENDBRANCH  11  13
ENDBRANCH  10  11
ENDBRANCH   1  10
TORSDOF 0
ENDMDL
