MODEL 1
REMARK VINA RESULT:    -4.517      0.000      0.000
REMARK INTER + INTRA:          -6.796
REMARK INTER:                  -6.102
REMARK INTRA:                  -0.694
REMARK UNBOUND:                -0.694
REMARK SMILES C[C@H](O)[C@@H](O)[C@@H](O)[C@@H](O)C=O
REMARK SMILES IDX 4 1 2 2 1 3 3 4 6 6 8 7 10 8 11 9 9 10 7 12 5 14
REMARK H PARENT 3 5 9 11 7 13 5 15
REMARK Flexibility Score: inf
ROOT
ATOM      1  C   UNL     1      83.821  65.860  16.366  1.00  0.00     0.174 C 
ENDROOT
BRANCH   1   2
ATOM      2  C   UNL     1      84.670  65.560  15.098  1.00  0.00     0.142 C 
ATOM      3  C   UNL     1      84.209  66.347  13.864  1.00  0.00     0.041 C 
BRANCH   2   4
ATOM      4  O   UNL     1      84.584  64.185  14.815  1.00  0.00    -0.391 OA
ATOM      5  H   UNL     1      83.672  64.017  14.458  1.00  0.00     0.211 HD
ENDBRANCH   2   4
ENDBRANCH   1   2
BRANCH   1   6
ATOM      6  C   UNL     1      83.976  64.787  17.486  1.00  0.00     0.181 C 
BRANCH   6   7
ATOM      7  C   UNL     1      83.701  65.324  18.920  1.00  0.00     0.209 C 
BRANCH   7   8
ATOM      8  C   UNL     1      83.821  64.266  19.991  1.00  0.00     0.258 C 
ATOM      9  O   UNL     1      83.719  63.086  19.697  1.00  0.00    -0.300 OA
ENDBRANCH   7   8
BRANCH   7  10
ATOM     10  O   UNL     1      82.466  65.993  18.990  1.00  0.00    -0.383 OA
ATOM     11  H   UNL     1      82.643  66.951  19.181  1.00  0.00     0.211 HD
ENDBRANCH   7  10
ENDBRANCH   6   7
BRANCH   6  12
ATOM     12  O   UNL     1      85.287  64.283  17.456  1.00  0.00    -0.387 OA
ATOM     13  H   UNL     1      85.307  63.485  18.048  1.00  0.00     0.211 HD
ENDBRANCH   6  12
ENDBRANCH   1   6
BRANCH   1  14
ATOM     14  O   UNL     1      82.469  66.003  15.999  1.00  0.00    -0.388 OA
ATOM     15  H   UNL     1      82.022  65.131  16.158  1.00  0.00     0.211 HD
ENDBRANCH   1  14
TORSDOF 8
ENDMDL
MODEL 2
REMARK VINA RESULT:    -4.174      2.647      3.238
REMARK INTER + INTRA:          -6.332
REMARK INTER:                  -5.957
REMARK INTRA:                  -0.375
REMARK UNBOUND:                -0.694
REMARK SMILES C[C@H](O)[C@@H](O)[C@@H](O)[C@@H](O)C=O
REMARK SMILES IDX 4 1 2 2 1 3 3 4 6 6 8 7 10 8 11 9 9 10 7 12 5 14
REMARK H PARENT 3 5 9 11 7 13 5 15
REMARK Flexibility Score: inf
ROOT
ATOM      1  C   UNL     1      85.059  64.929  15.267  1.00  0.00     0.174 C 
ENDROOT
BRANCH   1   2
ATOM      2  C   UNL     1      85.105  65.774  13.962  1.00  0.00     0.142 C 
ATOM      3  C   UNL     1      84.031  66.869  13.915  1.00  0.00     0.041 C 
BRANCH   2   4
ATOM      4  O   UNL     1      84.921  64.914  12.864  1.00  0.00    -0.391 OA
ATOM      5  H   UNL     1      84.971  65.472  12.045  1.00  0.00     0.211 HD
ENDBRANCH   2   4
ENDBRANCH   1   2
BRANCH   1   6
ATOM      6  C   UNL     1      85.324  63.411  15.036  1.00  0.00     0.181 C 
BRANCH   6   7
ATOM      7  C   UNL     1      84.357  62.473  15.814  1.00  0.00     0.209 C 
BRANCH   7   8
ATOM      8  C   UNL     1      84.907  62.012  17.143  1.00  0.00     0.258 C 
ATOM      9  O   UNL     1      85.637  61.035  17.196  1.00  0.00    -0.300 OA
ENDBRANCH   7   8
BRANCH   7  10
ATOM     10  O   UNL     1      83.945  61.387  15.020  1.00  0.00    -0.383 OA
ATOM     11  H   UNL     1      83.741  61.729  14.111  1.00  0.00     0.211 HD
ENDBRANCH   7  10
ENDBRANCH   6   7
BRANCH   6  12
ATOM     12  O   UNL     1      86.636  63.111  15.439  1.00  0.00    -0.387 OA
ATOM     13  H   UNL     1      87.084  63.974  15.643  1.00  0.00     0.211 HD
ENDBRANCH   6  12
ENDBRANCH   1   6
BRANCH   1  14
ATOM     14  O   UNL     1      83.819  65.125  15.906  1.00  0.00    -0.388 OA
ATOM     15  H   UNL     1      83.907  65.922  16.491  1.00  0.00     0.211 HD
ENDBRANCH   1  14
TORSDOF 8
ENDMDL
MODEL 3
REMARK VINA RESULT:    -4.147      2.625      4.423
REMARK INTER + INTRA:          -6.296
REMARK INTER:                  -5.757
REMARK INTRA:                  -0.539
REMARK UNBOUND:                -0.694
REMARK SMILES C[C@H](O)[C@@H](O)[C@@H](O)[C@@H](O)C=O
REMARK SMILES IDX 4 1 2 2 1 3 3 4 6 6 8 7 10 8 11 9 9 10 7 12 5 14
REMARK H PARENT 3 5 9 11 7 13 5 15
REMARK Flexibility Score: inf
ROOT
ATOM      1  C   UNL     1      85.422  63.154  15.502  1.00  0.00     0.174 C 
ENDROOT
BRANCH   1   2
ATOM      2  C   UNL     1      84.487  62.185  16.280  1.00  0.00     0.142 C 
ATOM      3  C   UNL     1      85.247  61.240  17.221  1.00  0.00     0.041 C 
BRANCH   2   4
ATOM      4  O   UNL     1      83.766  61.414  15.351  1.00  0.00    -0.391 OA
ATOM      5  H   UNL     1      83.095  60.891  15.864  1.00  0.00     0.211 HD
ENDBRANCH   2   4
ENDBRANCH   1   2
BRANCH   1   6
ATOM      6  C   UNL     1      85.255  64.647  15.917  1.00  0.00     0.181 C 
BRANCH   6   7
ATOM      7  C   UNL     1      84.078  65.374  15.208  1.00  0.00     0.209 C 
BRANCH   7   8
ATOM      8  C   UNL     1      84.524  66.313  14.112  1.00  0.00     0.258 C 
ATOM      9  O   UNL     1      85.125  65.877  13.143  1.00  0.00    -0.300 OA
ENDBRANCH   7   8
BRANCH   7  10
ATOM     10  O   UNL     1      83.242  66.022  16.136  1.00  0.00    -0.383 OA
ATOM     11  H   UNL     1      83.811  66.395  16.859  1.00  0.00     0.211 HD
ENDBRANCH   7  10
ENDBRANCH   6   7
BRANCH   6  12
ATOM     12  O   UNL     1      86.440  65.339  15.612  1.00  0.00    -0.387 OA
ATOM     13  H   UNL     1      86.782  65.723  16.462  1.00  0.00     0.211 HD
ENDBRANCH   6  12
ENDBRANCH   1   6
BRANCH   1  14
ATOM     14  O   UNL     1      85.210  62.997  14.119  1.00  0.00    -0.388 OA
ATOM     15  H   UNL     1      86.093  62.826  13.699  1.00  0.00     0.211 HD
ENDBRANCH   1  14
TORSDOF 8
ENDMDL
MODEL 4
REMARK VINA RESULT:    -4.041      2.814      4.400
REMARK INTER + INTRA:          -6.153
REMARK INTER:                  -5.612
REMARK INTRA:                  -0.541
REMARK UNBOUND:                -0.694
REMARK SMILES C[C@H](O)[C@@H](O)[C@@H](O)[C@@H](O)C=O
REMARK SMILES IDX 4 1 2 2 1 3 3 4 6 6 8 7 10 8 11 9 9 10 7 12 5 14
REMARK H PARENT 3 5 9 11 7 13 5 15
REMARK Flexibility Score: inf
ROOT
ATOM      1  C   UNL     1      85.496  61.989  16.193  1.00  0.00     0.174 C 
ENDROOT
BRANCH   1   2
ATOM      2  C   UNL     1      84.786  60.826  15.444  1.00  0.00     0.142 C 
ATOM      3  C   UNL     1      85.331  60.601  14.027  1.00  0.00     0.041 C 
BRANCH   2   4
ATOM      4  O   UNL     1      83.413  61.118  15.359  1.00  0.00    -0.391 OA
ATOM      5  H   UNL     1      82.956  60.575  16.054  1.00  0.00     0.211 HD
ENDBRANCH   2   4
ENDBRANCH   1   2
BRANCH   1   6
ATOM      6  C   UNL     1      84.615  63.267  16.335  1.00  0.00     0.181 C 
BRANCH   6   7
ATOM      7  C   UNL     1      85.042  64.437  15.404  1.00  0.00     0.209 C 
BRANCH   7   8
ATOM      8  C   UNL     1      84.136  65.642  15.499  1.00  0.00     0.258 C 
ATOM      9  O   UNL     1      83.437  65.804  16.486  1.00  0.00    -0.300 OA
ENDBRANCH   7   8
BRANCH   7  10
ATOM     10  O   UNL     1      85.193  64.006  14.073  1.00  0.00    -0.383 OA
ATOM     11  H   UNL     1      85.321  63.023  14.079  1.00  0.00     0.211 HD
ENDBRANCH   7  10
ENDBRANCH   6   7
BRANCH   6  12
ATOM     12  O   UNL     1      84.684  63.723  17.663  1.00  0.00    -0.387 OA
ATOM     13  H   UNL     1      83.818  63.495  18.095  1.00  0.00     0.211 HD
ENDBRANCH   6  12
ENDBRANCH   1   6
BRANCH   1  14
ATOM     14  O   UNL     1      86.708  62.292  15.543  1.00  0.00    -0.388 OA
ATOM     15  H   UNL     1      86.779  61.698  14.752  1.00  0.00     0.211 HD
ENDBRANCH   1  14
TORSDOF 8
ENDMDL
MODEL 5
REMARK VINA RESULT:    -4.022      1.364      4.588
REMARK INTER + INTRA:          -6.127
REMARK INTER:                  -5.413
REMARK INTRA:                  -0.715
REMARK UNBOUND:                -0.694
REMARK SMILES C[C@H](O)[C@@H](O)[C@@H](O)[C@@H](O)C=O
REMARK SMILES IDX 4 1 2 2 1 3 3 4 6 6 8 7 10 8 11 9 9 10 7 12 5 14
REMARK H PARENT 3 5 9 11 7 13 5 15
REMARK Flexibility Score: inf
ROOT
ATOM      1  C   UNL     1      84.341  65.840  18.340  1.00  0.00     0.174 C 
ENDROOT
BRANCH   1   2
ATOM      2  C   UNL     1      83.402  65.432  19.510  1.00  0.00     0.142 C 
ATOM      3  C   UNL     1      83.410  63.923  19.790  1.00  0.00     0.041 C 
BRANCH   2   4
ATOM      4  O   UNL     1      82.090  65.825  19.191  1.00  0.00    -0.391 OA
ATOM      5  H   UNL     1      81.582  64.998  18.977  1.00  0.00     0.211 HD
ENDBRANCH   2   4
ENDBRANCH   1   2
BRANCH   1   6
ATOM      6  C   UNL     1      83.913  65.248  16.963  1.00  0.00     0.181 C 
BRANCH   6   7
ATOM      7  C   UNL     1      85.092  65.029  15.973  1.00  0.00     0.209 C 
BRANCH   7   8
ATOM      8  C   UNL     1      84.729  65.313  14.534  1.00  0.00     0.258 C 
ATOM      9  O   UNL     1      84.595  66.465  14.154  1.00  0.00    -0.300 OA
ENDBRANCH   7   8
BRANCH   7  10
ATOM     10  O   UNL     1      85.656  63.748  16.121  1.00  0.00    -0.383 OA
ATOM     11  H   UNL     1      86.098  63.706  17.008  1.00  0.00     0.211 HD
ENDBRANCH   7  10
ENDBRANCH   6   7
BRANCH   6  12
ATOM     12  O   UNL     1      82.995  66.123  16.357  1.00  0.00    -0.387 OA
ATOM     13  H   UNL     1      82.882  66.898  16.968  1.00  0.00     0.211 HD
ENDBRANCH   6  12
ENDBRANCH   1   6
BRANCH   1  14
ATOM     14  O   UNL     1      85.663  65.467  18.650  1.00  0.00    -0.388 OA
ATOM     15  H   UNL     1      85.618  64.665  19.232  1.00  0.00     0.211 HD
ENDBRANCH   1  14
TORSDOF 8
ENDMDL
MODEL 6
REMARK VINA RESULT:    -3.976      3.736      5.234
REMARK INTER + INTRA:          -6.064
REMARK INTER:                  -5.728
REMARK INTRA:                  -0.336
REMARK UNBOUND:                -0.694
REMARK SMILES C[C@H](O)[C@@H](O)[C@@H](O)[C@@H](O)C=O
REMARK SMILES IDX 4 1 2 2 1 3 3 4 6 6 8 7 10 8 11 9 9 10 7 12 5 14
REMARK H PARENT 3 5 9 11 7 13 5 15
REMARK Flexibility Score: inf
ROOT
ATOM      1  C   UNL     1      85.724  62.253  15.237  1.00  0.00     0.174 C 
ENDROOT
BRANCH   1   2
ATOM      2  C   UNL     1      84.943  63.526  15.673  1.00  0.00     0.142 C 
ATOM      3  C   UNL     1      85.285  64.760  14.827  1.00  0.00     0.041 C 
BRANCH   2   4
ATOM      4  O   UNL     1      85.248  63.801  17.018  1.00  0.00    -0.391 OA
ATOM      5  H   UNL     1      84.708  64.591  17.283  1.00  0.00     0.211 HD
ENDBRANCH   2   4
ENDBRANCH   1   2
BRANCH   1   6
ATOM      6  C   UNL     1      85.122  60.931  15.803  1.00  0.00     0.181 C 
BRANCH   6   7
ATOM      7  C   UNL     1      84.090  60.249  14.860  1.00  0.00     0.209 C 
BRANCH   7   8
ATOM      8  C   UNL     1      84.473  60.318  13.400  1.00  0.00     0.258 C 
ATOM      9  O   UNL     1      83.642  60.077  12.540  1.00  0.00    -0.300 OA
ENDBRANCH   7   8
BRANCH   7  10
ATOM     10  O   UNL     1      82.791  60.744  15.077  1.00  0.00    -0.383 OA
ATOM     11  H   UNL     1      82.486  60.432  15.969  1.00  0.00     0.211 HD
ENDBRANCH   7  10
ENDBRANCH   6   7
BRANCH   6  12
ATOM     12  O   UNL     1      84.478  61.208  17.021  1.00  0.00    -0.387 OA
ATOM     13  H   UNL     1      84.079  62.115  16.941  1.00  0.00     0.211 HD
ENDBRANCH   6  12
ENDBRANCH   1   6
BRANCH   1  14
ATOM     14  O   UNL     1      87.075  62.383  15.612  1.00  0.00    -0.388 OA
ATOM     15  H   UNL     1      87.487  61.481  15.561  1.00  0.00     0.211 HD
ENDBRANCH   1  14
TORSDOF 8
ENDMDL
MODEL 7
REMARK VINA RESULT:    -3.875     12.372     13.319
REMARK INTER + INTRA:          -5.928
REMARK INTER:                  -5.430
REMARK INTRA:                  -0.498
REMARK UNBOUND:                -0.694
REMARK SMILES C[C@H](O)[C@@H](O)[C@@H](O)[C@@H](O)C=O
REMARK SMILES IDX 4 1 2 2 1 3 3 4 6 6 8 7 10 8 11 9 9 10 7 12 5 14
REMARK H PARENT 3 5 9 11 7 13 5 15
REMARK Flexibility Score: inf
ROOT
ATOM      1  C   UNL     1      78.823  55.898   9.224  1.00  0.00     0.174 C 
ENDROOT
BRANCH   1   2
ATOM      2  C   UNL     1      78.378  55.494   7.790  1.00  0.00     0.142 C 
ATOM      3  C   UNL     1      77.636  56.616   7.051  1.00  0.00     0.041 C 
BRANCH   2   4
ATOM      4  O   UNL     1      77.530  54.376   7.881  1.00  0.00    -0.391 OA
ATOM      5  H   UNL     1      78.018  53.608   7.481  1.00  0.00     0.211 HD
ENDBRANCH   2   4
ENDBRANCH   1   2
BRANCH   1   6
ATOM      6  C   UNL     1      79.687  54.814   9.936  1.00  0.00     0.181 C 
BRANCH   6   7
ATOM      7  C   UNL     1      80.705  55.387  10.962  1.00  0.00     0.209 C 
BRANCH   7   8
ATOM      8  C   UNL     1      82.141  55.052  10.636  1.00  0.00     0.258 C 
ATOM      9  O   UNL     1      82.640  54.024  11.066  1.00  0.00    -0.300 OA
ENDBRANCH   7   8
BRANCH   7  10
ATOM     10  O   UNL     1      80.372  55.016  12.278  1.00  0.00    -0.383 OA
ATOM     11  H   UNL     1      79.971  54.109  12.251  1.00  0.00     0.211 HD
ENDBRANCH   7  10
ENDBRANCH   6   7
BRANCH   6  12
ATOM     12  O   UNL     1      80.408  54.097   8.966  1.00  0.00    -0.387 OA
ATOM     13  H   UNL     1      81.302  54.525   8.890  1.00  0.00     0.211 HD
ENDBRANCH   6  12
ENDBRANCH   1   6
BRANCH   1  14
ATOM     14  O   UNL     1      77.686  56.211   9.995  1.00  0.00    -0.388 OA
ATOM     15  H   UNL     1      77.427  57.145   9.781  1.00  0.00     0.211 HD
ENDBRANCH   1  14
TORSDOF 8
ENDMDL
MODEL 8
REMARK VINA RESULT:    -3.840      5.315      7.427
REMARK INTER + INTRA:          -5.881
REMARK INTER:                  -5.122
REMARK INTRA:                  -0.758
REMARK UNBOUND:                -0.694
REMARK SMILES C[C@H](O)[C@@H](O)[C@@H](O)[C@@H](O)C=O
REMARK SMILES IDX 4 1 2 2 1 3 3 4 6 6 8 7 10 8 11 9 9 10 7 12 5 14
REMARK H PARENT 3 5 9 11 7 13 5 15
REMARK Flexibility Score: inf
ROOT
ATOM      1  C   UNL     1      84.926  60.327  14.189  1.00  0.00     0.174 C 
ENDROOT
BRANCH   1   2
ATOM      2  C   UNL     1      85.582  61.508  14.959  1.00  0.00     0.142 C 
ATOM      3  C   UNL     1      85.228  61.523  16.452  1.00  0.00     0.041 C 
BRANCH   2   4
ATOM      4  O   UNL     1      85.152  62.716  14.381  1.00  0.00    -0.391 OA
ATOM      5  H   UNL     1      84.801  63.283  15.117  1.00  0.00     0.211 HD
ENDBRANCH   2   4
ENDBRANCH   1   2
BRANCH   1   6
ATOM      6  C   UNL     1      85.542  60.088  12.777  1.00  0.00     0.181 C 
BRANCH   6   7
ATOM      7  C   UNL     1      84.612  60.502  11.601  1.00  0.00     0.209 C 
BRANCH   7   8
ATOM      8  C   UNL     1      84.989  59.867  10.284  1.00  0.00     0.258 C 
ATOM      9  O   UNL     1      84.500  58.797   9.960  1.00  0.00    -0.300 OA
ENDBRANCH   7   8
BRANCH   7  10
ATOM     10  O   UNL     1      84.514  61.902  11.492  1.00  0.00    -0.383 OA
ATOM     11  H   UNL     1      84.871  62.303  12.327  1.00  0.00     0.211 HD
ENDBRANCH   7  10
ENDBRANCH   6   7
BRANCH   6  12
ATOM     12  O   UNL     1      85.836  58.721  12.634  1.00  0.00    -0.387 OA
ATOM     13  H   UNL     1      86.289  58.610  11.756  1.00  0.00     0.211 HD
ENDBRANCH   6  12
ENDBRANCH   1   6
BRANCH   1  14
ATOM     14  O   UNL     1      83.538  60.545  14.094  1.00  0.00    -0.388 OA
ATOM     15  H   UNL     1      83.091  59.885  14.684  1.00  0.00     0.211 HD
ENDBRANCH   1  14
TORSDOF 8
ENDMDL
MODEL 9
REMARK VINA RESULT:    -3.837     12.413     13.911
REMARK INTER + INTRA:          -5.878
REMARK INTER:                  -5.212
REMARK INTRA:                  -0.665
REMARK UNBOUND:                -0.694
REMARK SMILES C[C@H](O)[C@@H](O)[C@@H](O)[C@@H](O)C=O
REMARK SMILES IDX 4 1 2 2 1 3 3 4 6 6 8 7 10 8 11 9 9 10 7 12 5 14
REMARK H PARENT 3 5 9 11 7 13 5 15
REMARK Flexibility Score: inf
ROOT
ATOM      1  C   UNL     1      80.018  55.273   9.622  1.00  0.00     0.174 C 
ENDROOT
BRANCH   1   2
ATOM      2  C   UNL     1      80.421  55.619  11.085  1.00  0.00     0.142 C 
ATOM      3  C   UNL     1      79.347  55.236  12.112  1.00  0.00     0.041 C 
BRANCH   2   4
ATOM      4  O   UNL     1      80.655  57.003  11.170  1.00  0.00    -0.391 OA
ATOM      5  H   UNL     1      81.338  57.139  11.879  1.00  0.00     0.211 HD
ENDBRANCH   2   4
ENDBRANCH   1   2
BRANCH   1   6
ATOM      6  C   UNL     1      78.589  55.763   9.239  1.00  0.00     0.181 C 
BRANCH   6   7
ATOM      7  C   UNL     1      78.152  55.378   7.797  1.00  0.00     0.209 C 
BRANCH   7   8
ATOM      8  C   UNL     1      77.420  56.484   7.075  1.00  0.00     0.258 C 
ATOM      9  O   UNL     1      78.033  57.244   6.342  1.00  0.00    -0.300 OA
ENDBRANCH   7   8
BRANCH   7  10
ATOM     10  O   UNL     1      77.417  54.178   7.787  1.00  0.00    -0.383 OA
ATOM     11  H   UNL     1      77.675  53.663   6.979  1.00  0.00     0.211 HD
ENDBRANCH   7  10
ENDBRANCH   6   7
BRANCH   6  12
ATOM     12  O   UNL     1      78.544  57.164   9.345  1.00  0.00    -0.387 OA
ATOM     13  H   UNL     1      77.670  57.457   8.972  1.00  0.00     0.211 HD
ENDBRANCH   6  12
ENDBRANCH   1   6
BRANCH   1  14
ATOM     14  O   UNL     1      80.137  53.884   9.421  1.00  0.00    -0.388 OA
ATOM     15  H   UNL     1      80.330  53.737   8.459  1.00  0.00     0.211 HD
ENDBRANCH   1  14
TORSDOF 8
ENDMDL
