MODEL 1
REMARK VINA RESULT:    -4.017      0.000      0.000
REMARK INTER + INTRA:         -15.379
REMARK INTER:                 -10.592
REMARK INTRA:                  -4.786
REMARK UNBOUND:                -4.786
REMARK SMILES CCCCCCCCCCCCCCCCCCCCCCCCCCCCCC(=O)[O-]
REMARK SMILES IDX 16 1 17 2 18 3 19 4 20 5 21 6 22 7 23 8 24 9 25 10 26 11
REMARK SMILES IDX 27 12 28 13 29 14 30 15 31 16 32 17 15 18 14 19 13 20 12 21
REMARK SMILES IDX 11 22 10 23 9 24 8 25 7 26 6 27 5 28 4 29 3 30 2 31 1 32
REMARK H PARENT
REMARK Flexibility Score: inf
ROOT
ATOM      1  C   UNL     1      14.690  16.444  16.112  1.00  0.00     0.000 C 
ENDROOT
BRANCH   1   2
ATOM      2  C   UNL     1      15.998  17.221  16.348  1.00  0.00     0.000 C 
BRANCH   2   3
ATOM      3  C   UNL     1      15.877  18.269  17.466  1.00  0.00     0.000 C 
BRANCH   3   4
ATOM      4  C   UNL     1      16.273  19.659  16.953  1.00  0.00     0.000 C 
BRANCH   4   5
ATOM      5  C   UNL     1      15.036  20.465  16.529  1.00  0.00     0.000 C 
BRANCH   5   6
ATOM      6  C   UNL     1      15.106  20.921  15.062  1.00  0.00     0.000 C 
BRANCH   6   7
ATOM      7  C   UNL     1      15.146  19.737  14.080  1.00  0.00     0.000 C 
BRANCH   7   8
ATOM      8  C   UNL     1      16.278  19.874  13.039  1.00  0.00     0.000 C 
BRANCH   8   9
ATOM      9  C   UNL     1      17.625  19.289  13.506  1.00  0.00     0.000 C 
BRANCH   9  10
ATOM     10  C   UNL     1      18.637  20.324  14.026  1.00  0.00     0.000 C 
BRANCH  10  11
ATOM     11  C   UNL     1      19.774  19.682  14.840  1.00  0.00     0.000 C 
BRANCH  11  12
ATOM     12  C   UNL     1      19.403  18.295  15.389  1.00  0.00     0.000 C 
BRANCH  12  13
ATOM     13  C   UNL     1      20.313  17.848  16.543  1.00  0.00     0.006 C 
BRANCH  13  14
ATOM     14  C   UNL     1      19.490  17.317  17.722  1.00  0.00     0.053 C 
BRANCH  14  15
ATOM     15  C   UNL     1      20.387  16.797  18.804  1.00  0.00     0.041 C 
ATOM     16  O   UNL     1      21.578  16.476  18.541  1.00  0.00    -0.550 OA
ATOM     17  O   UNL     1      19.922  16.702  20.110  1.00  0.00    -0.550 OA
ENDBRANCH  14  15
ENDBRANCH  13  14
ENDBRANCH  12  13
ENDBRANCH  11  12
ENDBRANCH  10  11
ENDBRANCH   9  10
ENDBRANCH   8   9
ENDBRANCH   7   8
ENDBRANCH   6   7
ENDBRANCH   5   6
ENDBRANCH   4   5
ENDBRANCH   3   4
ENDBRANCH   2   3
ENDBRANCH   1   2
BRANCH   1  18
ATOM     18  C   UNL     1      13.740  16.383  17.322  1.00  0.00     0.000 C 
BRANCH  18  19
ATOM     19  C   UNL     1      12.373  15.767  16.978  1.00  0.00     0.000 C 
BRANCH  19  20
ATOM     20  C   UNL     1      11.291  16.826  16.713  1.00  0.00     0.000 C 
BRANCH  20  21
ATOM     21  C   UNL     1      11.734  18.245  17.114  1.00  0.00     0.000 C 
BRANCH  21  22
ATOM     22  C   UNL     1      11.782  19.205  15.913  1.00  0.00     0.000 C 
BRANCH  22  23
ATOM     23  C   UNL     1      11.826  18.453  14.571  1.00  0.00     0.000 C 
BRANCH  23  24
ATOM     24  C   UNL     1      11.142  19.231  13.435  1.00  0.00    -0.000 C 
BRANCH  24  25
ATOM     25  C   UNL     1       9.953  18.467  12.824  1.00  0.00    -0.000 C 
BRANCH  25  26
ATOM     26  C   UNL     1      10.243  16.956  12.684  1.00  0.00    -0.000 C 
BRANCH  26  27
ATOM     27  C   UNL     1       9.535  16.299  11.487  1.00  0.00    -0.000 C 
BRANCH  27  28
ATOM     28  C   UNL     1       8.341  17.115  10.973  1.00  0.00    -0.000 C 
BRANCH  28  29
ATOM     29  C   UNL     1       8.537  17.506   9.501  1.00  0.00    -0.000 C 
BRANCH  29  30
ATOM     30  C   UNL     1       9.152  18.908   9.333  1.00  0.00    -0.000 C 
BRANCH  30  31
ATOM     31  C   UNL     1      10.646  18.920   8.963  1.00  0.00    -0.003 C 
ATOM     32  C   UNL     1      11.448  19.961   9.743  1.00  0.00     0.004 C 
ENDBRANCH  30  31
ENDBRANCH  29  30
ENDBRANCH  28  29
ENDBRANCH  27  28
ENDBRANCH  26  27
ENDBRANCH  25  26
ENDBRANCH  24  25
ENDBRANCH  23  24
ENDBRANCH  22  23
ENDBRANCH  21  22
ENDBRANCH  20  21
ENDBRANCH  19  20
ENDBRANCH  18  19
ENDBRANCH   1  18
TORSDOF 28
ENDMDL
MODEL 2
REMARK VINA RESULT:    -3.977      3.982      8.175
REMARK INTER + INTRA:         -15.273
REMARK INTER:                 -10.485
REMARK INTRA:                  -4.787
REMARK UNBOUND:                -4.786
REMARK SMILES CCCCCCCCCCCCCCCCCCCCCCCCCCCCCC(=O)[O-]
REMARK SMILES IDX 16 1 17 2 18 3 19 4 20 5 21 6 22 7 23 8 24 9 25 10 26 11
REMARK SMILES IDX 27 12 28 13 29 14 30 15 31 16 32 17 15 18 14 19 13 20 12 21
REMARK SMILES IDX 11 22 10 23 9 24 8 25 7 26 6 27 5 28 4 29 3 30 2 31 1 32
REMARK H PARENT
REMARK Flexibility Score: inf
ROOT
ATOM      1  C   UNL     1      16.590  17.483  14.474  1.00  0.00     0.000 C 
ENDROOT
BRANCH   1   2
ATOM      2  C   UNL     1      17.718  18.527  14.565  1.00  0.00     0.000 C 
BRANCH   2   3
ATOM      3  C   UNL     1      17.513  19.714  13.609  1.00  0.00     0.000 C 
BRANCH   3   4
ATOM      4  C   UNL     1      16.613  19.316  12.433  1.00  0.00     0.000 C 
BRANCH   4   5
ATOM      5  C   UNL     1      15.861  20.534  11.876  1.00  0.00     0.000 C 
BRANCH   5   6
ATOM      6  C   UNL     1      16.184  20.798  10.395  1.00  0.00     0.000 C 
BRANCH   6   7
ATOM      7  C   UNL     1      15.894  19.578   9.504  1.00  0.00     0.000 C 
BRANCH   7   8
ATOM      8  C   UNL     1      15.064  19.946   8.255  1.00  0.00     0.000 C 
BRANCH   8   9
ATOM      9  C   UNL     1      13.905  18.971   7.971  1.00  0.00     0.000 C 
BRANCH   9  10
ATOM     10  C   UNL     1      13.346  19.026   6.539  1.00  0.00     0.000 C 
BRANCH  10  11
ATOM     11  C   UNL     1      11.808  19.060   6.505  1.00  0.00     0.000 C 
BRANCH  11  12
ATOM     12  C   UNL     1      11.206  19.866   7.668  1.00  0.00     0.000 C 
BRANCH  12  13
ATOM     13  C   UNL     1      10.124  19.089   8.434  1.00  0.00     0.006 C 
BRANCH  13  14
ATOM     14  C   UNL     1      10.612  18.693   9.832  1.00  0.00     0.053 C 
BRANCH  14  15
ATOM     15  C   UNL     1       9.608  17.816  10.516  1.00  0.00     0.041 C 
ATOM     16  O   UNL     1       9.163  16.789   9.936  1.00  0.00    -0.550 OA
ATOM     17  O   UNL     1       9.190  18.111  11.809  1.00  0.00    -0.550 OA
ENDBRANCH  14  15
ENDBRANCH  13  14
ENDBRANCH  12  13
ENDBRANCH  11  12
ENDBRANCH  10  11
ENDBRANCH   9  10
ENDBRANCH   8   9
ENDBRANCH   7   8
ENDBRANCH   6   7
ENDBRANCH   5   6
ENDBRANCH   4   5
ENDBRANCH   3   4
ENDBRANCH   2   3
ENDBRANCH   1   2
BRANCH   1  18
ATOM     18  C   UNL     1      16.252  16.772  15.797  1.00  0.00     0.000 C 
BRANCH  18  19
ATOM     19  C   UNL     1      14.794  16.284  15.858  1.00  0.00     0.000 C 
BRANCH  19  20
ATOM     20  C   UNL     1      14.121  16.579  17.208  1.00  0.00     0.000 C 
BRANCH  20  21
ATOM     21  C   UNL     1      12.728  15.935  17.334  1.00  0.00     0.000 C 
BRANCH  21  22
ATOM     22  C   UNL     1      11.597  16.905  16.950  1.00  0.00     0.000 C 
BRANCH  22  23
ATOM     23  C   UNL     1      11.019  16.600  15.557  1.00  0.00     0.000 C 
BRANCH  23  24
ATOM     24  C   UNL     1      11.434  17.640  14.504  1.00  0.00    -0.000 C 
BRANCH  24  25
ATOM     25  C   UNL     1      11.961  18.943  15.132  1.00  0.00    -0.000 C 
BRANCH  25  26
ATOM     26  C   UNL     1      13.313  19.376  14.524  1.00  0.00    -0.000 C 
BRANCH  26  27
ATOM     27  C   UNL     1      14.257  20.051  15.533  1.00  0.00    -0.000 C 
BRANCH  27  28
ATOM     28  C   UNL     1      13.700  20.062  16.963  1.00  0.00    -0.000 C 
BRANCH  28  29
ATOM     29  C   UNL     1      14.791  20.447  17.973  1.00  0.00    -0.000 C 
BRANCH  29  30
ATOM     30  C   UNL     1      16.214  20.214  17.435  1.00  0.00    -0.000 C 
BRANCH  30  31
ATOM     31  C   UNL     1      17.084  19.275  18.289  1.00  0.00    -0.003 C 
ATOM     32  C   UNL     1      16.302  18.579  19.401  1.00  0.00     0.004 C 
ENDBRANCH  30  31
ENDBRANCH  29  30
ENDBRANCH  28  29
ENDBRANCH  27  28
ENDBRANCH  26  27
ENDBRANCH  25  26
ENDBRANCH  24  25
ENDBRANCH  23  24
ENDBRANCH  22  23
ENDBRANCH  21  22
ENDBRANCH  20  21
ENDBRANCH  19  20
ENDBRANCH  18  19
ENDBRANCH   1  18
TORSDOF 28
ENDMDL
MODEL 3
REMARK VINA RESULT:    -3.941      1.281      2.915
REMARK INTER + INTRA:         -15.179
REMARK INTER:                 -10.598
REMARK INTRA:                  -4.580
REMARK UNBOUND:                -4.786
REMARK SMILES CCCCCCCCCCCCCCCCCCCCCCCCCCCCCC(=O)[O-]
REMARK SMILES IDX 16 1 17 2 18 3 19 4 20 5 21 6 22 7 23 8 24 9 25 10 26 11
REMARK SMILES IDX 27 12 28 13 29 14 30 15 31 16 32 17 15 18 14 19 13 20 12 21
REMARK SMILES IDX 11 22 10 23 9 24 8 25 7 26 6 27 5 28 4 29 3 30 2 31 1 32
REMARK H PARENT
REMARK Flexibility Score: inf
ROOT
ATOM      1  C   UNL     1      15.867  16.993  16.248  1.00  0.00     0.000 C 
ENDROOT
BRANCH   1   2
ATOM      2  C   UNL     1      16.483  17.525  14.942  1.00  0.00     0.000 C 
BRANCH   2   3
ATOM      3  C   UNL     1      17.314  18.802  15.149  1.00  0.00     0.000 C 
BRANCH   3   4
ATOM      4  C   UNL     1      16.543  20.037  14.666  1.00  0.00     0.000 C 
BRANCH   4   5
ATOM      5  C   UNL     1      15.908  20.788  15.846  1.00  0.00     0.000 C 
BRANCH   5   6
ATOM      6  C   UNL     1      14.433  20.406  16.060  1.00  0.00     0.000 C 
BRANCH   6   7
ATOM      7  C   UNL     1      14.144  19.966  17.506  1.00  0.00     0.000 C 
BRANCH   7   8
ATOM      8  C   UNL     1      15.365  20.152  18.432  1.00  0.00     0.000 C 
BRANCH   8   9
ATOM      9  C   UNL     1      15.754  18.878  19.208  1.00  0.00     0.000 C 
BRANCH   9  10
ATOM     10  C   UNL     1      17.254  18.742  19.523  1.00  0.00     0.000 C 
BRANCH  10  11
ATOM     11  C   UNL     1      18.138  19.538  18.546  1.00  0.00     0.000 C 
BRANCH  11  12
ATOM     12  C   UNL     1      19.635  19.234  18.716  1.00  0.00     0.000 C 
BRANCH  12  13
ATOM     13  C   UNL     1      20.213  18.419  17.548  1.00  0.00     0.006 C 
BRANCH  13  14
ATOM     14  C   UNL     1      20.029  16.915  17.779  1.00  0.00     0.053 C 
BRANCH  14  15
ATOM     15  C   UNL     1      20.747  16.476  19.019  1.00  0.00     0.041 C 
ATOM     16  O   UNL     1      20.105  15.964  19.976  1.00  0.00    -0.550 OA
ATOM     17  O   UNL     1      22.129  16.597  19.104  1.00  0.00    -0.550 OA
ENDBRANCH  14  15
ENDBRANCH  13  14
ENDBRANCH  12  13
ENDBRANCH  11  12
ENDBRANCH  10  11
ENDBRANCH   9  10
ENDBRANCH   8   9
ENDBRANCH   7   8
ENDBRANCH   6   7
ENDBRANCH   5   6
ENDBRANCH   4   5
ENDBRANCH   3   4
ENDBRANCH   2   3
ENDBRANCH   1   2
BRANCH   1  18
ATOM     18  C   UNL     1      14.554  16.206  16.076  1.00  0.00     0.000 C 
BRANCH  18  19
ATOM     19  C   UNL     1      13.597  16.374  17.269  1.00  0.00     0.000 C 
BRANCH  19  20
ATOM     20  C   UNL     1      12.301  15.562  17.113  1.00  0.00     0.000 C 
BRANCH  20  21
ATOM     21  C   UNL     1      11.081  16.441  16.780  1.00  0.00     0.000 C 
BRANCH  21  22
ATOM     22  C   UNL     1      11.006  16.797  15.285  1.00  0.00     0.000 C 
BRANCH  22  23
ATOM     23  C   UNL     1      11.419  18.255  15.015  1.00  0.00     0.000 C 
BRANCH  23  24
ATOM     24  C   UNL     1      11.203  18.669  13.551  1.00  0.00    -0.000 C 
BRANCH  24  25
ATOM     25  C   UNL     1       9.837  19.338  13.318  1.00  0.00    -0.000 C 
BRANCH  25  26
ATOM     26  C   UNL     1       9.633  19.746  11.842  1.00  0.00    -0.000 C 
BRANCH  26  27
ATOM     27  C   UNL     1      10.646  19.105  10.878  1.00  0.00    -0.000 C 
BRANCH  27  28
ATOM     28  C   UNL     1      10.082  18.898   9.466  1.00  0.00    -0.000 C 
BRANCH  28  29
ATOM     29  C   UNL     1       8.624  18.420   9.522  1.00  0.00    -0.000 C 
BRANCH  29  30
ATOM     30  C   UNL     1       8.500  16.887   9.605  1.00  0.00    -0.000 C 
BRANCH  30  31
ATOM     31  C   UNL     1       7.848  16.358  10.895  1.00  0.00    -0.003 C 
ATOM     32  C   UNL     1       8.864  15.994  11.975  1.00  0.00     0.004 C 
ENDBRANCH  30  31
ENDBRANCH  29  30
ENDBRANCH  28  29
ENDBRANCH  27  28
ENDBRANCH  26  27
ENDBRANCH  25  26
ENDBRANCH  24  25
ENDBRANCH  23  24
ENDBRANCH  22  23
ENDBRANCH  21  22
ENDBRANCH  20  21
ENDBRANCH  19  20
ENDBRANCH  18  19
ENDBRANCH   1  18
TORSDOF 28
ENDMDL
MODEL 4
REMARK VINA RESULT:    -3.929      4.128      9.054
REMARK INTER + INTRA:         -15.147
REMARK INTER:                  -9.826
REMARK INTRA:                  -5.321
REMARK UNBOUND:                -4.786
REMARK SMILES CCCCCCCCCCCCCCCCCCCCCCCCCCCCCC(=O)[O-]
REMARK SMILES IDX 16 1 17 2 18 3 19 4 20 5 21 6 22 7 23 8 24 9 25 10 26 11
REMARK SMILES IDX 27 12 28 13 29 14 30 15 31 16 32 17 15 18 14 19 13 20 12 21
REMARK SMILES IDX 11 22 10 23 9 24 8 25 7 26 6 27 5 28 4 29 3 30 2 31 1 32
REMARK H PARENT
REMARK Flexibility Score: inf
ROOT
ATOM      1  C   UNL     1      15.732  16.641  16.025  1.00  0.00     0.000 C 
ENDROOT
BRANCH   1   2
ATOM      2  C   UNL     1      14.200  16.490  16.057  1.00  0.00     0.000 C 
BRANCH   2   3
ATOM      3  C   UNL     1      13.664  16.123  17.451  1.00  0.00     0.000 C 
BRANCH   3   4
ATOM      4  C   UNL     1      12.242  15.557  17.356  1.00  0.00     0.000 C 
BRANCH   4   5
ATOM      5  C   UNL     1      11.249  16.633  16.892  1.00  0.00     0.000 C 
BRANCH   5   6
ATOM      6  C   UNL     1      10.615  16.300  15.530  1.00  0.00     0.000 C 
BRANCH   6   7
ATOM      7  C   UNL     1      11.043  17.285  14.428  1.00  0.00     0.000 C 
BRANCH   7   8
ATOM      8  C   UNL     1      11.407  18.676  14.991  1.00  0.00     0.000 C 
BRANCH   8   9
ATOM      9  C   UNL     1      11.194  19.826  13.987  1.00  0.00     0.000 C 
BRANCH   9  10
ATOM     10  C   UNL     1      12.357  20.057  13.007  1.00  0.00     0.000 C 
BRANCH  10  11
ATOM     11  C   UNL     1      11.913  19.990  11.536  1.00  0.00     0.000 C 
BRANCH  11  12
ATOM     12  C   UNL     1      10.384  19.997  11.376  1.00  0.00     0.000 C 
BRANCH  12  13
ATOM     13  C   UNL     1       9.881  18.914  10.408  1.00  0.00     0.006 C 
BRANCH  13  14
ATOM     14  C   UNL     1       9.466  17.647  11.164  1.00  0.00     0.053 C 
BRANCH  14  15
ATOM     15  C   UNL     1       8.722  16.710  10.262  1.00  0.00     0.041 C 
ATOM     16  O   UNL     1       8.346  15.584  10.688  1.00  0.00    -0.550 OA
ATOM     17  O   UNL     1       8.410  17.092   8.963  1.00  0.00    -0.550 OA
ENDBRANCH  14  15
ENDBRANCH  13  14
ENDBRANCH  12  13
ENDBRANCH  11  12
ENDBRANCH  10  11
ENDBRANCH   9  10
ENDBRANCH   8   9
ENDBRANCH   7   8
ENDBRANCH   6   7
ENDBRANCH   5   6
ENDBRANCH   4   5
ENDBRANCH   3   4
ENDBRANCH   2   3
ENDBRANCH   1   2
BRANCH   1  18
ATOM     18  C   UNL     1      16.262  17.693  15.033  1.00  0.00     0.000 C 
BRANCH  18  19
ATOM     19  C   UNL     1      15.300  18.880  14.851  1.00  0.00     0.000 C 
BRANCH  19  20
ATOM     20  C   UNL     1      15.926  20.223  15.260  1.00  0.00     0.000 C 
BRANCH  20  21
ATOM     21  C   UNL     1      15.240  20.854  16.486  1.00  0.00     0.000 C 
BRANCH  21  22
ATOM     22  C   UNL     1      13.950  20.115  16.881  1.00  0.00     0.000 C 
BRANCH  22  23
ATOM     23  C   UNL     1      13.959  19.681  18.358  1.00  0.00     0.000 C 
BRANCH  23  24
ATOM     24  C   UNL     1      15.352  19.791  18.997  1.00  0.00    -0.000 C 
BRANCH  24  25
ATOM     25  C   UNL     1      16.031  18.422  19.181  1.00  0.00    -0.000 C 
BRANCH  25  26
ATOM     26  C   UNL     1      17.564  18.547  19.322  1.00  0.00    -0.000 C 
BRANCH  26  27
ATOM     27  C   UNL     1      18.103  19.949  18.989  1.00  0.00    -0.000 C 
BRANCH  27  28
ATOM     28  C   UNL     1      18.830  20.007  17.638  1.00  0.00    -0.000 C 
BRANCH  28  29
ATOM     29  C   UNL     1      18.977  18.603  17.033  1.00  0.00    -0.000 C 
BRANCH  29  30
ATOM     30  C   UNL     1      20.234  18.459  16.156  1.00  0.00    -0.000 C 
BRANCH  30  31
ATOM     31  C   UNL     1      20.455  19.600  15.148  1.00  0.00    -0.003 C 
ATOM     32  C   UNL     1      19.258  19.827  14.226  1.00  0.00     0.004 C 
ENDBRANCH  30  31
ENDBRANCH  29  30
ENDBRANCH  28  29
ENDBRANCH  27  28
ENDBRANCH  26  27
ENDBRANCH  25  26
ENDBRANCH  24  25
ENDBRANCH  23  24
ENDBRANCH  22  23
ENDBRANCH  21  22
ENDBRANCH  20  21
ENDBRANCH  19  20
ENDBRANCH  18  19
ENDBRANCH   1  18
TORSDOF 28
ENDMDL
MODEL 5
REMARK VINA RESULT:    -3.924      3.986      9.011
REMARK INTER + INTRA:         -15.134
REMARK INTER:                 -10.217
REMARK INTRA:                  -4.916
REMARK UNBOUND:                -4.786
REMARK SMILES CCCCCCCCCCCCCCCCCCCCCCCCCCCCCC(=O)[O-]
REMARK SMILES IDX 16 1 17 2 18 3 19 4 20 5 21 6 22 7 23 8 24 9 25 10 26 11
REMARK SMILES IDX 27 12 28 13 29 14 30 15 31 16 32 17 15 18 14 19 13 20 12 21
REMARK SMILES IDX 11 22 10 23 9 24 8 25 7 26 6 27 5 28 4 29 3 30 2 31 1 32
REMARK H PARENT
REMARK Flexibility Score: inf
ROOT
ATOM      1  C   UNL     1      15.808  17.054  16.230  1.00  0.00     0.000 C 
ENDROOT
BRANCH   1   2
ATOM      2  C   UNL     1      14.519  16.239  16.021  1.00  0.00     0.000 C 
BRANCH   2   3
ATOM      3  C   UNL     1      13.644  16.169  17.282  1.00  0.00     0.000 C 
BRANCH   3   4
ATOM      4  C   UNL     1      12.237  15.663  16.942  1.00  0.00     0.000 C 
BRANCH   4   5
ATOM      5  C   UNL     1      11.388  16.775  16.308  1.00  0.00     0.000 C 
BRANCH   5   6
ATOM      6  C   UNL     1      11.562  18.127  17.021  1.00  0.00     0.000 C 
BRANCH   6   7
ATOM      7  C   UNL     1      11.784  19.287  16.035  1.00  0.00     0.000 C 
BRANCH   7   8
ATOM      8  C   UNL     1      12.397  18.815  14.700  1.00  0.00     0.000 C 
BRANCH   8   9
ATOM      9  C   UNL     1      12.766  19.966  13.745  1.00  0.00     0.000 C 
BRANCH   9  10
ATOM     10  C   UNL     1      11.828  20.135  12.537  1.00  0.00     0.000 C 
BRANCH  10  11
ATOM     11  C   UNL     1      10.366  20.374  12.954  1.00  0.00     0.000 C 
BRANCH  11  12
ATOM     12  C   UNL     1       9.440  19.208  12.570  1.00  0.00     0.000 C 
BRANCH  12  13
ATOM     13  C   UNL     1      10.106  18.211  11.610  1.00  0.00     0.006 C 
BRANCH  13  14
ATOM     14  C   UNL     1       9.970  16.773  12.123  1.00  0.00     0.053 C 
BRANCH  14  15
ATOM     15  C   UNL     1       8.789  16.095  11.498  1.00  0.00     0.041 C 
ATOM     16  O   UNL     1       7.882  15.602  12.224  1.00  0.00    -0.550 OA
ATOM     17  O   UNL     1       8.668  16.039  10.115  1.00  0.00    -0.550 OA
ENDBRANCH  14  15
ENDBRANCH  13  14
ENDBRANCH  12  13
ENDBRANCH  11  12
ENDBRANCH  10  11
ENDBRANCH   9  10
ENDBRANCH   8   9
ENDBRANCH   7   8
ENDBRANCH   6   7
ENDBRANCH   5   6
ENDBRANCH   4   5
ENDBRANCH   3   4
ENDBRANCH   2   3
ENDBRANCH   1   2
BRANCH   1  18
ATOM     18  C   UNL     1      15.707  18.174  17.283  1.00  0.00     0.000 C 
BRANCH  18  19
ATOM     19  C   UNL     1      15.344  19.538  16.670  1.00  0.00     0.000 C 
BRANCH  19  20
ATOM     20  C   UNL     1      14.893  20.564  17.722  1.00  0.00     0.000 C 
BRANCH  20  21
ATOM     21  C   UNL     1      14.469  19.910  19.050  1.00  0.00     0.000 C 
BRANCH  21  22
ATOM     22  C   UNL     1      15.272  20.443  20.249  1.00  0.00     0.000 C 
BRANCH  22  23
ATOM     23  C   UNL     1      16.294  19.413  20.766  1.00  0.00     0.000 C 
BRANCH  23  24
ATOM     24  C   UNL     1      17.674  19.570  20.108  1.00  0.00    -0.000 C 
BRANCH  24  25
ATOM     25  C   UNL     1      18.335  18.217  19.786  1.00  0.00    -0.000 C 
BRANCH  25  26
ATOM     26  C   UNL     1      19.871  18.332  19.677  1.00  0.00    -0.000 C 
BRANCH  26  27
ATOM     27  C   UNL     1      20.376  18.532  18.238  1.00  0.00    -0.000 C 
BRANCH  27  28
ATOM     28  C   UNL     1      19.842  17.475  17.261  1.00  0.00    -0.000 C 
BRANCH  28  29
ATOM     29  C   UNL     1      19.836  18.012  15.822  1.00  0.00    -0.000 C 
BRANCH  29  30
ATOM     30  C   UNL     1      18.869  19.195  15.629  1.00  0.00    -0.000 C 
BRANCH  30  31
ATOM     31  C   UNL     1      18.719  19.678  14.176  1.00  0.00    -0.003 C 
ATOM     32  C   UNL     1      17.370  19.313  13.558  1.00  0.00     0.004 C 
ENDBRANCH  30  31
ENDBRANCH  29  30
ENDBRANCH  28  29
ENDBRANCH  27  28
ENDBRANCH  26  27
ENDBRANCH  25  26
ENDBRANCH  24  25
ENDBRANCH  23  24
ENDBRANCH  22  23
ENDBRANCH  21  22
ENDBRANCH  20  21
ENDBRANCH  19  20
ENDBRANCH  18  19
ENDBRANCH   1  18
TORSDOF 28
ENDMDL
MODEL 6
REMARK VINA RESULT:    -3.912      1.506      2.427
REMARK INTER + INTRA:         -15.102
REMARK INTER:                 -10.536
REMARK INTRA:                  -4.566
REMARK UNBOUND:                -4.786
REMARK SMILES CCCCCCCCCCCCCCCCCCCCCCCCCCCCCC(=O)[O-]
REMARK SMILES IDX 16 1 17 2 18 3 19 4 20 5 21 6 22 7 23 8 24 9 25 10 26 11
REMARK SMILES IDX 27 12 28 13 29 14 30 15 31 16 32 17 15 18 14 19 13 20 12 21
REMARK SMILES IDX 11 22 10 23 9 24 8 25 7 26 6 27 5 28 4 29 3 30 2 31 1 32
REMARK H PARENT
REMARK Flexibility Score: inf
ROOT
ATOM      1  C   UNL     1      14.784  17.837  17.684  1.00  0.00     0.000 C 
ENDROOT
BRANCH   1   2
ATOM      2  C   UNL     1      13.840  19.051  17.603  1.00  0.00     0.000 C 
BRANCH   2   3
ATOM      3  C   UNL     1      14.422  20.207  16.774  1.00  0.00     0.000 C 
BRANCH   3   4
ATOM      4  C   UNL     1      13.728  20.301  15.410  1.00  0.00     0.000 C 
BRANCH   4   5
ATOM      5  C   UNL     1      14.424  19.406  14.373  1.00  0.00     0.000 C 
BRANCH   5   6
ATOM      6  C   UNL     1      15.957  19.508  14.443  1.00  0.00     0.000 C 
BRANCH   6   7
ATOM      7  C   UNL     1      16.640  18.130  14.389  1.00  0.00     0.000 C 
BRANCH   7   8
ATOM      8  C   UNL     1      17.803  18.010  15.398  1.00  0.00     0.000 C 
BRANCH   8   9
ATOM      9  C   UNL     1      17.877  19.178  16.400  1.00  0.00     0.000 C 
BRANCH   9  10
ATOM     10  C   UNL     1      19.142  20.048  16.292  1.00  0.00     0.000 C 
BRANCH  10  11
ATOM     11  C   UNL     1      20.420  19.211  16.101  1.00  0.00     0.000 C 
BRANCH  11  12
ATOM     12  C   UNL     1      21.144  18.921  17.425  1.00  0.00     0.000 C 
BRANCH  12  13
ATOM     13  C   UNL     1      20.767  17.558  18.024  1.00  0.00     0.006 C 
BRANCH  13  14
ATOM     14  C   UNL     1      19.993  17.726  19.337  1.00  0.00     0.053 C 
BRANCH  14  15
ATOM     15  C   UNL     1      20.251  16.571  20.257  1.00  0.00     0.041 C 
ATOM     16  O   UNL     1      20.315  16.755  21.503  1.00  0.00    -0.550 OA
ATOM     17  O   UNL     1      20.383  15.286  19.744  1.00  0.00    -0.550 OA
ENDBRANCH  14  15
ENDBRANCH  13  14
ENDBRANCH  12  13
ENDBRANCH  11  12
ENDBRANCH  10  11
ENDBRANCH   9  10
ENDBRANCH   8   9
ENDBRANCH   7   8
ENDBRANCH   6   7
ENDBRANCH   5   6
ENDBRANCH   4   5
ENDBRANCH   3   4
ENDBRANCH   2   3
ENDBRANCH   1   2
BRANCH   1  18
ATOM     18  C   UNL     1      14.334  16.607  16.873  1.00  0.00     0.000 C 
BRANCH  18  19
ATOM     19  C   UNL     1      13.231  15.798  17.578  1.00  0.00     0.000 C 
BRANCH  19  20
ATOM     20  C   UNL     1      11.977  15.616  16.709  1.00  0.00     0.000 C 
BRANCH  20  21
ATOM     21  C   UNL     1      10.975  16.777  16.856  1.00  0.00     0.000 C 
BRANCH  21  22
ATOM     22  C   UNL     1      11.062  17.776  15.689  1.00  0.00     0.000 C 
BRANCH  22  23
ATOM     23  C   UNL     1      11.260  17.070  14.335  1.00  0.00     0.000 C 
BRANCH  23  24
ATOM     24  C   UNL     1      10.933  17.981  13.141  1.00  0.00    -0.000 C 
BRANCH  24  25
ATOM     25  C   UNL     1      10.425  19.369  13.574  1.00  0.00    -0.000 C 
BRANCH  25  26
ATOM     26  C   UNL     1       9.022  19.677  13.007  1.00  0.00    -0.000 C 
BRANCH  26  27
ATOM     27  C   UNL     1       8.952  19.633  11.471  1.00  0.00    -0.000 C 
BRANCH  27  28
ATOM     28  C   UNL     1       7.534  19.383  10.941  1.00  0.00    -0.000 C 
BRANCH  28  29
ATOM     29  C   UNL     1       7.524  18.230   9.926  1.00  0.00    -0.000 C 
BRANCH  29  30
ATOM     30  C   UNL     1       8.879  17.506   9.830  1.00  0.00    -0.000 C 
BRANCH  30  31
ATOM     31  C   UNL     1       8.884  16.065  10.371  1.00  0.00    -0.003 C 
ATOM     32  C   UNL     1       8.145  15.921  11.701  1.00  0.00     0.004 C 
ENDBRANCH  30  31
ENDBRANCH  29  30
ENDBRANCH  28  29
ENDBRANCH  27  28
ENDBRANCH  26  27
ENDBRANCH  25  26
ENDBRANCH  24  25
ENDBRANCH  23  24
ENDBRANCH  22  23
ENDBRANCH  21  22
ENDBRANCH  20  21
ENDBRANCH  19  20
ENDBRANCH  18  19
ENDBRANCH   1  18
TORSDOF 28
ENDMDL
MODEL 7
REMARK VINA RESULT:    -3.897      4.445      8.510
REMARK INTER + INTRA:         -15.062
REMARK INTER:                 -10.378
REMARK INTRA:                  -4.684
REMARK UNBOUND:                -4.786
REMARK SMILES CCCCCCCCCCCCCCCCCCCCCCCCCCCCCC(=O)[O-]
REMARK SMILES IDX 16 1 17 2 18 3 19 4 20 5 21 6 22 7 23 8 24 9 25 10 26 11
REMARK SMILES IDX 27 12 28 13 29 14 30 15 31 16 32 17 15 18 14 19 13 20 12 21
REMARK SMILES IDX 11 22 10 23 9 24 8 25 7 26 6 27 5 28 4 29 3 30 2 31 1 32
REMARK H PARENT
REMARK Flexibility Score: inf
ROOT
ATOM      1  C   UNL     1       8.958  16.669  11.839  1.00  0.00     0.000 C 
ENDROOT
BRANCH   1   2
ATOM      2  C   UNL     1       8.686  16.141  10.419  1.00  0.00     0.000 C 
BRANCH   2   3
ATOM      3  C   UNL     1       8.265  17.248   9.440  1.00  0.00     0.000 C 
BRANCH   3   4
ATOM      4  C   UNL     1       9.461  18.135   9.073  1.00  0.00     0.000 C 
BRANCH   4   5
ATOM      5  C   UNL     1       9.104  19.624   9.196  1.00  0.00     0.000 C 
BRANCH   5   6
ATOM      6  C   UNL     1       9.928  20.339  10.280  1.00  0.00     0.000 C 
BRANCH   6   7
ATOM      7  C   UNL     1      11.426  19.995  10.200  1.00  0.00     0.000 C 
BRANCH   7   8
ATOM      8  C   UNL     1      12.308  21.040  10.917  1.00  0.00     0.000 C 
BRANCH   8   9
ATOM      9  C   UNL     1      13.614  20.459  11.492  1.00  0.00     0.000 C 
BRANCH   9  10
ATOM     10  C   UNL     1      14.903  20.984  10.835  1.00  0.00     0.000 C 
BRANCH  10  11
ATOM     11  C   UNL     1      15.660  19.889  10.062  1.00  0.00     0.000 C 
BRANCH  11  12
ATOM     12  C   UNL     1      16.102  20.348   8.663  1.00  0.00     0.000 C 
BRANCH  12  13
ATOM     13  C   UNL     1      14.917  20.648   7.733  1.00  0.00     0.006 C 
BRANCH  13  14
ATOM     14  C   UNL     1      14.001  19.427   7.592  1.00  0.00     0.053 C 
BRANCH  14  15
ATOM     15  C   UNL     1      12.964  19.660   6.535  1.00  0.00     0.041 C 
ATOM     16  O   UNL     1      13.200  20.447   5.578  1.00  0.00    -0.550 OA
ATOM     17  O   UNL     1      11.752  18.982   6.585  1.00  0.00    -0.550 OA
ENDBRANCH  14  15
ENDBRANCH  13  14
ENDBRANCH  12  13
ENDBRANCH  11  12
ENDBRANCH  10  11
ENDBRANCH   9  10
ENDBRANCH   8   9
ENDBRANCH   7   8
ENDBRANCH   6   7
ENDBRANCH   5   6
ENDBRANCH   4   5
ENDBRANCH   3   4
ENDBRANCH   2   3
ENDBRANCH   1   2
BRANCH   1  18
ATOM     18  C   UNL     1      10.445  16.861  12.190  1.00  0.00     0.000 C 
BRANCH  18  19
ATOM     19  C   UNL     1      10.654  17.526  13.562  1.00  0.00     0.000 C 
BRANCH  19  20
ATOM     20  C   UNL     1      10.193  18.992  13.590  1.00  0.00     0.000 C 
BRANCH  20  21
ATOM     21  C   UNL     1      11.148  19.903  14.384  1.00  0.00     0.000 C 
BRANCH  21  22
ATOM     22  C   UNL     1      12.515  19.243  14.635  1.00  0.00     0.000 C 
BRANCH  22  23
ATOM     23  C   UNL     1      13.221  19.824  15.873  1.00  0.00     0.000 C 
BRANCH  23  24
ATOM     24  C   UNL     1      14.523  20.561  15.518  1.00  0.00    -0.000 C 
BRANCH  24  25
ATOM     25  C   UNL     1      15.419  19.756  14.560  1.00  0.00    -0.000 C 
BRANCH  25  26
ATOM     26  C   UNL     1      16.422  18.859  15.317  1.00  0.00    -0.000 C 
BRANCH  26  27
ATOM     27  C   UNL     1      16.051  17.366  15.300  1.00  0.00    -0.000 C 
BRANCH  27  28
ATOM     28  C   UNL     1      15.234  16.935  16.526  1.00  0.00    -0.000 C 
BRANCH  28  29
ATOM     29  C   UNL     1      13.990  16.141  16.104  1.00  0.00    -0.000 C 
BRANCH  29  30
ATOM     30  C   UNL     1      13.029  15.868  17.276  1.00  0.00    -0.000 C 
BRANCH  30  31
ATOM     31  C   UNL     1      11.622  15.397  16.865  1.00  0.00    -0.003 C 
ATOM     32  C   UNL     1      10.551  16.469  17.059  1.00  0.00     0.004 C 
ENDBRANCH  30  31
ENDBRANCH  29  30
ENDBRANCH  28  29
ENDBRANCH  27  28
ENDBRANCH  26  27
ENDBRANCH  25  26
ENDBRANCH  24  25
ENDBRANCH  23  24
ENDBRANCH  22  23
ENDBRANCH  21  22
ENDBRANCH  20  21
ENDBRANCH  19  20
ENDBRANCH  18  19
ENDBRANCH   1  18
TORSDOF 28
ENDMDL
MODEL 8
REMARK VINA RESULT:    -3.896      3.637      9.299
REMARK INTER + INTRA:         -15.061
REMARK INTER:                 -10.881
REMARK INTRA:                  -4.180
REMARK UNBOUND:                -4.786
REMARK SMILES CCCCCCCCCCCCCCCCCCCCCCCCCCCCCC(=O)[O-]
REMARK SMILES IDX 16 1 17 2 18 3 19 4 20 5 21 6 22 7 23 8 24 9 25 10 26 11
REMARK SMILES IDX 27 12 28 13 29 14 30 15 31 16 32 17 15 18 14 19 13 20 12 21
REMARK SMILES IDX 11 22 10 23 9 24 8 25 7 26 6 27 5 28 4 29 3 30 2 31 1 32
REMARK H PARENT
REMARK Flexibility Score: inf
ROOT
ATOM      1  C   UNL     1      14.082  16.590  16.843  1.00  0.00     0.000 C 
ENDROOT
BRANCH   1   2
ATOM      2  C   UNL     1      12.991  15.841  17.630  1.00  0.00     0.000 C 
BRANCH   2   3
ATOM      3  C   UNL     1      11.772  15.478  16.766  1.00  0.00     0.000 C 
BRANCH   3   4
ATOM      4  C   UNL     1      11.110  16.741  16.201  1.00  0.00     0.000 C 
BRANCH   4   5
ATOM      5  C   UNL     1      11.297  16.830  14.679  1.00  0.00     0.000 C 
BRANCH   5   6
ATOM      6  C   UNL     1      10.981  18.231  14.129  1.00  0.00     0.000 C 
BRANCH   6   7
ATOM      7  C   UNL     1      10.385  18.184  12.711  1.00  0.00     0.000 C 
BRANCH   7   8
ATOM      8  C   UNL     1      10.210  16.740  12.194  1.00  0.00     0.000 C 
BRANCH   8   9
ATOM      9  C   UNL     1       8.738  16.300  12.072  1.00  0.00     0.000 C 
BRANCH   9  10
ATOM     10  C   UNL     1       8.309  15.852  10.663  1.00  0.00     0.000 C 
BRANCH  10  11
ATOM     11  C   UNL     1       8.698  16.869   9.576  1.00  0.00     0.000 C 
BRANCH  11  12
ATOM     12  C   UNL     1       8.072  18.254   9.805  1.00  0.00     0.000 C 
BRANCH  12  13
ATOM     13  C   UNL     1       9.040  19.405   9.491  1.00  0.00     0.006 C 
BRANCH  13  14
ATOM     14  C   UNL     1      10.222  18.918   8.646  1.00  0.00     0.053 C 
BRANCH  14  15
ATOM     15  C   UNL     1      11.488  19.606   9.058  1.00  0.00     0.041 C 
ATOM     16  O   UNL     1      11.532  20.261  10.135  1.00  0.00    -0.550 OA
ATOM     17  O   UNL     1      12.631  19.493   8.275  1.00  0.00    -0.550 OA
ENDBRANCH  14  15
ENDBRANCH  13  14
ENDBRANCH  12  13
ENDBRANCH  11  12
ENDBRANCH  10  11
ENDBRANCH   9  10
ENDBRANCH   8   9
ENDBRANCH   7   8
ENDBRANCH   6   7
ENDBRANCH   5   6
ENDBRANCH   4   5
ENDBRANCH   3   4
ENDBRANCH   2   3
ENDBRANCH   1   2
BRANCH   1  18
ATOM     18  C   UNL     1      14.903  17.599  17.668  1.00  0.00     0.000 C 
BRANCH  18  19
ATOM     19  C   UNL     1      14.143  18.909  17.939  1.00  0.00     0.000 C 
BRANCH  19  20
ATOM     20  C   UNL     1      13.446  19.464  16.687  1.00  0.00     0.000 C 
BRANCH  20  21
ATOM     21  C   UNL     1      13.813  20.932  16.399  1.00  0.00     0.000 C 
BRANCH  21  22
ATOM     22  C   UNL     1      14.816  21.069  15.241  1.00  0.00     0.000 C 
BRANCH  22  23
ATOM     23  C   UNL     1      14.866  19.804  14.365  1.00  0.00     0.000 C 
BRANCH  23  24
ATOM     24  C   UNL     1      15.891  19.915  13.225  1.00  0.00    -0.000 C 
BRANCH  24  25
ATOM     25  C   UNL     1      16.968  18.817  13.285  1.00  0.00    -0.000 C 
BRANCH  25  26
ATOM     26  C   UNL     1      16.809  17.914  14.528  1.00  0.00    -0.000 C 
BRANCH  26  27
ATOM     27  C   UNL     1      17.968  18.036  15.532  1.00  0.00    -0.000 C 
BRANCH  27  28
ATOM     28  C   UNL     1      17.933  19.345  16.333  1.00  0.00    -0.000 C 
BRANCH  28  29
ATOM     29  C   UNL     1      18.219  19.085  17.820  1.00  0.00    -0.000 C 
BRANCH  29  30
ATOM     30  C   UNL     1      19.583  19.638  18.272  1.00  0.00    -0.000 C 
BRANCH  30  31
ATOM     31  C   UNL     1      20.801  18.824  17.801  1.00  0.00    -0.003 C 
ATOM     32  C   UNL     1      20.660  17.326  18.066  1.00  0.00     0.004 C 
ENDBRANCH  30  31
ENDBRANCH  29  30
ENDBRANCH  28  29
ENDBRANCH  27  28
ENDBRANCH  26  27
ENDBRANCH  25  26
ENDBRANCH  24  25
ENDBRANCH  23  24
ENDBRANCH  22  23
ENDBRANCH  21  22
ENDBRANCH  20  21
ENDBRANCH  19  20
ENDBRANCH  18  19
ENDBRANCH   1  18
TORSDOF 28
ENDMDL
MODEL 9
REMARK VINA RESULT:    -3.877      1.784      3.345
REMARK INTER + INTRA:         -15.010
REMARK INTER:                  -9.753
REMARK INTRA:                  -5.257
REMARK UNBOUND:                -4.786
REMARK SMILES CCCCCCCCCCCCCCCCCCCCCCCCCCCCCC(=O)[O-]
REMARK SMILES IDX 16 1 17 2 18 3 19 4 20 5 21 6 22 7 23 8 24 9 25 10 26 11
REMARK SMILES IDX 27 12 28 13 29 14 30 15 31 16 32 17 15 18 14 19 13 20 12 21
REMARK SMILES IDX 11 22 10 23 9 24 8 25 7 26 6 27 5 28 4 29 3 30 2 31 1 32
REMARK H PARENT
REMARK Flexibility Score: inf
ROOT
ATOM      1  C   UNL     1      12.288  15.637  16.938  1.00  0.00     0.000 C 
ENDROOT
BRANCH   1   2
ATOM      2  C   UNL     1      13.701  16.237  17.057  1.00  0.00     0.000 C 
BRANCH   2   3
ATOM      3  C   UNL     1      14.400  16.395  15.698  1.00  0.00     0.000 C 
BRANCH   3   4
ATOM      4  C   UNL     1      15.921  16.478  15.874  1.00  0.00     0.000 C 
BRANCH   4   5
ATOM      5  C   UNL     1      16.534  17.505  14.911  1.00  0.00     0.000 C 
BRANCH   5   6
ATOM      6  C   UNL     1      15.713  18.803  14.835  1.00  0.00     0.000 C 
BRANCH   6   7
ATOM      7  C   UNL     1      16.512  20.032  15.305  1.00  0.00     0.000 C 
BRANCH   7   8
ATOM      8  C   UNL     1      15.851  20.737  16.509  1.00  0.00     0.000 C 
BRANCH   8   9
ATOM      9  C   UNL     1      14.670  19.954  17.115  1.00  0.00     0.000 C 
BRANCH   9  10
ATOM     10  C   UNL     1      14.809  19.625  18.612  1.00  0.00     0.000 C 
BRANCH  10  11
ATOM     11  C   UNL     1      15.887  18.560  18.885  1.00  0.00     0.000 C 
BRANCH  11  12
ATOM     12  C   UNL     1      17.059  19.101  19.719  1.00  0.00     0.000 C 
BRANCH  12  13
ATOM     13  C   UNL     1      18.318  19.362  18.877  1.00  0.00     0.006 C 
BRANCH  13  14
ATOM     14  C   UNL     1      18.573  18.214  17.894  1.00  0.00     0.053 C 
BRANCH  14  15
ATOM     15  C   UNL     1      19.669  18.569  16.935  1.00  0.00     0.041 C 
ATOM     16  O   UNL     1      20.376  19.595  17.132  1.00  0.00    -0.550 OA
ATOM     17  O   UNL     1      19.934  17.750  15.844  1.00  0.00    -0.550 OA
ENDBRANCH  14  15
ENDBRANCH  13  14
ENDBRANCH  12  13
ENDBRANCH  11  12
ENDBRANCH  10  11
ENDBRANCH   9  10
ENDBRANCH   8   9
ENDBRANCH   7   8
ENDBRANCH   6   7
ENDBRANCH   5   6
ENDBRANCH   4   5
ENDBRANCH   3   4
ENDBRANCH   2   3
ENDBRANCH   1   2
BRANCH   1  18
ATOM     18  C   UNL     1      11.153  16.666  16.781  1.00  0.00     0.000 C 
BRANCH  18  19
ATOM     19  C   UNL     1      11.596  18.099  17.125  1.00  0.00     0.000 C 
BRANCH  19  20
ATOM     20  C   UNL     1      11.362  19.089  15.972  1.00  0.00     0.000 C 
BRANCH  20  21
ATOM     21  C   UNL     1      11.776  18.518  14.602  1.00  0.00     0.000 C 
BRANCH  21  22
ATOM     22  C   UNL     1      12.272  19.610  13.639  1.00  0.00     0.000 C 
BRANCH  22  23
ATOM     23  C   UNL     1      11.155  20.598  13.258  1.00  0.00     0.000 C 
BRANCH  23  24
ATOM     24  C   UNL     1      10.928  20.678  11.740  1.00  0.00    -0.000 C 
BRANCH  24  25
ATOM     25  C   UNL     1       9.467  20.396  11.342  1.00  0.00    -0.000 C 
BRANCH  25  26
ATOM     26  C   UNL     1       8.634  19.867  12.529  1.00  0.00    -0.000 C 
BRANCH  26  27
ATOM     27  C   UNL     1       7.312  19.200  12.109  1.00  0.00    -0.000 C 
BRANCH  27  28
ATOM     28  C   UNL     1       7.255  18.872  10.611  1.00  0.00    -0.000 C 
BRANCH  28  29
ATOM     29  C   UNL     1       6.875  17.401  10.386  1.00  0.00    -0.000 C 
BRANCH  29  30
ATOM     30  C   UNL     1       7.837  16.421  11.083  1.00  0.00    -0.000 C 
BRANCH  30  31
ATOM     31  C   UNL     1       9.321  16.596  10.713  1.00  0.00    -0.003 C 
ATOM     32  C   UNL     1      10.242  16.639  11.931  1.00  0.00     0.004 C 
ENDBRANCH  30  31
ENDBRANCH  29  30
ENDBRANCH  28  29
ENDBRANCH  27  28
ENDBRANCH  26  27
ENDBRANCH  25  26
ENDBRANCH  24  25
ENDBRANCH  23  24
ENDBRANCH  22  23
ENDBRANCH  21  22
ENDBRANCH  20  21
ENDBRANCH  19  20
ENDBRANCH  18  19
ENDBRANCH   1  18
TORSDOF 28
ENDMDL
