MODEL 1
REMARK VINA RESULT:    -4.047      0.000      0.000
REMARK INTER + INTRA:          -8.953
REMARK INTER:                  -7.359
REMARK INTRA:                  -1.595
REMARK UNBOUND:                -1.595
REMARK SMILES CCCCCCCCCCCCCCCC(=O)[O-]
REMARK SMILES IDX 9 1 10 2 11 3 12 4 13 5 14 6 15 7 16 8 17 9 18 10 8 11 7 12
REMARK SMILES IDX 6 13 5 14 4 15 3 16 2 17 1 18
REMARK H PARENT
REMARK Flexibility Score: inf
ROOT
ATOM      1  C   UNL     1     -18.754  31.807 -43.078  1.00  0.00     0.000 C 
ENDROOT
BRANCH   1   2
ATOM      2  C   UNL     1     -19.325  30.494 -42.511  1.00  0.00     0.000 C 
BRANCH   2   3
ATOM      3  C   UNL     1     -20.856  30.458 -42.353  1.00  0.00     0.000 C 
BRANCH   3   4
ATOM      4  C   UNL     1     -21.304  30.091 -40.930  1.00  0.00     0.000 C 
BRANCH   4   5
ATOM      5  C   UNL     1     -22.289  28.914 -40.951  1.00  0.00     0.000 C 
BRANCH   5   6
ATOM      6  C   UNL     1     -23.192  28.913 -42.198  1.00  0.00     0.006 C 
BRANCH   6   7
ATOM      7  C   UNL     1     -24.637  28.457 -41.935  1.00  0.00     0.053 C 
BRANCH   7   8
ATOM      8  C   UNL     1     -25.507  29.581 -41.468  1.00  0.00     0.041 C 
ATOM      9  O   UNL     1     -25.129  30.775 -41.604  1.00  0.00    -0.550 OA
ATOM     10  O   UNL     1     -26.721  29.312 -40.849  1.00  0.00    -0.550 OA
ENDBRANCH   7   8
ENDBRANCH   6   7
ENDBRANCH   5   6
ENDBRANCH   4   5
ENDBRANCH   3   4
ENDBRANCH   2   3
ENDBRANCH   1   2
BRANCH   1  11
ATOM     11  C   UNL     1     -17.590  32.367 -42.242  1.00  0.00     0.000 C 
BRANCH  11  12
ATOM     12  C   UNL     1     -17.157  31.409 -41.121  1.00  0.00    -0.000 C 
BRANCH  12  13
ATOM     13  C   UNL     1     -17.387  31.993 -39.719  1.00  0.00    -0.000 C 
BRANCH  13  14
ATOM     14  C   UNL     1     -18.356  33.181 -39.773  1.00  0.00    -0.000 C 
BRANCH  14  15
ATOM     15  C   UNL     1     -19.684  32.841 -39.080  1.00  0.00    -0.000 C 
BRANCH  15  16
ATOM     16  C   UNL     1     -20.887  33.579 -39.695  1.00  0.00    -0.000 C 
BRANCH  16  17
ATOM     17  C   UNL     1     -22.214  33.393 -38.939  1.00  0.00    -0.003 C 
ATOM     18  C   UNL     1     -22.398  34.394 -37.799  1.00  0.00     0.004 C 
ENDBRANCH  16  17
ENDBRANCH  15  16
ENDBRANCH  14  15
ENDBRANCH  13  14
ENDBRANCH  12  13
ENDBRANCH  11  12
ENDBRANCH   1  11
TORSDOF 14
ENDMDL
MODEL 2
REMARK VINA RESULT:    -4.012      1.723      4.141
REMARK INTER + INTRA:          -8.890
REMARK INTER:                  -6.537
REMARK INTRA:                  -2.353
REMARK UNBOUND:                -1.595
REMARK SMILES CCCCCCCCCCCCCCCC(=O)[O-]
REMARK SMILES IDX 9 1 10 2 11 3 12 4 13 5 14 6 15 7 16 8 17 9 18 10 8 11 7 12
REMARK SMILES IDX 6 13 5 14 4 15 3 16 2 17 1 18
REMARK H PARENT
REMARK Flexibility Score: inf
ROOT
ATOM      1  C   UNL     1     -23.674  32.719 -37.814  1.00  0.00     0.000 C 
ENDROOT
BRANCH   1   2
ATOM      2  C   UNL     1     -24.273  31.881 -38.959  1.00  0.00     0.000 C 
BRANCH   2   3
ATOM      3  C   UNL     1     -23.266  31.009 -39.731  1.00  0.00     0.000 C 
BRANCH   3   4
ATOM      4  C   UNL     1     -23.099  31.438 -41.196  1.00  0.00     0.000 C 
BRANCH   4   5
ATOM      5  C   UNL     1     -22.960  30.215 -42.114  1.00  0.00     0.000 C 
BRANCH   5   6
ATOM      6  C   UNL     1     -23.409  28.906 -41.438  1.00  0.00     0.006 C 
BRANCH   6   7
ATOM      7  C   UNL     1     -24.740  28.344 -41.964  1.00  0.00     0.053 C 
BRANCH   7   8
ATOM      8  C   UNL     1     -25.922  28.988 -41.309  1.00  0.00     0.041 C 
ATOM      9  O   UNL     1     -26.433  28.476 -40.278  1.00  0.00    -0.550 OA
ATOM     10  O   UNL     1     -26.482  30.135 -41.857  1.00  0.00    -0.550 OA
ENDBRANCH   7   8
ENDBRANCH   6   7
ENDBRANCH   5   6
ENDBRANCH   4   5
ENDBRANCH   3   4
ENDBRANCH   2   3
ENDBRANCH   1   2
BRANCH   1  11
ATOM     11  C   UNL     1     -23.235  34.124 -38.264  1.00  0.00     0.000 C 
BRANCH  11  12
ATOM     12  C   UNL     1     -21.825  34.486 -37.773  1.00  0.00    -0.000 C 
BRANCH  12  13
ATOM     13  C   UNL     1     -20.761  33.471 -38.220  1.00  0.00    -0.000 C 
BRANCH  13  14
ATOM     14  C   UNL     1     -20.495  33.583 -39.726  1.00  0.00    -0.000 C 
BRANCH  14  15
ATOM     15  C   UNL     1     -19.447  32.555 -40.178  1.00  0.00    -0.000 C 
BRANCH  15  16
ATOM     16  C   UNL     1     -19.590  31.200 -39.462  1.00  0.00    -0.000 C 
BRANCH  16  17
ATOM     17  C   UNL     1     -19.688  29.982 -40.399  1.00  0.00    -0.003 C 
ATOM     18  C   UNL     1     -20.136  28.710 -39.680  1.00  0.00     0.004 C 
ENDBRANCH  16  17
ENDBRANCH  15  16
ENDBRANCH  14  15
ENDBRANCH  13  14
ENDBRANCH  12  13
ENDBRANCH  11  12
ENDBRANCH   1  11
TORSDOF 14
ENDMDL
MODEL 3
REMARK VINA RESULT:    -3.938     12.567     14.843
REMARK INTER + INTRA:          -8.756
REMARK INTER:                  -6.546
REMARK INTRA:                  -2.211
REMARK UNBOUND:                -1.595
REMARK SMILES CCCCCCCCCCCCCCCC(=O)[O-]
REMARK SMILES IDX 9 1 10 2 11 3 12 4 13 5 14 6 15 7 16 8 17 9 18 10 8 11 7 12
REMARK SMILES IDX 6 13 5 14 4 15 3 16 2 17 1 18
REMARK H PARENT
REMARK Flexibility Score: inf
ROOT
ATOM      1  C   UNL     1     -26.559  19.042 -38.526  1.00  0.00     0.000 C 
ENDROOT
BRANCH   1   2
ATOM      2  C   UNL     1     -26.220  18.368 -37.183  1.00  0.00     0.000 C 
BRANCH   2   3
ATOM      3  C   UNL     1     -25.460  19.253 -36.178  1.00  0.00     0.000 C 
BRANCH   3   4
ATOM      4  C   UNL     1     -25.891  19.016 -34.723  1.00  0.00     0.000 C 
BRANCH   4   5
ATOM      5  C   UNL     1     -25.426  17.639 -34.230  1.00  0.00     0.000 C 
BRANCH   5   6
ATOM      6  C   UNL     1     -24.615  17.714 -32.924  1.00  0.00     0.006 C 
BRANCH   6   7
ATOM      7  C   UNL     1     -24.062  19.112 -32.600  1.00  0.00     0.053 C 
BRANCH   7   8
ATOM      8  C   UNL     1     -24.134  19.420 -31.137  1.00  0.00     0.041 C 
ATOM      9  O   UNL     1     -24.341  20.600 -30.747  1.00  0.00    -0.550 OA
ATOM     10  O   UNL     1     -23.937  18.412 -30.202  1.00  0.00    -0.550 OA
ENDBRANCH   7   8
ENDBRANCH   6   7
ENDBRANCH   5   6
ENDBRANCH   4   5
ENDBRANCH   3   4
ENDBRANCH   2   3
ENDBRANCH   1   2
BRANCH   1  11
ATOM     11  C   UNL     1     -26.224  20.543 -38.547  1.00  0.00     0.000 C 
BRANCH  11  12
ATOM     12  C   UNL     1     -27.305  21.378 -39.252  1.00  0.00    -0.000 C 
BRANCH  12  13
ATOM     13  C   UNL     1     -28.213  22.129 -38.265  1.00  0.00    -0.000 C 
BRANCH  13  14
ATOM     14  C   UNL     1     -27.519  22.306 -36.908  1.00  0.00    -0.000 C 
BRANCH  14  15
ATOM     15  C   UNL     1     -28.376  21.727 -35.773  1.00  0.00    -0.000 C 
BRANCH  15  16
ATOM     16  C   UNL     1     -29.575  20.908 -36.284  1.00  0.00    -0.000 C 
BRANCH  16  17
ATOM     17  C   UNL     1     -29.487  19.396 -36.013  1.00  0.00    -0.003 C 
ATOM     18  C   UNL     1     -30.039  18.550 -37.160  1.00  0.00     0.004 C 
ENDBRANCH  16  17
ENDBRANCH  15  16
ENDBRANCH  14  15
ENDBRANCH  13  14
ENDBRANCH  12  13
ENDBRANCH  11  12
ENDBRANCH   1  11
TORSDOF 14
ENDMDL
MODEL 4
REMARK VINA RESULT:    -3.908      1.651      2.373
REMARK INTER + INTRA:          -8.700
REMARK INTER:                  -6.928
REMARK INTRA:                  -1.773
REMARK UNBOUND:                -1.595
REMARK SMILES CCCCCCCCCCCCCCCC(=O)[O-]
REMARK SMILES IDX 9 1 10 2 11 3 12 4 13 5 14 6 15 7 16 8 17 9 18 10 8 11 7 12
REMARK SMILES IDX 6 13 5 14 4 15 3 16 2 17 1 18
REMARK H PARENT
REMARK Flexibility Score: inf
ROOT
ATOM      1  C   UNL     1     -19.755  31.258 -41.290  1.00  0.00     0.000 C 
ENDROOT
BRANCH   1   2
ATOM      2  C   UNL     1     -20.108  30.424 -42.535  1.00  0.00     0.000 C 
BRANCH   2   3
ATOM      3  C   UNL     1     -21.582  29.989 -42.638  1.00  0.00     0.000 C 
BRANCH   3   4
ATOM      4  C   UNL     1     -22.566  31.113 -42.280  1.00  0.00     0.000 C 
BRANCH   4   5
ATOM      5  C   UNL     1     -23.764  30.563 -41.493  1.00  0.00     0.000 C 
BRANCH   5   6
ATOM      6  C   UNL     1     -23.770  29.026 -41.410  1.00  0.00     0.006 C 
BRANCH   6   7
ATOM      7  C   UNL     1     -25.047  28.366 -41.957  1.00  0.00     0.053 C 
BRANCH   7   8
ATOM      8  C   UNL     1     -26.281  28.888 -41.290  1.00  0.00     0.041 C 
ATOM      9  O   UNL     1     -26.546  28.565 -40.102  1.00  0.00    -0.550 OA
ATOM     10  O   UNL     1     -27.159  29.704 -41.992  1.00  0.00    -0.550 OA
ENDBRANCH   7   8
ENDBRANCH   6   7
ENDBRANCH   5   6
ENDBRANCH   4   5
ENDBRANCH   3   4
ENDBRANCH   2   3
ENDBRANCH   1   2
BRANCH   1  11
ATOM     11  C   UNL     1     -19.742  30.427 -39.995  1.00  0.00     0.000 C 
BRANCH  11  12
ATOM     12  C   UNL     1     -20.858  30.837 -39.021  1.00  0.00    -0.000 C 
BRANCH  12  13
ATOM     13  C   UNL     1     -20.373  31.814 -37.939  1.00  0.00    -0.000 C 
BRANCH  13  14
ATOM     14  C   UNL     1     -20.288  33.243 -38.489  1.00  0.00    -0.000 C 
BRANCH  14  15
ATOM     15  C   UNL     1     -21.662  33.726 -38.980  1.00  0.00    -0.000 C 
BRANCH  15  16
ATOM     16  C   UNL     1     -22.536  34.296 -37.848  1.00  0.00    -0.000 C 
BRANCH  16  17
ATOM     17  C   UNL     1     -24.005  33.839 -37.872  1.00  0.00    -0.003 C 
ATOM     18  C   UNL     1     -24.166  32.363 -38.236  1.00  0.00     0.004 C 
ENDBRANCH  16  17
ENDBRANCH  15  16
ENDBRANCH  14  15
ENDBRANCH  13  14
ENDBRANCH  12  13
ENDBRANCH  11  12
ENDBRANCH   1  11
TORSDOF 14
ENDMDL
MODEL 5
REMARK VINA RESULT:    -3.905      2.055      3.217
REMARK INTER + INTRA:          -8.696
REMARK INTER:                  -6.907
REMARK INTRA:                  -1.789
REMARK UNBOUND:                -1.595
REMARK SMILES CCCCCCCCCCCCCCCC(=O)[O-]
REMARK SMILES IDX 9 1 10 2 11 3 12 4 13 5 14 6 15 7 16 8 17 9 18 10 8 11 7 12
REMARK SMILES IDX 6 13 5 14 4 15 3 16 2 17 1 18
REMARK H PARENT
REMARK Flexibility Score: inf
ROOT
ATOM      1  C   UNL     1     -20.378  31.114 -40.633  1.00  0.00     0.000 C 
ENDROOT
BRANCH   1   2
ATOM      2  C   UNL     1     -20.850  30.318 -41.865  1.00  0.00     0.000 C 
BRANCH   2   3
ATOM      3  C   UNL     1     -22.376  30.190 -42.018  1.00  0.00     0.000 C 
BRANCH   3   4
ATOM      4  C   UNL     1     -22.953  28.972 -41.281  1.00  0.00     0.000 C 
BRANCH   4   5
ATOM      5  C   UNL     1     -24.254  28.494 -41.943  1.00  0.00     0.000 C 
BRANCH   5   6
ATOM      6  C   UNL     1     -25.469  29.360 -41.566  1.00  0.00     0.006 C 
BRANCH   6   7
ATOM      7  C   UNL     1     -26.493  28.658 -40.659  1.00  0.00     0.053 C 
BRANCH   7   8
ATOM      8  C   UNL     1     -27.782  28.387 -41.368  1.00  0.00     0.041 C 
ATOM      9  O   UNL     1     -28.831  28.999 -41.033  1.00  0.00    -0.550 OA
ATOM     10  O   UNL     1     -27.835  27.432 -42.376  1.00  0.00    -0.550 OA
ENDBRANCH   7   8
ENDBRANCH   6   7
ENDBRANCH   5   6
ENDBRANCH   4   5
ENDBRANCH   3   4
ENDBRANCH   2   3
ENDBRANCH   1   2
BRANCH   1  11
ATOM     11  C   UNL     1     -21.132  32.443 -40.452  1.00  0.00     0.000 C 
BRANCH  11  12
ATOM     12  C   UNL     1     -20.343  33.457 -39.608  1.00  0.00    -0.000 C 
BRANCH  12  13
ATOM     13  C   UNL     1     -20.840  33.535 -38.156  1.00  0.00    -0.000 C 
BRANCH  13  14
ATOM     14  C   UNL     1     -22.181  34.275 -38.075  1.00  0.00    -0.000 C 
BRANCH  14  15
ATOM     15  C   UNL     1     -23.216  33.455 -37.291  1.00  0.00    -0.000 C 
BRANCH  15  16
ATOM     16  C   UNL     1     -24.394  32.985 -38.163  1.00  0.00    -0.000 C 
BRANCH  16  17
ATOM     17  C   UNL     1     -24.238  31.573 -38.755  1.00  0.00    -0.003 C 
ATOM     18  C   UNL     1     -23.311  30.679 -37.932  1.00  0.00     0.004 C 
ENDBRANCH  16  17
ENDBRANCH  15  16
ENDBRANCH  14  15
ENDBRANCH  13  14
ENDBRANCH  12  13
ENDBRANCH  11  12
ENDBRANCH   1  11
TORSDOF 14
ENDMDL
MODEL 6
REMARK VINA RESULT:    -3.864      2.609      4.812
REMARK INTER + INTRA:          -8.621
REMARK INTER:                  -6.680
REMARK INTRA:                  -1.941
REMARK UNBOUND:                -1.595
REMARK SMILES CCCCCCCCCCCCCCCC(=O)[O-]
REMARK SMILES IDX 9 1 10 2 11 3 12 4 13 5 14 6 15 7 16 8 17 9 18 10 8 11 7 12
REMARK SMILES IDX 6 13 5 14 4 15 3 16 2 17 1 18
REMARK H PARENT
REMARK Flexibility Score: inf
ROOT
ATOM      1  C   UNL     1     -19.894  33.419 -39.581  1.00  0.00     0.000 C 
ENDROOT
BRANCH   1   2
ATOM      2  C   UNL     1     -21.402  33.558 -39.302  1.00  0.00     0.000 C 
BRANCH   2   3
ATOM      3  C   UNL     1     -21.766  34.420 -38.078  1.00  0.00     0.000 C 
BRANCH   3   4
ATOM      4  C   UNL     1     -22.830  33.769 -37.181  1.00  0.00     0.000 C 
BRANCH   4   5
ATOM      5  C   UNL     1     -23.422  32.520 -37.849  1.00  0.00     0.000 C 
BRANCH   5   6
ATOM      6  C   UNL     1     -24.911  32.680 -38.202  1.00  0.00     0.006 C 
BRANCH   6   7
ATOM      7  C   UNL     1     -25.601  33.873 -37.519  1.00  0.00     0.053 C 
BRANCH   7   8
ATOM      8  C   UNL     1     -27.069  33.917 -37.810  1.00  0.00     0.041 C 
ATOM      9  O   UNL     1     -27.841  34.590 -37.077  1.00  0.00    -0.550 OA
ATOM     10  O   UNL     1     -27.590  33.188 -38.871  1.00  0.00    -0.550 OA
ENDBRANCH   7   8
ENDBRANCH   6   7
ENDBRANCH   5   6
ENDBRANCH   4   5
ENDBRANCH   3   4
ENDBRANCH   2   3
ENDBRANCH   1   2
BRANCH   1  11
ATOM     11  C   UNL     1     -19.305  32.098 -39.056  1.00  0.00     0.000 C 
BRANCH  11  12
ATOM     12  C   UNL     1     -19.057  31.077 -40.178  1.00  0.00    -0.000 C 
BRANCH  12  13
ATOM     13  C   UNL     1     -18.582  31.733 -41.484  1.00  0.00    -0.000 C 
BRANCH  13  14
ATOM     14  C   UNL     1     -19.445  31.283 -42.669  1.00  0.00    -0.000 C 
BRANCH  14  15
ATOM     15  C   UNL     1     -20.561  30.334 -42.208  1.00  0.00    -0.000 C 
BRANCH  15  16
ATOM     16  C   UNL     1     -21.968  30.841 -42.575  1.00  0.00    -0.000 C 
BRANCH  16  17
ATOM     17  C   UNL     1     -22.953  30.924 -41.396  1.00  0.00    -0.003 C 
ATOM     18  C   UNL     1     -22.657  29.906 -40.295  1.00  0.00     0.004 C 
ENDBRANCH  16  17
ENDBRANCH  15  16
ENDBRANCH  14  15
ENDBRANCH  13  14
ENDBRANCH  12  13
ENDBRANCH  11  12
ENDBRANCH   1  11
TORSDOF 14
ENDMDL
MODEL 7
REMARK VINA RESULT:    -3.851      2.756      6.639
REMARK INTER + INTRA:          -8.598
REMARK INTER:                  -6.737
REMARK INTRA:                  -1.861
REMARK UNBOUND:                -1.595
REMARK SMILES CCCCCCCCCCCCCCCC(=O)[O-]
REMARK SMILES IDX 9 1 10 2 11 3 12 4 13 5 14 6 15 7 16 8 17 9 18 10 8 11 7 12
REMARK SMILES IDX 6 13 5 14 4 15 3 16 2 17 1 18
REMARK H PARENT
REMARK Flexibility Score: inf
ROOT
ATOM      1  C   UNL     1     -23.104  32.254 -37.896  1.00  0.00     0.000 C 
ENDROOT
BRANCH   1   2
ATOM      2  C   UNL     1     -23.115  33.754 -38.246  1.00  0.00     0.000 C 
BRANCH   2   3
ATOM      3  C   UNL     1     -21.777  34.487 -38.037  1.00  0.00     0.000 C 
BRANCH   3   4
ATOM      4  C   UNL     1     -20.558  33.566 -38.195  1.00  0.00     0.000 C 
BRANCH   4   5
ATOM      5  C   UNL     1     -20.108  33.496 -39.661  1.00  0.00     0.000 C 
BRANCH   5   6
ATOM      6  C   UNL     1     -19.291  32.230 -39.975  1.00  0.00     0.006 C 
BRANCH   6   7
ATOM      7  C   UNL     1     -17.959  32.497 -40.696  1.00  0.00     0.053 C 
BRANCH   7   8
ATOM      8  C   UNL     1     -17.958  31.963 -42.094  1.00  0.00     0.041 C 
ATOM      9  O   UNL     1     -16.875  31.635 -42.648  1.00  0.00    -0.550 OA
ATOM     10  O   UNL     1     -19.150  31.858 -42.801  1.00  0.00    -0.550 OA
ENDBRANCH   7   8
ENDBRANCH   6   7
ENDBRANCH   5   6
ENDBRANCH   4   5
ENDBRANCH   3   4
ENDBRANCH   2   3
ENDBRANCH   1   2
BRANCH   1  11
ATOM     11  C   UNL     1     -23.783  31.382 -38.966  1.00  0.00     0.000 C 
BRANCH  11  12
ATOM     12  C   UNL     1     -23.550  31.911 -40.391  1.00  0.00    -0.000 C 
BRANCH  12  13
ATOM     13  C   UNL     1     -22.486  31.108 -41.155  1.00  0.00    -0.000 C 
BRANCH  13  14
ATOM     14  C   UNL     1     -22.728  29.600 -41.012  1.00  0.00    -0.000 C 
BRANCH  14  15
ATOM     15  C   UNL     1     -23.482  29.046 -42.230  1.00  0.00    -0.000 C 
BRANCH  15  16
ATOM     16  C   UNL     1     -24.736  28.241 -41.844  1.00  0.00    -0.000 C 
BRANCH  16  17
ATOM     17  C   UNL     1     -25.729  28.988 -40.935  1.00  0.00    -0.003 C 
ATOM     18  C   UNL     1     -26.502  30.084 -41.666  1.00  0.00     0.004 C 
ENDBRANCH  16  17
ENDBRANCH  15  16
ENDBRANCH  14  15
ENDBRANCH  13  14
ENDBRANCH  12  13
ENDBRANCH  11  12
ENDBRANCH   1  11
TORSDOF 14
ENDMDL
MODEL 8
REMARK VINA RESULT:    -3.818      2.114      5.513
REMARK INTER + INTRA:          -8.538
REMARK INTER:                  -6.467
REMARK INTRA:                  -2.071
REMARK UNBOUND:                -1.595
REMARK SMILES CCCCCCCCCCCCCCCC(=O)[O-]
REMARK SMILES IDX 9 1 10 2 11 3 12 4 13 5 14 6 15 7 16 8 17 9 18 10 8 11 7 12
REMARK SMILES IDX 6 13 5 14 4 15 3 16 2 17 1 18
REMARK H PARENT
REMARK Flexibility Score: inf
ROOT
ATOM      1  C   UNL     1     -21.397  29.267 -38.882  1.00  0.00     0.000 C 
ENDROOT
BRANCH   1   2
ATOM      2  C   UNL     1     -19.971  29.848 -38.860  1.00  0.00     0.000 C 
BRANCH   2   3
ATOM      3  C   UNL     1     -19.855  31.285 -38.319  1.00  0.00     0.000 C 
BRANCH   3   4
ATOM      4  C   UNL     1     -19.172  32.244 -39.306  1.00  0.00     0.000 C 
BRANCH   4   5
ATOM      5  C   UNL     1     -20.101  33.412 -39.668  1.00  0.00     0.000 C 
BRANCH   5   6
ATOM      6  C   UNL     1     -21.012  33.834 -38.501  1.00  0.00     0.006 C 
BRANCH   6   7
ATOM      7  C   UNL     1     -22.517  33.741 -38.804  1.00  0.00     0.053 C 
BRANCH   7   8
ATOM      8  C   UNL     1     -23.275  33.081 -37.695  1.00  0.00     0.041 C 
ATOM      9  O   UNL     1     -23.626  31.876 -37.796  1.00  0.00    -0.550 OA
ATOM     10  O   UNL     1     -23.624  33.806 -36.563  1.00  0.00    -0.550 OA
ENDBRANCH   7   8
ENDBRANCH   6   7
ENDBRANCH   5   6
ENDBRANCH   4   5
ENDBRANCH   3   4
ENDBRANCH   2   3
ENDBRANCH   1   2
BRANCH   1  11
ATOM     11  C   UNL     1     -21.711  28.496 -40.175  1.00  0.00     0.000 C 
BRANCH  11  12
ATOM     12  C   UNL     1     -22.685  29.254 -41.092  1.00  0.00    -0.000 C 
BRANCH  12  13
ATOM     13  C   UNL     1     -22.061  29.619 -42.448  1.00  0.00    -0.000 C 
BRANCH  13  14
ATOM     14  C   UNL     1     -21.163  30.856 -42.323  1.00  0.00    -0.000 C 
BRANCH  14  15
ATOM     15  C   UNL     1     -19.689  30.491 -42.553  1.00  0.00    -0.000 C 
BRANCH  15  16
ATOM     16  C   UNL     1     -18.817  31.710 -42.906  1.00  0.00    -0.000 C 
BRANCH  16  17
ATOM     17  C   UNL     1     -17.317  31.541 -42.605  1.00  0.00    -0.003 C 
ATOM     18  C   UNL     1     -17.022  30.362 -41.679  1.00  0.00     0.004 C 
ENDBRANCH  16  17
ENDBRANCH  15  16
ENDBRANCH  14  15
ENDBRANCH  13  14
ENDBRANCH  12  13
ENDBRANCH  11  12
ENDBRANCH   1  11
TORSDOF 14
ENDMDL
MODEL 9
REMARK VINA RESULT:    -3.790      1.557      4.057
REMARK INTER + INTRA:          -8.488
REMARK INTER:                  -6.102
REMARK INTRA:                  -2.386
REMARK UNBOUND:                -1.595
REMARK SMILES CCCCCCCCCCCCCCCC(=O)[O-]
REMARK SMILES IDX 9 1 10 2 11 3 12 4 13 5 14 6 15 7 16 8 17 9 18 10 8 11 7 12
REMARK SMILES IDX 6 13 5 14 4 15 3 16 2 17 1 18
REMARK H PARENT
REMARK Flexibility Score: inf
ROOT
ATOM      1  C   UNL     1     -21.278  33.778 -39.267  1.00  0.00     0.000 C 
ENDROOT
BRANCH   1   2
ATOM      2  C   UNL     1     -22.365  33.782 -38.176  1.00  0.00     0.000 C 
BRANCH   2   3
ATOM      3  C   UNL     1     -23.660  33.030 -38.536  1.00  0.00     0.000 C 
BRANCH   3   4
ATOM      4  C   UNL     1     -23.642  31.559 -38.095  1.00  0.00     0.000 C 
BRANCH   4   5
ATOM      5  C   UNL     1     -24.292  30.659 -39.156  1.00  0.00     0.000 C 
BRANCH   5   6
ATOM      6  C   UNL     1     -24.383  31.334 -40.537  1.00  0.00     0.006 C 
BRANCH   6   7
ATOM      7  C   UNL     1     -25.362  30.658 -41.511  1.00  0.00     0.053 C 
BRANCH   7   8
ATOM      8  C   UNL     1     -25.068  29.201 -41.686  1.00  0.00     0.041 C 
ATOM      9  O   UNL     1     -24.001  28.833 -42.245  1.00  0.00    -0.550 OA
ATOM     10  O   UNL     1     -25.986  28.249 -41.263  1.00  0.00    -0.550 OA
ENDBRANCH   7   8
ENDBRANCH   6   7
ENDBRANCH   5   6
ENDBRANCH   4   5
ENDBRANCH   3   4
ENDBRANCH   2   3
ENDBRANCH   1   2
BRANCH   1  11
ATOM     11  C   UNL     1     -19.904  33.325 -38.744  1.00  0.00     0.000 C 
BRANCH  11  12
ATOM     12  C   UNL     1     -19.958  31.945 -38.069  1.00  0.00    -0.000 C 
BRANCH  12  13
ATOM     13  C   UNL     1     -19.515  30.809 -39.004  1.00  0.00    -0.000 C 
BRANCH  13  14
ATOM     14  C   UNL     1     -20.617  29.750 -39.141  1.00  0.00    -0.000 C 
BRANCH  14  15
ATOM     15  C   UNL     1     -21.009  29.552 -40.613  1.00  0.00    -0.000 C 
BRANCH  15  16
ATOM     16  C   UNL     1     -20.835  30.828 -41.456  1.00  0.00    -0.000 C 
BRANCH  16  17
ATOM     17  C   UNL     1     -19.811  30.712 -42.599  1.00  0.00    -0.003 C 
ATOM     18  C   UNL     1     -18.759  31.820 -42.574  1.00  0.00     0.004 C 
ENDBRANCH  16  17
ENDBRANCH  15  16
ENDBRANCH  14  15
ENDBRANCH  13  14
ENDBRANCH  12  13
ENDBRANCH  11  12
ENDBRANCH   1  11
TORSDOF 14
ENDMDL
