MODEL 1
REMARK VINA RESULT:    -3.710      0.000      0.000
REMARK INTER + INTRA:          -6.466
REMARK INTER:                  -5.661
REMARK INTRA:                  -0.805
REMARK UNBOUND:                -0.805
REMARK SMILES O=C([O-])CCCCCCCCC(=O)[O-]
REMARK SMILES IDX 7 1 6 2 5 3 4 4 2 5 1 6 3 7 8 8 9 9 10 10 11 11 12 12 13 13
REMARK SMILES IDX 14 14
REMARK H PARENT
REMARK Flexibility Score: inf
ROOT
ATOM      1  C   UNL     1      -9.267  16.180 -12.767  1.00  0.00     0.000 C 
ENDROOT
BRANCH   1   2
ATOM      2  C   UNL     1      -8.892  17.306 -13.737  1.00  0.00     0.000 C 
BRANCH   2   3
ATOM      3  C   UNL     1      -7.378  17.345 -13.978  1.00  0.00     0.006 C 
BRANCH   3   4
ATOM      4  C   UNL     1      -6.969  18.632 -14.701  1.00  0.00     0.053 C 
BRANCH   4   5
ATOM      5  C   UNL     1      -7.480  19.831 -13.965  1.00  0.00     0.041 C 
ATOM      6  O   UNL     1      -7.107  20.056 -12.785  1.00  0.00    -0.550 OA
ATOM      7  O   UNL     1      -8.330  20.726 -14.602  1.00  0.00    -0.550 OA
ENDBRANCH   4   5
ENDBRANCH   3   4
ENDBRANCH   2   3
ENDBRANCH   1   2
BRANCH   1   8
ATOM      8  C   UNL     1      -8.020  15.407 -12.312  1.00  0.00     0.000 C 
BRANCH   8   9
ATOM      9  C   UNL     1      -8.036  13.937 -12.757  1.00  0.00     0.000 C 
BRANCH   9  10
ATOM     10  C   UNL     1      -7.090  13.667 -13.940  1.00  0.00     0.006 C 
BRANCH  10  11
ATOM     11  C   UNL     1      -7.787  12.903 -15.075  1.00  0.00     0.053 C 
BRANCH  11  12
ATOM     12  C   UNL     1      -9.068  13.562 -15.484  1.00  0.00     0.041 C 
ATOM     13  O   UNL     1      -9.054  14.705 -16.011  1.00  0.00    -0.550 OA
ATOM     14  O   UNL     1     -10.280  12.924 -15.258  1.00  0.00    -0.550 OA
ENDBRANCH  11  12
ENDBRANCH  10  11
ENDBRANCH   9  10
ENDBRANCH   8   9
ENDBRANCH   1   8
TORSDOF 9
ENDMDL
MODEL 2
REMARK VINA RESULT:    -3.670      2.210      5.437
REMARK INTER + INTRA:          -6.405
REMARK INTER:                  -5.781
REMARK INTRA:                  -0.624
REMARK UNBOUND:                -0.805
REMARK SMILES O=C([O-])CCCCCCCCC(=O)[O-]
REMARK SMILES IDX 7 1 6 2 5 3 4 4 2 5 1 6 3 7 8 8 9 9 10 10 11 11 12 12 13 13
REMARK SMILES IDX 14 14
REMARK H PARENT
REMARK Flexibility Score: inf
ROOT
ATOM      1  C   UNL     1      -8.034  15.435 -16.102  1.00  0.00     0.000 C 
ENDROOT
BRANCH   1   2
ATOM      2  C   UNL     1      -7.979  13.919 -15.873  1.00  0.00     0.000 C 
BRANCH   2   3
ATOM      3  C   UNL     1      -8.720  13.528 -14.589  1.00  0.00     0.006 C 
BRANCH   3   4
ATOM      4  C   UNL     1      -8.819  14.717 -13.627  1.00  0.00     0.053 C 
BRANCH   4   5
ATOM      5  C   UNL     1      -7.834  14.570 -12.511  1.00  0.00     0.041 C 
ATOM      6  O   UNL     1      -7.092  13.556 -12.450  1.00  0.00    -0.550 OA
ATOM      7  O   UNL     1      -7.702  15.579 -11.564  1.00  0.00    -0.550 OA
ENDBRANCH   4   5
ENDBRANCH   3   4
ENDBRANCH   2   3
ENDBRANCH   1   2
BRANCH   1   8
ATOM      8  C   UNL     1      -6.640  16.063 -15.961  1.00  0.00     0.000 C 
BRANCH   8   9
ATOM      9  C   UNL     1      -6.690  17.589 -15.787  1.00  0.00     0.000 C 
BRANCH   9  10
ATOM     10  C   UNL     1      -8.125  18.119 -15.624  1.00  0.00     0.006 C 
BRANCH  10  11
ATOM     11  C   UNL     1      -8.161  19.487 -14.929  1.00  0.00     0.053 C 
BRANCH  11  12
ATOM     12  C   UNL     1      -8.118  19.355 -13.438  1.00  0.00     0.041 C 
ATOM     13  O   UNL     1      -8.723  18.411 -12.867  1.00  0.00    -0.550 OA
ATOM     14  O   UNL     1      -7.432  20.293 -12.677  1.00  0.00    -0.550 OA
ENDBRANCH  11  12
ENDBRANCH  10  11
ENDBRANCH   9  10
ENDBRANCH   8   9
ENDBRANCH   1   8
TORSDOF 9
ENDMDL
MODEL 3
REMARK VINA RESULT:    -3.626      1.984      3.107
REMARK INTER + INTRA:          -6.339
REMARK INTER:                  -5.719
REMARK INTRA:                  -0.620
REMARK UNBOUND:                -0.805
REMARK SMILES O=C([O-])CCCCCCCCC(=O)[O-]
REMARK SMILES IDX 7 1 6 2 5 3 4 4 2 5 1 6 3 7 8 8 9 9 10 10 11 11 12 12 13 13
REMARK SMILES IDX 14 14
REMARK H PARENT
REMARK Flexibility Score: inf
ROOT
ATOM      1  C   UNL     1      -6.711  17.378 -15.599  1.00  0.00     0.000 C 
ENDROOT
BRANCH   1   2
ATOM      2  C   UNL     1      -6.791  18.844 -16.041  1.00  0.00     0.000 C 
BRANCH   2   3
ATOM      3  C   UNL     1      -8.148  19.457 -15.675  1.00  0.00     0.006 C 
BRANCH   3   4
ATOM      4  C   UNL     1      -7.983  20.587 -14.654  1.00  0.00     0.053 C 
BRANCH   4   5
ATOM      5  C   UNL     1      -7.766  20.028 -13.284  1.00  0.00     0.041 C 
ATOM      6  O   UNL     1      -8.464  19.064 -12.876  1.00  0.00    -0.550 OA
ATOM      7  O   UNL     1      -6.759  20.540 -12.476  1.00  0.00    -0.550 OA
ENDBRANCH   4   5
ENDBRANCH   3   4
ENDBRANCH   2   3
ENDBRANCH   1   2
BRANCH   1   8
ATOM      8  C   UNL     1      -8.050  16.662 -15.823  1.00  0.00     0.000 C 
BRANCH   8   9
ATOM      9  C   UNL     1      -7.899  15.135 -15.922  1.00  0.00     0.000 C 
BRANCH   9  10
ATOM     10  C   UNL     1      -8.752  14.388 -14.883  1.00  0.00     0.006 C 
BRANCH  10  11
ATOM     11  C   UNL     1      -8.061  14.314 -13.514  1.00  0.00     0.053 C 
BRANCH  11  12
ATOM     12  C   UNL     1      -8.489  15.431 -12.614  1.00  0.00     0.041 C 
ATOM     13  O   UNL     1      -7.731  15.829 -11.691  1.00  0.00    -0.550 OA
ATOM     14  O   UNL     1      -9.739  16.014 -12.777  1.00  0.00    -0.550 OA
ENDBRANCH  11  12
ENDBRANCH  10  11
ENDBRANCH   9  10
ENDBRANCH   8   9
ENDBRANCH   1   8
TORSDOF 9
ENDMDL
MODEL 4
REMARK VINA RESULT:    -3.608      2.489      5.393
REMARK INTER + INTRA:          -6.311
REMARK INTER:                  -5.725
REMARK INTRA:                  -0.586
REMARK UNBOUND:                -0.805
REMARK SMILES O=C([O-])CCCCCCCCC(=O)[O-]
REMARK SMILES IDX 7 1 6 2 5 3 4 4 2 5 1 6 3 7 8 8 9 9 10 10 11 11 12 12 13 13
REMARK SMILES IDX 14 14
REMARK H PARENT
REMARK Flexibility Score: inf
ROOT
ATOM      1  C   UNL     1      -8.422  16.373 -16.019  1.00  0.00     0.000 C 
ENDROOT
BRANCH   1   2
ATOM      2  C   UNL     1      -7.869  14.952 -15.850  1.00  0.00     0.000 C 
BRANCH   2   3
ATOM      3  C   UNL     1      -8.718  14.144 -14.861  1.00  0.00     0.006 C 
BRANCH   3   4
ATOM      4  C   UNL     1      -8.065  12.794 -14.552  1.00  0.00     0.053 C 
BRANCH   4   5
ATOM      5  C   UNL     1      -7.007  12.951 -13.505  1.00  0.00     0.041 C 
ATOM      6  O   UNL     1      -5.875  12.425 -13.665  1.00  0.00    -0.550 OA
ATOM      7  O   UNL     1      -7.256  13.722 -12.376  1.00  0.00    -0.550 OA
ENDBRANCH   4   5
ENDBRANCH   3   4
ENDBRANCH   2   3
ENDBRANCH   1   2
BRANCH   1   8
ATOM      8  C   UNL     1      -7.286  17.405 -16.051  1.00  0.00     0.000 C 
BRANCH   8   9
ATOM      9  C   UNL     1      -7.680  18.743 -15.406  1.00  0.00     0.000 C 
BRANCH   9  10
ATOM     10  C   UNL     1      -7.512  18.735 -13.877  1.00  0.00     0.006 C 
BRANCH  10  11
ATOM     11  C   UNL     1      -8.859  18.634 -13.147  1.00  0.00     0.053 C 
BRANCH  11  12
ATOM     12  C   UNL     1      -9.125  17.242 -12.663  1.00  0.00     0.041 C 
ATOM     13  O   UNL     1      -8.254  16.624 -11.996  1.00  0.00    -0.550 OA
ATOM     14  O   UNL     1     -10.325  16.616 -12.973  1.00  0.00    -0.550 OA
ENDBRANCH  11  12
ENDBRANCH  10  11
ENDBRANCH   9  10
ENDBRANCH   8   9
ENDBRANCH   1   8
TORSDOF 9
ENDMDL
MODEL 5
REMARK VINA RESULT:    -3.590      0.594      5.553
REMARK INTER + INTRA:          -6.284
REMARK INTER:                  -5.665
REMARK INTRA:                  -0.619
REMARK UNBOUND:                -0.805
REMARK SMILES O=C([O-])CCCCCCCCC(=O)[O-]
REMARK SMILES IDX 7 1 6 2 5 3 4 4 2 5 1 6 3 7 8 8 9 9 10 10 11 11 12 12 13 13
REMARK SMILES IDX 14 14
REMARK H PARENT
REMARK Flexibility Score: inf
ROOT
ATOM      1  C   UNL     1      -8.166  14.327 -12.247  1.00  0.00     0.000 C 
ENDROOT
BRANCH   1   2
ATOM      2  C   UNL     1      -7.152  13.691 -13.205  1.00  0.00     0.000 C 
BRANCH   2   3
ATOM      3  C   UNL     1      -7.751  12.468 -13.910  1.00  0.00     0.006 C 
BRANCH   3   4
ATOM      4  C   UNL     1      -7.926  12.727 -15.409  1.00  0.00     0.053 C 
BRANCH   4   5
ATOM      5  C   UNL     1      -9.210  13.448 -15.670  1.00  0.00     0.041 C 
ATOM      6  O   UNL     1      -9.199  14.658 -16.016  1.00  0.00    -0.550 OA
ATOM      7  O   UNL     1     -10.419  12.769 -15.579  1.00  0.00    -0.550 OA
ENDBRANCH   4   5
ENDBRANCH   3   4
ENDBRANCH   2   3
ENDBRANCH   1   2
BRANCH   1   8
ATOM      8  C   UNL     1      -8.011  15.855 -12.216  1.00  0.00     0.000 C 
BRANCH   8   9
ATOM      9  C   UNL     1      -9.317  16.592 -12.554  1.00  0.00     0.000 C 
BRANCH   9  10
ATOM     10  C   UNL     1      -9.242  17.343 -13.895  1.00  0.00     0.006 C 
BRANCH  10  11
ATOM     11  C   UNL     1      -7.876  18.011 -14.108  1.00  0.00     0.053 C 
BRANCH  11  12
ATOM     12  C   UNL     1      -7.934  19.486 -13.859  1.00  0.00     0.041 C 
ATOM     13  O   UNL     1      -8.385  20.263 -14.741  1.00  0.00    -0.550 OA
ATOM     14  O   UNL     1      -7.462  20.007 -12.661  1.00  0.00    -0.550 OA
ENDBRANCH  11  12
ENDBRANCH  10  11
ENDBRANCH   9  10
ENDBRANCH   8   9
ENDBRANCH   1   8
TORSDOF 9
ENDMDL
MODEL 6
REMARK VINA RESULT:    -3.520      2.188      5.230
REMARK INTER + INTRA:          -6.176
REMARK INTER:                  -5.281
REMARK INTRA:                  -0.895
REMARK UNBOUND:                -0.805
REMARK SMILES O=C([O-])CCCCCCCCC(=O)[O-]
REMARK SMILES IDX 7 1 6 2 5 3 4 4 2 5 1 6 3 7 8 8 9 9 10 10 11 11 12 12 13 13
REMARK SMILES IDX 14 14
REMARK H PARENT
REMARK Flexibility Score: inf
ROOT
ATOM      1  C   UNL     1      -5.926  17.065 -14.660  1.00  0.00     0.000 C 
ENDROOT
BRANCH   1   2
ATOM      2  C   UNL     1      -6.383  16.239 -15.868  1.00  0.00     0.000 C 
BRANCH   2   3
ATOM      3  C   UNL     1      -6.908  14.866 -15.431  1.00  0.00     0.006 C 
BRANCH   3   4
ATOM      4  C   UNL     1      -8.434  14.798 -15.550  1.00  0.00     0.053 C 
BRANCH   4   5
ATOM      5  C   UNL     1      -8.963  13.604 -14.822  1.00  0.00     0.041 C 
ATOM      6  O   UNL     1      -8.349  13.147 -13.823  1.00  0.00    -0.550 OA
ATOM      7  O   UNL     1     -10.164  13.025 -15.216  1.00  0.00    -0.550 OA
ENDBRANCH   4   5
ENDBRANCH   3   4
ENDBRANCH   2   3
ENDBRANCH   1   2
BRANCH   1   8
ATOM      8  C   UNL     1      -5.918  18.565 -14.990  1.00  0.00     0.000 C 
BRANCH   8   9
ATOM      9  C   UNL     1      -6.918  19.365 -14.141  1.00  0.00     0.000 C 
BRANCH   9  10
ATOM     10  C   UNL     1      -8.342  18.785 -14.199  1.00  0.00     0.006 C 
BRANCH  10  11
ATOM     11  C   UNL     1      -8.890  18.455 -12.804  1.00  0.00     0.053 C 
BRANCH  11  12
ATOM     12  C   UNL     1      -9.123  16.986 -12.630  1.00  0.00     0.041 C 
ATOM     13  O   UNL     1      -8.231  16.257 -12.123  1.00  0.00    -0.550 OA
ATOM     14  O   UNL     1     -10.316  16.418 -13.056  1.00  0.00    -0.550 OA
ENDBRANCH  11  12
ENDBRANCH  10  11
ENDBRANCH   9  10
ENDBRANCH   8   9
ENDBRANCH   1   8
TORSDOF 9
ENDMDL
MODEL 7
REMARK VINA RESULT:    -3.502      2.039      5.478
REMARK INTER + INTRA:          -6.150
REMARK INTER:                  -5.231
REMARK INTRA:                  -0.919
REMARK UNBOUND:                -0.805
REMARK SMILES O=C([O-])CCCCCCCCC(=O)[O-]
REMARK SMILES IDX 7 1 6 2 5 3 4 4 2 5 1 6 3 7 8 8 9 9 10 10 11 11 12 12 13 13
REMARK SMILES IDX 14 14
REMARK H PARENT
REMARK Flexibility Score: inf
ROOT
ATOM      1  C   UNL     1      -5.878  15.894 -15.035  1.00  0.00     0.000 C 
ENDROOT
BRANCH   1   2
ATOM      2  C   UNL     1      -6.837  14.745 -15.367  1.00  0.00     0.000 C 
BRANCH   2   3
ATOM      3  C   UNL     1      -7.364  14.080 -14.089  1.00  0.00     0.006 C 
BRANCH   3   4
ATOM      4  C   UNL     1      -8.823  14.466 -13.830  1.00  0.00     0.053 C 
BRANCH   4   5
ATOM      5  C   UNL     1      -8.899  15.658 -12.929  1.00  0.00     0.041 C 
ATOM      6  O   UNL     1      -9.933  16.374 -12.912  1.00  0.00    -0.550 OA
ATOM      7  O   UNL     1      -7.844  15.948 -12.072  1.00  0.00    -0.550 OA
ENDBRANCH   4   5
ENDBRANCH   3   4
ENDBRANCH   2   3
ENDBRANCH   1   2
BRANCH   1   8
ATOM      8  C   UNL     1      -6.233  17.156 -15.836  1.00  0.00     0.000 C 
BRANCH   8   9
ATOM      9  C   UNL     1      -7.745  17.426 -15.880  1.00  0.00     0.000 C 
BRANCH   9  10
ATOM     10  C   UNL     1      -8.101  18.862 -15.457  1.00  0.00     0.006 C 
BRANCH  10  11
ATOM     11  C   UNL     1      -7.924  19.081 -13.948  1.00  0.00     0.053 C 
BRANCH  11  12
ATOM     12  C   UNL     1      -6.890  20.123 -13.655  1.00  0.00     0.041 C 
ATOM     13  O   UNL     1      -6.168  20.579 -14.579  1.00  0.00    -0.550 OA
ATOM     14  O   UNL     1      -6.704  20.570 -12.353  1.00  0.00    -0.550 OA
ENDBRANCH  11  12
ENDBRANCH  10  11
ENDBRANCH   9  10
ENDBRANCH   8   9
ENDBRANCH   1   8
TORSDOF 9
ENDMDL
MODEL 8
REMARK VINA RESULT:    -3.482      1.986      5.759
REMARK INTER + INTRA:          -6.119
REMARK INTER:                  -5.272
REMARK INTRA:                  -0.846
REMARK UNBOUND:                -0.805
REMARK SMILES O=C([O-])CCCCCCCCC(=O)[O-]
REMARK SMILES IDX 7 1 6 2 5 3 4 4 2 5 1 6 3 7 8 8 9 9 10 10 11 11 12 12 13 13
REMARK SMILES IDX 14 14
REMARK H PARENT
REMARK Flexibility Score: inf
ROOT
ATOM      1  C   UNL     1      -8.536  15.452 -12.760  1.00  0.00     0.000 C 
ENDROOT
BRANCH   1   2
ATOM      2  C   UNL     1      -8.782  14.496 -13.934  1.00  0.00     0.000 C 
BRANCH   2   3
ATOM      3  C   UNL     1      -7.828  14.795 -15.097  1.00  0.00     0.006 C 
BRANCH   3   4
ATOM      4  C   UNL     1      -6.367  14.639 -14.664  1.00  0.00     0.053 C 
BRANCH   4   5
ATOM      5  C   UNL     1      -6.072  13.214 -14.318  1.00  0.00     0.041 C 
ATOM      6  O   UNL     1      -5.875  12.880 -13.121  1.00  0.00    -0.550 OA
ATOM      7  O   UNL     1      -6.064  12.245 -15.314  1.00  0.00    -0.550 OA
ENDBRANCH   4   5
ENDBRANCH   3   4
ENDBRANCH   2   3
ENDBRANCH   1   2
BRANCH   1   8
ATOM      8  C   UNL     1      -9.574  16.584 -12.745  1.00  0.00     0.000 C 
BRANCH   8   9
ATOM      9  C   UNL     1      -8.932  17.980 -12.762  1.00  0.00     0.000 C 
BRANCH   9  10
ATOM     10  C   UNL     1      -8.426  18.381 -14.159  1.00  0.00     0.006 C 
BRANCH  10  11
ATOM     11  C   UNL     1      -6.902  18.563 -14.191  1.00  0.00     0.053 C 
BRANCH  11  12
ATOM     12  C   UNL     1      -6.504  19.975 -13.889  1.00  0.00     0.041 C 
ATOM     13  O   UNL     1      -6.695  20.885 -14.738  1.00  0.00    -0.550 OA
ATOM     14  O   UNL     1      -5.896  20.281 -12.678  1.00  0.00    -0.550 OA
ENDBRANCH  11  12
ENDBRANCH  10  11
ENDBRANCH   9  10
ENDBRANCH   8   9
ENDBRANCH   1   8
TORSDOF 9
ENDMDL
