MODEL 1
REMARK VINA RESULT:    28.962      0.000      0.000
REMARK INTER + INTRA:          49.142
REMARK INTER:                  42.507
REMARK INTRA:                   6.635
REMARK UNBOUND:                 6.635
REMARK SMILES O=c1c(O[C@H]2O[C@H](CO)[C@@H](O)[C@@H](O)[C@@H]2O)c(-c2ccc(O)c(O)c2)oc2cc(O)cc(O)c12
REMARK SMILES IDX 4 1 3 2 16 3 25 4 2 5 26 6 1 7 33 8 27 9 31 10 28 11 30 12
REMARK SMILES IDX 17 13 18 14 19 15 20 16 24 17 22 18 21 19 23 21 32 23 29 25
REMARK SMILES IDX 5 27 14 28 6 29 12 30 7 31 10 32 15 33 13 35 8 37 9 38 11 40
REMARK H PARENT 21 20 23 22 32 24 29 26 15 34 13 36 9 39 11 41
REMARK Flexibility Score: inf
ROOT
ATOM      1  O   UNL     1     -31.773 -21.303 -33.521  1.00  0.00    -0.454 OA
ENDROOT
BRANCH   1   2
ATOM      2  C   UNL     1     -31.874 -22.383 -34.428  1.00  0.00     0.214 A 
ATOM      3  C   UNL     1     -31.708 -23.713 -33.962  1.00  0.00     0.180 A 
ATOM      4  O   UNL     1     -31.848 -24.724 -34.811  1.00  0.00    -0.452 OA
ATOM      5  C   UNL     1     -32.106 -22.190 -35.816  1.00  0.00     0.239 A 
ATOM      6  C   UNL     1     -32.106 -24.585 -36.102  1.00  0.00     0.146 A 
ATOM      7  O   UNL     1     -32.209 -21.023 -36.269  1.00  0.00    -0.285 OA
ATOM      8  C   UNL     1     -32.216 -23.301 -36.685  1.00  0.00     0.111 A 
ATOM      9  C   UNL     1     -32.271 -25.737 -36.874  1.00  0.00     0.094 A 
ATOM     10  C   UNL     1     -32.457 -23.216 -38.092  1.00  0.00     0.134 A 
ATOM     11  C   UNL     1     -32.581 -25.643 -38.227  1.00  0.00     0.123 A 
ATOM     12  C   UNL     1     -32.678 -24.387 -38.828  1.00  0.00     0.093 A 
BRANCH   3  13
ATOM     13  C   UNL     1     -31.360 -24.079 -32.558  1.00  0.00     0.025 A 
ATOM     14  C   UNL     1     -31.069 -25.426 -32.271  1.00  0.00     0.016 A 
ATOM     15  C   UNL     1     -30.767 -25.832 -30.973  1.00  0.00     0.051 A 
ATOM     16  C   UNL     1     -30.747 -24.912 -29.924  1.00  0.00     0.157 A 
ATOM     17  C   UNL     1     -31.383 -23.161 -31.492  1.00  0.00     0.062 A 
ATOM     18  C   UNL     1     -31.049 -23.556 -30.188  1.00  0.00     0.158 A 
BRANCH  16  19
ATOM     19  O   UNL     1     -30.422 -25.383 -28.651  1.00  0.00    -0.504 OA
ATOM     20  H   UNL     1     -29.495 -25.666 -28.372  1.00  0.00     0.293 HD
ENDBRANCH  16  19
BRANCH  18  21
ATOM     21  O   UNL     1     -31.046 -22.581 -29.188  1.00  0.00    -0.504 OA
ATOM     22  H   UNL     1     -30.826 -22.768 -28.221  1.00  0.00     0.293 HD
ENDBRANCH  18  21
ENDBRANCH   3  13
BRANCH  10  23
ATOM     23  O   UNL     1     -32.476 -22.019 -38.815  1.00  0.00    -0.507 OA
ATOM     24  H   UNL     1     -32.135 -21.132 -38.474  1.00  0.00     0.293 HD
ENDBRANCH  10  23
BRANCH  11  25
ATOM     25  O   UNL     1     -32.787 -26.805 -38.970  1.00  0.00    -0.508 OA
ATOM     26  H   UNL     1     -32.181 -27.048 -39.743  1.00  0.00     0.293 HD
ENDBRANCH  11  25
ENDBRANCH   1   2
BRANCH   1  27
ATOM     27  C   UNL     1     -30.703 -20.344 -33.472  1.00  0.00     0.339 C 
ATOM     28  C   UNL     1     -29.406 -20.911 -34.104  1.00  0.00     0.214 C 
ATOM     29  O   UNL     1     -30.495 -19.876 -32.148  1.00  0.00    -0.332 OA
ATOM     30  C   UNL     1     -28.710 -21.928 -33.178  1.00  0.00     0.180 C 
ATOM     31  C   UNL     1     -30.015 -20.887 -31.278  1.00  0.00     0.179 C 
ATOM     32  C   UNL     1     -28.627 -21.385 -31.741  1.00  0.00     0.177 C 
BRANCH  28  33
ATOM     33  O   UNL     1     -28.523 -19.876 -34.464  1.00  0.00    -0.384 OA
ATOM     34  H   UNL     1     -28.851 -19.466 -35.304  1.00  0.00     0.211 HD
ENDBRANCH  28  33
BRANCH  30  35
ATOM     35  O   UNL     1     -29.427 -23.140 -33.193  1.00  0.00    -0.387 OA
ATOM     36  H   UNL     1     -30.336 -22.941 -32.853  1.00  0.00     0.211 HD
ENDBRANCH  30  35
BRANCH  31  37
ATOM     37  C   UNL     1     -29.931 -20.295 -29.856  1.00  0.00     0.191 C 
BRANCH  37  38
ATOM     38  O   UNL     1     -28.602 -20.087 -29.463  1.00  0.00    -0.394 OA
ATOM     39  H   UNL     1     -28.035 -20.524 -30.141  1.00  0.00     0.210 HD
ENDBRANCH  37  38
ENDBRANCH  31  37
BRANCH  32  40
ATOM     40  O   UNL     1     -28.099 -22.352 -30.865  1.00  0.00    -0.387 OA
ATOM     41  H   UNL     1     -27.562 -21.882 -30.174  1.00  0.00     0.211 HD
ENDBRANCH  32  40
ENDBRANCH   1  27
TORSDOF 12
ENDMDL
