MODEL 1
REMARK VINA RESULT:    -4.411      0.000      0.000
REMARK INTER + INTRA:         -10.212
REMARK INTER:                  -8.021
REMARK INTRA:                  -2.191
REMARK UNBOUND:                -2.191
REMARK SMILES CCCCCCCCCCCCCCCC(=O)[O-]
REMARK SMILES IDX 9 1 10 2 11 3 12 4 13 5 14 6 15 7 16 8 17 9 18 10 8 11 7 12
REMARK SMILES IDX 6 13 5 14 4 15 3 16 2 17 1 18
REMARK H PARENT
REMARK Flexibility Score: inf
ROOT
ATOM      1  C   UNL     1      18.465  -6.294 -16.792  1.00  0.00     0.000 C 
ENDROOT
BRANCH   1   2
ATOM      2  C   UNL     1      16.982  -5.906 -16.829  1.00  0.00     0.000 C 
BRANCH   2   3
ATOM      3  C   UNL     1      16.701  -4.716 -15.900  1.00  0.00     0.000 C 
BRANCH   3   4
ATOM      4  C   UNL     1      16.026  -3.541 -16.626  1.00  0.00     0.000 C 
BRANCH   4   5
ATOM      5  C   UNL     1      17.011  -2.736 -17.491  1.00  0.00     0.000 C 
BRANCH   5   6
ATOM      6  C   UNL     1      16.458  -2.438 -18.894  1.00  0.00     0.006 C 
BRANCH   6   7
ATOM      7  C   UNL     1      15.913  -3.691 -19.594  1.00  0.00     0.053 C 
BRANCH   7   8
ATOM      8  C   UNL     1      14.536  -3.437 -20.120  1.00  0.00     0.041 C 
ATOM      9  O   UNL     1      14.355  -2.603 -21.046  1.00  0.00    -0.550 OA
ATOM     10  O   UNL     1      13.458  -4.157 -19.621  1.00  0.00    -0.550 OA
ENDBRANCH   7   8
ENDBRANCH   6   7
ENDBRANCH   5   6
ENDBRANCH   4   5
ENDBRANCH   3   4
ENDBRANCH   2   3
ENDBRANCH   1   2
BRANCH   1  11
ATOM     11  C   UNL     1      19.212  -5.728 -18.009  1.00  0.00     0.000 C 
BRANCH  11  12
ATOM     12  C   UNL     1      20.738  -5.885 -17.897  1.00  0.00    -0.000 C 
BRANCH  12  13
ATOM     13  C   UNL     1      21.447  -4.555 -17.582  1.00  0.00    -0.000 C 
BRANCH  13  14
ATOM     14  C   UNL     1      20.603  -3.331 -17.972  1.00  0.00    -0.000 C 
BRANCH  14  15
ATOM     15  C   UNL     1      21.059  -2.692 -19.292  1.00  0.00    -0.000 C 
BRANCH  15  16
ATOM     16  C   UNL     1      19.858  -2.379 -20.194  1.00  0.00    -0.000 C 
BRANCH  16  17
ATOM     17  C   UNL     1      19.507  -3.581 -21.078  1.00  0.00    -0.003 C 
ATOM     18  C   UNL     1      20.729  -4.076 -21.846  1.00  0.00     0.004 C 
ENDBRANCH  16  17
ENDBRANCH  15  16
ENDBRANCH  14  15
ENDBRANCH  13  14
ENDBRANCH  12  13
ENDBRANCH  11  12
ENDBRANCH   1  11
TORSDOF 14
ENDMDL
MODEL 2
REMARK VINA RESULT:    -4.387      1.692      3.076
REMARK INTER + INTRA:         -10.169
REMARK INTER:                  -7.529
REMARK INTRA:                  -2.640
REMARK UNBOUND:                -2.191
REMARK SMILES CCCCCCCCCCCCCCCC(=O)[O-]
REMARK SMILES IDX 9 1 10 2 11 3 12 4 13 5 14 6 15 7 16 8 17 9 18 10 8 11 7 12
REMARK SMILES IDX 6 13 5 14 4 15 3 16 2 17 1 18
REMARK H PARENT
REMARK Flexibility Score: inf
ROOT
ATOM      1  C   UNL     1      16.746  -4.748 -15.991  1.00  0.00     0.000 C 
ENDROOT
BRANCH   1   2
ATOM      2  C   UNL     1      17.043  -6.090 -16.671  1.00  0.00     0.000 C 
BRANCH   2   3
ATOM      3  C   UNL     1      18.556  -6.309 -16.820  1.00  0.00     0.000 C 
BRANCH   3   4
ATOM      4  C   UNL     1      19.009  -6.347 -18.288  1.00  0.00     0.000 C 
BRANCH   4   5
ATOM      5  C   UNL     1      17.846  -6.610 -19.260  1.00  0.00     0.000 C 
BRANCH   5   6
ATOM      6  C   UNL     1      17.925  -5.740 -20.525  1.00  0.00     0.006 C 
BRANCH   6   7
ATOM      7  C   UNL     1      16.742  -4.771 -20.652  1.00  0.00     0.053 C 
BRANCH   7   8
ATOM      8  C   UNL     1      16.491  -4.441 -22.089  1.00  0.00     0.041 C 
ATOM      9  O   UNL     1      17.424  -4.522 -22.931  1.00  0.00    -0.550 OA
ATOM     10  O   UNL     1      15.214  -4.091 -22.508  1.00  0.00    -0.550 OA
ENDBRANCH   7   8
ENDBRANCH   6   7
ENDBRANCH   5   6
ENDBRANCH   4   5
ENDBRANCH   3   4
ENDBRANCH   2   3
ENDBRANCH   1   2
BRANCH   1  11
ATOM     11  C   UNL     1      16.087  -3.768 -16.973  1.00  0.00     0.000 C 
BRANCH  11  12
ATOM     12  C   UNL     1      16.904  -2.479 -17.167  1.00  0.00    -0.000 C 
BRANCH  12  13
ATOM     13  C   UNL     1      17.990  -2.627 -18.247  1.00  0.00    -0.000 C 
BRANCH  13  14
ATOM     14  C   UNL     1      19.397  -2.795 -17.651  1.00  0.00    -0.000 C 
BRANCH  14  15
ATOM     15  C   UNL     1      20.472  -3.032 -18.722  1.00  0.00    -0.000 C 
BRANCH  15  16
ATOM     16  C   UNL     1      20.031  -2.464 -20.077  1.00  0.00    -0.000 C 
BRANCH  16  17
ATOM     17  C   UNL     1      20.624  -3.278 -21.234  1.00  0.00    -0.003 C 
ATOM     18  C   UNL     1      21.408  -4.480 -20.717  1.00  0.00     0.004 C 
ENDBRANCH  16  17
ENDBRANCH  15  16
ENDBRANCH  14  15
ENDBRANCH  13  14
ENDBRANCH  12  13
ENDBRANCH  11  12
ENDBRANCH   1  11
TORSDOF 14
ENDMDL
MODEL 3
REMARK VINA RESULT:    -4.369      1.463      2.888
REMARK INTER + INTRA:         -10.137
REMARK INTER:                  -8.214
REMARK INTRA:                  -1.922
REMARK UNBOUND:                -2.191
REMARK SMILES CCCCCCCCCCCCCCCC(=O)[O-]
REMARK SMILES IDX 9 1 10 2 11 3 12 4 13 5 14 6 15 7 16 8 17 9 18 10 8 11 7 12
REMARK SMILES IDX 6 13 5 14 4 15 3 16 2 17 1 18
REMARK H PARENT
REMARK Flexibility Score: inf
ROOT
ATOM      1  C   UNL     1      20.588  -5.333 -18.030  1.00  0.00     0.000 C 
ENDROOT
BRANCH   1   2
ATOM      2  C   UNL     1      19.406  -6.309 -18.061  1.00  0.00     0.000 C 
BRANCH   2   3
ATOM      3  C   UNL     1      18.686  -6.345 -16.705  1.00  0.00     0.000 C 
BRANCH   3   4
ATOM      4  C   UNL     1      17.185  -6.034 -16.819  1.00  0.00     0.000 C 
BRANCH   4   5
ATOM      5  C   UNL     1      16.762  -4.834 -15.953  1.00  0.00     0.000 C 
BRANCH   5   6
ATOM      6  C   UNL     1      16.078  -3.727 -16.771  1.00  0.00     0.006 C 
BRANCH   6   7
ATOM      7  C   UNL     1      16.035  -4.041 -18.273  1.00  0.00     0.053 C 
BRANCH   7   8
ATOM      8  C   UNL     1      16.149  -2.782 -19.072  1.00  0.00     0.041 C 
ATOM      9  O   UNL     1      17.208  -2.103 -19.038  1.00  0.00    -0.550 OA
ATOM     10  O   UNL     1      15.102  -2.384 -19.894  1.00  0.00    -0.550 OA
ENDBRANCH   7   8
ENDBRANCH   6   7
ENDBRANCH   5   6
ENDBRANCH   4   5
ENDBRANCH   3   4
ENDBRANCH   2   3
ENDBRANCH   1   2
BRANCH   1  11
ATOM     11  C   UNL     1      20.103  -3.878 -18.104  1.00  0.00     0.000 C 
BRANCH  11  12
ATOM     12  C   UNL     1      20.968  -3.008 -19.032  1.00  0.00    -0.000 C 
BRANCH  12  13
ATOM     13  C   UNL     1      20.261  -2.674 -20.357  1.00  0.00    -0.000 C 
BRANCH  13  14
ATOM     14  C   UNL     1      20.872  -3.416 -21.556  1.00  0.00    -0.000 C 
BRANCH  14  15
ATOM     15  C   UNL     1      20.289  -4.825 -21.742  1.00  0.00    -0.000 C 
BRANCH  15  16
ATOM     16  C   UNL     1      18.786  -4.841 -21.441  1.00  0.00    -0.000 C 
BRANCH  16  17
ATOM     17  C   UNL     1      17.966  -4.892 -22.736  1.00  0.00    -0.003 C 
ATOM     18  C   UNL     1      16.659  -4.120 -22.591  1.00  0.00     0.004 C 
ENDBRANCH  16  17
ENDBRANCH  15  16
ENDBRANCH  14  15
ENDBRANCH  13  14
ENDBRANCH  12  13
ENDBRANCH  11  12
ENDBRANCH   1  11
TORSDOF 14
ENDMDL
MODEL 4
REMARK VINA RESULT:    -4.286      1.952      3.864
REMARK INTER + INTRA:          -9.985
REMARK INTER:                  -7.669
REMARK INTRA:                  -2.316
REMARK UNBOUND:                -2.191
REMARK SMILES CCCCCCCCCCCCCCCC(=O)[O-]
REMARK SMILES IDX 9 1 10 2 11 3 12 4 13 5 14 6 15 7 16 8 17 9 18 10 8 11 7 12
REMARK SMILES IDX 6 13 5 14 4 15 3 16 2 17 1 18
REMARK H PARENT
REMARK Flexibility Score: inf
ROOT
ATOM      1  C   UNL     1      20.489  -3.654 -17.871  1.00  0.00     0.000 C 
ENDROOT
BRANCH   1   2
ATOM      2  C   UNL     1      21.268  -4.972 -17.785  1.00  0.00     0.000 C 
BRANCH   2   3
ATOM      3  C   UNL     1      20.418  -6.072 -17.133  1.00  0.00     0.000 C 
BRANCH   3   4
ATOM      4  C   UNL     1      18.957  -6.057 -17.610  1.00  0.00     0.000 C 
BRANCH   4   5
ATOM      5  C   UNL     1      17.953  -6.057 -16.443  1.00  0.00     0.000 C 
BRANCH   5   6
ATOM      6  C   UNL     1      17.081  -4.792 -16.414  1.00  0.00     0.006 C 
BRANCH   6   7
ATOM      7  C   UNL     1      16.459  -4.469 -17.779  1.00  0.00     0.053 C 
BRANCH   7   8
ATOM      8  C   UNL     1      16.619  -3.015 -18.094  1.00  0.00     0.041 C 
ATOM      9  O   UNL     1      16.105  -2.533 -19.138  1.00  0.00    -0.550 OA
ATOM     10  O   UNL     1      17.293  -2.183 -17.210  1.00  0.00    -0.550 OA
ENDBRANCH   7   8
ENDBRANCH   6   7
ENDBRANCH   5   6
ENDBRANCH   4   5
ENDBRANCH   3   4
ENDBRANCH   2   3
ENDBRANCH   1   2
BRANCH   1  11
ATOM     11  C   UNL     1      20.895  -2.855 -19.118  1.00  0.00     0.000 C 
BRANCH  11  12
ATOM     12  C   UNL     1      19.698  -2.509 -20.020  1.00  0.00    -0.000 C 
BRANCH  12  13
ATOM     13  C   UNL     1      19.313  -3.666 -20.959  1.00  0.00    -0.000 C 
BRANCH  13  14
ATOM     14  C   UNL     1      20.456  -4.060 -21.908  1.00  0.00    -0.000 C 
BRANCH  14  15
ATOM     15  C   UNL     1      20.561  -5.579 -22.112  1.00  0.00    -0.000 C 
BRANCH  15  16
ATOM     16  C   UNL     1      21.616  -6.186 -21.178  1.00  0.00    -0.000 C 
BRANCH  16  17
ATOM     17  C   UNL     1      21.339  -7.673 -20.928  1.00  0.00    -0.003 C 
ATOM     18  C   UNL     1      19.864  -7.915 -20.622  1.00  0.00     0.004 C 
ENDBRANCH  16  17
ENDBRANCH  15  16
ENDBRANCH  14  15
ENDBRANCH  13  14
ENDBRANCH  12  13
ENDBRANCH  11  12
ENDBRANCH   1  11
TORSDOF 14
ENDMDL
MODEL 5
REMARK VINA RESULT:    -4.272      9.644     11.291
REMARK INTER + INTRA:          -9.960
REMARK INTER:                  -7.516
REMARK INTRA:                  -2.444
REMARK UNBOUND:                -2.191
REMARK SMILES CCCCCCCCCCCCCCCC(=O)[O-]
REMARK SMILES IDX 9 1 10 2 11 3 12 4 13 5 14 6 15 7 16 8 17 9 18 10 8 11 7 12
REMARK SMILES IDX 6 13 5 14 4 15 3 16 2 17 1 18
REMARK H PARENT
REMARK Flexibility Score: inf
ROOT
ATOM      1  C   UNL     1       7.051  -7.920 -21.416  1.00  0.00     0.000 C 
ENDROOT
BRANCH   1   2
ATOM      2  C   UNL     1       6.928  -6.515 -22.018  1.00  0.00     0.000 C 
BRANCH   2   3
ATOM      3  C   UNL     1       8.217  -5.708 -21.803  1.00  0.00     0.000 C 
BRANCH   3   4
ATOM      4  C   UNL     1       8.286  -4.451 -22.683  1.00  0.00     0.000 C 
BRANCH   4   5
ATOM      5  C   UNL     1       9.706  -4.171 -23.205  1.00  0.00     0.000 C 
BRANCH   5   6
ATOM      6  C   UNL     1       9.742  -3.937 -24.724  1.00  0.00     0.006 C 
BRANCH   6   7
ATOM      7  C   UNL     1      11.137  -3.548 -25.230  1.00  0.00     0.053 C 
BRANCH   7   8
ATOM      8  C   UNL     1      11.813  -4.727 -25.856  1.00  0.00     0.041 C 
ATOM      9  O   UNL     1      12.276  -5.649 -25.133  1.00  0.00    -0.550 OA
ATOM     10  O   UNL     1      11.888  -4.831 -27.238  1.00  0.00    -0.550 OA
ENDBRANCH   7   8
ENDBRANCH   6   7
ENDBRANCH   5   6
ENDBRANCH   4   5
ENDBRANCH   3   4
ENDBRANCH   2   3
ENDBRANCH   1   2
BRANCH   1  11
ATOM     11  C   UNL     1       8.522  -8.279 -21.154  1.00  0.00     0.000 C 
BRANCH  11  12
ATOM     12  C   UNL     1       8.971  -9.538 -21.913  1.00  0.00    -0.000 C 
BRANCH  12  13
ATOM     13  C   UNL     1      10.220  -9.291 -22.777  1.00  0.00    -0.000 C 
BRANCH  13  14
ATOM     14  C   UNL     1      10.023  -8.150 -23.787  1.00  0.00    -0.000 C 
BRANCH  14  15
ATOM     15  C   UNL     1       8.918  -8.447 -24.812  1.00  0.00    -0.000 C 
BRANCH  15  16
ATOM     16  C   UNL     1       8.459  -7.162 -25.512  1.00  0.00    -0.000 C 
BRANCH  16  17
ATOM     17  C   UNL     1       6.935  -7.142 -25.681  1.00  0.00    -0.003 C 
ATOM     18  C   UNL     1       6.395  -5.716 -25.640  1.00  0.00     0.004 C 
ENDBRANCH  16  17
ENDBRANCH  15  16
ENDBRANCH  14  15
ENDBRANCH  13  14
ENDBRANCH  12  13
ENDBRANCH  11  12
ENDBRANCH   1  11
TORSDOF 14
ENDMDL
MODEL 6
REMARK VINA RESULT:    -4.223      1.750      4.545
REMARK INTER + INTRA:          -9.870
REMARK INTER:                  -7.579
REMARK INTRA:                  -2.291
REMARK UNBOUND:                -2.191
REMARK SMILES CCCCCCCCCCCCCCCC(=O)[O-]
REMARK SMILES IDX 9 1 10 2 11 3 12 4 13 5 14 6 15 7 16 8 17 9 18 10 8 11 7 12
REMARK SMILES IDX 6 13 5 14 4 15 3 16 2 17 1 18
REMARK H PARENT
REMARK Flexibility Score: inf
ROOT
ATOM      1  C   UNL     1      20.818  -3.329 -21.297  1.00  0.00     0.000 C 
ENDROOT
BRANCH   1   2
ATOM      2  C   UNL     1      21.363  -4.687 -20.838  1.00  0.00     0.000 C 
BRANCH   2   3
ATOM      3  C   UNL     1      20.788  -5.828 -21.692  1.00  0.00     0.000 C 
BRANCH   3   4
ATOM      4  C   UNL     1      19.737  -5.343 -22.702  1.00  0.00     0.000 C 
BRANCH   4   5
ATOM      5  C   UNL     1      18.306  -5.749 -22.308  1.00  0.00     0.000 C 
BRANCH   5   6
ATOM      6  C   UNL     1      17.266  -4.677 -22.672  1.00  0.00     0.006 C 
BRANCH   6   7
ATOM      7  C   UNL     1      16.748  -3.914 -21.445  1.00  0.00     0.053 C 
BRANCH   7   8
ATOM      8  C   UNL     1      15.297  -3.588 -21.609  1.00  0.00     0.041 C 
ATOM      9  O   UNL     1      14.788  -2.629 -20.972  1.00  0.00    -0.550 OA
ATOM     10  O   UNL     1      14.518  -4.313 -22.501  1.00  0.00    -0.550 OA
ENDBRANCH   7   8
ENDBRANCH   6   7
ENDBRANCH   5   6
ENDBRANCH   4   5
ENDBRANCH   3   4
ENDBRANCH   2   3
ENDBRANCH   1   2
BRANCH   1  11
ATOM     11  C   UNL     1      20.253  -2.534 -20.111  1.00  0.00     0.000 C 
BRANCH  11  12
ATOM     12  C   UNL     1      20.747  -3.058 -18.753  1.00  0.00    -0.000 C 
BRANCH  12  13
ATOM     13  C   UNL     1      19.621  -3.144 -17.708  1.00  0.00    -0.000 C 
BRANCH  13  14
ATOM     14  C   UNL     1      18.405  -3.936 -18.215  1.00  0.00    -0.000 C 
BRANCH  14  15
ATOM     15  C   UNL     1      18.700  -5.434 -18.382  1.00  0.00    -0.000 C 
BRANCH  15  16
ATOM     16  C   UNL     1      19.000  -6.089 -17.028  1.00  0.00    -0.000 C 
BRANCH  16  17
ATOM     17  C   UNL     1      20.382  -6.754 -17.032  1.00  0.00    -0.003 C 
ATOM     18  C   UNL     1      20.643  -7.474 -18.352  1.00  0.00     0.004 C 
ENDBRANCH  16  17
ENDBRANCH  15  16
ENDBRANCH  14  15
ENDBRANCH  13  14
ENDBRANCH  12  13
ENDBRANCH  11  12
ENDBRANCH   1  11
TORSDOF 14
ENDMDL
MODEL 7
REMARK VINA RESULT:    -4.219      3.216      4.740
REMARK INTER + INTRA:          -9.864
REMARK INTER:                  -7.432
REMARK INTRA:                  -2.432
REMARK UNBOUND:                -2.191
REMARK SMILES CCCCCCCCCCCCCCCC(=O)[O-]
REMARK SMILES IDX 9 1 10 2 11 3 12 4 13 5 14 6 15 7 16 8 17 9 18 10 8 11 7 12
REMARK SMILES IDX 6 13 5 14 4 15 3 16 2 17 1 18
REMARK H PARENT
REMARK Flexibility Score: inf
ROOT
ATOM      1  C   UNL     1      18.401  -2.434 -19.341  1.00  0.00     0.000 C 
ENDROOT
BRANCH   1   2
ATOM      2  C   UNL     1      17.075  -2.574 -18.584  1.00  0.00     0.000 C 
BRANCH   2   3
ATOM      3  C   UNL     1      17.247  -3.441 -17.327  1.00  0.00     0.000 C 
BRANCH   3   4
ATOM      4  C   UNL     1      16.414  -4.731 -17.376  1.00  0.00     0.000 C 
BRANCH   4   5
ATOM      5  C   UNL     1      17.155  -5.937 -16.773  1.00  0.00     0.000 C 
BRANCH   5   6
ATOM      6  C   UNL     1      18.382  -6.351 -17.601  1.00  0.00     0.006 C 
BRANCH   6   7
ATOM      7  C   UNL     1      19.676  -6.367 -16.775  1.00  0.00     0.053 C 
BRANCH   7   8
ATOM      8  C   UNL     1      20.772  -7.044 -17.536  1.00  0.00     0.041 C 
ATOM      9  O   UNL     1      20.521  -7.629 -18.623  1.00  0.00    -0.550 OA
ATOM     10  O   UNL     1      22.079  -6.986 -17.070  1.00  0.00    -0.550 OA
ENDBRANCH   7   8
ENDBRANCH   6   7
ENDBRANCH   5   6
ENDBRANCH   4   5
ENDBRANCH   3   4
ENDBRANCH   2   3
ENDBRANCH   1   2
BRANCH   1  11
ATOM     11  C   UNL     1      19.570  -2.980 -18.508  1.00  0.00     0.000 C 
BRANCH  11  12
ATOM     12  C   UNL     1      20.915  -2.912 -19.252  1.00  0.00    -0.000 C 
BRANCH  12  13
ATOM     13  C   UNL     1      21.166  -4.151 -20.130  1.00  0.00    -0.000 C 
BRANCH  13  14
ATOM     14  C   UNL     1      20.914  -3.879 -21.621  1.00  0.00    -0.000 C 
BRANCH  14  15
ATOM     15  C   UNL     1      19.887  -4.843 -22.236  1.00  0.00    -0.000 C 
BRANCH  15  16
ATOM     16  C   UNL     1      19.114  -5.590 -21.142  1.00  0.00    -0.000 C 
BRANCH  16  17
ATOM     17  C   UNL     1      17.603  -5.529 -21.397  1.00  0.00    -0.003 C 
ATOM     18  C   UNL     1      17.239  -4.328 -22.264  1.00  0.00     0.004 C 
ENDBRANCH  16  17
ENDBRANCH  15  16
ENDBRANCH  14  15
ENDBRANCH  13  14
ENDBRANCH  12  13
ENDBRANCH  11  12
ENDBRANCH   1  11
TORSDOF 14
ENDMDL
MODEL 8
REMARK VINA RESULT:    -4.174      1.708      4.294
REMARK INTER + INTRA:          -9.781
REMARK INTER:                  -7.279
REMARK INTRA:                  -2.502
REMARK UNBOUND:                -2.191
REMARK SMILES CCCCCCCCCCCCCCCC(=O)[O-]
REMARK SMILES IDX 9 1 10 2 11 3 12 4 13 5 14 6 15 7 16 8 17 9 18 10 8 11 7 12
REMARK SMILES IDX 6 13 5 14 4 15 3 16 2 17 1 18
REMARK H PARENT
REMARK Flexibility Score: inf
ROOT
ATOM      1  C   UNL     1      19.967  -2.980 -17.939  1.00  0.00     0.000 C 
ENDROOT
BRANCH   1   2
ATOM      2  C   UNL     1      20.644  -2.669 -19.279  1.00  0.00     0.000 C 
BRANCH   2   3
ATOM      3  C   UNL     1      19.675  -2.891 -20.450  1.00  0.00     0.000 C 
BRANCH   3   4
ATOM      4  C   UNL     1      20.080  -4.078 -21.339  1.00  0.00     0.000 C 
BRANCH   4   5
ATOM      5  C   UNL     1      18.866  -4.855 -21.877  1.00  0.00     0.000 C 
BRANCH   5   6
ATOM      6  C   UNL     1      17.548  -4.080 -21.715  1.00  0.00     0.006 C 
BRANCH   6   7
ATOM      7  C   UNL     1      16.639  -4.194 -22.945  1.00  0.00     0.053 C 
BRANCH   7   8
ATOM      8  C   UNL     1      15.201  -4.206 -22.531  1.00  0.00     0.041 C 
ATOM      9  O   UNL     1      14.426  -5.101 -22.960  1.00  0.00    -0.550 OA
ATOM     10  O   UNL     1      14.729  -3.258 -21.633  1.00  0.00    -0.550 OA
ENDBRANCH   7   8
ENDBRANCH   6   7
ENDBRANCH   5   6
ENDBRANCH   4   5
ENDBRANCH   3   4
ENDBRANCH   2   3
ENDBRANCH   1   2
BRANCH   1  11
ATOM     11  C   UNL     1      18.444  -2.812 -18.040  1.00  0.00     0.000 C 
BRANCH  11  12
ATOM     12  C   UNL     1      17.672  -3.919 -17.302  1.00  0.00    -0.000 C 
BRANCH  12  13
ATOM     13  C   UNL     1      17.228  -5.054 -18.241  1.00  0.00    -0.000 C 
BRANCH  13  14
ATOM     14  C   UNL     1      17.977  -6.370 -17.972  1.00  0.00    -0.000 C 
BRANCH  14  15
ATOM     15  C   UNL     1      18.891  -6.291 -16.739  1.00  0.00    -0.000 C 
BRANCH  15  16
ATOM     16  C   UNL     1      20.319  -6.728 -17.088  1.00  0.00    -0.000 C 
BRANCH  16  17
ATOM     17  C   UNL     1      20.590  -6.576 -18.589  1.00  0.00    -0.003 C 
ATOM     18  C   UNL     1      22.013  -6.088 -18.845  1.00  0.00     0.004 C 
ENDBRANCH  16  17
ENDBRANCH  15  16
ENDBRANCH  14  15
ENDBRANCH  13  14
ENDBRANCH  12  13
ENDBRANCH  11  12
ENDBRANCH   1  11
TORSDOF 14
ENDMDL
MODEL 9
REMARK VINA RESULT:    -4.154      7.906     10.971
REMARK INTER + INTRA:          -9.745
REMARK INTER:                  -7.360
REMARK INTRA:                  -2.385
REMARK UNBOUND:                -2.191
REMARK SMILES CCCCCCCCCCCCCCCC(=O)[O-]
REMARK SMILES IDX 9 1 10 2 11 3 12 4 13 5 14 6 15 7 16 8 17 9 18 10 8 11 7 12
REMARK SMILES IDX 6 13 5 14 4 15 3 16 2 17 1 18
REMARK H PARENT
REMARK Flexibility Score: inf
ROOT
ATOM      1  C   UNL     1       9.760  -8.772 -23.557  1.00  0.00     0.000 C 
ENDROOT
BRANCH   1   2
ATOM      2  C   UNL     1       8.832  -8.624 -24.769  1.00  0.00     0.000 C 
BRANCH   2   3
ATOM      3  C   UNL     1       9.176  -7.362 -25.573  1.00  0.00     0.000 C 
BRANCH   3   4
ATOM      4  C   UNL     1      10.226  -6.481 -24.878  1.00  0.00     0.000 C 
BRANCH   4   5
ATOM      5  C   UNL     1      11.069  -5.667 -25.876  1.00  0.00     0.000 C 
BRANCH   5   6
ATOM      6  C   UNL     1      11.515  -4.312 -25.305  1.00  0.00     0.006 C 
BRANCH   6   7
ATOM      7  C   UNL     1      12.529  -4.455 -24.163  1.00  0.00     0.053 C 
BRANCH   7   8
ATOM      8  C   UNL     1      12.089  -3.664 -22.971  1.00  0.00     0.041 C 
ATOM      9  O   UNL     1      11.793  -2.446 -23.093  1.00  0.00    -0.550 OA
ATOM     10  O   UNL     1      11.957  -4.285 -21.736  1.00  0.00    -0.550 OA
ENDBRANCH   7   8
ENDBRANCH   6   7
ENDBRANCH   5   6
ENDBRANCH   4   5
ENDBRANCH   3   4
ENDBRANCH   2   3
ENDBRANCH   1   2
BRANCH   1  11
ATOM     11  C   UNL     1       8.969  -9.179 -22.304  1.00  0.00     0.000 C 
BRANCH  11  12
ATOM     12  C   UNL     1       8.610  -7.979 -21.412  1.00  0.00    -0.000 C 
BRANCH  12  13
ATOM     13  C   UNL     1       7.157  -7.512 -21.607  1.00  0.00    -0.000 C 
BRANCH  13  14
ATOM     14  C   UNL     1       7.059  -6.017 -21.953  1.00  0.00    -0.000 C 
BRANCH  14  15
ATOM     15  C   UNL     1       8.419  -5.305 -21.899  1.00  0.00    -0.000 C 
BRANCH  15  16
ATOM     16  C   UNL     1       8.456  -4.120 -22.873  1.00  0.00    -0.000 C 
BRANCH  16  17
ATOM     17  C   UNL     1       7.300  -4.197 -23.877  1.00  0.00    -0.003 C 
ATOM     18  C   UNL     1       7.724  -3.675 -25.246  1.00  0.00     0.004 C 
ENDBRANCH  16  17
ENDBRANCH  15  16
ENDBRANCH  14  15
ENDBRANCH  13  14
ENDBRANCH  12  13
ENDBRANCH  11  12
ENDBRANCH   1  11
TORSDOF 14
ENDMDL
