MODEL 1
REMARK VINA RESULT:    -2.834      0.000      0.000
REMARK INTER + INTRA:          -6.865
REMARK INTER:                  -4.822
REMARK INTRA:                  -2.043
REMARK UNBOUND:                -2.043
REMARK SMILES CCCCCCCCCCCCCC(=O)[O-]
REMARK SMILES IDX 8 1 9 2 10 3 11 4 12 5 13 6 14 7 15 8 16 9 7 10 6 11 5 12
REMARK SMILES IDX 4 13 3 14 2 15 1 16
REMARK H PARENT
REMARK Flexibility Score: inf
ROOT
ATOM      1  C   UNL     1      58.135  16.189  50.502  1.00  0.00     0.000 C 
ENDROOT
BRANCH   1   2
ATOM      2  C   UNL     1      59.419  16.273  51.352  1.00  0.00     0.000 C 
BRANCH   2   3
ATOM      3  C   UNL     1      60.523  17.182  50.777  1.00  0.00     0.000 C 
BRANCH   3   4
ATOM      4  C   UNL     1      60.922  18.371  51.673  1.00  0.00     0.000 C 
BRANCH   4   5
ATOM      5  C   UNL     1      61.365  19.640  50.916  1.00  0.00     0.006 C 
BRANCH   5   6
ATOM      6  C   UNL     1      60.214  20.571  50.510  1.00  0.00     0.053 C 
BRANCH   6   7
ATOM      7  C   UNL     1      60.636  21.568  49.474  1.00  0.00     0.041 C 
ATOM      8  O   UNL     1      61.402  21.221  48.538  1.00  0.00    -0.550 OA
ATOM      9  O   UNL     1      60.212  22.887  49.563  1.00  0.00    -0.550 OA
ENDBRANCH   6   7
ENDBRANCH   5   6
ENDBRANCH   4   5
ENDBRANCH   3   4
ENDBRANCH   2   3
ENDBRANCH   1   2
BRANCH   1  10
ATOM     10  C   UNL     1      58.042  17.223  49.366  1.00  0.00     0.000 C 
BRANCH  10  11
ATOM     11  C   UNL     1      57.195  18.450  49.745  1.00  0.00    -0.000 C 
BRANCH  11  12
ATOM     12  C   UNL     1      55.916  18.068  50.506  1.00  0.00    -0.000 C 
BRANCH  12  13
ATOM     13  C   UNL     1      55.799  18.789  51.860  1.00  0.00    -0.000 C 
BRANCH  13  14
ATOM     14  C   UNL     1      57.106  19.486  52.281  1.00  0.00    -0.000 C 
BRANCH  14  15
ATOM     15  C   UNL     1      57.814  18.849  53.489  1.00  0.00    -0.003 C 
ATOM     16  C   UNL     1      57.142  17.562  53.966  1.00  0.00     0.004 C 
ENDBRANCH  14  15
ENDBRANCH  13  14
ENDBRANCH  12  13
ENDBRANCH  11  12
ENDBRANCH  10  11
ENDBRANCH   1  10
TORSDOF 12
ENDMDL
MODEL 2
REMARK VINA RESULT:    -2.754      1.576      3.379
REMARK INTER + INTRA:          -6.728
REMARK INTER:                  -5.280
REMARK INTRA:                  -1.448
REMARK UNBOUND:                -2.043
REMARK SMILES CCCCCCCCCCCCCC(=O)[O-]
REMARK SMILES IDX 8 1 9 2 10 3 11 4 12 5 13 6 14 7 15 8 16 9 7 10 6 11 5 12
REMARK SMILES IDX 4 13 3 14 2 15 1 16
REMARK H PARENT
REMARK Flexibility Score: inf
ROOT
ATOM      1  C   UNL     1      60.429  18.896  52.072  1.00  0.00     0.000 C 
ENDROOT
BRANCH   1   2
ATOM      2  C   UNL     1      61.038  19.429  50.760  1.00  0.00     0.000 C 
BRANCH   2   3
ATOM      3  C   UNL     1      60.054  20.185  49.845  1.00  0.00     0.000 C 
BRANCH   3   4
ATOM      4  C   UNL     1      60.711  21.122  48.813  1.00  0.00     0.000 C 
BRANCH   4   5
ATOM      5  C   UNL     1      61.012  22.546  49.322  1.00  0.00     0.006 C 
BRANCH   5   6
ATOM      6  C   UNL     1      59.933  23.131  50.247  1.00  0.00     0.053 C 
BRANCH   6   7
ATOM      7  C   UNL     1      59.441  24.460  49.765  1.00  0.00     0.041 C 
ATOM      8  O   UNL     1      58.266  24.831  50.021  1.00  0.00    -0.550 OA
ATOM      9  O   UNL     1      60.269  25.275  49.003  1.00  0.00    -0.550 OA
ENDBRANCH   6   7
ENDBRANCH   5   6
ENDBRANCH   4   5
ENDBRANCH   3   4
ENDBRANCH   2   3
ENDBRANCH   1   2
BRANCH   1  10
ATOM     10  C   UNL     1      60.421  17.363  52.206  1.00  0.00     0.000 C 
BRANCH  10  11
ATOM     11  C   UNL     1      59.979  16.655  50.914  1.00  0.00    -0.000 C 
BRANCH  11  12
ATOM     12  C   UNL     1      58.465  16.392  50.876  1.00  0.00    -0.000 C 
BRANCH  12  13
ATOM     13  C   UNL     1      57.803  16.947  49.604  1.00  0.00    -0.000 C 
BRANCH  13  14
ATOM     14  C   UNL     1      56.906  18.167  49.880  1.00  0.00    -0.000 C 
BRANCH  14  15
ATOM     15  C   UNL     1      56.268  18.193  51.280  1.00  0.00    -0.003 C 
ATOM     16  C   UNL     1      56.750  19.363  52.136  1.00  0.00     0.004 C 
ENDBRANCH  14  15
ENDBRANCH  13  14
ENDBRANCH  12  13
ENDBRANCH  11  12
ENDBRANCH  10  11
ENDBRANCH   1  10
TORSDOF 12
ENDMDL
MODEL 3
REMARK VINA RESULT:    -2.715      5.367      8.505
REMARK INTER + INTRA:          -6.663
REMARK INTER:                  -4.937
REMARK INTRA:                  -1.726
REMARK UNBOUND:                -2.043
REMARK SMILES CCCCCCCCCCCCCC(=O)[O-]
REMARK SMILES IDX 8 1 9 2 10 3 11 4 12 5 13 6 14 7 15 8 16 9 7 10 6 11 5 12
REMARK SMILES IDX 4 13 3 14 2 15 1 16
REMARK H PARENT
REMARK Flexibility Score: inf
ROOT
ATOM      1  C   UNL     1      57.634  27.189  51.690  1.00  0.00     0.000 C 
ENDROOT
BRANCH   1   2
ATOM      2  C   UNL     1      57.042  26.009  50.893  1.00  0.00     0.000 C 
BRANCH   2   3
ATOM      3  C   UNL     1      58.001  24.822  50.675  1.00  0.00     0.000 C 
BRANCH   3   4
ATOM      4  C   UNL     1      59.352  24.932  51.411  1.00  0.00     0.000 C 
BRANCH   4   5
ATOM      5  C   UNL     1      60.450  23.973  50.906  1.00  0.00     0.006 C 
BRANCH   5   6
ATOM      6  C   UNL     1      60.260  23.497  49.458  1.00  0.00     0.053 C 
BRANCH   6   7
ATOM      7  C   UNL     1      61.172  22.358  49.118  1.00  0.00     0.041 C 
ATOM      8  O   UNL     1      62.331  22.309  49.605  1.00  0.00    -0.550 OA
ATOM      9  O   UNL     1      60.752  21.371  48.236  1.00  0.00    -0.550 OA
ENDBRANCH   6   7
ENDBRANCH   5   6
ENDBRANCH   4   5
ENDBRANCH   3   4
ENDBRANCH   2   3
ENDBRANCH   1   2
BRANCH   1  10
ATOM     10  C   UNL     1      57.868  28.470  50.870  1.00  0.00     0.000 C 
BRANCH  10  11
ATOM     11  C   UNL     1      57.660  28.258  49.361  1.00  0.00    -0.000 C 
BRANCH  11  12
ATOM     12  C   UNL     1      58.946  28.492  48.551  1.00  0.00    -0.000 C 
BRANCH  12  13
ATOM     13  C   UNL     1      59.939  27.325  48.674  1.00  0.00    -0.000 C 
BRANCH  13  14
ATOM     14  C   UNL     1      61.207  27.699  49.464  1.00  0.00    -0.000 C 
BRANCH  14  15
ATOM     15  C   UNL     1      62.530  27.358  48.756  1.00  0.00    -0.003 C 
ATOM     16  C   UNL     1      63.082  25.988  49.148  1.00  0.00     0.004 C 
ENDBRANCH  14  15
ENDBRANCH  13  14
ENDBRANCH  12  13
ENDBRANCH  11  12
ENDBRANCH  10  11
ENDBRANCH   1  10
TORSDOF 12
ENDMDL
MODEL 4
REMARK VINA RESULT:    -2.714     13.860     15.321
REMARK INTER + INTRA:          -6.660
REMARK INTER:                  -5.168
REMARK INTRA:                  -1.492
REMARK UNBOUND:                -2.043
REMARK SMILES CCCCCCCCCCCCCC(=O)[O-]
REMARK SMILES IDX 8 1 9 2 10 3 11 4 12 5 13 6 14 7 15 8 16 9 7 10 6 11 5 12
REMARK SMILES IDX 4 13 3 14 2 15 1 16
REMARK H PARENT
REMARK Flexibility Score: inf
ROOT
ATOM      1  C   UNL     1      64.796  26.263  60.087  1.00  0.00     0.000 C 
ENDROOT
BRANCH   1   2
ATOM      2  C   UNL     1      65.047  27.095  58.814  1.00  0.00     0.000 C 
BRANCH   2   3
ATOM      3  C   UNL     1      66.169  28.146  58.932  1.00  0.00     0.000 C 
BRANCH   3   4
ATOM      4  C   UNL     1      66.886  28.184  60.295  1.00  0.00     0.000 C 
BRANCH   4   5
ATOM      5  C   UNL     1      68.375  27.783  60.261  1.00  0.00     0.006 C 
BRANCH   5   6
ATOM      6  C   UNL     1      69.221  28.386  61.393  1.00  0.00     0.053 C 
BRANCH   6   7
ATOM      7  C   UNL     1      70.521  28.934  60.890  1.00  0.00     0.041 C 
ATOM      8  O   UNL     1      71.599  28.629  61.462  1.00  0.00    -0.550 OA
ATOM      9  O   UNL     1      70.537  29.809  59.812  1.00  0.00    -0.550 OA
ENDBRANCH   6   7
ENDBRANCH   5   6
ENDBRANCH   4   5
ENDBRANCH   3   4
ENDBRANCH   2   3
ENDBRANCH   1   2
BRANCH   1  10
ATOM     10  C   UNL     1      63.367  25.708  60.227  1.00  0.00     0.000 C 
BRANCH  10  11
ATOM     11  C   UNL     1      62.290  26.727  59.817  1.00  0.00    -0.000 C 
BRANCH  11  12
ATOM     12  C   UNL     1      61.827  27.597  60.996  1.00  0.00    -0.000 C 
BRANCH  12  13
ATOM     13  C   UNL     1      62.031  29.099  60.733  1.00  0.00    -0.000 C 
BRANCH  13  14
ATOM     14  C   UNL     1      63.444  29.584  61.103  1.00  0.00    -0.000 C 
BRANCH  14  15
ATOM     15  C   UNL     1      63.985  30.723  60.220  1.00  0.00    -0.003 C 
ATOM     16  C   UNL     1      63.199  30.897  58.921  1.00  0.00     0.004 C 
ENDBRANCH  14  15
ENDBRANCH  13  14
ENDBRANCH  12  13
ENDBRANCH  11  12
ENDBRANCH  10  11
ENDBRANCH   1  10
TORSDOF 12
ENDMDL
MODEL 5
REMARK VINA RESULT:    -2.712      1.174      2.481
REMARK INTER + INTRA:          -6.658
REMARK INTER:                  -4.683
REMARK INTRA:                  -1.975
REMARK UNBOUND:                -2.043
REMARK SMILES CCCCCCCCCCCCCC(=O)[O-]
REMARK SMILES IDX 8 1 9 2 10 3 11 4 12 5 13 6 14 7 15 8 16 9 7 10 6 11 5 12
REMARK SMILES IDX 4 13 3 14 2 15 1 16
REMARK H PARENT
REMARK Flexibility Score: inf
ROOT
ATOM      1  C   UNL     1      57.989  16.230  50.529  1.00  0.00     0.000 C 
ENDROOT
BRANCH   1   2
ATOM      2  C   UNL     1      57.850  17.203  49.341  1.00  0.00     0.000 C 
BRANCH   2   3
ATOM      3  C   UNL     1      59.162  17.880  48.896  1.00  0.00     0.000 C 
BRANCH   3   4
ATOM      4  C   UNL     1      59.261  19.384  49.216  1.00  0.00     0.000 C 
BRANCH   4   5
ATOM      5  C   UNL     1      60.421  19.778  50.153  1.00  0.00     0.006 C 
BRANCH   5   6
ATOM      6  C   UNL     1      60.171  21.054  50.971  1.00  0.00     0.053 C 
BRANCH   6   7
ATOM      7  C   UNL     1      60.878  22.240  50.392  1.00  0.00     0.041 C 
ATOM      8  O   UNL     1      60.394  22.842  49.399  1.00  0.00    -0.550 OA
ATOM      9  O   UNL     1      62.090  22.658  50.927  1.00  0.00    -0.550 OA
ENDBRANCH   6   7
ENDBRANCH   5   6
ENDBRANCH   4   5
ENDBRANCH   3   4
ENDBRANCH   2   3
ENDBRANCH   1   2
BRANCH   1  10
ATOM     10  C   UNL     1      59.392  16.175  51.160  1.00  0.00     0.000 C 
BRANCH  10  11
ATOM     11  C   UNL     1      59.463  16.891  52.519  1.00  0.00    -0.000 C 
BRANCH  11  12
ATOM     12  C   UNL     1      58.081  17.337  53.021  1.00  0.00    -0.000 C 
BRANCH  12  13
ATOM     13  C   UNL     1      57.956  18.867  53.117  1.00  0.00    -0.000 C 
BRANCH  13  14
ATOM     14  C   UNL     1      56.923  19.446  52.133  1.00  0.00    -0.000 C 
BRANCH  14  15
ATOM     15  C   UNL     1      55.593  18.675  52.070  1.00  0.00    -0.003 C 
ATOM     16  C   UNL     1      54.381  19.588  51.885  1.00  0.00     0.004 C 
ENDBRANCH  14  15
ENDBRANCH  13  14
ENDBRANCH  12  13
ENDBRANCH  11  12
ENDBRANCH  10  11
ENDBRANCH   1  10
TORSDOF 12
ENDMDL
MODEL 6
REMARK VINA RESULT:    -2.704      8.155     10.714
REMARK INTER + INTRA:          -6.644
REMARK INTER:                  -4.858
REMARK INTRA:                  -1.786
REMARK UNBOUND:                -2.043
REMARK SMILES CCCCCCCCCCCCCC(=O)[O-]
REMARK SMILES IDX 8 1 9 2 10 3 11 4 12 5 13 6 14 7 15 8 16 9 7 10 6 11 5 12
REMARK SMILES IDX 4 13 3 14 2 15 1 16
REMARK H PARENT
REMARK Flexibility Score: inf
ROOT
ATOM      1  C   UNL     1      56.871  26.255  51.043  1.00  0.00     0.000 C 
ENDROOT
BRANCH   1   2
ATOM      2  C   UNL     1      56.264  27.669  51.141  1.00  0.00     0.000 C 
BRANCH   2   3
ATOM      3  C   UNL     1      56.259  28.469  49.823  1.00  0.00     0.000 C 
BRANCH   3   4
ATOM      4  C   UNL     1      55.509  29.814  49.880  1.00  0.00     0.000 C 
BRANCH   4   5
ATOM      5  C   UNL     1      55.078  30.262  51.292  1.00  0.00     0.006 C 
BRANCH   5   6
ATOM      6  C   UNL     1      55.611  31.641  51.711  1.00  0.00     0.053 C 
BRANCH   6   7
ATOM      7  C   UNL     1      56.865  31.535  52.522  1.00  0.00     0.041 C 
ATOM      8  O   UNL     1      57.244  30.417  52.957  1.00  0.00    -0.550 OA
ATOM      9  O   UNL     1      57.596  32.676  52.827  1.00  0.00    -0.550 OA
ENDBRANCH   6   7
ENDBRANCH   5   6
ENDBRANCH   4   5
ENDBRANCH   3   4
ENDBRANCH   2   3
ENDBRANCH   1   2
BRANCH   1  10
ATOM     10  C   UNL     1      57.411  25.878  49.651  1.00  0.00     0.000 C 
BRANCH  10  11
ATOM     11  C   UNL     1      58.733  25.094  49.718  1.00  0.00    -0.000 C 
BRANCH  11  12
ATOM     12  C   UNL     1      59.894  25.841  49.044  1.00  0.00    -0.000 C 
BRANCH  12  13
ATOM     13  C   UNL     1      59.552  27.310  48.741  1.00  0.00    -0.000 C 
BRANCH  13  14
ATOM     14  C   UNL     1      60.433  28.302  49.522  1.00  0.00    -0.000 C 
BRANCH  14  15
ATOM     15  C   UNL     1      59.761  28.925  50.757  1.00  0.00    -0.003 C 
ATOM     16  C   UNL     1      59.946  28.091  52.024  1.00  0.00     0.004 C 
ENDBRANCH  14  15
ENDBRANCH  13  14
ENDBRANCH  12  13
ENDBRANCH  11  12
ENDBRANCH  10  11
ENDBRANCH   1  10
TORSDOF 12
ENDMDL
MODEL 7
REMARK VINA RESULT:    -2.685      7.942     10.389
REMARK INTER + INTRA:          -6.611
REMARK INTER:                  -4.831
REMARK INTRA:                  -1.781
REMARK UNBOUND:                -2.043
REMARK SMILES CCCCCCCCCCCCCC(=O)[O-]
REMARK SMILES IDX 8 1 9 2 10 3 11 4 12 5 13 6 14 7 15 8 16 9 7 10 6 11 5 12
REMARK SMILES IDX 4 13 3 14 2 15 1 16
REMARK H PARENT
REMARK Flexibility Score: inf
ROOT
ATOM      1  C   UNL     1      59.639  28.560  50.445  1.00  0.00     0.000 C 
ENDROOT
BRANCH   1   2
ATOM      2  C   UNL     1      58.175  28.901  50.788  1.00  0.00     0.000 C 
BRANCH   2   3
ATOM      3  C   UNL     1      57.176  28.728  49.626  1.00  0.00     0.000 C 
BRANCH   3   4
ATOM      4  C   UNL     1      55.694  28.903  50.010  1.00  0.00     0.000 C 
BRANCH   4   5
ATOM      5  C   UNL     1      55.151  30.341  49.880  1.00  0.00     0.006 C 
BRANCH   5   6
ATOM      6  C   UNL     1      55.270  31.182  51.159  1.00  0.00     0.053 C 
BRANCH   6   7
ATOM      7  C   UNL     1      54.708  30.472  52.352  1.00  0.00     0.041 C 
ATOM      8  O   UNL     1      55.461  30.145  53.306  1.00  0.00    -0.550 OA
ATOM      9  O   UNL     1      53.360  30.141  52.394  1.00  0.00    -0.550 OA
ENDBRANCH   6   7
ENDBRANCH   5   6
ENDBRANCH   4   5
ENDBRANCH   3   4
ENDBRANCH   2   3
ENDBRANCH   1   2
BRANCH   1  10
ATOM     10  C   UNL     1      59.846  27.910  49.065  1.00  0.00     0.000 C 
BRANCH  10  11
ATOM     11  C   UNL     1      60.276  26.437  49.158  1.00  0.00    -0.000 C 
BRANCH  11  12
ATOM     12  C   UNL     1      59.100  25.468  48.964  1.00  0.00    -0.000 C 
BRANCH  12  13
ATOM     13  C   UNL     1      58.515  24.977  50.300  1.00  0.00    -0.000 C 
BRANCH  13  14
ATOM     14  C   UNL     1      56.992  25.179  50.397  1.00  0.00    -0.000 C 
BRANCH  14  15
ATOM     15  C   UNL     1      56.497  25.686  51.762  1.00  0.00    -0.003 C 
ATOM     16  C   UNL     1      57.616  25.816  52.794  1.00  0.00     0.004 C 
ENDBRANCH  14  15
ENDBRANCH  13  14
ENDBRANCH  12  13
ENDBRANCH  11  12
ENDBRANCH  10  11
ENDBRANCH   1  10
TORSDOF 12
ENDMDL
MODEL 8
REMARK VINA RESULT:    -2.675      3.278      5.402
REMARK INTER + INTRA:          -6.594
REMARK INTER:                  -4.481
REMARK INTRA:                  -2.113
REMARK UNBOUND:                -2.043
REMARK SMILES CCCCCCCCCCCCCC(=O)[O-]
REMARK SMILES IDX 8 1 9 2 10 3 11 4 12 5 13 6 14 7 15 8 16 9 7 10 6 11 5 12
REMARK SMILES IDX 4 13 3 14 2 15 1 16
REMARK H PARENT
REMARK Flexibility Score: inf
ROOT
ATOM      1  C   UNL     1      58.182  16.164  50.676  1.00  0.00     0.000 C 
ENDROOT
BRANCH   1   2
ATOM      2  C   UNL     1      58.453  17.332  49.707  1.00  0.00     0.000 C 
BRANCH   2   3
ATOM      3  C   UNL     1      57.343  18.402  49.648  1.00  0.00     0.000 C 
BRANCH   3   4
ATOM      4  C   UNL     1      56.237  18.253  50.710  1.00  0.00     0.000 C 
BRANCH   4   5
ATOM      5  C   UNL     1      56.446  19.085  51.992  1.00  0.00     0.006 C 
BRANCH   5   6
ATOM      6  C   UNL     1      56.240  18.303  53.298  1.00  0.00     0.053 C 
BRANCH   6   7
ATOM      7  C   UNL     1      54.797  18.250  53.698  1.00  0.00     0.041 C 
ATOM      8  O   UNL     1      54.350  17.252  54.320  1.00  0.00    -0.550 OA
ATOM      9  O   UNL     1      53.940  19.287  53.353  1.00  0.00    -0.550 OA
ENDBRANCH   6   7
ENDBRANCH   5   6
ENDBRANCH   4   5
ENDBRANCH   3   4
ENDBRANCH   2   3
ENDBRANCH   1   2
BRANCH   1  10
ATOM     10  C   UNL     1      59.318  15.875  51.673  1.00  0.00     0.000 C 
BRANCH  10  11
ATOM     11  C   UNL     1      60.326  17.032  51.780  1.00  0.00    -0.000 C 
BRANCH  11  12
ATOM     12  C   UNL     1      60.083  17.911  53.017  1.00  0.00    -0.000 C 
BRANCH  12  13
ATOM     13  C   UNL     1      59.983  19.405  52.667  1.00  0.00    -0.000 C 
BRANCH  13  14
ATOM     14  C   UNL     1      60.801  19.783  51.419  1.00  0.00    -0.000 C 
BRANCH  14  15
ATOM     15  C   UNL     1      60.124  20.808  50.492  1.00  0.00    -0.003 C 
ATOM     16  C   UNL     1      60.387  20.541  49.011  1.00  0.00     0.004 C 
ENDBRANCH  14  15
ENDBRANCH  13  14
ENDBRANCH  12  13
ENDBRANCH  11  12
ENDBRANCH  10  11
ENDBRANCH   1  10
TORSDOF 12
ENDMDL
MODEL 9
REMARK VINA RESULT:    -2.663      7.812     10.287
REMARK INTER + INTRA:          -6.574
REMARK INTER:                  -4.455
REMARK INTRA:                  -2.119
REMARK UNBOUND:                -2.043
REMARK SMILES CCCCCCCCCCCCCC(=O)[O-]
REMARK SMILES IDX 8 1 9 2 10 3 11 4 12 5 13 6 14 7 15 8 16 9 7 10 6 11 5 12
REMARK SMILES IDX 4 13 3 14 2 15 1 16
REMARK H PARENT
REMARK Flexibility Score: inf
ROOT
ATOM      1  C   UNL     1      60.244  28.541  50.808  1.00  0.00     0.000 C 
ENDROOT
BRANCH   1   2
ATOM      2  C   UNL     1      60.099  27.722  52.106  1.00  0.00     0.000 C 
BRANCH   2   3
ATOM      3  C   UNL     1      58.859  28.060  52.956  1.00  0.00     0.000 C 
BRANCH   3   4
ATOM      4  C   UNL     1      58.323  29.496  52.786  1.00  0.00     0.000 C 
BRANCH   4   5
ATOM      5  C   UNL     1      56.802  29.602  52.558  1.00  0.00     0.006 C 
BRANCH   5   6
ATOM      6  C   UNL     1      56.354  30.891  51.852  1.00  0.00     0.053 C 
BRANCH   6   7
ATOM      7  C   UNL     1      55.137  30.673  51.006  1.00  0.00     0.041 C 
ATOM      8  O   UNL     1      54.009  30.531  51.545  1.00  0.00    -0.550 OA
ATOM      9  O   UNL     1      55.255  30.594  49.625  1.00  0.00    -0.550 OA
ENDBRANCH   6   7
ENDBRANCH   5   6
ENDBRANCH   4   5
ENDBRANCH   3   4
ENDBRANCH   2   3
ENDBRANCH   1   2
BRANCH   1  10
ATOM     10  C   UNL     1      60.476  27.704  49.537  1.00  0.00     0.000 C 
BRANCH  10  11
ATOM     11  C   UNL     1      59.223  27.610  48.650  1.00  0.00    -0.000 C 
BRANCH  11  12
ATOM     12  C   UNL     1      58.017  28.343  49.256  1.00  0.00    -0.000 C 
BRANCH  12  13
ATOM     13  C   UNL     1      56.915  27.377  49.724  1.00  0.00    -0.000 C 
BRANCH  13  14
ATOM     14  C   UNL     1      57.313  25.897  49.572  1.00  0.00    -0.000 C 
BRANCH  14  15
ATOM     15  C   UNL     1      57.606  25.171  50.896  1.00  0.00    -0.003 C 
ATOM     16  C   UNL     1      58.907  24.370  50.863  1.00  0.00     0.004 C 
ENDBRANCH  14  15
ENDBRANCH  13  14
ENDBRANCH  12  13
ENDBRANCH  11  12
ENDBRANCH  10  11
ENDBRANCH   1  10
TORSDOF 12
ENDMDL
