MODEL 1
REMARK VINA RESULT:    -7.303      0.000      0.000
REMARK INTER + INTRA:          -8.868
REMARK INTER:                  -8.584
REMARK INTRA:                  -0.284
REMARK UNBOUND:                -0.284
REMARK SMILES O=c1cc(-c2ccc(O)c(O)c2)oc2cc(O)cc(O)c12
REMARK SMILES IDX 4 1 3 2 2 3 1 4 21 5 19 6 18 7 16 8 15 9 14 10 13 11 5 12
REMARK SMILES IDX 6 13 7 14 8 15 12 16 10 17 9 18 11 20 20 22 17 24
REMARK H PARENT 9 19 11 21 20 23 17 25
REMARK Flexibility Score: inf
ROOT
ATOM      1  C   UNL     1      45.644   8.071  19.160  1.00  0.00     0.138 A 
ATOM      2  C   UNL     1      44.964   8.945  18.300  1.00  0.00     0.100 A 
ATOM      3  C   UNL     1      45.043   8.755  16.919  1.00  0.00     0.197 A 
ATOM      4  O   UNL     1      44.468   9.589  16.172  1.00  0.00    -0.289 OA
ATOM      5  C   UNL     1      45.780   7.663  16.399  1.00  0.00     0.107 A 
ATOM      6  C   UNL     1      45.904   7.351  15.012  1.00  0.00     0.134 A 
ATOM      7  C   UNL     1      46.740   6.301  14.613  1.00  0.00     0.093 A 
ATOM      8  C   UNL     1      47.411   5.517  15.550  1.00  0.00     0.123 A 
ATOM      9  C   UNL     1      47.258   5.782  16.912  1.00  0.00     0.094 A 
ATOM     10  C   UNL     1      46.458   6.844  17.341  1.00  0.00     0.146 A 
ATOM     11  O   UNL     1      46.354   7.073  18.646  1.00  0.00    -0.456 OA
ENDROOT
BRANCH   1  12
ATOM     12  C   UNL     1      45.591   8.225  20.636  1.00  0.00     0.021 A 
ATOM     13  C   UNL     1      46.736   7.949  21.399  1.00  0.00     0.016 A 
ATOM     14  C   UNL     1      46.715   8.091  22.787  1.00  0.00     0.051 A 
ATOM     15  C   UNL     1      45.557   8.520  23.444  1.00  0.00     0.157 A 
ATOM     16  C   UNL     1      44.430   8.670  21.294  1.00  0.00     0.062 A 
ATOM     17  C   UNL     1      44.401   8.818  22.687  1.00  0.00     0.158 A 
BRANCH  15  18
ATOM     18  O   UNL     1      45.601   8.636  24.835  1.00  0.00    -0.504 OA
ATOM     19  H   UNL     1      45.252   7.935  25.471  1.00  0.00     0.293 HD
ENDBRANCH  15  18
BRANCH  17  20
ATOM     20  O   UNL     1      43.214   9.267  23.269  1.00  0.00    -0.504 OA
ATOM     21  H   UNL     1      42.626   9.987  22.873  1.00  0.00     0.293 HD
ENDBRANCH  17  20
ENDBRANCH   1  12
BRANCH   6  22
ATOM     22  O   UNL     1      45.215   8.018  13.994  1.00  0.00    -0.507 OA
ATOM     23  H   UNL     1      45.427   8.945  13.661  1.00  0.00     0.293 HD
ENDBRANCH   6  22
BRANCH   8  24
ATOM     24  O   UNL     1      48.223   4.472  15.117  1.00  0.00    -0.508 OA
ATOM     25  H   UNL     1      48.993   4.130  15.681  1.00  0.00     0.293 HD
ENDBRANCH   8  24
TORSDOF 5
ENDMDL
MODEL 2
REMARK VINA RESULT:    -6.888      1.553      2.095
REMARK INTER + INTRA:          -8.380
REMARK INTER:                  -8.110
REMARK INTRA:                  -0.270
REMARK UNBOUND:                -0.284
REMARK SMILES O=c1cc(-c2ccc(O)c(O)c2)oc2cc(O)cc(O)c12
REMARK SMILES IDX 4 1 3 2 2 3 1 4 21 5 19 6 18 7 16 8 15 9 14 10 13 11 5 12
REMARK SMILES IDX 6 13 7 14 8 15 12 16 10 17 9 18 11 20 20 22 17 24
REMARK H PARENT 9 19 11 21 20 23 17 25
REMARK Flexibility Score: inf
ROOT
ATOM      1  C   UNL     1      44.932   9.034  20.776  1.00  0.00     0.138 A 
ATOM      2  C   UNL     1      43.989   9.626  19.923  1.00  0.00     0.100 A 
ATOM      3  C   UNL     1      43.967   9.279  18.571  1.00  0.00     0.197 A 
ATOM      4  O   UNL     1      43.148   9.868  17.821  1.00  0.00    -0.289 OA
ATOM      5  C   UNL     1      44.873   8.307  18.079  1.00  0.00     0.107 A 
ATOM      6  C   UNL     1      44.921   7.850  16.728  1.00  0.00     0.134 A 
ATOM      7  C   UNL     1      45.926   6.955  16.337  1.00  0.00     0.093 A 
ATOM      8  C   UNL     1      46.847   6.459  17.259  1.00  0.00     0.123 A 
ATOM      9  C   UNL     1      46.779   6.861  18.594  1.00  0.00     0.094 A 
ATOM     10  C   UNL     1      45.810   7.778  19.007  1.00  0.00     0.146 A 
ATOM     11  O   UNL     1      45.791   8.148  20.283  1.00  0.00    -0.456 OA
ENDROOT
BRANCH   1  12
ATOM     12  C   UNL     1      44.997   9.364  22.222  1.00  0.00     0.021 A 
ATOM     13  C   UNL     1      46.196   9.854  22.765  1.00  0.00     0.016 A 
ATOM     14  C   UNL     1      46.282  10.177  24.119  1.00  0.00     0.051 A 
ATOM     15  C   UNL     1      45.174  10.030  24.961  1.00  0.00     0.157 A 
ATOM     16  C   UNL     1      43.878   9.230  23.065  1.00  0.00     0.062 A 
ATOM     17  C   UNL     1      43.955   9.555  24.425  1.00  0.00     0.158 A 
BRANCH  15  18
ATOM     18  O   UNL     1      45.328  10.367  26.307  1.00  0.00    -0.504 OA
ATOM     19  H   UNL     1      45.108  11.274  26.691  1.00  0.00     0.293 HD
ENDBRANCH  15  18
BRANCH  17  20
ATOM     20  O   UNL     1      42.803   9.398  25.199  1.00  0.00    -0.504 OA
ATOM     21  H   UNL     1      42.423   8.503  25.473  1.00  0.00     0.293 HD
ENDBRANCH  17  20
ENDBRANCH   1  12
BRANCH   6  22
ATOM     22  O   UNL     1      44.000   8.219  15.742  1.00  0.00    -0.507 OA
ATOM     23  H   UNL     1      43.963   9.118  15.291  1.00  0.00     0.293 HD
ENDBRANCH   6  22
BRANCH   8  24
ATOM     24  O   UNL     1      47.824   5.560  16.837  1.00  0.00    -0.508 OA
ATOM     25  H   UNL     1      48.183   4.839  17.453  1.00  0.00     0.293 HD
ENDBRANCH   8  24
TORSDOF 5
ENDMDL
MODEL 3
REMARK VINA RESULT:    -6.686      1.453      2.822
REMARK INTER + INTRA:          -8.142
REMARK INTER:                  -7.868
REMARK INTRA:                  -0.274
REMARK UNBOUND:                -0.284
REMARK SMILES O=c1cc(-c2ccc(O)c(O)c2)oc2cc(O)cc(O)c12
REMARK SMILES IDX 4 1 3 2 2 3 1 4 21 5 19 6 18 7 16 8 15 9 14 10 13 11 5 12
REMARK SMILES IDX 6 13 7 14 8 15 12 16 10 17 9 18 11 20 20 22 17 24
REMARK H PARENT 9 19 11 21 20 23 17 25
REMARK Flexibility Score: inf
ROOT
ATOM      1  C   UNL     1      46.050   8.134  19.855  1.00  0.00     0.138 A 
ATOM      2  C   UNL     1      46.528   6.906  19.376  1.00  0.00     0.100 A 
ATOM      3  C   UNL     1      46.750   6.739  18.007  1.00  0.00     0.197 A 
ATOM      4  O   UNL     1      47.125   5.609  17.602  1.00  0.00    -0.289 OA
ATOM      5  C   UNL     1      46.526   7.820  17.120  1.00  0.00     0.107 A 
ATOM      6  C   UNL     1      46.749   7.777  15.711  1.00  0.00     0.134 A 
ATOM      7  C   UNL     1      46.398   8.880  14.923  1.00  0.00     0.093 A 
ATOM      8  C   UNL     1      45.886  10.042  15.496  1.00  0.00     0.123 A 
ATOM      9  C   UNL     1      45.710  10.114  16.879  1.00  0.00     0.094 A 
ATOM     10  C   UNL     1      46.018   9.019  17.689  1.00  0.00     0.146 A 
ATOM     11  O   UNL     1      45.818   9.122  18.999  1.00  0.00    -0.456 OA
ENDROOT
BRANCH   1  12
ATOM     12  C   UNL     1      45.800   8.367  21.300  1.00  0.00     0.021 A 
ATOM     13  C   UNL     1      46.877   8.338  22.200  1.00  0.00     0.016 A 
ATOM     14  C   UNL     1      46.670   8.560  23.562  1.00  0.00     0.051 A 
ATOM     15  C   UNL     1      45.389   8.826  24.056  1.00  0.00     0.157 A 
ATOM     16  C   UNL     1      44.513   8.650  21.794  1.00  0.00     0.062 A 
ATOM     17  C   UNL     1      44.297   8.876  23.160  1.00  0.00     0.158 A 
BRANCH  15  18
ATOM     18  O   UNL     1      45.249   9.034  25.430  1.00  0.00    -0.504 OA
ATOM     19  H   UNL     1      44.732   8.423  26.044  1.00  0.00     0.293 HD
ENDBRANCH  15  18
BRANCH  17  20
ATOM     20  O   UNL     1      42.993   9.153  23.575  1.00  0.00    -0.504 OA
ATOM     21  H   UNL     1      42.723   9.287  24.540  1.00  0.00     0.293 HD
ENDBRANCH  17  20
ENDBRANCH   1  12
BRANCH   6  22
ATOM     22  O   UNL     1      47.331   6.695  15.043  1.00  0.00    -0.507 OA
ATOM     23  H   UNL     1      47.984   6.768  14.280  1.00  0.00     0.293 HD
ENDBRANCH   6  22
BRANCH   8  24
ATOM     24  O   UNL     1      45.562  11.125  14.682  1.00  0.00    -0.508 OA
ATOM     25  H   UNL     1      45.757  12.079  14.965  1.00  0.00     0.293 HD
ENDBRANCH   8  24
TORSDOF 5
ENDMDL
MODEL 4
REMARK VINA RESULT:    -6.653      1.688      2.945
REMARK INTER + INTRA:          -8.104
REMARK INTER:                  -7.797
REMARK INTRA:                  -0.306
REMARK UNBOUND:                -0.284
REMARK SMILES O=c1cc(-c2ccc(O)c(O)c2)oc2cc(O)cc(O)c12
REMARK SMILES IDX 4 1 3 2 2 3 1 4 21 5 19 6 18 7 16 8 15 9 14 10 13 11 5 12
REMARK SMILES IDX 6 13 7 14 8 15 12 16 10 17 9 18 11 20 20 22 17 24
REMARK H PARENT 9 19 11 21 20 23 17 25
REMARK Flexibility Score: inf
ROOT
ATOM      1  C   UNL     1      46.135   7.322  18.507  1.00  0.00     0.138 A 
ATOM      2  C   UNL     1      47.178   6.525  18.015  1.00  0.00     0.100 A 
ATOM      3  C   UNL     1      47.075   5.963  16.741  1.00  0.00     0.197 A 
ATOM      4  O   UNL     1      48.001   5.207  16.350  1.00  0.00    -0.289 OA
ATOM      5  C   UNL     1      45.935   6.230  15.944  1.00  0.00     0.107 A 
ATOM      6  C   UNL     1      45.735   5.738  14.618  1.00  0.00     0.134 A 
ATOM      7  C   UNL     1      44.523   5.990  13.964  1.00  0.00     0.093 A 
ATOM      8  C   UNL     1      43.527   6.760  14.563  1.00  0.00     0.123 A 
ATOM      9  C   UNL     1      43.731   7.288  15.839  1.00  0.00     0.094 A 
ATOM     10  C   UNL     1      44.916   7.026  16.532  1.00  0.00     0.146 A 
ATOM     11  O   UNL     1      45.063   7.532  17.751  1.00  0.00    -0.456 OA
ENDROOT
BRANCH   1  12
ATOM     12  C   UNL     1      46.194   7.948  19.852  1.00  0.00     0.021 A 
ATOM     13  C   UNL     1      46.929   7.322  20.872  1.00  0.00     0.016 A 
ATOM     14  C   UNL     1      47.006   7.892  22.143  1.00  0.00     0.051 A 
ATOM     15  C   UNL     1      46.362   9.101  22.425  1.00  0.00     0.157 A 
ATOM     16  C   UNL     1      45.558   9.172  20.130  1.00  0.00     0.062 A 
ATOM     17  C   UNL     1      45.632   9.752  21.403  1.00  0.00     0.158 A 
BRANCH  15  18
ATOM     18  O   UNL     1      46.474   9.615  23.718  1.00  0.00    -0.504 OA
ATOM     19  H   UNL     1      46.698  10.577  23.926  1.00  0.00     0.293 HD
ENDBRANCH  15  18
BRANCH  17  20
ATOM     20  O   UNL     1      44.978  10.969  21.603  1.00  0.00    -0.504 OA
ATOM     21  H   UNL     1      45.224  11.828  21.131  1.00  0.00     0.293 HD
ENDBRANCH  17  20
ENDBRANCH   1  12
BRANCH   6  22
ATOM     22  O   UNL     1      46.696   5.025  13.894  1.00  0.00    -0.507 OA
ATOM     23  H   UNL     1      46.497   4.358  13.167  1.00  0.00     0.293 HD
ENDBRANCH   6  22
BRANCH   8  24
ATOM     24  O   UNL     1      42.339   7.002  13.877  1.00  0.00    -0.508 OA
ATOM     25  H   UNL     1      42.281   7.705  13.148  1.00  0.00     0.293 HD
ENDBRANCH   8  24
TORSDOF 5
ENDMDL
MODEL 5
REMARK VINA RESULT:    -6.598      1.478      7.438
REMARK INTER + INTRA:          -8.040
REMARK INTER:                  -7.743
REMARK INTRA:                  -0.297
REMARK UNBOUND:                -0.284
REMARK SMILES O=c1cc(-c2ccc(O)c(O)c2)oc2cc(O)cc(O)c12
REMARK SMILES IDX 4 1 3 2 2 3 1 4 21 5 19 6 18 7 16 8 15 9 14 10 13 11 5 12
REMARK SMILES IDX 6 13 7 14 8 15 12 16 10 17 9 18 11 20 20 22 17 24
REMARK H PARENT 9 19 11 21 20 23 17 25
REMARK Flexibility Score: inf
ROOT
ATOM      1  C   UNL     1      46.061   7.549  19.303  1.00  0.00     0.138 A 
ATOM      2  C   UNL     1      47.037   7.169  20.235  1.00  0.00     0.100 A 
ATOM      3  C   UNL     1      46.963   7.646  21.545  1.00  0.00     0.197 A 
ATOM      4  O   UNL     1      47.883   7.332  22.343  1.00  0.00    -0.289 OA
ATOM      5  C   UNL     1      45.885   8.480  21.931  1.00  0.00     0.107 A 
ATOM      6  C   UNL     1      45.687   8.999  23.246  1.00  0.00     0.134 A 
ATOM      7  C   UNL     1      44.636   9.893  23.484  1.00  0.00     0.093 A 
ATOM      8  C   UNL     1      43.744  10.243  22.472  1.00  0.00     0.123 A 
ATOM      9  C   UNL     1      43.898   9.703  21.194  1.00  0.00     0.094 A 
ATOM     10  C   UNL     1      44.956   8.835  20.916  1.00  0.00     0.146 A 
ATOM     11  O   UNL     1      45.078   8.357  19.682  1.00  0.00    -0.456 OA
ENDROOT
BRANCH   1  12
ATOM     12  C   UNL     1      46.090   7.068  17.898  1.00  0.00     0.021 A 
ATOM     13  C   UNL     1      45.041   7.411  17.031  1.00  0.00     0.016 A 
ATOM     14  C   UNL     1      45.046   6.978  15.704  1.00  0.00     0.051 A 
ATOM     15  C   UNL     1      46.101   6.203  15.210  1.00  0.00     0.157 A 
ATOM     16  C   UNL     1      47.158   6.301  17.398  1.00  0.00     0.062 A 
ATOM     17  C   UNL     1      47.173   5.864  16.067  1.00  0.00     0.158 A 
BRANCH  15  18
ATOM     18  O   UNL     1      46.043   5.797  13.875  1.00  0.00    -0.504 OA
ATOM     19  H   UNL     1      46.475   6.299  13.114  1.00  0.00     0.293 HD
ENDBRANCH  15  18
BRANCH  17  20
ATOM     20  O   UNL     1      48.268   5.109  15.642  1.00  0.00    -0.504 OA
ATOM     21  H   UNL     1      48.906   4.636  16.267  1.00  0.00     0.293 HD
ENDBRANCH  17  20
ENDBRANCH   1  12
BRANCH   6  22
ATOM     22  O   UNL     1      46.472   8.652  24.351  1.00  0.00    -0.507 OA
ATOM     23  H   UNL     1      47.478   8.609  24.357  1.00  0.00     0.293 HD
ENDBRANCH   6  22
BRANCH   8  24
ATOM     24  O   UNL     1      42.702  11.125  22.749  1.00  0.00    -0.508 OA
ATOM     25  H   UNL     1      42.628  12.023  22.283  1.00  0.00     0.293 HD
ENDBRANCH   8  24
TORSDOF 5
ENDMDL
MODEL 6
REMARK VINA RESULT:    -6.554      1.460      6.864
REMARK INTER + INTRA:          -7.987
REMARK INTER:                  -7.672
REMARK INTRA:                  -0.316
REMARK UNBOUND:                -0.284
REMARK SMILES O=c1cc(-c2ccc(O)c(O)c2)oc2cc(O)cc(O)c12
REMARK SMILES IDX 4 1 3 2 2 3 1 4 21 5 19 6 18 7 16 8 15 9 14 10 13 11 5 12
REMARK SMILES IDX 6 13 7 14 8 15 12 16 10 17 9 18 11 20 20 22 17 24
REMARK H PARENT 9 19 11 21 20 23 17 25
REMARK Flexibility Score: inf
ROOT
ATOM      1  C   UNL     1      45.497   8.057  18.382  1.00  0.00     0.138 A 
ATOM      2  C   UNL     1      44.456   8.978  18.203  1.00  0.00     0.100 A 
ATOM      3  C   UNL     1      43.931   9.651  19.309  1.00  0.00     0.197 A 
ATOM      4  O   UNL     1      42.961  10.429  19.123  1.00  0.00    -0.289 OA
ATOM      5  C   UNL     1      44.477   9.423  20.595  1.00  0.00     0.107 A 
ATOM      6  C   UNL     1      44.046  10.075  21.790  1.00  0.00     0.134 A 
ATOM      7  C   UNL     1      44.597   9.696  23.020  1.00  0.00     0.093 A 
ATOM      8  C   UNL     1      45.600   8.731  23.094  1.00  0.00     0.123 A 
ATOM      9  C   UNL     1      46.065   8.123  21.927  1.00  0.00     0.094 A 
ATOM     10  C   UNL     1      45.512   8.454  20.688  1.00  0.00     0.146 A 
ATOM     11  O   UNL     1      45.971   7.838  19.604  1.00  0.00    -0.456 OA
ENDROOT
BRANCH   1  12
ATOM     12  C   UNL     1      46.095   7.317  17.241  1.00  0.00     0.021 A 
ATOM     13  C   UNL     1      45.837   7.747  15.930  1.00  0.00     0.016 A 
ATOM     14  C   UNL     1      46.391   7.074  14.841  1.00  0.00     0.051 A 
ATOM     15  C   UNL     1      47.221   5.965  15.033  1.00  0.00     0.157 A 
ATOM     16  C   UNL     1      46.941   6.210  17.437  1.00  0.00     0.062 A 
ATOM     17  C   UNL     1      47.504   5.530  16.349  1.00  0.00     0.158 A 
BRANCH  15  18
ATOM     18  O   UNL     1      47.739   5.333  13.901  1.00  0.00    -0.504 OA
ATOM     19  H   UNL     1      47.231   4.656  13.350  1.00  0.00     0.293 HD
ENDBRANCH  15  18
BRANCH  17  20
ATOM     20  O   UNL     1      48.336   4.442  16.620  1.00  0.00    -0.504 OA
ATOM     21  H   UNL     1      48.393   3.985  17.519  1.00  0.00     0.293 HD
ENDBRANCH  17  20
ENDBRANCH   1  12
BRANCH   6  22
ATOM     22  O   UNL     1      43.106  11.110  21.822  1.00  0.00    -0.507 OA
ATOM     23  H   UNL     1      43.126  11.930  21.238  1.00  0.00     0.293 HD
ENDBRANCH   6  22
BRANCH   8  24
ATOM     24  O   UNL     1      46.135   8.390  24.335  1.00  0.00    -0.508 OA
ATOM     25  H   UNL     1      46.101   9.028  25.121  1.00  0.00     0.293 HD
ENDBRANCH   8  24
TORSDOF 5
ENDMDL
MODEL 7
REMARK VINA RESULT:    -6.436      1.839      1.891
REMARK INTER + INTRA:          -7.849
REMARK INTER:                  -7.582
REMARK INTRA:                  -0.267
REMARK UNBOUND:                -0.284
REMARK SMILES O=c1cc(-c2ccc(O)c(O)c2)oc2cc(O)cc(O)c12
REMARK SMILES IDX 4 1 3 2 2 3 1 4 21 5 19 6 18 7 16 8 15 9 14 10 13 11 5 12
REMARK SMILES IDX 6 13 7 14 8 15 12 16 10 17 9 18 11 20 20 22 17 24
REMARK H PARENT 9 19 11 21 20 23 17 25
REMARK Flexibility Score: inf
ROOT
ATOM      1  C   UNL     1      45.474   8.730  19.024  1.00  0.00     0.138 A 
ATOM      2  C   UNL     1      46.120   9.789  18.371  1.00  0.00     0.100 A 
ATOM      3  C   UNL     1      46.154   9.821  16.975  1.00  0.00     0.197 A 
ATOM      4  O   UNL     1      46.789  10.754  16.419  1.00  0.00    -0.289 OA
ATOM      5  C   UNL     1      45.507   8.804  16.232  1.00  0.00     0.107 A 
ATOM      6  C   UNL     1      45.447   8.751  14.806  1.00  0.00     0.134 A 
ATOM      7  C   UNL     1      44.861   7.643  14.182  1.00  0.00     0.093 A 
ATOM      8  C   UNL     1      44.284   6.616  14.927  1.00  0.00     0.123 A 
ATOM      9  C   UNL     1      44.292   6.682  16.322  1.00  0.00     0.094 A 
ATOM     10  C   UNL     1      44.899   7.757  16.975  1.00  0.00     0.146 A 
ATOM     11  O   UNL     1      44.901   7.772  18.304  1.00  0.00    -0.456 OA
ENDROOT
BRANCH   1  12
ATOM     12  C   UNL     1      45.404   8.649  20.505  1.00  0.00     0.021 A 
ATOM     13  C   UNL     1      46.524   8.203  21.225  1.00  0.00     0.016 A 
ATOM     14  C   UNL     1      46.488   8.123  22.617  1.00  0.00     0.051 A 
ATOM     15  C   UNL     1      45.340   8.494  23.324  1.00  0.00     0.157 A 
ATOM     16  C   UNL     1      44.254   9.036  21.217  1.00  0.00     0.062 A 
ATOM     17  C   UNL     1      44.209   8.961  22.615  1.00  0.00     0.158 A 
BRANCH  15  18
ATOM     18  O   UNL     1      45.366   8.385  24.716  1.00  0.00    -0.504 OA
ATOM     19  H   UNL     1      45.566   7.529  25.212  1.00  0.00     0.293 HD
ENDBRANCH  15  18
BRANCH  17  20
ATOM     20  O   UNL     1      43.034   9.365  23.252  1.00  0.00    -0.504 OA
ATOM     21  H   UNL     1      42.995  10.077  23.967  1.00  0.00     0.293 HD
ENDBRANCH  17  20
ENDBRANCH   1  12
BRANCH   6  22
ATOM     22  O   UNL     1      45.921   9.761  13.964  1.00  0.00    -0.507 OA
ATOM     23  H   UNL     1      46.493   9.615  13.148  1.00  0.00     0.293 HD
ENDBRANCH   6  22
BRANCH   8  24
ATOM     24  O   UNL     1      43.697   5.536  14.271  1.00  0.00    -0.508 OA
ATOM     25  H   UNL     1      44.234   4.934  13.656  1.00  0.00     0.293 HD
ENDBRANCH   8  24
TORSDOF 5
ENDMDL
MODEL 8
REMARK VINA RESULT:    -6.324      1.962      7.714
REMARK INTER + INTRA:          -7.717
REMARK INTER:                  -7.434
REMARK INTRA:                  -0.283
REMARK UNBOUND:                -0.284
REMARK SMILES O=c1cc(-c2ccc(O)c(O)c2)oc2cc(O)cc(O)c12
REMARK SMILES IDX 4 1 3 2 2 3 1 4 21 5 19 6 18 7 16 8 15 9 14 10 13 11 5 12
REMARK SMILES IDX 6 13 7 14 8 15 12 16 10 17 9 18 11 20 20 22 17 24
REMARK H PARENT 9 19 11 21 20 23 17 25
REMARK Flexibility Score: inf
ROOT
ATOM      1  C   UNL     1      45.515   8.878  21.064  1.00  0.00     0.138 A 
ATOM      2  C   UNL     1      46.600   9.595  21.585  1.00  0.00     0.100 A 
ATOM      3  C   UNL     1      46.513  10.148  22.864  1.00  0.00     0.197 A 
ATOM      4  O   UNL     1      47.481  10.833  23.281  1.00  0.00    -0.289 OA
ATOM      5  C   UNL     1      45.343   9.950  23.638  1.00  0.00     0.107 A 
ATOM      6  C   UNL     1      45.153  10.437  24.966  1.00  0.00     0.134 A 
ATOM      7  C   UNL     1      43.915  10.261  25.595  1.00  0.00     0.093 A 
ATOM      8  C   UNL     1      42.880   9.569  24.969  1.00  0.00     0.123 A 
ATOM      9  C   UNL     1      43.071   9.044  23.689  1.00  0.00     0.094 A 
ATOM     10  C   UNL     1      44.282   9.232  23.021  1.00  0.00     0.146 A 
ATOM     11  O   UNL     1      44.417   8.733  21.798  1.00  0.00    -0.456 OA
ENDROOT
BRANCH   1  12
ATOM     12  C   UNL     1      45.555   8.266  19.711  1.00  0.00     0.021 A 
ATOM     13  C   UNL     1      46.585   7.367  19.392  1.00  0.00     0.016 A 
ATOM     14  C   UNL     1      46.643   6.774  18.130  1.00  0.00     0.051 A 
ATOM     15  C   UNL     1      45.673   7.055  17.163  1.00  0.00     0.157 A 
ATOM     16  C   UNL     1      44.570   8.538  18.744  1.00  0.00     0.062 A 
ATOM     17  C   UNL     1      44.619   7.945  17.476  1.00  0.00     0.158 A 
BRANCH  15  18
ATOM     18  O   UNL     1      45.791   6.432  15.919  1.00  0.00    -0.504 OA
ATOM     19  H   UNL     1      45.742   5.433  15.780  1.00  0.00     0.293 HD
ENDBRANCH  15  18
BRANCH  17  20
ATOM     20  O   UNL     1      43.605   8.261  16.569  1.00  0.00    -0.504 OA
ATOM     21  H   UNL     1      43.316   9.204  16.351  1.00  0.00     0.293 HD
ENDBRANCH  17  20
ENDBRANCH   1  12
BRANCH   6  22
ATOM     22  O   UNL     1      46.147  11.073  25.717  1.00  0.00    -0.507 OA
ATOM     23  H   UNL     1      47.068  10.704  25.890  1.00  0.00     0.293 HD
ENDBRANCH   6  22
BRANCH   8  24
ATOM     24  O   UNL     1      41.666   9.401  25.631  1.00  0.00    -0.508 OA
ATOM     25  H   UNL     1      41.532   8.664  26.315  1.00  0.00     0.293 HD
ENDBRANCH   8  24
TORSDOF 5
ENDMDL
MODEL 9
REMARK VINA RESULT:    -5.079      1.904      3.848
REMARK INTER + INTRA:          -6.253
REMARK INTER:                  -5.974
REMARK INTRA:                  -0.279
REMARK UNBOUND:                -0.284
REMARK SMILES O=c1cc(-c2ccc(O)c(O)c2)oc2cc(O)cc(O)c12
REMARK SMILES IDX 4 1 3 2 2 3 1 4 21 5 19 6 18 7 16 8 15 9 14 10 13 11 5 12
REMARK SMILES IDX 6 13 7 14 8 15 12 16 10 17 9 18 11 20 20 22 17 24
REMARK H PARENT 9 19 11 21 20 23 17 25
REMARK Flexibility Score: inf
ROOT
ATOM      1  C   UNL     1      46.068   8.572  21.856  1.00  0.00     0.138 A 
ATOM      2  C   UNL     1      46.550   7.263  21.719  1.00  0.00     0.100 A 
ATOM      3  C   UNL     1      46.739   6.727  20.444  1.00  0.00     0.197 A 
ATOM      4  O   UNL     1      47.120   5.531  20.355  1.00  0.00    -0.289 OA
ATOM      5  C   UNL     1      46.476   7.520  19.301  1.00  0.00     0.107 A 
ATOM      6  C   UNL     1      46.664   7.091  17.952  1.00  0.00     0.134 A 
ATOM      7  C   UNL     1      46.277   7.932  16.901  1.00  0.00     0.093 A 
ATOM      8  C   UNL     1      45.763   9.204  17.147  1.00  0.00     0.123 A 
ATOM      9  C   UNL     1      45.622   9.653  18.461  1.00  0.00     0.094 A 
ATOM     10  C   UNL     1      45.966   8.826  19.532  1.00  0.00     0.146 A 
ATOM     11  O   UNL     1      45.799   9.285  20.768  1.00  0.00    -0.456 OA
ENDROOT
BRANCH   1  12
ATOM     12  C   UNL     1      45.852   9.193  23.188  1.00  0.00     0.021 A 
ATOM     13  C   UNL     1      46.267  10.516  23.407  1.00  0.00     0.016 A 
ATOM     14  C   UNL     1      46.070  11.125  24.647  1.00  0.00     0.051 A 
ATOM     15  C   UNL     1      45.448  10.434  25.692  1.00  0.00     0.157 A 
ATOM     16  C   UNL     1      45.212   8.502  24.234  1.00  0.00     0.062 A 
ATOM     17  C   UNL     1      45.009   9.107  25.481  1.00  0.00     0.158 A 
BRANCH  15  18
ATOM     18  O   UNL     1      45.286  11.099  26.909  1.00  0.00    -0.504 OA
ATOM     19  H   UNL     1      46.051  11.397  27.495  1.00  0.00     0.293 HD
ENDBRANCH  15  18
BRANCH  17  20
ATOM     20  O   UNL     1      44.364   8.360  26.469  1.00  0.00    -0.504 OA
ATOM     21  H   UNL     1      43.989   8.753  27.321  1.00  0.00     0.293 HD
ENDBRANCH  17  20
ENDBRANCH   1  12
BRANCH   6  22
ATOM     22  O   UNL     1      47.244   5.871  17.591  1.00  0.00    -0.507 OA
ATOM     23  H   UNL     1      46.752   5.094  17.180  1.00  0.00     0.293 HD
ENDBRANCH   6  22
BRANCH   8  24
ATOM     24  O   UNL     1      45.402  10.018  16.076  1.00  0.00    -0.508 OA
ATOM     25  H   UNL     1      44.890  10.882  16.215  1.00  0.00     0.293 HD
ENDBRANCH   8  24
TORSDOF 5
ENDMDL
