MODEL 1
REMARK VINA RESULT:    -6.250      0.000      0.000
REMARK INTER + INTRA:         -10.176
REMARK INTER:                  -8.807
REMARK INTRA:                  -1.369
REMARK UNBOUND:                -1.369
REMARK SMILES C[C@H](CO)CCC(=O)[C@@H](C)[C@H]1C(=O)C[C@H]2[C@@H]3CC=C4C[C@@H](O)CC[C@@]4(C)[C@@H]3CC[C@@]12C
REMARK SMILES IDX 6 1 5 2 2 3 1 4 3 5 4 6 7 8 8 9 9 10 10 11 11 12 12 13 30 14
REMARK SMILES IDX 13 15 14 16 15 17 29 18 31 19 16 20 28 21 27 22 17 23 25 24
REMARK SMILES IDX 18 25 19 26 24 27 26 28 20 29 23 30 21 31 22 32
REMARK H PARENT 4 7 22 33
REMARK Flexibility Score: inf
ROOT
ATOM      1  C   UNL     1     174.693 177.907 153.268  1.00  0.00     0.076 C 
ENDROOT
BRANCH   1   2
ATOM      2  C   UNL     1     175.601 176.762 152.792  1.00  0.00     0.013 C 
BRANCH   2   3
ATOM      3  C   UNL     1     175.550 176.476 151.270  1.00  0.00     0.012 C 
ATOM      4  C   UNL     1     174.669 177.478 150.508  1.00  0.00     0.010 C 
BRANCH   3   5
ATOM      5  C   UNL     1     175.192 175.016 150.930  1.00  0.00     0.159 C 
BRANCH   5   6
ATOM      6  O   UNL     1     175.459 174.160 152.007  1.00  0.00    -0.396 OA
ATOM      7  H   UNL     1     175.623 174.745 152.791  1.00  0.00     0.210 HD
ENDBRANCH   5   6
ENDBRANCH   3   5
ENDBRANCH   2   3
ENDBRANCH   1   2
BRANCH   1   8
ATOM      8  C   UNL     1     173.573 177.384 154.132  1.00  0.00     0.136 C 
ATOM      9  O   UNL     1     173.124 178.103 155.012  1.00  0.00    -0.299 OA
BRANCH   8  10
ATOM     10  C   UNL     1     173.043 175.974 153.955  1.00  0.00     0.064 C 
ATOM     11  C   UNL     1     172.460 175.442 155.278  1.00  0.00     0.017 C 
BRANCH  10  12
ATOM     12  C   UNL     1     172.161 175.779 152.667  1.00  0.00     0.072 C 
ATOM     13  C   UNL     1     171.794 174.348 152.435  1.00  0.00     0.137 C 
ATOM     14  C   UNL     1     170.804 176.547 152.446  1.00  0.00    -0.019 C 
ATOM     15  O   UNL     1     172.555 173.413 152.633  1.00  0.00    -0.299 OA
ATOM     16  C   UNL     1     170.443 174.166 151.863  1.00  0.00     0.080 C 
ATOM     17  C   UNL     1     170.027 175.591 151.475  1.00  0.00     0.007 C 
ATOM     18  C   UNL     1     169.998 176.732 153.762  1.00  0.00     0.008 C 
ATOM     19  C   UNL     1     171.088 177.920 151.780  1.00  0.00     0.012 C 
ATOM     20  C   UNL     1     168.476 175.747 151.393  1.00  0.00     0.001 C 
ATOM     21  C   UNL     1     168.514 177.062 153.553  1.00  0.00     0.005 C 
ATOM     22  C   UNL     1     167.802 175.925 152.776  1.00  0.00     0.003 C 
ATOM     23  C   UNL     1     168.075 176.887 150.444  1.00  0.00     0.031 C 
ATOM     24  C   UNL     1     166.218 176.039 152.654  1.00  0.00    -0.008 C 
ATOM     25  C   UNL     1     166.589 177.015 150.341  1.00  0.00    -0.027 C 
ATOM     26  C   UNL     1     165.749 176.703 151.349  1.00  0.00    -0.065 C 
ATOM     27  C   UNL     1     165.623 174.592 152.657  1.00  0.00     0.014 C 
ATOM     28  C   UNL     1     165.630 176.816 153.863  1.00  0.00     0.016 C 
ATOM     29  C   UNL     1     164.260 176.705 151.063  1.00  0.00     0.063 C 
ATOM     30  C   UNL     1     164.109 174.526 152.349  1.00  0.00     0.033 C 
ATOM     31  C   UNL     1     163.740 175.259 151.048  1.00  0.00     0.118 C 
BRANCH  31  32
ATOM     32  O   UNL     1     164.274 174.560 149.951  1.00  0.00    -0.393 OA
ATOM     33  H   UNL     1     164.261 173.598 150.189  1.00  0.00     0.210 HD
ENDBRANCH  31  32
ENDBRANCH  10  12
ENDBRANCH   8  10
ENDBRANCH   1   8
TORSDOF 8
ENDMDL
MODEL 2
REMARK VINA RESULT:    -6.204      4.387      9.347
REMARK INTER + INTRA:         -10.112
REMARK INTER:                  -9.361
REMARK INTRA:                  -0.751
REMARK UNBOUND:                -1.369
REMARK SMILES C[C@H](CO)CCC(=O)[C@@H](C)[C@H]1C(=O)C[C@H]2[C@@H]3CC=C4C[C@@H](O)CC[C@@]4(C)[C@@H]3CC[C@@]12C
REMARK SMILES IDX 6 1 5 2 2 3 1 4 3 5 4 6 7 8 8 9 9 10 10 11 11 12 12 13 30 14
REMARK SMILES IDX 13 15 14 16 15 17 29 18 31 19 16 20 28 21 27 22 17 23 25 24
REMARK SMILES IDX 18 25 19 26 24 27 26 28 20 29 23 30 21 31 22 32
REMARK H PARENT 4 7 22 33
REMARK Flexibility Score: inf
ROOT
ATOM      1  C   UNL     1     172.334 176.841 151.805  1.00  0.00     0.076 C 
ENDROOT
BRANCH   1   2
ATOM      2  C   UNL     1     171.011 177.622 151.855  1.00  0.00     0.013 C 
BRANCH   2   3
ATOM      3  C   UNL     1     169.748 176.754 152.085  1.00  0.00     0.012 C 
ATOM      4  C   UNL     1     168.738 176.861 150.933  1.00  0.00     0.010 C 
BRANCH   3   5
ATOM      5  C   UNL     1     169.086 176.984 153.458  1.00  0.00     0.159 C 
BRANCH   5   6
ATOM      6  O   UNL     1     170.038 177.022 154.485  1.00  0.00    -0.396 OA
ATOM      7  H   UNL     1     170.916 176.852 154.054  1.00  0.00     0.210 HD
ENDBRANCH   5   6
ENDBRANCH   3   5
ENDBRANCH   2   3
ENDBRANCH   1   2
BRANCH   1   8
ATOM      8  C   UNL     1     173.221 177.207 152.969  1.00  0.00     0.136 C 
ATOM      9  O   UNL     1     172.847 178.074 153.743  1.00  0.00    -0.299 OA
BRANCH   8  10
ATOM     10  C   UNL     1     174.578 176.555 153.151  1.00  0.00     0.064 C 
ATOM     11  C   UNL     1     175.645 177.610 153.503  1.00  0.00     0.017 C 
BRANCH  10  12
ATOM     12  C   UNL     1     174.550 175.258 154.041  1.00  0.00     0.072 C 
ATOM     13  C   UNL     1     175.859 174.534 154.040  1.00  0.00     0.137 C 
ATOM     14  C   UNL     1     174.146 175.283 155.562  1.00  0.00    -0.019 C 
ATOM     15  O   UNL     1     176.565 174.414 153.050  1.00  0.00    -0.299 OA
ATOM     16  C   UNL     1     176.189 173.900 155.334  1.00  0.00     0.080 C 
ATOM     17  C   UNL     1     174.884 174.021 156.132  1.00  0.00     0.007 C 
ATOM     18  C   UNL     1     174.643 176.560 156.295  1.00  0.00     0.008 C 
ATOM     19  C   UNL     1     172.605 175.143 155.692  1.00  0.00     0.012 C 
ATOM     20  C   UNL     1     175.130 173.959 157.671  1.00  0.00     0.001 C 
ATOM     21  C   UNL     1     174.671 176.441 157.825  1.00  0.00     0.005 C 
ATOM     22  C   UNL     1     175.621 175.300 158.270  1.00  0.00     0.003 C 
ATOM     23  C   UNL     1     173.886 173.455 158.420  1.00  0.00     0.031 C 
ATOM     24  C   UNL     1     175.900 175.185 159.834  1.00  0.00    -0.008 C 
ATOM     25  C   UNL     1     174.132 173.366 159.891  1.00  0.00    -0.027 C 
ATOM     26  C   UNL     1     174.982 174.181 160.550  1.00  0.00    -0.065 C 
ATOM     27  C   UNL     1     177.364 174.670 160.033  1.00  0.00     0.014 C 
ATOM     28  C   UNL     1     175.769 176.573 160.518  1.00  0.00     0.016 C 
ATOM     29  C   UNL     1     175.280 173.876 162.004  1.00  0.00     0.063 C 
ATOM     30  C   UNL     1     177.723 174.320 161.495  1.00  0.00     0.033 C 
ATOM     31  C   UNL     1     176.717 173.346 162.131  1.00  0.00     0.118 C 
BRANCH  31  32
ATOM     32  O   UNL     1     176.830 172.088 161.513  1.00  0.00    -0.393 OA
ATOM     33  H   UNL     1     176.022 171.973 160.949  1.00  0.00     0.210 HD
ENDBRANCH  31  32
ENDBRANCH  10  12
ENDBRANCH   8  10
ENDBRANCH   1   8
TORSDOF 8
ENDMDL
MODEL 3
REMARK VINA RESULT:    -6.128     10.885     14.007
REMARK INTER + INTRA:         -10.004
REMARK INTER:                  -9.098
REMARK INTRA:                  -0.906
REMARK UNBOUND:                -1.369
REMARK SMILES C[C@H](CO)CCC(=O)[C@@H](C)[C@H]1C(=O)C[C@H]2[C@@H]3CC=C4C[C@@H](O)CC[C@@]4(C)[C@@H]3CC[C@@]12C
REMARK SMILES IDX 6 1 5 2 2 3 1 4 3 5 4 6 7 8 8 9 9 10 10 11 11 12 12 13 30 14
REMARK SMILES IDX 13 15 14 16 15 17 29 18 31 19 16 20 28 21 27 22 17 23 25 24
REMARK SMILES IDX 18 25 19 26 24 27 26 28 20 29 23 30 21 31 22 32
REMARK H PARENT 4 7 22 33
REMARK Flexibility Score: inf
ROOT
ATOM      1  C   UNL     1     174.826 161.549 155.329  1.00  0.00     0.076 C 
ENDROOT
BRANCH   1   2
ATOM      2  C   UNL     1     176.170 161.515 156.075  1.00  0.00     0.013 C 
BRANCH   2   3
ATOM      3  C   UNL     1     176.235 160.522 157.261  1.00  0.00     0.012 C 
ATOM      4  C   UNL     1     176.189 161.225 158.627  1.00  0.00     0.010 C 
BRANCH   3   5
ATOM      5  C   UNL     1     177.405 159.523 157.164  1.00  0.00     0.159 C 
BRANCH   5   6
ATOM      6  O   UNL     1     177.259 158.669 156.063  1.00  0.00    -0.396 OA
ATOM      7  H   UNL     1     176.640 157.949 156.353  1.00  0.00     0.210 HD
ENDBRANCH   5   6
ENDBRANCH   3   5
ENDBRANCH   2   3
ENDBRANCH   1   2
BRANCH   1   8
ATOM      8  C   UNL     1     174.958 160.950 153.951  1.00  0.00     0.136 C 
ATOM      9  O   UNL     1     175.647 159.951 153.808  1.00  0.00    -0.299 OA
BRANCH   8  10
ATOM     10  C   UNL     1     174.295 161.599 152.751  1.00  0.00     0.064 C 
ATOM     11  C   UNL     1     172.910 162.155 153.132  1.00  0.00     0.017 C 
BRANCH  10  12
ATOM     12  C   UNL     1     175.241 162.558 151.939  1.00  0.00     0.072 C 
ATOM     13  C   UNL     1     174.649 162.975 150.631  1.00  0.00     0.137 C 
ATOM     14  C   UNL     1     175.796 163.905 152.537  1.00  0.00    -0.019 C 
ATOM     15  O   UNL     1     174.003 162.227 149.912  1.00  0.00    -0.299 OA
ATOM     16  C   UNL     1     174.985 164.360 150.240  1.00  0.00     0.080 C 
ATOM     17  C   UNL     1     176.068 164.761 151.250  1.00  0.00     0.007 C 
ATOM     18  C   UNL     1     174.764 164.630 153.444  1.00  0.00     0.008 C 
ATOM     19  C   UNL     1     177.109 163.625 153.317  1.00  0.00     0.012 C 
ATOM     20  C   UNL     1     176.168 166.309 151.418  1.00  0.00     0.001 C 
ATOM     21  C   UNL     1     175.067 166.115 153.687  1.00  0.00     0.005 C 
ATOM     22  C   UNL     1     175.080 166.898 152.350  1.00  0.00     0.003 C 
ATOM     23  C   UNL     1     177.569 166.735 151.886  1.00  0.00     0.031 C 
ATOM     24  C   UNL     1     175.190 168.483 152.463  1.00  0.00    -0.008 C 
ATOM     25  C   UNL     1     177.674 168.220 152.016  1.00  0.00    -0.027 C 
ATOM     26  C   UNL     1     176.629 169.009 152.342  1.00  0.00    -0.065 C 
ATOM     27  C   UNL     1     174.384 169.115 151.280  1.00  0.00     0.014 C 
ATOM     28  C   UNL     1     174.575 168.981 153.799  1.00  0.00     0.016 C 
ATOM     29  C   UNL     1     176.820 170.511 152.267  1.00  0.00     0.063 C 
ATOM     30  C   UNL     1     174.555 170.644 151.137  1.00  0.00     0.033 C 
ATOM     31  C   UNL     1     176.032 171.068 151.071  1.00  0.00     0.118 C 
BRANCH  31  32
ATOM     32  O   UNL     1     176.594 170.616 149.864  1.00  0.00    -0.393 OA
ATOM     33  H   UNL     1     176.473 171.343 149.201  1.00  0.00     0.210 HD
ENDBRANCH  31  32
ENDBRANCH  10  12
ENDBRANCH   8  10
ENDBRANCH   1   8
TORSDOF 8
ENDMDL
MODEL 4
REMARK VINA RESULT:    -6.000      1.988      8.781
REMARK INTER + INTRA:          -9.824
REMARK INTER:                  -9.415
REMARK INTRA:                  -0.409
REMARK UNBOUND:                -1.369
REMARK SMILES C[C@H](CO)CCC(=O)[C@@H](C)[C@H]1C(=O)C[C@H]2[C@@H]3CC=C4C[C@@H](O)CC[C@@]4(C)[C@@H]3CC[C@@]12C
REMARK SMILES IDX 6 1 5 2 2 3 1 4 3 5 4 6 7 8 8 9 9 10 10 11 11 12 12 13 30 14
REMARK SMILES IDX 13 15 14 16 15 17 29 18 31 19 16 20 28 21 27 22 17 23 25 24
REMARK SMILES IDX 18 25 19 26 24 27 26 28 20 29 23 30 21 31 22 32
REMARK H PARENT 4 7 22 33
REMARK Flexibility Score: inf
ROOT
ATOM      1  C   UNL     1     164.128 176.537 152.261  1.00  0.00     0.076 C 
ENDROOT
BRANCH   1   2
ATOM      2  C   UNL     1     162.994 176.579 151.225  1.00  0.00     0.013 C 
BRANCH   2   3
ATOM      3  C   UNL     1     161.871 177.604 151.525  1.00  0.00     0.012 C 
ATOM      4  C   UNL     1     161.797 177.983 153.012  1.00  0.00     0.010 C 
BRANCH   3   5
ATOM      5  C   UNL     1     160.496 177.190 150.964  1.00  0.00     0.159 C 
BRANCH   5   6
ATOM      6  O   UNL     1     160.206 177.866 149.771  1.00  0.00    -0.396 OA
ATOM      7  H   UNL     1     159.233 177.745 149.616  1.00  0.00     0.210 HD
ENDBRANCH   5   6
ENDBRANCH   3   5
ENDBRANCH   2   3
ENDBRANCH   1   2
BRANCH   1   8
ATOM      8  C   UNL     1     165.440 176.952 151.642  1.00  0.00     0.136 C 
ATOM      9  O   UNL     1     165.787 178.120 151.728  1.00  0.00    -0.299 OA
BRANCH   8  10
ATOM     10  C   UNL     1     166.293 175.956 150.879  1.00  0.00     0.064 C 
ATOM     11  C   UNL     1     166.816 176.580 149.571  1.00  0.00     0.017 C 
BRANCH  10  12
ATOM     12  C   UNL     1     167.346 175.201 151.770  1.00  0.00     0.072 C 
ATOM     13  C   UNL     1     167.921 174.001 151.087  1.00  0.00     0.137 C 
ATOM     14  C   UNL     1     168.610 175.917 152.378  1.00  0.00    -0.019 C 
ATOM     15  O   UNL     1     167.267 173.246 150.383  1.00  0.00    -0.299 OA
ATOM     16  C   UNL     1     169.345 173.761 151.404  1.00  0.00     0.080 C 
ATOM     17  C   UNL     1     169.619 174.730 152.561  1.00  0.00     0.007 C 
ATOM     18  C   UNL     1     169.216 176.981 151.421  1.00  0.00     0.008 C 
ATOM     19  C   UNL     1     168.237 176.558 153.743  1.00  0.00     0.012 C 
ATOM     20  C   UNL     1     171.134 175.080 152.685  1.00  0.00     0.001 C 
ATOM     21  C   UNL     1     170.659 177.382 151.753  1.00  0.00     0.005 C 
ATOM     22  C   UNL     1     171.602 176.155 151.673  1.00  0.00     0.003 C 
ATOM     23  C   UNL     1     171.501 175.491 154.120  1.00  0.00     0.031 C 
ATOM     24  C   UNL     1     173.162 176.454 151.804  1.00  0.00    -0.008 C 
ATOM     25  C   UNL     1     172.959 175.796 154.246  1.00  0.00    -0.027 C 
ATOM     26  C   UNL     1     173.700 176.293 153.235  1.00  0.00    -0.065 C 
ATOM     27  C   UNL     1     173.933 175.421 150.918  1.00  0.00     0.014 C 
ATOM     28  C   UNL     1     173.490 177.883 151.293  1.00  0.00     0.016 C 
ATOM     29  C   UNL     1     175.200 176.390 153.431  1.00  0.00     0.063 C 
ATOM     30  C   UNL     1     175.469 175.456 151.090  1.00  0.00     0.033 C 
ATOM     31  C   UNL     1     175.900 175.333 152.561  1.00  0.00     0.118 C 
BRANCH  31  32
ATOM     32  O   UNL     1     175.601 174.042 153.029  1.00  0.00    -0.393 OA
ATOM     33  H   UNL     1     175.180 174.150 153.920  1.00  0.00     0.210 HD
ENDBRANCH  31  32
ENDBRANCH  10  12
ENDBRANCH   8  10
ENDBRANCH   1   8
TORSDOF 8
ENDMDL
MODEL 5
REMARK VINA RESULT:    -5.954      4.398      8.912
REMARK INTER + INTRA:          -9.760
REMARK INTER:                  -9.412
REMARK INTRA:                  -0.348
REMARK UNBOUND:                -1.369
REMARK SMILES C[C@H](CO)CCC(=O)[C@@H](C)[C@H]1C(=O)C[C@H]2[C@@H]3CC=C4C[C@@H](O)CC[C@@]4(C)[C@@H]3CC[C@@]12C
REMARK SMILES IDX 6 1 5 2 2 3 1 4 3 5 4 6 7 8 8 9 9 10 10 11 11 12 12 13 30 14
REMARK SMILES IDX 13 15 14 16 15 17 29 18 31 19 16 20 28 21 27 22 17 23 25 24
REMARK SMILES IDX 18 25 19 26 24 27 26 28 20 29 23 30 21 31 22 32
REMARK H PARENT 4 7 22 33
REMARK Flexibility Score: inf
ROOT
ATOM      1  C   UNL     1     165.443 176.523 151.884  1.00  0.00     0.076 C 
ENDROOT
BRANCH   1   2
ATOM      2  C   UNL     1     166.866 176.642 152.452  1.00  0.00     0.013 C 
BRANCH   2   3
ATOM      3  C   UNL     1     167.946 177.068 151.427  1.00  0.00     0.012 C 
ATOM      4  C   UNL     1     167.796 176.352 150.076  1.00  0.00     0.010 C 
BRANCH   3   5
ATOM      5  C   UNL     1     169.384 176.973 151.975  1.00  0.00     0.159 C 
BRANCH   5   6
ATOM      6  O   UNL     1     169.524 177.688 153.172  1.00  0.00    -0.396 OA
ATOM      7  H   UNL     1     168.869 178.432 153.127  1.00  0.00     0.210 HD
ENDBRANCH   5   6
ENDBRANCH   3   5
ENDBRANCH   2   3
ENDBRANCH   1   2
BRANCH   1   8
ATOM      8  C   UNL     1     164.469 177.348 152.687  1.00  0.00     0.136 C 
ATOM      9  O   UNL     1     164.856 177.875 153.719  1.00  0.00    -0.299 OA
BRANCH   8  10
ATOM     10  C   UNL     1     163.020 177.483 152.259  1.00  0.00     0.064 C 
ATOM     11  C   UNL     1     162.904 177.452 150.722  1.00  0.00     0.017 C 
BRANCH  10  12
ATOM     12  C   UNL     1     162.028 176.561 153.059  1.00  0.00     0.072 C 
ATOM     13  C   UNL     1     160.624 176.653 152.552  1.00  0.00     0.137 C 
ATOM     14  C   UNL     1     162.258 175.012 153.225  1.00  0.00    -0.019 C 
ATOM     15  O   UNL     1     160.107 177.695 152.179  1.00  0.00    -0.299 OA
ATOM     16  C   UNL     1     159.883 175.375 152.616  1.00  0.00     0.080 C 
ATOM     17  C   UNL     1     160.802 174.475 153.453  1.00  0.00     0.007 C 
ATOM     18  C   UNL     1     162.869 174.356 151.956  1.00  0.00     0.008 C 
ATOM     19  C   UNL     1     163.158 174.751 154.463  1.00  0.00     0.012 C 
ATOM     20  C   UNL     1     160.539 172.960 153.186  1.00  0.00     0.001 C 
ATOM     21  C   UNL     1     162.706 172.832 151.891  1.00  0.00     0.005 C 
ATOM     22  C   UNL     1     161.207 172.439 151.890  1.00  0.00     0.003 C 
ATOM     23  C   UNL     1     160.947 172.097 154.391  1.00  0.00     0.031 C 
ATOM     24  C   UNL     1     160.882 170.901 151.632  1.00  0.00    -0.008 C 
ATOM     25  C   UNL     1     160.666 170.650 154.147  1.00  0.00    -0.027 C 
ATOM     26  C   UNL     1     160.700 170.086 152.922  1.00  0.00    -0.065 C 
ATOM     27  C   UNL     1     159.527 170.813 150.854  1.00  0.00     0.014 C 
ATOM     28  C   UNL     1     161.990 170.245 150.765  1.00  0.00     0.016 C 
ATOM     29  C   UNL     1     160.222 168.655 152.782  1.00  0.00     0.063 C 
ATOM     30  C   UNL     1     158.975 169.378 150.698  1.00  0.00     0.033 C 
ATOM     31  C   UNL     1     158.876 168.635 152.041  1.00  0.00     0.118 C 
BRANCH  31  32
ATOM     32  O   UNL     1     157.876 169.228 152.831  1.00  0.00    -0.393 OA
ATOM     33  H   UNL     1     157.053 169.257 152.278  1.00  0.00     0.210 HD
ENDBRANCH  31  32
ENDBRANCH  10  12
ENDBRANCH   8  10
ENDBRANCH   1   8
TORSDOF 8
ENDMDL
MODEL 6
REMARK VINA RESULT:    -5.824      5.348      9.224
REMARK INTER + INTRA:          -9.576
REMARK INTER:                  -8.695
REMARK INTRA:                  -0.881
REMARK UNBOUND:                -1.369
REMARK SMILES C[C@H](CO)CCC(=O)[C@@H](C)[C@H]1C(=O)C[C@H]2[C@@H]3CC=C4C[C@@H](O)CC[C@@]4(C)[C@@H]3CC[C@@]12C
REMARK SMILES IDX 6 1 5 2 2 3 1 4 3 5 4 6 7 8 8 9 9 10 10 11 11 12 12 13 30 14
REMARK SMILES IDX 13 15 14 16 15 17 29 18 31 19 16 20 28 21 27 22 17 23 25 24
REMARK SMILES IDX 18 25 19 26 24 27 26 28 20 29 23 30 21 31 22 32
REMARK H PARENT 4 7 22 33
REMARK Flexibility Score: inf
ROOT
ATOM      1  C   UNL     1     175.575 173.953 150.989  1.00  0.00     0.076 C 
ENDROOT
BRANCH   1   2
ATOM      2  C   UNL     1     175.724 175.476 150.847  1.00  0.00     0.013 C 
BRANCH   2   3
ATOM      3  C   UNL     1     174.573 176.307 151.467  1.00  0.00     0.012 C 
ATOM      4  C   UNL     1     173.187 175.710 151.175  1.00  0.00     0.010 C 
BRANCH   3   5
ATOM      5  C   UNL     1     174.641 177.807 151.118  1.00  0.00     0.159 C 
BRANCH   5   6
ATOM      6  O   UNL     1     174.676 178.009 149.732  1.00  0.00    -0.396 OA
ATOM      7  H   UNL     1     174.712 177.105 149.322  1.00  0.00     0.210 HD
ENDBRANCH   5   6
ENDBRANCH   3   5
ENDBRANCH   2   3
ENDBRANCH   1   2
BRANCH   1   8
ATOM      8  C   UNL     1     176.269 173.456 152.233  1.00  0.00     0.136 C 
ATOM      9  O   UNL     1     177.468 173.654 152.357  1.00  0.00    -0.299 OA
BRANCH   8  10
ATOM     10  C   UNL     1     175.511 172.676 153.290  1.00  0.00     0.064 C 
ATOM     11  C   UNL     1     176.421 171.613 153.937  1.00  0.00     0.017 C 
BRANCH  10  12
ATOM     12  C   UNL     1     174.672 173.576 154.271  1.00  0.00     0.072 C 
ATOM     13  C   UNL     1     173.677 172.788 155.062  1.00  0.00     0.137 C 
ATOM     14  C   UNL     1     175.343 174.507 155.348  1.00  0.00    -0.019 C 
ATOM     15  O   UNL     1     173.031 171.859 154.602  1.00  0.00    -0.299 OA
ATOM     16  C   UNL     1     173.482 173.289 156.439  1.00  0.00     0.080 C 
ATOM     17  C   UNL     1     174.219 174.634 156.436  1.00  0.00     0.007 C 
ATOM     18  C   UNL     1     176.617 173.878 155.977  1.00  0.00     0.008 C 
ATOM     19  C   UNL     1     175.671 175.885 154.711  1.00  0.00     0.012 C 
ATOM     20  C   UNL     1     174.646 175.072 157.871  1.00  0.00     0.001 C 
ATOM     21  C   UNL     1     177.047 174.515 157.306  1.00  0.00     0.005 C 
ATOM     22  C   UNL     1     175.932 174.368 158.372  1.00  0.00     0.003 C 
ATOM     23  C   UNL     1     174.790 176.599 157.974  1.00  0.00     0.031 C 
ATOM     24  C   UNL     1     176.311 174.811 159.855  1.00  0.00    -0.008 C 
ATOM     25  C   UNL     1     175.168 177.021 159.357  1.00  0.00    -0.027 C 
ATOM     26  C   UNL     1     175.908 176.257 160.186  1.00  0.00    -0.065 C 
ATOM     27  C   UNL     1     175.533 173.891 160.853  1.00  0.00     0.014 C 
ATOM     28  C   UNL     1     177.833 174.634 160.106  1.00  0.00     0.016 C 
ATOM     29  C   UNL     1     176.073 176.715 161.622  1.00  0.00     0.063 C 
ATOM     30  C   UNL     1     175.644 174.320 162.333  1.00  0.00     0.033 C 
ATOM     31  C   UNL     1     175.263 175.795 162.549  1.00  0.00     0.118 C 
BRANCH  31  32
ATOM     32  O   UNL     1     173.886 175.960 162.319  1.00  0.00    -0.393 OA
ATOM     33  H   UNL     1     173.651 176.873 162.626  1.00  0.00     0.210 HD
ENDBRANCH  31  32
ENDBRANCH  10  12
ENDBRANCH   8  10
ENDBRANCH   1   8
TORSDOF 8
ENDMDL
MODEL 7
REMARK VINA RESULT:    -5.731      8.299     12.867
REMARK INTER + INTRA:          -9.446
REMARK INTER:                  -9.326
REMARK INTRA:                  -0.119
REMARK UNBOUND:                -1.369
REMARK SMILES C[C@H](CO)CCC(=O)[C@@H](C)[C@H]1C(=O)C[C@H]2[C@@H]3CC=C4C[C@@H](O)CC[C@@]4(C)[C@@H]3CC[C@@]12C
REMARK SMILES IDX 6 1 5 2 2 3 1 4 3 5 4 6 7 8 8 9 9 10 10 11 11 12 12 13 30 14
REMARK SMILES IDX 13 15 14 16 15 17 29 18 31 19 16 20 28 21 27 22 17 23 25 24
REMARK SMILES IDX 18 25 19 26 24 27 26 28 20 29 23 30 21 31 22 32
REMARK H PARENT 4 7 22 33
REMARK Flexibility Score: inf
ROOT
ATOM      1  C   UNL     1     158.587 166.789 151.193  1.00  0.00     0.076 C 
ENDROOT
BRANCH   1   2
ATOM      2  C   UNL     1     158.888 165.917 152.422  1.00  0.00     0.013 C 
BRANCH   2   3
ATOM      3  C   UNL     1     158.687 164.396 152.211  1.00  0.00     0.012 C 
ATOM      4  C   UNL     1     158.000 164.068 150.876  1.00  0.00     0.010 C 
BRANCH   3   5
ATOM      5  C   UNL     1     158.003 163.695 153.401  1.00  0.00     0.159 C 
BRANCH   5   6
ATOM      6  O   UNL     1     158.398 162.354 153.501  1.00  0.00    -0.396 OA
ATOM      7  H   UNL     1     159.376 162.341 153.334  1.00  0.00     0.210 HD
ENDBRANCH   5   6
ENDBRANCH   3   5
ENDBRANCH   2   3
ENDBRANCH   1   2
BRANCH   1   8
ATOM      8  C   UNL     1     159.856 167.372 150.621  1.00  0.00     0.136 C 
ATOM      9  O   UNL     1     160.789 166.622 150.376  1.00  0.00    -0.299 OA
BRANCH   8  10
ATOM     10  C   UNL     1     159.999 168.866 150.403  1.00  0.00     0.064 C 
ATOM     11  C   UNL     1     158.635 169.498 150.064  1.00  0.00     0.017 C 
BRANCH  10  12
ATOM     12  C   UNL     1     160.859 169.593 151.501  1.00  0.00     0.072 C 
ATOM     13  C   UNL     1     162.254 169.876 151.042  1.00  0.00     0.137 C 
ATOM     14  C   UNL     1     160.410 170.947 152.168  1.00  0.00    -0.019 C 
ATOM     15  O   UNL     1     162.911 169.103 150.361  1.00  0.00    -0.299 OA
ATOM     16  C   UNL     1     162.804 171.147 151.558  1.00  0.00     0.080 C 
ATOM     17  C   UNL     1     161.777 171.575 152.615  1.00  0.00     0.007 C 
ATOM     18  C   UNL     1     159.694 171.900 151.172  1.00  0.00     0.008 C 
ATOM     19  C   UNL     1     159.500 170.647 153.390  1.00  0.00     0.012 C 
ATOM     20  C   UNL     1     161.815 173.112 152.881  1.00  0.00     0.001 C 
ATOM     21  C   UNL     1     159.634 173.364 151.627  1.00  0.00     0.005 C 
ATOM     22  C   UNL     1     161.061 173.940 151.812  1.00  0.00     0.003 C 
ATOM     23  C   UNL     1     161.304 173.452 154.290  1.00  0.00     0.031 C 
ATOM     24  C   UNL     1     161.158 175.505 152.096  1.00  0.00    -0.008 C 
ATOM     25  C   UNL     1     161.370 174.921 154.556  1.00  0.00    -0.027 C 
ATOM     26  C   UNL     1     161.238 175.854 153.591  1.00  0.00    -0.065 C 
ATOM     27  C   UNL     1     162.475 176.039 151.442  1.00  0.00     0.014 C 
ATOM     28  C   UNL     1     159.954 176.252 151.460  1.00  0.00     0.016 C 
ATOM     29  C   UNL     1     161.503 177.301 153.956  1.00  0.00     0.063 C 
ATOM     30  C   UNL     1     162.812 177.505 151.796  1.00  0.00     0.033 C 
ATOM     31  C   UNL     1     162.822 177.758 153.313  1.00  0.00     0.118 C 
BRANCH  31  32
ATOM     32  O   UNL     1     163.908 177.080 153.893  1.00  0.00    -0.393 OA
ATOM     33  H   UNL     1     163.552 176.583 154.673  1.00  0.00     0.210 HD
ENDBRANCH  31  32
ENDBRANCH  10  12
ENDBRANCH   8  10
ENDBRANCH   1   8
TORSDOF 8
ENDMDL
MODEL 8
REMARK VINA RESULT:    -5.698      2.418      4.710
REMARK INTER + INTRA:          -9.398
REMARK INTER:                  -8.519
REMARK INTRA:                  -0.880
REMARK UNBOUND:                -1.369
REMARK SMILES C[C@H](CO)CCC(=O)[C@@H](C)[C@H]1C(=O)C[C@H]2[C@@H]3CC=C4C[C@@H](O)CC[C@@]4(C)[C@@H]3CC[C@@]12C
REMARK SMILES IDX 6 1 5 2 2 3 1 4 3 5 4 6 7 8 8 9 9 10 10 11 11 12 12 13 30 14
REMARK SMILES IDX 13 15 14 16 15 17 29 18 31 19 16 20 28 21 27 22 17 23 25 24
REMARK SMILES IDX 18 25 19 26 24 27 26 28 20 29 23 30 21 31 22 32
REMARK H PARENT 4 7 22 33
REMARK Flexibility Score: inf
ROOT
ATOM      1  C   UNL     1     175.777 173.518 150.569  1.00  0.00     0.076 C 
ENDROOT
BRANCH   1   2
ATOM      2  C   UNL     1     176.751 172.392 150.188  1.00  0.00     0.013 C 
BRANCH   2   3
ATOM      3  C   UNL     1     176.108 170.990 150.045  1.00  0.00     0.012 C 
ATOM      4  C   UNL     1     174.641 171.053 149.594  1.00  0.00     0.010 C 
BRANCH   3   5
ATOM      5  C   UNL     1     176.292 170.100 151.291  1.00  0.00     0.159 C 
BRANCH   5   6
ATOM      6  O   UNL     1     177.006 170.767 152.295  1.00  0.00    -0.396 OA
ATOM      7  H   UNL     1     177.913 170.364 152.302  1.00  0.00     0.210 HD
ENDBRANCH   5   6
ENDBRANCH   3   5
ENDBRANCH   2   3
ENDBRANCH   1   2
BRANCH   1   8
ATOM      8  C   UNL     1     176.268 174.269 151.781  1.00  0.00     0.136 C 
ATOM      9  O   UNL     1     177.026 173.706 152.555  1.00  0.00    -0.299 OA
BRANCH   8  10
ATOM     10  C   UNL     1     175.791 175.680 152.070  1.00  0.00     0.064 C 
ATOM     11  C   UNL     1     175.304 176.364 150.778  1.00  0.00     0.017 C 
BRANCH  10  12
ATOM     12  C   UNL     1     174.848 175.792 153.324  1.00  0.00     0.072 C 
ATOM     13  C   UNL     1     174.533 177.210 153.680  1.00  0.00     0.137 C 
ATOM     14  C   UNL     1     173.448 175.075 153.398  1.00  0.00    -0.019 C 
ATOM     15  O   UNL     1     175.346 178.119 153.616  1.00  0.00    -0.299 OA
ATOM     16  C   UNL     1     173.162 177.402 154.199  1.00  0.00     0.080 C 
ATOM     17  C   UNL     1     172.662 175.969 154.420  1.00  0.00     0.007 C 
ATOM     18  C   UNL     1     172.708 175.060 152.032  1.00  0.00     0.008 C 
ATOM     19  C   UNL     1     173.632 173.630 153.936  1.00  0.00     0.012 C 
ATOM     20  C   UNL     1     171.104 175.884 154.407  1.00  0.00     0.001 C 
ATOM     21  C   UNL     1     171.201 174.786 152.131  1.00  0.00     0.005 C 
ATOM     22  C   UNL     1     170.500 175.875 152.981  1.00  0.00     0.003 C 
ATOM     23  C   UNL     1     170.599 174.677 155.215  1.00  0.00     0.031 C 
ATOM     24  C   UNL     1     168.908 175.829 153.011  1.00  0.00    -0.008 C 
ATOM     25  C   UNL     1     169.107 174.614 155.229  1.00  0.00    -0.027 C 
ATOM     26  C   UNL     1     168.338 175.065 154.217  1.00  0.00    -0.065 C 
ATOM     27  C   UNL     1     168.379 177.298 153.123  1.00  0.00     0.014 C 
ATOM     28  C   UNL     1     168.353 175.205 151.702  1.00  0.00     0.016 C 
ATOM     29  C   UNL     1     166.837 175.110 154.425  1.00  0.00     0.063 C 
ATOM     30  C   UNL     1     166.856 177.409 153.359  1.00  0.00     0.033 C 
ATOM     31  C   UNL     1     166.382 176.572 154.560  1.00  0.00     0.118 C 
BRANCH  31  32
ATOM     32  O   UNL     1     166.885 177.132 155.747  1.00  0.00    -0.393 OA
ATOM     33  H   UNL     1     167.864 176.972 155.747  1.00  0.00     0.210 HD
ENDBRANCH  31  32
ENDBRANCH  10  12
ENDBRANCH   8  10
ENDBRANCH   1   8
TORSDOF 8
ENDMDL
