MODEL 1
REMARK VINA RESULT:    -3.935      0.000      0.000
REMARK INTER + INTRA:          -4.962
REMARK INTER:                  -4.740
REMARK INTRA:                  -0.222
REMARK UNBOUND:                -0.222
REMARK SMILES OCC(O)CO
REMARK SMILES IDX 3 1 5 2 6 3 2 5 1 6 4 8
REMARK H PARENT 6 4 1 7 4 9
REMARK Flexibility Score: inf
ROOT
ATOM      1  C   UNL     1     -12.500   4.851  22.416  1.00  0.00     0.165 C 
ENDROOT
BRANCH   1   2
ATOM      2  C   UNL     1     -11.603   4.557  21.205  1.00  0.00     0.190 C 
BRANCH   2   3
ATOM      3  O   UNL     1     -12.374   4.458  20.038  1.00  0.00    -0.394 OA
ATOM      4  H   UNL     1     -12.362   5.356  19.614  1.00  0.00     0.210 HD
ENDBRANCH   2   3
ENDBRANCH   1   2
BRANCH   1   5
ATOM      5  C   UNL     1     -13.778   3.997  22.383  1.00  0.00     0.190 C 
BRANCH   5   6
ATOM      6  O   UNL     1     -13.497   2.677  22.000  1.00  0.00    -0.394 OA
ATOM      7  H   UNL     1     -14.372   2.220  21.882  1.00  0.00     0.210 HD
ENDBRANCH   5   6
ENDBRANCH   1   5
BRANCH   1   8
ATOM      8  O   UNL     1     -11.783   4.607  23.598  1.00  0.00    -0.388 OA
ATOM      9  H   UNL     1     -12.308   5.007  24.340  1.00  0.00     0.211 HD
ENDBRANCH   1   8
TORSDOF 5
ENDMDL
MODEL 2
REMARK VINA RESULT:    -3.803      1.316      2.367
REMARK INTER + INTRA:          -4.802
REMARK INTER:                  -4.587
REMARK INTRA:                  -0.215
REMARK UNBOUND:                -0.222
REMARK SMILES OCC(O)CO
REMARK SMILES IDX 3 1 5 2 6 3 2 5 1 6 4 8
REMARK H PARENT 6 4 1 7 4 9
REMARK Flexibility Score: inf
ROOT
ATOM      1  C   UNL     1     -12.555   3.519  20.420  1.00  0.00     0.165 C 
ENDROOT
BRANCH   1   2
ATOM      2  C   UNL     1     -11.448   4.494  20.846  1.00  0.00     0.190 C 
BRANCH   2   3
ATOM      3  O   UNL     1     -11.899   5.325  21.880  1.00  0.00    -0.394 OA
ATOM      4  H   UNL     1     -12.807   5.634  21.621  1.00  0.00     0.210 HD
ENDBRANCH   2   3
ENDBRANCH   1   2
BRANCH   1   5
ATOM      5  C   UNL     1     -13.699   3.493  21.446  1.00  0.00     0.190 C 
BRANCH   5   6
ATOM      6  O   UNL     1     -13.345   2.749  22.582  1.00  0.00    -0.394 OA
ATOM      7  H   UNL     1     -13.567   1.801  22.385  1.00  0.00     0.210 HD
ENDBRANCH   5   6
ENDBRANCH   1   5
BRANCH   1   8
ATOM      8  O   UNL     1     -13.042   3.890  19.157  1.00  0.00    -0.388 OA
ATOM      9  H   UNL     1     -12.393   3.550  18.487  1.00  0.00     0.211 HD
ENDBRANCH   1   8
TORSDOF 5
ENDMDL
MODEL 3
REMARK VINA RESULT:    -3.759      0.736      2.623
REMARK INTER + INTRA:          -4.750
REMARK INTER:                  -4.747
REMARK INTRA:                  -0.003
REMARK UNBOUND:                -0.222
REMARK SMILES OCC(O)CO
REMARK SMILES IDX 3 1 5 2 6 3 2 5 1 6 4 8
REMARK H PARENT 6 4 1 7 4 9
REMARK Flexibility Score: inf
ROOT
ATOM      1  C   UNL     1     -13.252   3.908  21.871  1.00  0.00     0.165 C 
ENDROOT
BRANCH   1   2
ATOM      2  C   UNL     1     -12.763   4.947  22.890  1.00  0.00     0.190 C 
BRANCH   2   3
ATOM      3  O   UNL     1     -11.754   4.404  23.697  1.00  0.00    -0.394 OA
ATOM      4  H   UNL     1     -11.525   3.519  23.309  1.00  0.00     0.210 HD
ENDBRANCH   2   3
ENDBRANCH   1   2
BRANCH   1   5
ATOM      5  C   UNL     1     -12.271   3.777  20.695  1.00  0.00     0.190 C 
BRANCH   5   6
ATOM      6  O   UNL     1     -12.903   4.054  19.473  1.00  0.00    -0.394 OA
ATOM      7  H   UNL     1     -13.840   3.733  19.556  1.00  0.00     0.210 HD
ENDBRANCH   5   6
ENDBRANCH   1   5
BRANCH   1   8
ATOM      8  O   UNL     1     -13.414   2.668  22.510  1.00  0.00    -0.388 OA
ATOM      9  H   UNL     1     -12.841   2.687  23.321  1.00  0.00     0.211 HD
ENDBRANCH   1   8
TORSDOF 5
ENDMDL
MODEL 4
REMARK VINA RESULT:    -3.684      1.604      2.681
REMARK INTER + INTRA:          -4.659
REMARK INTER:                  -4.444
REMARK INTRA:                  -0.215
REMARK UNBOUND:                -0.222
REMARK SMILES OCC(O)CO
REMARK SMILES IDX 3 1 5 2 6 3 2 5 1 6 4 8
REMARK H PARENT 6 4 1 7 4 9
REMARK Flexibility Score: inf
ROOT
ATOM      1  C   UNL     1     -13.534   3.751  22.181  1.00  0.00     0.165 C 
ENDROOT
BRANCH   1   2
ATOM      2  C   UNL     1     -12.316   4.682  22.261  1.00  0.00     0.190 C 
BRANCH   2   3
ATOM      3  O   UNL     1     -12.012   4.977  23.597  1.00  0.00    -0.394 OA
ATOM      4  H   UNL     1     -12.783   5.489  23.958  1.00  0.00     0.210 HD
ENDBRANCH   2   3
ENDBRANCH   1   2
BRANCH   1   5
ATOM      5  C   UNL     1     -14.704   4.291  23.020  1.00  0.00     0.190 C 
BRANCH   5   6
ATOM      6  O   UNL     1     -14.871   5.671  22.829  1.00  0.00    -0.394 OA
ATOM      7  H   UNL     1     -15.410   5.783  22.002  1.00  0.00     0.210 HD
ENDBRANCH   5   6
ENDBRANCH   1   5
BRANCH   1   8
ATOM      8  O   UNL     1     -13.923   3.607  20.840  1.00  0.00    -0.388 OA
ATOM      9  H   UNL     1     -13.285   4.140  20.297  1.00  0.00     0.211 HD
ENDBRANCH   1   8
TORSDOF 5
ENDMDL
MODEL 5
REMARK VINA RESULT:    -3.675     19.544     20.477
REMARK INTER + INTRA:          -4.649
REMARK INTER:                  -4.457
REMARK INTRA:                  -0.192
REMARK UNBOUND:                -0.222
REMARK SMILES OCC(O)CO
REMARK SMILES IDX 3 1 5 2 6 3 2 5 1 6 4 8
REMARK H PARENT 6 4 1 7 4 9
REMARK Flexibility Score: inf
ROOT
ATOM      1  C   UNL     1     -18.994 -12.617  13.230  1.00  0.00     0.165 C 
ENDROOT
BRANCH   1   2
ATOM      2  C   UNL     1     -20.523 -12.618  13.094  1.00  0.00     0.190 C 
BRANCH   2   3
ATOM      3  O   UNL     1     -20.944 -11.558  12.280  1.00  0.00    -0.394 OA
ATOM      4  H   UNL     1     -21.693 -11.904  11.727  1.00  0.00     0.210 HD
ENDBRANCH   2   3
ENDBRANCH   1   2
BRANCH   1   5
ATOM      5  C   UNL     1     -18.348 -13.613  12.253  1.00  0.00     0.190 C 
BRANCH   5   6
ATOM      6  O   UNL     1     -18.795 -13.400  10.941  1.00  0.00    -0.394 OA
ATOM      7  H   UNL     1     -19.032 -14.291  10.571  1.00  0.00     0.210 HD
ENDBRANCH   5   6
ENDBRANCH   1   5
BRANCH   1   8
ATOM      8  O   UNL     1     -18.507 -11.321  12.997  1.00  0.00    -0.388 OA
ATOM      9  H   UNL     1     -18.081 -11.018  13.842  1.00  0.00     0.211 HD
ENDBRANCH   1   8
TORSDOF 5
ENDMDL
MODEL 6
REMARK VINA RESULT:    -3.665      1.554      3.260
REMARK INTER + INTRA:          -4.636
REMARK INTER:                  -4.423
REMARK INTRA:                  -0.213
REMARK UNBOUND:                -0.222
REMARK SMILES OCC(O)CO
REMARK SMILES IDX 3 1 5 2 6 3 2 5 1 6 4 8
REMARK H PARENT 6 4 1 7 4 9
REMARK Flexibility Score: inf
ROOT
ATOM      1  C   UNL     1     -13.725   4.116  22.378  1.00  0.00     0.165 C 
ENDROOT
BRANCH   1   2
ATOM      2  C   UNL     1     -14.987   4.390  23.207  1.00  0.00     0.190 C 
BRANCH   2   3
ATOM      3  O   UNL     1     -15.075   3.491  24.279  1.00  0.00    -0.394 OA
ATOM      4  H   UNL     1     -14.164   3.115  24.409  1.00  0.00     0.210 HD
ENDBRANCH   2   3
ENDBRANCH   1   2
BRANCH   1   5
ATOM      5  C   UNL     1     -12.502   4.834  22.971  1.00  0.00     0.190 C 
BRANCH   5   6
ATOM      6  O   UNL     1     -12.129   4.271  24.201  1.00  0.00    -0.394 OA
ATOM      7  H   UNL     1     -12.811   4.554  24.864  1.00  0.00     0.210 HD
ENDBRANCH   5   6
ENDBRANCH   1   5
BRANCH   1   8
ATOM      8  O   UNL     1     -13.496   2.732  22.321  1.00  0.00    -0.388 OA
ATOM      9  H   UNL     1     -14.237   2.340  21.790  1.00  0.00     0.211 HD
ENDBRANCH   1   8
TORSDOF 5
ENDMDL
MODEL 7
REMARK VINA RESULT:    -3.642      0.951      2.113
REMARK INTER + INTRA:          -4.609
REMARK INTER:                  -4.606
REMARK INTRA:                  -0.002
REMARK UNBOUND:                -0.222
REMARK SMILES OCC(O)CO
REMARK SMILES IDX 3 1 5 2 6 3 2 5 1 6 4 8
REMARK H PARENT 6 4 1 7 4 9
REMARK Flexibility Score: inf
ROOT
ATOM      1  C   UNL     1     -12.861   3.820  21.853  1.00  0.00     0.165 C 
ENDROOT
BRANCH   1   2
ATOM      2  C   UNL     1     -12.057   3.914  20.548  1.00  0.00     0.190 C 
BRANCH   2   3
ATOM      3  O   UNL     1     -12.920   4.000  19.447  1.00  0.00    -0.394 OA
ATOM      4  H   UNL     1     -13.703   4.536  19.740  1.00  0.00     0.210 HD
ENDBRANCH   2   3
ENDBRANCH   1   2
BRANCH   1   5
ATOM      5  C   UNL     1     -12.518   4.978  22.804  1.00  0.00     0.190 C 
BRANCH   5   6
ATOM      6  O   UNL     1     -11.864   4.513  23.955  1.00  0.00    -0.394 OA
ATOM      7  H   UNL     1     -12.559   4.102  24.533  1.00  0.00     0.210 HD
ENDBRANCH   5   6
ENDBRANCH   1   5
BRANCH   1   8
ATOM      8  O   UNL     1     -14.234   3.824  21.556  1.00  0.00    -0.388 OA
ATOM      9  H   UNL     1     -14.664   4.447  22.199  1.00  0.00     0.211 HD
ENDBRANCH   1   8
TORSDOF 5
ENDMDL
MODEL 8
REMARK VINA RESULT:    -3.608     19.640     20.435
REMARK INTER + INTRA:          -4.567
REMARK INTER:                  -4.356
REMARK INTRA:                  -0.211
REMARK UNBOUND:                -0.222
REMARK SMILES OCC(O)CO
REMARK SMILES IDX 3 1 5 2 6 3 2 5 1 6 4 8
REMARK H PARENT 6 4 1 7 4 9
REMARK Flexibility Score: inf
ROOT
ATOM      1  C   UNL     1     -19.524 -12.264  12.484  1.00  0.00     0.165 C 
ENDROOT
BRANCH   1   2
ATOM      2  C   UNL     1     -18.846 -13.116  11.402  1.00  0.00     0.190 C 
BRANCH   2   3
ATOM      3  O   UNL     1     -17.784 -13.849  11.950  1.00  0.00    -0.394 OA
ATOM      4  H   UNL     1     -18.187 -14.516  12.567  1.00  0.00     0.210 HD
ENDBRANCH   2   3
ENDBRANCH   1   2
BRANCH   1   5
ATOM      5  C   UNL     1     -20.171 -13.147  13.564  1.00  0.00     0.190 C 
BRANCH   5   6
ATOM      6  O   UNL     1     -19.264 -13.436  14.595  1.00  0.00    -0.394 OA
ATOM      7  H   UNL     1     -19.536 -14.310  14.980  1.00  0.00     0.210 HD
ENDBRANCH   5   6
ENDBRANCH   1   5
BRANCH   1   8
ATOM      8  O   UNL     1     -18.577 -11.404  13.063  1.00  0.00    -0.388 OA
ATOM      9  H   UNL     1     -18.295 -10.770  12.353  1.00  0.00     0.211 HD
ENDBRANCH   1   8
TORSDOF 5
ENDMDL
MODEL 9
REMARK VINA RESULT:    -3.495     19.526     20.561
REMARK INTER + INTRA:          -4.432
REMARK INTER:                  -4.208
REMARK INTRA:                  -0.224
REMARK UNBOUND:                -0.222
REMARK SMILES OCC(O)CO
REMARK SMILES IDX 3 1 5 2 6 3 2 5 1 6 4 8
REMARK H PARENT 6 4 1 7 4 9
REMARK Flexibility Score: inf
ROOT
ATOM      1  C   UNL     1     -18.562 -12.983  12.308  1.00  0.00     0.165 C 
ENDROOT
BRANCH   1   2
ATOM      2  C   UNL     1     -19.773 -13.274  13.206  1.00  0.00     0.190 C 
BRANCH   2   3
ATOM      3  O   UNL     1     -19.376 -13.370  14.547  1.00  0.00    -0.394 OA
ATOM      4  H   UNL     1     -19.971 -12.765  15.064  1.00  0.00     0.210 HD
ENDBRANCH   2   3
ENDBRANCH   1   2
BRANCH   1   5
ATOM      5  C   UNL     1     -17.242 -13.246  13.051  1.00  0.00     0.190 C 
BRANCH   5   6
ATOM      6  O   UNL     1     -16.839 -12.121  13.786  1.00  0.00    -0.394 OA
ATOM      7  H   UNL     1     -17.333 -11.344  13.413  1.00  0.00     0.210 HD
ENDBRANCH   5   6
ENDBRANCH   1   5
BRANCH   1   8
ATOM      8  O   UNL     1     -18.636 -13.776  11.152  1.00  0.00    -0.388 OA
ATOM      9  H   UNL     1     -17.914 -13.467  10.545  1.00  0.00     0.211 HD
ENDBRANCH   1   8
TORSDOF 5
ENDMDL
