MODEL 1
REMARK VINA RESULT:    -8.084      0.000      0.000
REMARK INTER + INTRA:         -12.745
REMARK INTER:                 -10.920
REMARK INTRA:                  -1.826
REMARK UNBOUND:                -1.826
REMARK SMILES OC[C@@H]1O[C@H](O[C@H]2[C@@H](O)[C@@H](O)[C@H](O[C@@H]3[C@@H](O)[C@H](O)[C@@H](O)O[C@@H]3CO)O[C@H]2CO)[C@@H](O)[C@@H](O)[C@H]1O
REMARK SMILES IDX 7 1 26 2 25 3 12 4 10 5 8 6 6 7 5 8 3 9 33 10 4 11 31 12
REMARK SMILES IDX 29 13 2 14 1 15 34 17 32 19 30 21 27 23 28 24 9 26 11 28
REMARK SMILES IDX 13 30 14 31 22 32 15 33 21 34 17 35 19 36 23 37 24 38 16 40
REMARK SMILES IDX 18 42 20 44
REMARK H PARENT 1 16 34 18 32 20 30 22 28 25 9 27 11 29 24 39 16 41 18 43
REMARK H PARENT 20 45
REMARK Flexibility Score: inf
ROOT
ATOM      1  C   UNL     1      25.739  -3.968  16.289  1.00  0.00     0.184 C 
ATOM      2  C   UNL     1      26.391  -4.797  17.788  1.00  0.00     0.178 C 
ATOM      3  O   UNL     1      25.178  -5.387  18.152  1.00  0.00    -0.341 OA
ATOM      4  C   UNL     1      24.794  -6.380  17.066  1.00  0.00     0.282 C 
ATOM      5  C   UNL     1      26.053  -6.615  15.747  1.00  0.00     0.202 C 
ATOM      6  C   UNL     1      26.709  -4.957  15.285  1.00  0.00     0.180 C 
ENDROOT
BRANCH   1   7
ATOM      7  O   UNL     1      25.352  -2.306  16.201  1.00  0.00    -0.341 OA
BRANCH   7   8
ATOM      8  C   UNL     1      26.180  -0.940  16.555  1.00  0.00     0.282 C 
ATOM      9  C   UNL     1      26.828   0.069  18.841  1.00  0.00     0.178 C 
ATOM     10  C   UNL     1      27.052   1.575  18.309  1.00  0.00     0.177 C 
ATOM     11  O   UNL     1      25.880  -0.702  18.031  1.00  0.00    -0.341 OA
ATOM     12  C   UNL     1      27.705   1.463  16.852  1.00  0.00     0.179 C 
ATOM     13  C   UNL     1      27.916  -0.083  16.165  1.00  0.00     0.202 C 
BRANCH   9  14
ATOM     14  C   UNL     1      28.125  -0.667  19.186  1.00  0.00     0.191 C 
BRANCH  14  15
ATOM     15  O   UNL     1      27.888  -2.024  19.394  1.00  0.00    -0.394 OA
ATOM     16  H   UNL     1      28.617  -2.587  18.881  1.00  0.00     0.210 HD
ENDBRANCH  14  15
ENDBRANCH   9  14
BRANCH  10  17
ATOM     17  O   UNL     1      25.675   2.029  18.377  1.00  0.00    -0.387 OA
ATOM     18  H   UNL     1      25.445   3.069  18.348  1.00  0.00     0.211 HD
ENDBRANCH  10  17
BRANCH  12  19
ATOM     19  O   UNL     1      27.477   2.661  16.043  1.00  0.00    -0.387 OA
ATOM     20  H   UNL     1      26.701   2.612  15.301  1.00  0.00     0.211 HD
ENDBRANCH  12  19
BRANCH  13  21
ATOM     21  O   UNL     1      28.021   0.287  14.774  1.00  0.00    -0.385 OA
ATOM     22  H   UNL     1      28.461  -0.460  14.218  1.00  0.00     0.211 HD
ENDBRANCH  13  21
ENDBRANCH   7   8
ENDBRANCH   1   7
BRANCH   2  23
ATOM     23  C   UNL     1      27.673  -6.159  18.416  1.00  0.00     0.191 C 
BRANCH  23  24
ATOM     24  O   UNL     1      27.359  -6.210  19.796  1.00  0.00    -0.394 OA
ATOM     25  H   UNL     1      27.409  -7.170  20.075  1.00  0.00     0.210 HD
ENDBRANCH  23  24
ENDBRANCH   2  23
BRANCH   6  26
ATOM     26  O   UNL     1      28.120  -4.479  15.563  1.00  0.00    -0.387 OA
ATOM     27  H   UNL     1      28.184  -4.618  16.509  1.00  0.00     0.211 HD
ENDBRANCH   6  26
BRANCH   5  28
ATOM     28  O   UNL     1      26.351  -8.082  15.336  1.00  0.00    -0.385 OA
ATOM     29  H   UNL     1      27.233  -8.584  15.605  1.00  0.00     0.211 HD
ENDBRANCH   5  28
BRANCH   4  30
ATOM     30  O   UNL     1      23.162  -5.937  16.708  1.00  0.00    -0.341 OA
BRANCH  30  31
ATOM     31  C   UNL     1      21.517  -5.920  17.243  1.00  0.00     0.184 C 
ATOM     32  C   UNL     1      20.768  -4.574  16.823  1.00  0.00     0.178 C 
ATOM     33  C   UNL     1      19.838  -6.998  17.140  1.00  0.00     0.180 C 
ATOM     34  O   UNL     1      19.729  -4.372  15.726  1.00  0.00    -0.342 OA
ATOM     35  C   UNL     1      19.466  -6.910  15.615  1.00  0.00     0.201 C 
ATOM     36  C   UNL     1      19.043  -5.429  15.043  1.00  0.00     0.279 C 
BRANCH  32  37
ATOM     37  C   UNL     1      21.823  -3.426  16.489  1.00  0.00     0.191 C 
BRANCH  37  38
ATOM     38  O   UNL     1      22.945  -3.424  17.378  1.00  0.00    -0.394 OA
ATOM     39  H   UNL     1      22.718  -2.957  18.207  1.00  0.00     0.210 HD
ENDBRANCH  37  38
ENDBRANCH  32  37
BRANCH  33  40
ATOM     40  O   UNL     1      18.726  -7.690  17.955  1.00  0.00    -0.387 OA
ATOM     41  H   UNL     1      17.704  -7.274  17.525  1.00  0.00     0.211 HD
ENDBRANCH  33  40
BRANCH  35  42
ATOM     42  O   UNL     1      20.646  -7.427  14.991  1.00  0.00    -0.385 OA
ATOM     43  H   UNL     1      20.449  -7.745  14.043  1.00  0.00     0.211 HD
ENDBRANCH  35  42
BRANCH  36  44
ATOM     44  O   UNL     1      17.659  -5.148  15.058  1.00  0.00    -0.366 OA
ATOM     45  H   UNL     1      17.163  -5.586  15.771  1.00  0.00     0.213 HD
ENDBRANCH  36  44
ENDBRANCH  30  31
ENDBRANCH   4  30
TORSDOF 18
ENDMDL
MODEL 2
REMARK VINA RESULT:    -7.498      4.962      9.052
REMARK INTER + INTRA:         -11.954
REMARK INTER:                 -10.234
REMARK INTRA:                  -1.720
REMARK UNBOUND:                -1.826
REMARK SMILES OC[C@@H]1O[C@H](O[C@H]2[C@@H](O)[C@@H](O)[C@H](O[C@@H]3[C@@H](O)[C@H](O)[C@@H](O)O[C@@H]3CO)O[C@H]2CO)[C@@H](O)[C@@H](O)[C@H]1O
REMARK SMILES IDX 7 1 26 2 25 3 12 4 10 5 8 6 6 7 5 8 3 9 33 10 4 11 31 12
REMARK SMILES IDX 29 13 2 14 1 15 34 17 32 19 30 21 27 23 28 24 9 26 11 28
REMARK SMILES IDX 13 30 14 31 22 32 15 33 21 34 17 35 19 36 23 37 24 38 16 40
REMARK SMILES IDX 18 42 20 44
REMARK H PARENT 1 16 34 18 32 20 30 22 28 25 9 27 11 29 24 39 16 41 18 43
REMARK H PARENT 20 45
REMARK Flexibility Score: inf
ROOT
ATOM      1  C   UNL     1      18.275  -8.585  16.280  1.00  0.00     0.184 C 
ATOM      2  C   UNL     1      18.166 -10.201  17.139  1.00  0.00     0.178 C 
ATOM      3  O   UNL     1      16.771 -10.221  17.207  1.00  0.00    -0.341 OA
ATOM      4  C   UNL     1      16.232 -10.286  15.787  1.00  0.00     0.282 C 
ATOM      5  C   UNL     1      17.510 -10.472  14.478  1.00  0.00     0.202 C 
ATOM      6  C   UNL     1      18.905  -9.339  14.880  1.00  0.00     0.180 C 
ENDROOT
BRANCH   1   7
ATOM      7  O   UNL     1      18.681  -7.113  17.049  1.00  0.00    -0.341 OA
BRANCH   7   8
ATOM      8  C   UNL     1      19.480  -5.773  16.557  1.00  0.00     0.282 C 
ATOM      9  C   UNL     1      21.953  -5.459  15.886  1.00  0.00     0.178 C 
ATOM     10  C   UNL     1      21.998  -3.865  16.129  1.00  0.00     0.177 C 
ATOM     11  O   UNL     1      20.950  -6.147  16.706  1.00  0.00    -0.341 OA
ATOM     12  C   UNL     1      20.578  -3.283  15.672  1.00  0.00     0.179 C 
ATOM     13  C   UNL     1      19.369  -4.374  15.167  1.00  0.00     0.202 C 
BRANCH   9  14
ATOM     14  C   UNL     1      21.961  -5.863  14.410  1.00  0.00     0.191 C 
BRANCH  14  15
ATOM     15  O   UNL     1      23.243  -5.761  13.873  1.00  0.00    -0.394 OA
ATOM     16  H   UNL     1      23.180  -5.778  12.821  1.00  0.00     0.210 HD
ENDBRANCH  14  15
ENDBRANCH   9  14
BRANCH  10  17
ATOM     17  O   UNL     1      22.273  -3.878  17.554  1.00  0.00    -0.387 OA
ATOM     18  H   UNL     1      21.499  -4.101  18.252  1.00  0.00     0.211 HD
ENDBRANCH  10  17
BRANCH  12  19
ATOM     19  O   UNL     1      20.269  -2.001  16.305  1.00  0.00    -0.387 OA
ATOM     20  H   UNL     1      19.261  -1.854  16.650  1.00  0.00     0.211 HD
ENDBRANCH  12  19
BRANCH  13  21
ATOM     21  O   UNL     1      18.206  -3.540  15.349  1.00  0.00    -0.385 OA
ATOM     22  H   UNL     1      17.867  -3.574  16.322  1.00  0.00     0.211 HD
ENDBRANCH  13  21
ENDBRANCH   7   8
ENDBRANCH   1   7
BRANCH   2  23
ATOM     23  C   UNL     1      18.560 -12.125  16.953  1.00  0.00     0.191 C 
BRANCH  23  24
ATOM     24  O   UNL     1      19.972 -12.104  16.858  1.00  0.00    -0.394 OA
ATOM     25  H   UNL     1      20.211 -12.384  15.927  1.00  0.00     0.210 HD
ENDBRANCH  23  24
ENDBRANCH   2  23
BRANCH   6  26
ATOM     26  O   UNL     1      20.289  -9.790  15.304  1.00  0.00    -0.387 OA
ATOM     27  H   UNL     1      20.416  -9.282  16.106  1.00  0.00     0.211 HD
ENDBRANCH   6  26
BRANCH   5  28
ATOM     28  O   UNL     1      17.217 -11.528  13.379  1.00  0.00    -0.385 OA
ATOM     29  H   UNL     1      16.547 -12.326  13.514  1.00  0.00     0.211 HD
ENDBRANCH   5  28
BRANCH   4  30
ATOM     30  O   UNL     1      15.074  -9.003  15.762  1.00  0.00    -0.341 OA
BRANCH  30  31
ATOM     31  C   UNL     1      13.480  -8.501  15.315  1.00  0.00     0.184 C 
ATOM     32  C   UNL     1      13.252  -8.574  13.736  1.00  0.00     0.178 C 
ATOM     33  C   UNL     1      11.560  -8.894  15.705  1.00  0.00     0.180 C 
ATOM     34  O   UNL     1      12.446  -9.596  12.944  1.00  0.00    -0.342 OA
ATOM     35  C   UNL     1      11.386 -10.351  15.141  1.00  0.00     0.201 C 
ATOM     36  C   UNL     1      11.524 -10.534  13.514  1.00  0.00     0.279 C 
BRANCH  32  37
ATOM     37  C   UNL     1      14.650  -8.594  12.969  1.00  0.00     0.191 C 
BRANCH  37  38
ATOM     38  O   UNL     1      15.583  -7.640  13.485  1.00  0.00    -0.394 OA
ATOM     39  H   UNL     1      15.350  -7.403  14.405  1.00  0.00     0.210 HD
ENDBRANCH  37  38
ENDBRANCH  32  37
BRANCH  33  40
ATOM     40  O   UNL     1      10.211  -8.295  16.151  1.00  0.00    -0.387 OA
ATOM     41  H   UNL     1      10.303  -8.125  17.319  1.00  0.00     0.211 HD
ENDBRANCH  33  40
BRANCH  35  42
ATOM     42  O   UNL     1      12.389 -11.071  15.865  1.00  0.00    -0.385 OA
ATOM     43  H   UNL     1      13.304 -10.634  15.757  1.00  0.00     0.211 HD
ENDBRANCH  35  42
BRANCH  36  44
ATOM     44  O   UNL     1      10.311 -10.465  12.794  1.00  0.00    -0.366 OA
ATOM     45  H   UNL     1      10.346  -9.921  11.989  1.00  0.00     0.213 HD
ENDBRANCH  36  44
ENDBRANCH  30  31
ENDBRANCH   4  30
TORSDOF 18
ENDMDL
MODEL 3
REMARK VINA RESULT:    -7.427      5.182     12.409
REMARK INTER + INTRA:         -11.858
REMARK INTER:                 -10.593
REMARK INTRA:                  -1.265
REMARK UNBOUND:                -1.826
REMARK SMILES OC[C@@H]1O[C@H](O[C@H]2[C@@H](O)[C@@H](O)[C@H](O[C@@H]3[C@@H](O)[C@H](O)[C@@H](O)O[C@@H]3CO)O[C@H]2CO)[C@@H](O)[C@@H](O)[C@H]1O
REMARK SMILES IDX 7 1 26 2 25 3 12 4 10 5 8 6 6 7 5 8 3 9 33 10 4 11 31 12
REMARK SMILES IDX 29 13 2 14 1 15 34 17 32 19 30 21 27 23 28 24 9 26 11 28
REMARK SMILES IDX 13 30 14 31 22 32 15 33 21 34 17 35 19 36 23 37 24 38 16 40
REMARK SMILES IDX 18 42 20 44
REMARK H PARENT 1 16 34 18 32 20 30 22 28 25 9 27 11 29 24 39 16 41 18 43
REMARK H PARENT 20 45
REMARK Flexibility Score: inf
ROOT
ATOM      1  C   UNL     1      16.587  -9.706  15.056  1.00  0.00     0.184 C 
ATOM      2  C   UNL     1      18.084 -10.764  15.024  1.00  0.00     0.178 C 
ATOM      3  O   UNL     1      18.975  -9.724  14.752  1.00  0.00    -0.341 OA
ATOM      4  C   UNL     1      18.966  -8.774  15.940  1.00  0.00     0.282 C 
ATOM      5  C   UNL     1      17.959  -9.332  17.374  1.00  0.00     0.202 C 
ATOM      6  C   UNL     1      16.373 -10.008  16.726  1.00  0.00     0.180 C 
ENDROOT
BRANCH   1   7
ATOM      7  O   UNL     1      15.459  -9.597  13.776  1.00  0.00    -0.341 OA
BRANCH   7   8
ATOM      8  C   UNL     1      13.827  -9.503  13.722  1.00  0.00     0.282 C 
ATOM      9  C   UNL     1      12.035 -11.039  14.769  1.00  0.00     0.178 C 
ATOM     10  C   UNL     1      10.835 -10.602  13.785  1.00  0.00     0.177 C 
ATOM     11  O   UNL     1      13.366 -10.885  14.172  1.00  0.00    -0.341 OA
ATOM     12  C   UNL     1      11.012  -9.036  13.499  1.00  0.00     0.179 C 
ATOM     13  C   UNL     1      12.373  -8.234  14.144  1.00  0.00     0.202 C 
BRANCH   9  14
ATOM     14  C   UNL     1      11.903 -10.492  16.192  1.00  0.00     0.191 C 
BRANCH  14  15
ATOM     15  O   UNL     1      12.995 -10.865  16.973  1.00  0.00    -0.394 OA
ATOM     16  H   UNL     1      12.774 -10.684  17.987  1.00  0.00     0.210 HD
ENDBRANCH  14  15
ENDBRANCH   9  14
BRANCH  10  17
ATOM     17  O   UNL     1      11.124 -11.504  12.686  1.00  0.00    -0.387 OA
ATOM     18  H   UNL     1      10.560 -11.456  11.783  1.00  0.00     0.211 HD
ENDBRANCH  10  17
BRANCH  12  19
ATOM     19  O   UNL     1      10.366  -8.617  12.255  1.00  0.00    -0.387 OA
ATOM     20  H   UNL     1       9.587  -9.249  11.870  1.00  0.00     0.211 HD
ENDBRANCH  12  19
BRANCH  13  21
ATOM     21  O   UNL     1      12.406  -7.085  13.272  1.00  0.00    -0.385 OA
ATOM     22  H   UNL     1      13.245  -7.091  12.674  1.00  0.00     0.211 HD
ENDBRANCH  13  21
ENDBRANCH   7   8
ENDBRANCH   1   7
BRANCH   2  23
ATOM     23  C   UNL     1      19.213 -11.947  16.128  1.00  0.00     0.191 C 
BRANCH  23  24
ATOM     24  O   UNL     1      20.416 -11.945  15.382  1.00  0.00    -0.394 OA
ATOM     25  H   UNL     1      20.513 -11.034  14.978  1.00  0.00     0.210 HD
ENDBRANCH  23  24
ENDBRANCH   2  23
BRANCH   6  26
ATOM     26  O   UNL     1      15.971 -11.468  16.780  1.00  0.00    -0.387 OA
ATOM     27  H   UNL     1      15.076 -11.407  17.115  1.00  0.00     0.211 HD
ENDBRANCH   6  26
BRANCH   5  28
ATOM     28  O   UNL     1      18.619  -9.191  18.772  1.00  0.00    -0.385 OA
ATOM     29  H   UNL     1      18.077  -9.243  19.669  1.00  0.00     0.211 HD
ENDBRANCH   5  28
BRANCH   4  30
ATOM     30  O   UNL     1      18.724  -7.235  15.192  1.00  0.00    -0.341 OA
BRANCH  30  31
ATOM     31  C   UNL     1      19.235  -5.587  15.075  1.00  0.00     0.184 C 
ATOM     32  C   UNL     1      19.646  -4.986  16.496  1.00  0.00     0.178 C 
ATOM     33  C   UNL     1      20.546  -4.432  14.104  1.00  0.00     0.180 C 
ATOM     34  O   UNL     1      21.043  -4.699  17.034  1.00  0.00    -0.342 OA
ATOM     35  C   UNL     1      21.927  -4.945  14.650  1.00  0.00     0.201 C 
ATOM     36  C   UNL     1      22.237  -4.675  16.241  1.00  0.00     0.279 C 
BRANCH  32  37
ATOM     37  C   UNL     1      19.015  -5.856  17.675  1.00  0.00     0.191 C 
BRANCH  37  38
ATOM     38  O   UNL     1      19.846  -6.954  18.064  1.00  0.00    -0.394 OA
ATOM     39  H   UNL     1      20.661  -6.969  17.523  1.00  0.00     0.210 HD
ENDBRANCH  37  38
ENDBRANCH  32  37
BRANCH  33  40
ATOM     40  O   UNL     1      20.716  -3.181  13.217  1.00  0.00    -0.387 OA
ATOM     41  H   UNL     1      21.760  -3.311  12.673  1.00  0.00     0.211 HD
ENDBRANCH  33  40
BRANCH  35  42
ATOM     42  O   UNL     1      21.877  -6.337  14.326  1.00  0.00    -0.385 OA
ATOM     43  H   UNL     1      20.946  -6.719  14.492  1.00  0.00     0.211 HD
ENDBRANCH  35  42
BRANCH  36  44
ATOM     44  O   UNL     1      22.940  -3.483  16.526  1.00  0.00    -0.366 OA
ATOM     45  H   UNL     1      22.678  -2.717  15.988  1.00  0.00     0.213 HD
ENDBRANCH  36  44
ENDBRANCH  30  31
ENDBRANCH   4  30
TORSDOF 18
ENDMDL
MODEL 4
REMARK VINA RESULT:    -7.386      1.503      2.136
REMARK INTER + INTRA:         -11.803
REMARK INTER:                 -10.343
REMARK INTRA:                  -1.460
REMARK UNBOUND:                -1.826
REMARK SMILES OC[C@@H]1O[C@H](O[C@H]2[C@@H](O)[C@@H](O)[C@H](O[C@@H]3[C@@H](O)[C@H](O)[C@@H](O)O[C@@H]3CO)O[C@H]2CO)[C@@H](O)[C@@H](O)[C@H]1O
REMARK SMILES IDX 7 1 26 2 25 3 12 4 10 5 8 6 6 7 5 8 3 9 33 10 4 11 31 12
REMARK SMILES IDX 29 13 2 14 1 15 34 17 32 19 30 21 27 23 28 24 9 26 11 28
REMARK SMILES IDX 13 30 14 31 22 32 15 33 21 34 17 35 19 36 23 37 24 38 16 40
REMARK SMILES IDX 18 42 20 44
REMARK H PARENT 1 16 34 18 32 20 30 22 28 25 9 27 11 29 24 39 16 41 18 43
REMARK H PARENT 20 45
REMARK Flexibility Score: inf
ROOT
ATOM      1  C   UNL     1      25.759  -4.337  17.039  1.00  0.00     0.184 C 
ATOM      2  C   UNL     1      26.324  -6.069  17.242  1.00  0.00     0.178 C 
ATOM      3  O   UNL     1      25.058  -6.590  17.516  1.00  0.00    -0.341 OA
ATOM      4  C   UNL     1      24.196  -6.407  16.277  1.00  0.00     0.282 C 
ATOM      5  C   UNL     1      25.077  -5.735  14.809  1.00  0.00     0.202 C 
ATOM      6  C   UNL     1      26.170  -4.366  15.379  1.00  0.00     0.180 C 
ENDROOT
BRANCH   1   7
ATOM      7  O   UNL     1      25.945  -3.120  18.226  1.00  0.00    -0.341 OA
BRANCH   7   8
ATOM      8  C   UNL     1      26.086  -1.492  18.152  1.00  0.00     0.282 C 
ATOM      9  C   UNL     1      28.096  -0.025  17.465  1.00  0.00     0.178 C 
ATOM     10  C   UNL     1      27.599   1.314  18.214  1.00  0.00     0.177 C 
ATOM     11  O   UNL     1      27.591  -1.258  18.075  1.00  0.00    -0.341 OA
ATOM     12  C   UNL     1      26.005   1.367  18.065  1.00  0.00     0.179 C 
ATOM     13  C   UNL     1      25.209   0.063  17.308  1.00  0.00     0.202 C 
BRANCH   9  14
ATOM     14  C   UNL     1      27.973   0.034  15.941  1.00  0.00     0.191 C 
BRANCH  14  15
ATOM     15  O   UNL     1      28.107  -1.235  15.380  1.00  0.00    -0.394 OA
ATOM     16  H   UNL     1      29.058  -1.317  14.932  1.00  0.00     0.210 HD
ENDBRANCH  14  15
ENDBRANCH   9  14
BRANCH  10  17
ATOM     17  O   UNL     1      28.123   1.023  19.535  1.00  0.00    -0.387 OA
ATOM     18  H   UNL     1      29.175   0.989  19.705  1.00  0.00     0.211 HD
ENDBRANCH  10  17
BRANCH  12  19
ATOM     19  O   UNL     1      25.372   2.182  19.103  1.00  0.00    -0.387 OA
ATOM     20  H   UNL     1      25.408   3.249  18.978  1.00  0.00     0.211 HD
ENDBRANCH  12  19
BRANCH  13  21
ATOM     21  O   UNL     1      23.878   0.264  17.827  1.00  0.00    -0.385 OA
ATOM     22  H   UNL     1      23.899   0.721  18.750  1.00  0.00     0.211 HD
ENDBRANCH  13  21
ENDBRANCH   7   8
ENDBRANCH   1   7
BRANCH   2  23
ATOM     23  C   UNL     1      27.157  -7.586  16.295  1.00  0.00     0.191 C 
BRANCH  23  24
ATOM     24  O   UNL     1      27.830  -8.233  17.360  1.00  0.00    -0.394 OA
ATOM     25  H   UNL     1      27.175  -8.325  18.111  1.00  0.00     0.210 HD
ENDBRANCH  23  24
ENDBRANCH   2  23
BRANCH   6  26
ATOM     26  O   UNL     1      27.684  -4.416  15.382  1.00  0.00    -0.387 OA
ATOM     27  H   UNL     1      27.902  -3.553  15.734  1.00  0.00     0.211 HD
ENDBRANCH   6  26
BRANCH   5  28
ATOM     28  O   UNL     1      24.795  -6.444  13.457  1.00  0.00    -0.385 OA
ATOM     29  H   UNL     1      23.826  -6.653  13.110  1.00  0.00     0.211 HD
ENDBRANCH   5  28
BRANCH   4  30
ATOM     30  O   UNL     1      22.772  -5.660  16.913  1.00  0.00    -0.341 OA
BRANCH  30  31
ATOM     31  C   UNL     1      21.103  -5.846  17.327  1.00  0.00     0.184 C 
ATOM     32  C   UNL     1      20.187  -4.746  16.621  1.00  0.00     0.178 C 
ATOM     33  C   UNL     1      19.641  -7.208  17.314  1.00  0.00     0.180 C 
ATOM     34  O   UNL     1      19.239  -4.920  15.441  1.00  0.00    -0.342 OA
ATOM     35  C   UNL     1      19.407  -7.446  15.778  1.00  0.00     0.201 C 
ATOM     36  C   UNL     1      18.804  -6.183  14.918  1.00  0.00     0.279 C 
BRANCH  32  37
ATOM     37  C   UNL     1      21.067  -3.501  16.151  1.00  0.00     0.191 C 
BRANCH  37  38
ATOM     38  O   UNL     1      20.276  -2.378  15.751  1.00  0.00    -0.394 OA
ATOM     39  H   UNL     1      20.758  -1.545  15.927  1.00  0.00     0.210 HD
ENDBRANCH  37  38
ENDBRANCH  32  37
BRANCH  33  40
ATOM     40  O   UNL     1      18.584  -7.939  18.168  1.00  0.00    -0.387 OA
ATOM     41  H   UNL     1      19.180  -8.749  18.794  1.00  0.00     0.211 HD
ENDBRANCH  33  40
BRANCH  35  42
ATOM     42  O   UNL     1      20.709  -7.843  15.338  1.00  0.00    -0.385 OA
ATOM     43  H   UNL     1      21.098  -8.563  15.945  1.00  0.00     0.211 HD
ENDBRANCH  35  42
BRANCH  36  44
ATOM     44  O   UNL     1      17.397  -6.155  14.793  1.00  0.00    -0.366 OA
ATOM     45  H   UNL     1      16.975  -7.030  14.750  1.00  0.00     0.213 HD
ENDBRANCH  36  44
ENDBRANCH  30  31
ENDBRANCH   4  30
TORSDOF 18
ENDMDL
MODEL 5
REMARK VINA RESULT:    -7.108      2.394      6.794
REMARK INTER + INTRA:         -11.427
REMARK INTER:                 -10.766
REMARK INTRA:                  -0.661
REMARK UNBOUND:                -1.826
REMARK SMILES OC[C@@H]1O[C@H](O[C@H]2[C@@H](O)[C@@H](O)[C@H](O[C@@H]3[C@@H](O)[C@H](O)[C@@H](O)O[C@@H]3CO)O[C@H]2CO)[C@@H](O)[C@@H](O)[C@H]1O
REMARK SMILES IDX 7 1 26 2 25 3 12 4 10 5 8 6 6 7 5 8 3 9 33 10 4 11 31 12
REMARK SMILES IDX 29 13 2 14 1 15 34 17 32 19 30 21 27 23 28 24 9 26 11 28
REMARK SMILES IDX 13 30 14 31 22 32 15 33 21 34 17 35 19 36 23 37 24 38 16 40
REMARK SMILES IDX 18 42 20 44
REMARK H PARENT 1 16 34 18 32 20 30 22 28 25 9 27 11 29 24 39 16 41 18 43
REMARK H PARENT 20 45
REMARK Flexibility Score: inf
ROOT
ATOM      1  C   UNL     1      25.592  -5.177  18.009  1.00  0.00     0.184 C 
ATOM      2  C   UNL     1      26.588  -4.435  16.661  1.00  0.00     0.178 C 
ATOM      3  O   UNL     1      25.494  -3.957  15.936  1.00  0.00    -0.341 OA
ATOM      4  C   UNL     1      24.794  -2.905  16.781  1.00  0.00     0.282 C 
ATOM      5  C   UNL     1      25.642  -2.481  18.356  1.00  0.00     0.202 C 
ATOM      6  C   UNL     1      26.217  -4.049  19.132  1.00  0.00     0.180 C 
ENDROOT
BRANCH   1   7
ATOM      7  O   UNL     1      25.263  -6.849  18.153  1.00  0.00    -0.341 OA
BRANCH   7   8
ATOM      8  C   UNL     1      26.177  -8.193  17.966  1.00  0.00     0.282 C 
ATOM      9  C   UNL     1      26.879  -9.444  15.820  1.00  0.00     0.178 C 
ATOM     10  C   UNL     1      27.202 -10.852  16.537  1.00  0.00     0.177 C 
ATOM     11  O   UNL     1      25.887  -8.637  16.537  1.00  0.00    -0.341 OA
ATOM     12  C   UNL     1      27.854 -10.512  17.960  1.00  0.00     0.179 C 
ATOM     13  C   UNL     1      27.967  -8.879  18.441  1.00  0.00     0.202 C 
BRANCH   9  14
ATOM     14  C   UNL     1      28.124  -8.677  15.367  1.00  0.00     0.191 C 
BRANCH  14  15
ATOM     15  O   UNL     1      28.000  -7.317  15.645  1.00  0.00    -0.394 OA
ATOM     16  H   UNL     1      28.106  -6.769  14.751  1.00  0.00     0.210 HD
ENDBRANCH  14  15
ENDBRANCH   9  14
BRANCH  10  17
ATOM     17  O   UNL     1      25.858 -11.397  16.546  1.00  0.00    -0.387 OA
ATOM     18  H   UNL     1      25.571 -12.118  17.276  1.00  0.00     0.211 HD
ENDBRANCH  10  17
BRANCH  12  19
ATOM     19  O   UNL     1      27.708 -11.608  18.919  1.00  0.00    -0.387 OA
ATOM     20  H   UNL     1      26.987 -12.370  18.686  1.00  0.00     0.211 HD
ENDBRANCH  12  19
BRANCH  13  21
ATOM     21  O   UNL     1      28.101  -9.060  19.866  1.00  0.00    -0.385 OA
ATOM     22  H   UNL     1      28.347 -10.033  20.100  1.00  0.00     0.211 HD
ENDBRANCH  13  21
ENDBRANCH   7   8
ENDBRANCH   1   7
BRANCH   2  23
ATOM     23  C   UNL     1      27.935  -3.050  16.264  1.00  0.00     0.191 C 
BRANCH  23  24
ATOM     24  O   UNL     1      28.124  -3.246  14.874  1.00  0.00    -0.394 OA
ATOM     25  H   UNL     1      29.091  -3.465  14.735  1.00  0.00     0.210 HD
ENDBRANCH  23  24
ENDBRANCH   2  23
BRANCH   6  26
ATOM     26  O   UNL     1      27.669  -4.456  19.283  1.00  0.00    -0.387 OA
ATOM     27  H   UNL     1      28.120  -3.675  18.959  1.00  0.00     0.211 HD
ENDBRANCH   6  26
BRANCH   5  28
ATOM     28  O   UNL     1      25.760  -0.968  18.686  1.00  0.00    -0.385 OA
ATOM     29  H   UNL     1      25.395  -0.546  19.576  1.00  0.00     0.211 HD
ENDBRANCH   5  28
BRANCH   4  30
ATOM     30  O   UNL     1      23.144  -3.421  16.738  1.00  0.00    -0.341 OA
BRANCH  30  31
ATOM     31  C   UNL     1      21.760  -3.761  15.759  1.00  0.00     0.184 C 
ATOM     32  C   UNL     1      21.955  -5.085  14.888  1.00  0.00     0.178 C 
ATOM     33  C   UNL     1      19.785  -4.033  15.900  1.00  0.00     0.180 C 
ATOM     34  O   UNL     1      21.329  -6.458  15.101  1.00  0.00    -0.342 OA
ATOM     35  C   UNL     1      19.680  -5.370  16.720  1.00  0.00     0.201 C 
ATOM     36  C   UNL     1      20.234  -6.731  15.985  1.00  0.00     0.279 C 
BRANCH  32  37
ATOM     37  C   UNL     1      23.503  -5.448  14.760  1.00  0.00     0.191 C 
BRANCH  37  38
ATOM     38  O   UNL     1      23.886  -5.797  13.426  1.00  0.00    -0.394 OA
ATOM     39  H   UNL     1      24.488  -6.568  13.439  1.00  0.00     0.210 HD
ENDBRANCH  37  38
ENDBRANCH  32  37
BRANCH  33  40
ATOM     40  O   UNL     1      18.404  -3.570  15.392  1.00  0.00    -0.387 OA
ATOM     41  H   UNL     1      18.586  -2.523  14.871  1.00  0.00     0.211 HD
ENDBRANCH  33  40
BRANCH  35  42
ATOM     42  O   UNL     1      20.410  -5.048  17.908  1.00  0.00    -0.385 OA
ATOM     43  H   UNL     1      19.782  -4.927  18.702  1.00  0.00     0.211 HD
ENDBRANCH  35  42
BRANCH  36  44
ATOM     44  O   UNL     1      19.262  -7.474  15.278  1.00  0.00    -0.366 OA
ATOM     45  H   UNL     1      19.613  -8.013  14.549  1.00  0.00     0.213 HD
ENDBRANCH  36  44
ENDBRANCH  30  31
ENDBRANCH   4  30
TORSDOF 18
ENDMDL
MODEL 6
REMARK VINA RESULT:    -6.973      5.182      9.343
REMARK INTER + INTRA:         -11.244
REMARK INTER:                  -9.976
REMARK INTRA:                  -1.268
REMARK UNBOUND:                -1.826
REMARK SMILES OC[C@@H]1O[C@H](O[C@H]2[C@@H](O)[C@@H](O)[C@H](O[C@@H]3[C@@H](O)[C@H](O)[C@@H](O)O[C@@H]3CO)O[C@H]2CO)[C@@H](O)[C@@H](O)[C@H]1O
REMARK SMILES IDX 7 1 26 2 25 3 12 4 10 5 8 6 6 7 5 8 3 9 33 10 4 11 31 12
REMARK SMILES IDX 29 13 2 14 1 15 34 17 32 19 30 21 27 23 28 24 9 26 11 28
REMARK SMILES IDX 13 30 14 31 22 32 15 33 21 34 17 35 19 36 23 37 24 38 16 40
REMARK SMILES IDX 18 42 20 44
REMARK H PARENT 1 16 34 18 32 20 30 22 28 25 9 27 11 29 24 39 16 41 18 43
REMARK H PARENT 20 45
REMARK Flexibility Score: inf
ROOT
ATOM      1  C   UNL     1      18.023  -8.738  15.921  1.00  0.00     0.184 C 
ATOM      2  C   UNL     1      18.000 -10.198  17.029  1.00  0.00     0.178 C 
ATOM      3  O   UNL     1      16.614 -10.217  17.195  1.00  0.00    -0.341 OA
ATOM      4  C   UNL     1      15.982 -10.511  15.844  1.00  0.00     0.282 C 
ATOM      5  C   UNL     1      17.173 -10.893  14.496  1.00  0.00     0.202 C 
ATOM      6  C   UNL     1      18.571  -9.700  14.617  1.00  0.00     0.180 C 
ENDROOT
BRANCH   1   7
ATOM      7  O   UNL     1      18.452  -7.160  16.418  1.00  0.00    -0.341 OA
BRANCH   7   8
ATOM      8  C   UNL     1      19.745  -6.202  16.120  1.00  0.00     0.282 C 
ATOM      9  C   UNL     1      19.852  -3.723  15.408  1.00  0.00     0.178 C 
ATOM     10  C   UNL     1      21.343  -3.781  14.797  1.00  0.00     0.177 C 
ATOM     11  O   UNL     1      19.155  -5.012  15.372  1.00  0.00    -0.341 OA
ATOM     12  C   UNL     1      22.191  -4.769  15.731  1.00  0.00     0.179 C 
ATOM     13  C   UNL     1      21.396  -5.576  17.005  1.00  0.00     0.202 C 
BRANCH   9  14
ATOM     14  C   UNL     1      19.755  -2.979  16.742  1.00  0.00     0.191 C 
BRANCH  14  15
ATOM     15  O   UNL     1      18.707  -3.475  17.515  1.00  0.00    -0.394 OA
ATOM     16  H   UNL     1      18.773  -3.074  18.487  1.00  0.00     0.210 HD
ENDBRANCH  14  15
ENDBRANCH   9  14
BRANCH  10  17
ATOM     17  O   UNL     1      21.008  -4.261  13.470  1.00  0.00    -0.387 OA
ATOM     18  H   UNL     1      20.985  -5.306  13.262  1.00  0.00     0.211 HD
ENDBRANCH  10  17
BRANCH  12  19
ATOM     19  O   UNL     1      23.350  -5.335  15.039  1.00  0.00    -0.387 OA
ATOM     20  H   UNL     1      24.314  -5.181  15.489  1.00  0.00     0.211 HD
ENDBRANCH  12  19
BRANCH  13  21
ATOM     21  O   UNL     1      22.325  -6.660  17.215  1.00  0.00    -0.385 OA
ATOM     22  H   UNL     1      23.187  -6.333  17.674  1.00  0.00     0.211 HD
ENDBRANCH  13  21
ENDBRANCH   7   8
ENDBRANCH   1   7
BRANCH   2  23
ATOM     23  C   UNL     1      18.416 -12.124  17.123  1.00  0.00     0.191 C 
BRANCH  23  24
ATOM     24  O   UNL     1      19.802 -12.116  16.837  1.00  0.00    -0.394 OA
ATOM     25  H   UNL     1      20.229 -11.457  17.459  1.00  0.00     0.210 HD
ENDBRANCH  23  24
ENDBRANCH   2  23
BRANCH   6  26
ATOM     26  O   UNL     1      19.988 -10.068  15.011  1.00  0.00    -0.387 OA
ATOM     27  H   UNL     1      19.956  -9.954  15.961  1.00  0.00     0.211 HD
ENDBRANCH   6  26
BRANCH   5  28
ATOM     28  O   UNL     1      16.826 -12.112  13.600  1.00  0.00    -0.385 OA
ATOM     29  H   UNL     1      17.528 -12.849  13.339  1.00  0.00     0.211 HD
ENDBRANCH   5  28
BRANCH   4  30
ATOM     30  O   UNL     1      14.802  -9.256  15.697  1.00  0.00    -0.341 OA
BRANCH  30  31
ATOM     31  C   UNL     1      13.124  -8.856  15.574  1.00  0.00     0.184 C 
ATOM     32  C   UNL     1      12.738  -8.340  14.113  1.00  0.00     0.178 C 
ATOM     33  C   UNL     1      11.312  -9.644  15.876  1.00  0.00     0.180 C 
ATOM     34  O   UNL     1      11.972  -9.077  13.022  1.00  0.00    -0.342 OA
ATOM     35  C   UNL     1      11.243 -10.774  14.786  1.00  0.00     0.201 C 
ATOM     36  C   UNL     1      11.226 -10.286  13.217  1.00  0.00     0.279 C 
BRANCH  32  37
ATOM     37  C   UNL     1      14.040  -7.857  13.328  1.00  0.00     0.191 C 
BRANCH  37  38
ATOM     38  O   UNL     1      14.133  -6.432  13.228  1.00  0.00    -0.394 OA
ATOM     39  H   UNL     1      13.246  -6.044  13.092  1.00  0.00     0.210 HD
ENDBRANCH  37  38
ENDBRANCH  32  37
BRANCH  33  40
ATOM     40  O   UNL     1       9.959  -9.467  16.596  1.00  0.00    -0.387 OA
ATOM     41  H   UNL     1       9.194 -10.165  16.022  1.00  0.00     0.211 HD
ENDBRANCH  33  40
BRANCH  35  42
ATOM     42  O   UNL     1      12.391 -11.566  15.106  1.00  0.00    -0.385 OA
ATOM     43  H   UNL     1      13.244 -11.010  15.058  1.00  0.00     0.211 HD
ENDBRANCH  35  42
BRANCH  36  44
ATOM     44  O   UNL     1       9.942 -10.117  12.651  1.00  0.00    -0.366 OA
ATOM     45  H   UNL     1       9.418 -10.933  12.581  1.00  0.00     0.213 HD
ENDBRANCH  36  44
ENDBRANCH  30  31
ENDBRANCH   4  30
TORSDOF 18
ENDMDL
MODEL 7
REMARK VINA RESULT:    -6.955      2.558      6.601
REMARK INTER + INTRA:         -11.220
REMARK INTER:                  -9.528
REMARK INTRA:                  -1.693
REMARK UNBOUND:                -1.826
REMARK SMILES OC[C@@H]1O[C@H](O[C@H]2[C@@H](O)[C@@H](O)[C@H](O[C@@H]3[C@@H](O)[C@H](O)[C@@H](O)O[C@@H]3CO)O[C@H]2CO)[C@@H](O)[C@@H](O)[C@H]1O
REMARK SMILES IDX 7 1 26 2 25 3 12 4 10 5 8 6 6 7 5 8 3 9 33 10 4 11 31 12
REMARK SMILES IDX 29 13 2 14 1 15 34 17 32 19 30 21 27 23 28 24 9 26 11 28
REMARK SMILES IDX 13 30 14 31 22 32 15 33 21 34 17 35 19 36 23 37 24 38 16 40
REMARK SMILES IDX 18 42 20 44
REMARK H PARENT 1 16 34 18 32 20 30 22 28 25 9 27 11 29 24 39 16 41 18 43
REMARK H PARENT 20 45
REMARK Flexibility Score: inf
ROOT
ATOM      1  C   UNL     1      25.328  -5.471  17.888  1.00  0.00     0.184 C 
ATOM      2  C   UNL     1      26.311  -4.934  16.436  1.00  0.00     0.178 C 
ATOM      3  O   UNL     1      25.272  -5.075  15.514  1.00  0.00    -0.341 OA
ATOM      4  C   UNL     1      24.184  -4.076  15.875  1.00  0.00     0.282 C 
ATOM      5  C   UNL     1      24.606  -2.928  17.248  1.00  0.00     0.202 C 
ATOM      6  C   UNL     1      25.431  -3.906  18.573  1.00  0.00     0.180 C 
ENDROOT
BRANCH   1   7
ATOM      7  O   UNL     1      25.432  -7.022  18.598  1.00  0.00    -0.341 OA
BRANCH   7   8
ATOM      8  C   UNL     1      26.202  -8.402  18.174  1.00  0.00     0.282 C 
ATOM      9  C   UNL     1      26.800  -9.325  15.838  1.00  0.00     0.178 C 
ATOM     10  C   UNL     1      26.962 -10.863  16.295  1.00  0.00     0.177 C 
ATOM     11  O   UNL     1      25.887  -8.556  16.690  1.00  0.00    -0.341 OA
ATOM     12  C   UNL     1      27.625 -10.849  17.753  1.00  0.00     0.179 C 
ATOM     13  C   UNL     1      27.903  -9.347  18.513  1.00  0.00     0.202 C 
BRANCH   9  14
ATOM     14  C   UNL     1      28.124  -8.627  15.523  1.00  0.00     0.191 C 
BRANCH  14  15
ATOM     15  O   UNL     1      27.948  -7.249  15.411  1.00  0.00    -0.394 OA
ATOM     16  H   UNL     1      28.426  -6.907  14.537  1.00  0.00     0.210 HD
ENDBRANCH  14  15
ENDBRANCH   9  14
BRANCH  10  17
ATOM     17  O   UNL     1      25.568 -11.255  16.214  1.00  0.00    -0.387 OA
ATOM     18  H   UNL     1      25.240 -11.936  15.462  1.00  0.00     0.211 HD
ENDBRANCH  10  17
BRANCH  12  19
ATOM     19  O   UNL     1      27.351 -12.074  18.504  1.00  0.00    -0.387 OA
ATOM     20  H   UNL     1      27.324 -12.995  17.950  1.00  0.00     0.211 HD
ENDBRANCH  12  19
BRANCH  13  21
ATOM     21  O   UNL     1      27.997  -9.789  19.883  1.00  0.00    -0.385 OA
ATOM     22  H   UNL     1      27.771  -9.028  20.540  1.00  0.00     0.211 HD
ENDBRANCH  13  21
ENDBRANCH   7   8
ENDBRANCH   1   7
BRANCH   2  23
ATOM     23  C   UNL     1      27.293  -3.408  15.664  1.00  0.00     0.191 C 
BRANCH  23  24
ATOM     24  O   UNL     1      28.125  -4.068  14.727  1.00  0.00    -0.394 OA
ATOM     25  H   UNL     1      27.710  -4.960  14.540  1.00  0.00     0.210 HD
ENDBRANCH  23  24
ENDBRANCH   2  23
BRANCH   6  26
ATOM     26  O   UNL     1      26.891  -3.777  18.959  1.00  0.00    -0.387 OA
ATOM     27  H   UNL     1      26.821  -3.478  19.866  1.00  0.00     0.211 HD
ENDBRANCH   6  26
BRANCH   5  28
ATOM     28  O   UNL     1      24.263  -1.432  17.021  1.00  0.00    -0.385 OA
ATOM     29  H   UNL     1      23.324  -1.104  16.683  1.00  0.00     0.211 HD
ENDBRANCH   5  28
BRANCH   4  30
ATOM     30  O   UNL     1      22.762  -5.058  15.905  1.00  0.00    -0.341 OA
BRANCH  30  31
ATOM     31  C   UNL     1      21.216  -5.344  16.626  1.00  0.00     0.184 C 
ATOM     32  C   UNL     1      20.078  -4.427  15.983  1.00  0.00     0.178 C 
ATOM     33  C   UNL     1      19.933  -6.826  17.014  1.00  0.00     0.180 C 
ATOM     34  O   UNL     1      18.973  -4.831  15.014  1.00  0.00    -0.342 OA
ATOM     35  C   UNL     1      19.476  -7.271  15.577  1.00  0.00     0.201 C 
ATOM     36  C   UNL     1      18.601  -6.182  14.711  1.00  0.00     0.279 C 
BRANCH  32  37
ATOM     37  C   UNL     1      20.724  -3.173  15.238  1.00  0.00     0.191 C 
BRANCH  37  38
ATOM     38  O   UNL     1      21.258  -2.201  16.143  1.00  0.00    -0.394 OA
ATOM     39  H   UNL     1      21.410  -2.605  17.020  1.00  0.00     0.210 HD
ENDBRANCH  37  38
ENDBRANCH  32  37
BRANCH  33  40
ATOM     40  O   UNL     1      19.121  -7.542  18.113  1.00  0.00    -0.387 OA
ATOM     41  H   UNL     1      18.815  -6.701  18.888  1.00  0.00     0.211 HD
ENDBRANCH  33  40
BRANCH  35  42
ATOM     42  O   UNL     1      20.723  -7.596  14.956  1.00  0.00    -0.385 OA
ATOM     43  H   UNL     1      20.957  -8.578  15.096  1.00  0.00     0.211 HD
ENDBRANCH  35  42
BRANCH  36  44
ATOM     44  O   UNL     1      17.199  -6.299  14.835  1.00  0.00    -0.366 OA
ATOM     45  H   UNL     1      16.727  -6.441  13.997  1.00  0.00     0.213 HD
ENDBRANCH  36  44
ENDBRANCH  30  31
ENDBRANCH   4  30
TORSDOF 18
ENDMDL
MODEL 8
REMARK VINA RESULT:    -6.857      3.656      6.724
REMARK INTER + INTRA:         -11.087
REMARK INTER:                 -10.095
REMARK INTRA:                  -0.992
REMARK UNBOUND:                -1.826
REMARK SMILES OC[C@@H]1O[C@H](O[C@H]2[C@@H](O)[C@@H](O)[C@H](O[C@@H]3[C@@H](O)[C@H](O)[C@@H](O)O[C@@H]3CO)O[C@H]2CO)[C@@H](O)[C@@H](O)[C@H]1O
REMARK SMILES IDX 7 1 26 2 25 3 12 4 10 5 8 6 6 7 5 8 3 9 33 10 4 11 31 12
REMARK SMILES IDX 29 13 2 14 1 15 34 17 32 19 30 21 27 23 28 24 9 26 11 28
REMARK SMILES IDX 13 30 14 31 22 32 15 33 21 34 17 35 19 36 23 37 24 38 16 40
REMARK SMILES IDX 18 42 20 44
REMARK H PARENT 1 16 34 18 32 20 30 22 28 25 9 27 11 29 24 39 16 41 18 43
REMARK H PARENT 20 45
REMARK Flexibility Score: inf
ROOT
ATOM      1  C   UNL     1      21.930  -5.963  16.672  1.00  0.00     0.184 C 
ATOM      2  C   UNL     1      21.423  -5.057  15.160  1.00  0.00     0.178 C 
ATOM      3  O   UNL     1      20.424  -5.962  14.793  1.00  0.00    -0.341 OA
ATOM      4  C   UNL     1      19.349  -5.937  15.867  1.00  0.00     0.282 C 
ATOM      5  C   UNL     1      19.590  -4.673  17.181  1.00  0.00     0.202 C 
ATOM      6  C   UNL     1      21.368  -4.685  17.661  1.00  0.00     0.180 C 
ENDROOT
BRANCH   1   7
ATOM      7  O   UNL     1      23.324  -6.946  16.781  1.00  0.00    -0.341 OA
BRANCH   7   8
ATOM      8  C   UNL     1      24.924  -6.619  16.881  1.00  0.00     0.282 C 
ATOM      9  C   UNL     1      26.850  -8.015  17.883  1.00  0.00     0.178 C 
ATOM     10  C   UNL     1      27.868  -6.781  18.092  1.00  0.00     0.177 C 
ATOM     11  O   UNL     1      25.439  -7.618  17.910  1.00  0.00    -0.341 OA
ATOM     12  C   UNL     1      27.663  -5.792  16.850  1.00  0.00     0.179 C 
ATOM     13  C   UNL     1      26.444  -6.147  15.711  1.00  0.00     0.202 C 
BRANCH   9  14
ATOM     14  C   UNL     1      27.232  -8.948  16.732  1.00  0.00     0.191 C 
BRANCH  14  15
ATOM     15  O   UNL     1      26.303  -9.977  16.595  1.00  0.00    -0.394 OA
ATOM     16  H   UNL     1      25.612  -9.929  17.390  1.00  0.00     0.210 HD
ENDBRANCH  14  15
ENDBRANCH   9  14
BRANCH  10  17
ATOM     17  O   UNL     1      27.383  -6.324  19.381  1.00  0.00    -0.387 OA
ATOM     18  H   UNL     1      27.655  -6.837  20.274  1.00  0.00     0.211 HD
ENDBRANCH  10  17
BRANCH  12  19
ATOM     19  O   UNL     1      28.090  -4.424  17.147  1.00  0.00    -0.387 OA
ATOM     20  H   UNL     1      27.727  -3.984  18.058  1.00  0.00     0.211 HD
ENDBRANCH  12  19
BRANCH  13  21
ATOM     21  O   UNL     1      26.275  -4.838  15.129  1.00  0.00    -0.385 OA
ATOM     22  H   UNL     1      26.959  -4.668  14.379  1.00  0.00     0.211 HD
ENDBRANCH  13  21
ENDBRANCH   7   8
ENDBRANCH   1   7
BRANCH   2  23
ATOM     23  C   UNL     1      20.650  -3.362  14.512  1.00  0.00     0.191 C 
BRANCH  23  24
ATOM     24  O   UNL     1      20.480  -3.651  13.137  1.00  0.00    -0.394 OA
ATOM     25  H   UNL     1      19.915  -2.921  12.749  1.00  0.00     0.210 HD
ENDBRANCH  23  24
ENDBRANCH   2  23
BRANCH   6  26
ATOM     26  O   UNL     1      22.345  -3.559  17.385  1.00  0.00    -0.387 OA
ATOM     27  H   UNL     1      23.060  -4.030  16.956  1.00  0.00     0.211 HD
ENDBRANCH   6  26
BRANCH   5  28
ATOM     28  O   UNL     1      18.339  -3.843  17.572  1.00  0.00    -0.385 OA
ATOM     29  H   UNL     1      18.184  -3.460  18.538  1.00  0.00     0.211 HD
ENDBRANCH   5  28
BRANCH   4  30
ATOM     30  O   UNL     1      19.141  -7.613  16.235  1.00  0.00    -0.341 OA
BRANCH  30  31
ATOM     31  C   UNL     1      18.030  -8.925  16.430  1.00  0.00     0.184 C 
ATOM     32  C   UNL     1      16.870  -8.893  15.335  1.00  0.00     0.178 C 
ATOM     33  C   UNL     1      17.987 -10.919  16.554  1.00  0.00     0.180 C 
ATOM     34  O   UNL     1      16.697  -9.787  14.113  1.00  0.00    -0.342 OA
ATOM     35  C   UNL     1      18.440 -11.362  15.116  1.00  0.00     0.201 C 
ATOM     36  C   UNL     1      17.421 -11.002  13.878  1.00  0.00     0.279 C 
BRANCH  32  37
ATOM     37  C   UNL     1      16.744  -7.437  14.695  1.00  0.00     0.191 C 
BRANCH  37  38
ATOM     38  O   UNL     1      15.557  -7.273  13.912  1.00  0.00    -0.394 OA
ATOM     39  H   UNL     1      15.643  -6.493  13.328  1.00  0.00     0.210 HD
ENDBRANCH  37  38
ENDBRANCH  32  37
BRANCH  33  40
ATOM     40  O   UNL     1      17.532 -12.125  17.402  1.00  0.00    -0.387 OA
ATOM     41  H   UNL     1      17.109 -11.670  18.409  1.00  0.00     0.211 HD
ENDBRANCH  33  40
BRANCH  35  42
ATOM     42  O   UNL     1      19.710 -10.716  14.992  1.00  0.00    -0.385 OA
ATOM     43  H   UNL     1      20.131 -10.906  14.083  1.00  0.00     0.211 HD
ENDBRANCH  35  42
BRANCH  36  44
ATOM     44  O   UNL     1      16.497 -12.016  13.541  1.00  0.00    -0.366 OA
ATOM     45  H   UNL     1      16.590 -12.838  14.053  1.00  0.00     0.213 HD
ENDBRANCH  36  44
ENDBRANCH  30  31
ENDBRANCH   4  30
TORSDOF 18
ENDMDL
MODEL 9
REMARK VINA RESULT:    -6.734      6.124     13.468
REMARK INTER + INTRA:         -10.921
REMARK INTER:                 -10.839
REMARK INTRA:                  -0.082
REMARK UNBOUND:                -1.826
REMARK SMILES OC[C@@H]1O[C@H](O[C@H]2[C@@H](O)[C@@H](O)[C@H](O[C@@H]3[C@@H](O)[C@H](O)[C@@H](O)O[C@@H]3CO)O[C@H]2CO)[C@@H](O)[C@@H](O)[C@H]1O
REMARK SMILES IDX 7 1 26 2 25 3 12 4 10 5 8 6 6 7 5 8 3 9 33 10 4 11 31 12
REMARK SMILES IDX 29 13 2 14 1 15 34 17 32 19 30 21 27 23 28 24 9 26 11 28
REMARK SMILES IDX 13 30 14 31 22 32 15 33 21 34 17 35 19 36 23 37 24 38 16 40
REMARK SMILES IDX 18 42 20 44
REMARK H PARENT 1 16 34 18 32 20 30 22 28 25 9 27 11 29 24 39 16 41 18 43
REMARK H PARENT 20 45
REMARK Flexibility Score: inf
ROOT
ATOM      1  C   UNL     1      14.725  -9.007  14.707  1.00  0.00     0.184 C 
ATOM      2  C   UNL     1      15.640 -10.293  13.773  1.00  0.00     0.178 C 
ATOM      3  O   UNL     1      16.805  -9.539  13.618  1.00  0.00    -0.341 OA
ATOM      4  C   UNL     1      17.397  -9.300  14.998  1.00  0.00     0.282 C 
ATOM      5  C   UNL     1      16.537 -10.164  16.374  1.00  0.00     0.202 C 
ATOM      6  C   UNL     1      14.722  -9.988  16.110  1.00  0.00     0.180 C 
ENDROOT
BRANCH   1   7
ATOM      7  O   UNL     1      13.519  -8.002  14.031  1.00  0.00    -0.341 OA
BRANCH   7   8
ATOM      8  C   UNL     1      11.961  -8.252  13.601  1.00  0.00     0.282 C 
ATOM      9  C   UNL     1      10.140  -9.708  14.710  1.00  0.00     0.178 C 
ATOM     10  C   UNL     1       9.204  -9.842  13.403  1.00  0.00     0.177 C 
ATOM     11  O   UNL     1      11.555  -9.489  14.395  1.00  0.00    -0.341 OA
ATOM     12  C   UNL     1       9.273  -8.439  12.635  1.00  0.00     0.179 C 
ATOM     13  C   UNL     1      10.313  -7.226  13.234  1.00  0.00     0.202 C 
BRANCH   9  14
ATOM     14  C   UNL     1       9.572  -8.784  15.790  1.00  0.00     0.191 C 
BRANCH  14  15
ATOM     15  O   UNL     1      10.474  -8.634  16.841  1.00  0.00    -0.394 OA
ATOM     16  H   UNL     1      10.142  -9.198  17.667  1.00  0.00     0.210 HD
ENDBRANCH  14  15
ENDBRANCH   9  14
BRANCH  10  17
ATOM     17  O   UNL     1       9.876 -10.965  12.777  1.00  0.00    -0.387 OA
ATOM     18  H   UNL     1      10.929 -11.092  12.881  1.00  0.00     0.211 HD
ENDBRANCH  10  17
BRANCH  12  19
ATOM     19  O   UNL     1       8.939  -8.561  11.216  1.00  0.00    -0.387 OA
ATOM     20  H   UNL     1       8.170  -7.913  10.835  1.00  0.00     0.211 HD
ENDBRANCH  12  19
BRANCH  13  21
ATOM     21  O   UNL     1      10.448  -6.421  12.044  1.00  0.00    -0.385 OA
ATOM     22  H   UNL     1       9.671  -6.586  11.388  1.00  0.00     0.211 HD
ENDBRANCH  13  21
ENDBRANCH   7   8
ENDBRANCH   1   7
BRANCH   2  23
ATOM     23  C   UNL     1      16.384 -12.115  13.898  1.00  0.00     0.191 C 
BRANCH  23  24
ATOM     24  O   UNL     1      17.773 -11.840  13.890  1.00  0.00    -0.394 OA
ATOM     25  H   UNL     1      18.212 -12.548  13.334  1.00  0.00     0.210 HD
ENDBRANCH  23  24
ENDBRANCH   2  23
BRANCH   6  26
ATOM     26  O   UNL     1      13.788 -11.126  15.752  1.00  0.00    -0.387 OA
ATOM     27  H   UNL     1      13.274 -11.209  16.556  1.00  0.00     0.211 HD
ENDBRANCH   6  26
BRANCH   5  28
ATOM     28  O   UNL     1      17.445 -10.886  17.405  1.00  0.00    -0.385 OA
ATOM     29  H   UNL     1      18.470 -10.681  17.508  1.00  0.00     0.211 HD
ENDBRANCH   5  28
BRANCH   4  30
ATOM     30  O   UNL     1      17.657  -7.591  15.007  1.00  0.00    -0.341 OA
BRANCH  30  31
ATOM     31  C   UNL     1      18.304  -6.231  15.857  1.00  0.00     0.184 C 
ATOM     32  C   UNL     1      19.317  -6.673  17.009  1.00  0.00     0.178 C 
ATOM     33  C   UNL     1      19.275  -4.514  15.533  1.00  0.00     0.180 C 
ATOM     34  O   UNL     1      20.837  -6.576  17.020  1.00  0.00    -0.342 OA
ATOM     35  C   UNL     1      20.675  -5.005  15.014  1.00  0.00     0.201 C 
ATOM     36  C   UNL     1      21.617  -5.817  16.087  1.00  0.00     0.279 C 
BRANCH  32  37
ATOM     37  C   UNL     1      19.084  -8.201  17.403  1.00  0.00     0.191 C 
BRANCH  37  38
ATOM     38  O   UNL     1      18.682  -8.370  18.766  1.00  0.00    -0.394 OA
ATOM     39  H   UNL     1      18.466  -9.308  18.941  1.00  0.00     0.210 HD
ENDBRANCH  37  38
ENDBRANCH  32  37
BRANCH  33  40
ATOM     40  O   UNL     1      19.256  -2.988  15.755  1.00  0.00    -0.387 OA
ATOM     41  H   UNL     1      18.654  -2.815  16.760  1.00  0.00     0.211 HD
ENDBRANCH  33  40
BRANCH  35  42
ATOM     42  O   UNL     1      20.310  -5.803  13.884  1.00  0.00    -0.385 OA
ATOM     43  H   UNL     1      20.824  -5.517  13.051  1.00  0.00     0.211 HD
ENDBRANCH  35  42
BRANCH  36  44
ATOM     44  O   UNL     1      22.533  -5.021  16.811  1.00  0.00    -0.366 OA
ATOM     45  H   UNL     1      22.401  -4.062  16.716  1.00  0.00     0.213 HD
ENDBRANCH  36  44
ENDBRANCH  30  31
ENDBRANCH   4  30
TORSDOF 18
ENDMDL
