MODEL 1
REMARK VINA RESULT:    -4.629      0.000      0.000
REMARK INTER + INTRA:         -10.681
REMARK INTER:                  -8.417
REMARK INTRA:                  -2.264
REMARK UNBOUND:                -2.264
REMARK SMILES CCCCCCCCCCCCCCCC(=O)[O-]
REMARK SMILES IDX 9 1 10 2 11 3 12 4 13 5 14 6 15 7 16 8 17 9 18 10 8 11 7 12
REMARK SMILES IDX 6 13 5 14 4 15 3 16 2 17 1 18
REMARK H PARENT
REMARK Flexibility Score: inf
ROOT
ATOM      1  C   UNL     1      11.001  15.677 -20.408  1.00  0.00     0.000 C 
ENDROOT
BRANCH   1   2
ATOM      2  C   UNL     1      12.293  15.867 -19.585  1.00  0.00     0.000 C 
BRANCH   2   3
ATOM      3  C   UNL     1      13.536  15.346 -20.328  1.00  0.00     0.000 C 
BRANCH   3   4
ATOM      4  C   UNL     1      14.675  14.946 -19.376  1.00  0.00     0.000 C 
BRANCH   4   5
ATOM      5  C   UNL     1      14.172  14.178 -18.142  1.00  0.00     0.000 C 
BRANCH   5   6
ATOM      6  C   UNL     1      14.444  14.930 -16.829  1.00  0.00     0.006 C 
BRANCH   6   7
ATOM      7  C   UNL     1      15.942  15.074 -16.529  1.00  0.00     0.053 C 
BRANCH   7   8
ATOM      8  C   UNL     1      16.582  13.727 -16.411  1.00  0.00     0.041 C 
ATOM      9  O   UNL     1      17.530  13.406 -17.175  1.00  0.00    -0.550 OA
ATOM     10  O   UNL     1      16.165  12.842 -15.424  1.00  0.00    -0.550 OA
ENDBRANCH   7   8
ENDBRANCH   6   7
ENDBRANCH   5   6
ENDBRANCH   4   5
ENDBRANCH   3   4
ENDBRANCH   2   3
ENDBRANCH   1   2
BRANCH   1  11
ATOM     11  C   UNL     1       9.922  14.860 -19.677  1.00  0.00     0.000 C 
BRANCH  11  12
ATOM     12  C   UNL     1      10.324  14.494 -18.238  1.00  0.00    -0.000 C 
BRANCH  12  13
ATOM     13  C   UNL     1      10.582  12.990 -18.057  1.00  0.00    -0.000 C 
BRANCH  13  14
ATOM     14  C   UNL     1      10.749  12.254 -19.398  1.00  0.00    -0.000 C 
BRANCH  14  15
ATOM     15  C   UNL     1      12.131  11.598 -19.547  1.00  0.00    -0.000 C 
BRANCH  15  16
ATOM     16  C   UNL     1      12.530  11.387 -21.018  1.00  0.00    -0.000 C 
BRANCH  16  17
ATOM     17  C   UNL     1      14.019  11.677 -21.270  1.00  0.00    -0.003 C 
ATOM     18  C   UNL     1      14.261  12.443 -22.571  1.00  0.00     0.004 C 
ENDBRANCH  16  17
ENDBRANCH  15  16
ENDBRANCH  14  15
ENDBRANCH  13  14
ENDBRANCH  12  13
ENDBRANCH  11  12
ENDBRANCH   1  11
TORSDOF 14
ENDMDL
MODEL 2
REMARK VINA RESULT:    -4.415      1.421      3.424
REMARK INTER + INTRA:         -10.293
REMARK INTER:                  -8.216
REMARK INTRA:                  -2.077
REMARK UNBOUND:                -2.264
REMARK SMILES CCCCCCCCCCCCCCCC(=O)[O-]
REMARK SMILES IDX 9 1 10 2 11 3 12 4 13 5 14 6 15 7 16 8 17 9 18 10 8 11 7 12
REMARK SMILES IDX 6 13 5 14 4 15 3 16 2 17 1 18
REMARK H PARENT
REMARK Flexibility Score: inf
ROOT
ATOM      1  C   UNL     1      14.448  13.611 -20.205  1.00  0.00     0.000 C 
ENDROOT
BRANCH   1   2
ATOM      2  C   UNL     1      13.888  14.615 -19.175  1.00  0.00     0.000 C 
BRANCH   2   3
ATOM      3  C   UNL     1      13.614  15.995 -19.799  1.00  0.00     0.000 C 
BRANCH   3   4
ATOM      4  C   UNL     1      14.756  16.996 -19.559  1.00  0.00     0.000 C 
BRANCH   4   5
ATOM      5  C   UNL     1      14.921  17.359 -18.074  1.00  0.00     0.000 C 
BRANCH   5   6
ATOM      6  C   UNL     1      16.343  17.090 -17.556  1.00  0.00     0.006 C 
BRANCH   6   7
ATOM      7  C   UNL     1      16.450  15.774 -16.773  1.00  0.00     0.053 C 
BRANCH   7   8
ATOM      8  C   UNL     1      17.221  14.762 -17.560  1.00  0.00     0.041 C 
ATOM      9  O   UNL     1      17.566  13.674 -17.028  1.00  0.00    -0.550 OA
ATOM     10  O   UNL     1      17.516  14.997 -18.897  1.00  0.00    -0.550 OA
ENDBRANCH   7   8
ENDBRANCH   6   7
ENDBRANCH   5   6
ENDBRANCH   4   5
ENDBRANCH   3   4
ENDBRANCH   2   3
ENDBRANCH   1   2
BRANCH   1  11
ATOM     11  C   UNL     1      13.409  13.154 -21.244  1.00  0.00     0.000 C 
BRANCH  11  12
ATOM     12  C   UNL     1      13.138  11.641 -21.190  1.00  0.00    -0.000 C 
BRANCH  12  13
ATOM     13  C   UNL     1      12.379  11.218 -19.922  1.00  0.00    -0.000 C 
BRANCH  13  14
ATOM     14  C   UNL     1      11.064  11.994 -19.735  1.00  0.00    -0.000 C 
BRANCH  14  15
ATOM     15  C   UNL     1      10.823  12.411 -18.275  1.00  0.00    -0.000 C 
BRANCH  15  16
ATOM     16  C   UNL     1      10.408  13.887 -18.142  1.00  0.00    -0.000 C 
BRANCH  16  17
ATOM     17  C   UNL     1      10.014  14.511 -19.490  1.00  0.00    -0.003 C 
ATOM     18  C   UNL     1       9.963  16.038 -19.444  1.00  0.00     0.004 C 
ENDBRANCH  16  17
ENDBRANCH  15  16
ENDBRANCH  14  15
ENDBRANCH  13  14
ENDBRANCH  12  13
ENDBRANCH  11  12
ENDBRANCH   1  11
TORSDOF 14
ENDMDL
MODEL 3
REMARK VINA RESULT:    -4.396      2.885      5.976
REMARK INTER + INTRA:         -10.258
REMARK INTER:                  -7.833
REMARK INTRA:                  -2.425
REMARK UNBOUND:                -2.264
REMARK SMILES CCCCCCCCCCCCCCCC(=O)[O-]
REMARK SMILES IDX 9 1 10 2 11 3 12 4 13 5 14 6 15 7 16 8 17 9 18 10 8 11 7 12
REMARK SMILES IDX 6 13 5 14 4 15 3 16 2 17 1 18
REMARK H PARENT
REMARK Flexibility Score: inf
ROOT
ATOM      1  C   UNL     1      16.494  15.340 -17.103  1.00  0.00     0.000 C 
ENDROOT
BRANCH   1   2
ATOM      2  C   UNL     1      15.641  14.235 -16.444  1.00  0.00     0.000 C 
BRANCH   2   3
ATOM      3  C   UNL     1      14.306  14.017 -17.177  1.00  0.00     0.000 C 
BRANCH   3   4
ATOM      4  C   UNL     1      14.351  14.473 -18.645  1.00  0.00     0.000 C 
BRANCH   4   5
ATOM      5  C   UNL     1      12.969  14.437 -19.318  1.00  0.00     0.000 C 
BRANCH   5   6
ATOM      6  C   UNL     1      12.804  13.234 -20.261  1.00  0.00     0.006 C 
BRANCH   6   7
ATOM      7  C   UNL     1      12.244  11.996 -19.549  1.00  0.00     0.053 C 
BRANCH   7   8
ATOM      8  C   UNL     1      10.958  12.327 -18.862  1.00  0.00     0.041 C 
ATOM      9  O   UNL     1       9.917  12.547 -19.536  1.00  0.00    -0.550 OA
ATOM     10  O   UNL     1      10.895  12.346 -17.474  1.00  0.00    -0.550 OA
ENDBRANCH   7   8
ENDBRANCH   6   7
ENDBRANCH   5   6
ENDBRANCH   4   5
ENDBRANCH   3   4
ENDBRANCH   2   3
ENDBRANCH   1   2
BRANCH   1  11
ATOM     11  C   UNL     1      16.302  16.727 -16.465  1.00  0.00     0.000 C 
BRANCH  11  12
ATOM     12  C   UNL     1      15.608  17.725 -17.407  1.00  0.00    -0.000 C 
BRANCH  12  13
ATOM     13  C   UNL     1      14.134  17.961 -17.041  1.00  0.00    -0.000 C 
BRANCH  13  14
ATOM     14  C   UNL     1      13.805  17.519 -15.604  1.00  0.00    -0.000 C 
BRANCH  14  15
ATOM     15  C   UNL     1      12.540  16.650 -15.526  1.00  0.00    -0.000 C 
BRANCH  15  16
ATOM     16  C   UNL     1      11.626  16.824 -16.753  1.00  0.00    -0.000 C 
BRANCH  16  17
ATOM     17  C   UNL     1      10.448  15.836 -16.752  1.00  0.00    -0.003 C 
ATOM     18  C   UNL     1       9.720  15.782 -18.096  1.00  0.00     0.004 C 
ENDBRANCH  16  17
ENDBRANCH  15  16
ENDBRANCH  14  15
ENDBRANCH  13  14
ENDBRANCH  12  13
ENDBRANCH  11  12
ENDBRANCH   1  11
TORSDOF 14
ENDMDL
MODEL 4
REMARK VINA RESULT:    -4.376      1.455      3.264
REMARK INTER + INTRA:         -10.222
REMARK INTER:                  -8.227
REMARK INTRA:                  -1.995
REMARK UNBOUND:                -2.264
REMARK SMILES CCCCCCCCCCCCCCCC(=O)[O-]
REMARK SMILES IDX 9 1 10 2 11 3 12 4 13 5 14 6 15 7 16 8 17 9 18 10 8 11 7 12
REMARK SMILES IDX 6 13 5 14 4 15 3 16 2 17 1 18
REMARK H PARENT
REMARK Flexibility Score: inf
ROOT
ATOM      1  C   UNL     1      13.113  14.833 -17.991  1.00  0.00     0.000 C 
ENDROOT
BRANCH   1   2
ATOM      2  C   UNL     1      12.748  15.659 -16.739  1.00  0.00     0.000 C 
BRANCH   2   3
ATOM      3  C   UNL     1      13.478  17.014 -16.704  1.00  0.00     0.000 C 
BRANCH   3   4
ATOM      4  C   UNL     1      14.908  16.906 -16.150  1.00  0.00     0.000 C 
BRANCH   4   5
ATOM      5  C   UNL     1      15.968  17.390 -17.153  1.00  0.00     0.000 C 
BRANCH   5   6
ATOM      6  C   UNL     1      16.749  16.230 -17.791  1.00  0.00     0.006 C 
BRANCH   6   7
ATOM      7  C   UNL     1      16.551  14.902 -17.046  1.00  0.00     0.053 C 
BRANCH   7   8
ATOM      8  C   UNL     1      17.342  13.815 -17.701  1.00  0.00     0.041 C 
ATOM      9  O   UNL     1      18.155  13.128 -17.028  1.00  0.00    -0.550 OA
ATOM     10  O   UNL     1      17.147  13.525 -19.046  1.00  0.00    -0.550 OA
ENDBRANCH   7   8
ENDBRANCH   6   7
ENDBRANCH   5   6
ENDBRANCH   4   5
ENDBRANCH   3   4
ENDBRANCH   2   3
ENDBRANCH   1   2
BRANCH   1  11
ATOM     11  C   UNL     1      12.772  15.541 -19.314  1.00  0.00     0.000 C 
BRANCH  11  12
ATOM     12  C   UNL     1      13.753  15.193 -20.446  1.00  0.00    -0.000 C 
BRANCH  12  13
ATOM     13  C   UNL     1      13.069  14.491 -21.630  1.00  0.00    -0.000 C 
BRANCH  13  14
ATOM     14  C   UNL     1      13.819  13.224 -22.078  1.00  0.00    -0.000 C 
BRANCH  14  15
ATOM     15  C   UNL     1      13.853  12.140 -20.989  1.00  0.00    -0.000 C 
BRANCH  15  16
ATOM     16  C   UNL     1      12.488  11.457 -20.791  1.00  0.00    -0.000 C 
BRANCH  16  17
ATOM     17  C   UNL     1      11.882  11.745 -19.408  1.00  0.00    -0.003 C 
ATOM     18  C   UNL     1      10.480  12.350 -19.489  1.00  0.00     0.004 C 
ENDBRANCH  16  17
ENDBRANCH  15  16
ENDBRANCH  14  15
ENDBRANCH  13  14
ENDBRANCH  12  13
ENDBRANCH  11  12
ENDBRANCH   1  11
TORSDOF 14
ENDMDL
MODEL 5
REMARK VINA RESULT:    -4.358      2.363      4.043
REMARK INTER + INTRA:         -10.189
REMARK INTER:                  -8.454
REMARK INTRA:                  -1.735
REMARK UNBOUND:                -2.264
REMARK SMILES CCCCCCCCCCCCCCCC(=O)[O-]
REMARK SMILES IDX 9 1 10 2 11 3 12 4 13 5 14 6 15 7 16 8 17 9 18 10 8 11 7 12
REMARK SMILES IDX 6 13 5 14 4 15 3 16 2 17 1 18
REMARK H PARENT
REMARK Flexibility Score: inf
ROOT
ATOM      1  C   UNL     1      14.887  12.893 -20.996  1.00  0.00     0.000 C 
ENDROOT
BRANCH   1   2
ATOM      2  C   UNL     1      16.376  12.503 -20.876  1.00  0.00     0.000 C 
BRANCH   2   3
ATOM      3  C   UNL     1      17.130  13.391 -19.871  1.00  0.00     0.000 C 
BRANCH   3   4
ATOM      4  C   UNL     1      16.197  14.051 -18.843  1.00  0.00     0.000 C 
BRANCH   4   5
ATOM      5  C   UNL     1      16.958  14.916 -17.823  1.00  0.00     0.000 C 
BRANCH   5   6
ATOM      6  C   UNL     1      16.075  15.348 -16.642  1.00  0.00     0.006 C 
BRANCH   6   7
ATOM      7  C   UNL     1      16.123  16.861 -16.389  1.00  0.00     0.053 C 
BRANCH   7   8
ATOM      8  C   UNL     1      14.765  17.463 -16.573  1.00  0.00     0.041 C 
ATOM      9  O   UNL     1      14.451  17.995 -17.669  1.00  0.00    -0.550 OA
ATOM     10  O   UNL     1      13.828  17.393 -15.548  1.00  0.00    -0.550 OA
ENDBRANCH   7   8
ENDBRANCH   6   7
ENDBRANCH   5   6
ENDBRANCH   4   5
ENDBRANCH   3   4
ENDBRANCH   2   3
ENDBRANCH   1   2
BRANCH   1  11
ATOM     11  C   UNL     1      14.195  12.301 -22.235  1.00  0.00     0.000 C 
BRANCH  11  12
ATOM     12  C   UNL     1      13.010  11.388 -21.877  1.00  0.00    -0.000 C 
BRANCH  12  13
ATOM     13  C   UNL     1      12.883  11.145 -20.365  1.00  0.00    -0.000 C 
BRANCH  13  14
ATOM     14  C   UNL     1      11.636  11.816 -19.762  1.00  0.00    -0.000 C 
BRANCH  14  15
ATOM     15  C   UNL     1      11.799  12.135 -18.268  1.00  0.00    -0.000 C 
BRANCH  15  16
ATOM     16  C   UNL     1      12.564  13.448 -18.022  1.00  0.00    -0.000 C 
BRANCH  16  17
ATOM     17  C   UNL     1      11.891  14.655 -18.694  1.00  0.00    -0.003 C 
ATOM     18  C   UNL     1      12.860  15.475 -19.546  1.00  0.00     0.004 C 
ENDBRANCH  16  17
ENDBRANCH  15  16
ENDBRANCH  14  15
ENDBRANCH  13  14
ENDBRANCH  12  13
ENDBRANCH  11  12
ENDBRANCH   1  11
TORSDOF 14
ENDMDL
MODEL 6
REMARK VINA RESULT:    -4.310      1.723      2.619
REMARK INTER + INTRA:         -10.101
REMARK INTER:                  -8.497
REMARK INTRA:                  -1.604
REMARK UNBOUND:                -2.264
REMARK SMILES CCCCCCCCCCCCCCCC(=O)[O-]
REMARK SMILES IDX 9 1 10 2 11 3 12 4 13 5 14 6 15 7 16 8 17 9 18 10 8 11 7 12
REMARK SMILES IDX 6 13 5 14 4 15 3 16 2 17 1 18
REMARK H PARENT
REMARK Flexibility Score: inf
ROOT
ATOM      1  C   UNL     1      11.028  15.733 -17.551  1.00  0.00     0.000 C 
ENDROOT
BRANCH   1   2
ATOM      2  C   UNL     1      11.358  16.594 -16.312  1.00  0.00     0.000 C 
BRANCH   2   3
ATOM      3  C   UNL     1      12.745  16.269 -15.731  1.00  0.00     0.000 C 
BRANCH   3   4
ATOM      4  C   UNL     1      13.692  17.480 -15.737  1.00  0.00     0.000 C 
BRANCH   4   5
ATOM      5  C   UNL     1      14.759  17.391 -16.841  1.00  0.00     0.000 C 
BRANCH   5   6
ATOM      6  C   UNL     1      15.947  16.500 -16.442  1.00  0.00     0.006 C 
BRANCH   6   7
ATOM      7  C   UNL     1      15.822  15.069 -16.983  1.00  0.00     0.053 C 
BRANCH   7   8
ATOM      8  C   UNL     1      17.115  14.629 -17.593  1.00  0.00     0.041 C 
ATOM      9  O   UNL     1      17.865  13.826 -16.979  1.00  0.00    -0.550 OA
ATOM     10  O   UNL     1      17.469  15.067 -18.863  1.00  0.00    -0.550 OA
ENDBRANCH   7   8
ENDBRANCH   6   7
ENDBRANCH   5   6
ENDBRANCH   4   5
ENDBRANCH   3   4
ENDBRANCH   2   3
ENDBRANCH   1   2
BRANCH   1  11
ATOM     11  C   UNL     1      12.124  14.710 -17.896  1.00  0.00     0.000 C 
BRANCH  11  12
ATOM     12  C   UNL     1      11.600  13.264 -17.928  1.00  0.00    -0.000 C 
BRANCH  12  13
ATOM     13  C   UNL     1      10.568  13.030 -19.042  1.00  0.00    -0.000 C 
BRANCH  13  14
ATOM     14  C   UNL     1      10.868  11.768 -19.869  1.00  0.00    -0.000 C 
BRANCH  14  15
ATOM     15  C   UNL     1      12.363  11.410 -19.883  1.00  0.00    -0.000 C 
BRANCH  15  16
ATOM     16  C   UNL     1      13.061  11.835 -21.187  1.00  0.00    -0.000 C 
BRANCH  16  17
ATOM     17  C   UNL     1      13.974  13.056 -20.994  1.00  0.00    -0.003 C 
ATOM     18  C   UNL     1      13.327  14.359 -21.463  1.00  0.00     0.004 C 
ENDBRANCH  16  17
ENDBRANCH  15  16
ENDBRANCH  14  15
ENDBRANCH  13  14
ENDBRANCH  12  13
ENDBRANCH  11  12
ENDBRANCH   1  11
TORSDOF 14
ENDMDL
MODEL 7
REMARK VINA RESULT:    -4.300      2.715      5.322
REMARK INTER + INTRA:         -10.082
REMARK INTER:                  -7.746
REMARK INTRA:                  -2.337
REMARK UNBOUND:                -2.264
REMARK SMILES CCCCCCCCCCCCCCCC(=O)[O-]
REMARK SMILES IDX 9 1 10 2 11 3 12 4 13 5 14 6 15 7 16 8 17 9 18 10 8 11 7 12
REMARK SMILES IDX 6 13 5 14 4 15 3 16 2 17 1 18
REMARK H PARENT
REMARK Flexibility Score: inf
ROOT
ATOM      1  C   UNL     1      11.488  16.956 -16.596  1.00  0.00     0.000 C 
ENDROOT
BRANCH   1   2
ATOM      2  C   UNL     1      10.582  15.826 -17.129  1.00  0.00     0.000 C 
BRANCH   2   3
ATOM      3  C   UNL     1      11.184  15.132 -18.364  1.00  0.00     0.000 C 
BRANCH   3   4
ATOM      4  C   UNL     1      11.759  13.743 -18.046  1.00  0.00     0.000 C 
BRANCH   4   5
ATOM      5  C   UNL     1      13.280  13.668 -18.261  1.00  0.00     0.000 C 
BRANCH   5   6
ATOM      6  C   UNL     1      13.709  14.215 -19.632  1.00  0.00     0.006 C 
BRANCH   6   7
ATOM      7  C   UNL     1      14.747  13.324 -20.327  1.00  0.00     0.053 C 
BRANCH   7   8
ATOM      8  C   UNL     1      14.086  12.454 -21.349  1.00  0.00     0.041 C 
ATOM      9  O   UNL     1      13.488  11.404 -20.996  1.00  0.00    -0.550 OA
ATOM     10  O   UNL     1      14.086  12.829 -22.687  1.00  0.00    -0.550 OA
ENDBRANCH   7   8
ENDBRANCH   6   7
ENDBRANCH   5   6
ENDBRANCH   4   5
ENDBRANCH   3   4
ENDBRANCH   2   3
ENDBRANCH   1   2
BRANCH   1  11
ATOM     11  C   UNL     1      12.467  16.494 -15.503  1.00  0.00     0.000 C 
BRANCH  11  12
ATOM     12  C   UNL     1      13.932  16.507 -15.970  1.00  0.00    -0.000 C 
BRANCH  12  13
ATOM     13  C   UNL     1      14.114  17.190 -17.335  1.00  0.00    -0.000 C 
BRANCH  13  14
ATOM     14  C   UNL     1      15.580  17.569 -17.614  1.00  0.00    -0.000 C 
BRANCH  14  15
ATOM     15  C   UNL     1      16.576  16.559 -17.022  1.00  0.00    -0.000 C 
BRANCH  15  16
ATOM     16  C   UNL     1      16.873  15.390 -17.978  1.00  0.00    -0.000 C 
BRANCH  16  17
ATOM     17  C   UNL     1      17.374  14.139 -17.238  1.00  0.00    -0.003 C 
ATOM     18  C   UNL     1      16.415  13.676 -16.141  1.00  0.00     0.004 C 
ENDBRANCH  16  17
ENDBRANCH  15  16
ENDBRANCH  14  15
ENDBRANCH  13  14
ENDBRANCH  12  13
ENDBRANCH  11  12
ENDBRANCH   1  11
TORSDOF 14
ENDMDL
MODEL 8
REMARK VINA RESULT:    -4.275      2.798      4.263
REMARK INTER + INTRA:         -10.038
REMARK INTER:                  -7.858
REMARK INTRA:                  -2.180
REMARK UNBOUND:                -2.264
REMARK SMILES CCCCCCCCCCCCCCCC(=O)[O-]
REMARK SMILES IDX 9 1 10 2 11 3 12 4 13 5 14 6 15 7 16 8 17 9 18 10 8 11 7 12
REMARK SMILES IDX 6 13 5 14 4 15 3 16 2 17 1 18
REMARK H PARENT
REMARK Flexibility Score: inf
ROOT
ATOM      1  C   UNL     1      16.067  14.053 -18.326  1.00  0.00     0.000 C 
ENDROOT
BRANCH   1   2
ATOM      2  C   UNL     1      16.970  14.947 -17.449  1.00  0.00     0.000 C 
BRANCH   2   3
ATOM      3  C   UNL     1      16.155  15.925 -16.583  1.00  0.00     0.000 C 
BRANCH   3   4
ATOM      4  C   UNL     1      16.335  17.391 -17.009  1.00  0.00     0.000 C 
BRANCH   4   5
ATOM      5  C   UNL     1      14.996  18.105 -17.253  1.00  0.00     0.000 C 
BRANCH   5   6
ATOM      6  C   UNL     1      13.814  17.385 -16.584  1.00  0.00     0.006 C 
BRANCH   6   7
ATOM      7  C   UNL     1      12.453  17.916 -17.055  1.00  0.00     0.053 C 
BRANCH   7   8
ATOM      8  C   UNL     1      11.396  16.874 -16.871  1.00  0.00     0.041 C 
ATOM      9  O   UNL     1      10.826  16.364 -17.872  1.00  0.00    -0.550 OA
ATOM     10  O   UNL     1      11.072  16.429 -15.595  1.00  0.00    -0.550 OA
ENDBRANCH   7   8
ENDBRANCH   6   7
ENDBRANCH   5   6
ENDBRANCH   4   5
ENDBRANCH   3   4
ENDBRANCH   2   3
ENDBRANCH   1   2
BRANCH   1  11
ATOM     11  C   UNL     1      15.193  14.846 -19.313  1.00  0.00     0.000 C 
BRANCH  11  12
ATOM     12  C   UNL     1      13.689  14.597 -19.110  1.00  0.00    -0.000 C 
BRANCH  12  13
ATOM     13  C   UNL     1      13.395  13.690 -17.904  1.00  0.00    -0.000 C 
BRANCH  13  14
ATOM     14  C   UNL     1      12.070  12.922 -18.053  1.00  0.00    -0.000 C 
BRANCH  14  15
ATOM     15  C   UNL     1      11.702  12.653 -19.521  1.00  0.00    -0.000 C 
BRANCH  15  16
ATOM     16  C   UNL     1      12.358  11.374 -20.071  1.00  0.00    -0.000 C 
BRANCH  16  17
ATOM     17  C   UNL     1      13.006  11.591 -21.448  1.00  0.00    -0.003 C 
ATOM     18  C   UNL     1      14.523  11.761 -21.369  1.00  0.00     0.004 C 
ENDBRANCH  16  17
ENDBRANCH  15  16
ENDBRANCH  14  15
ENDBRANCH  13  14
ENDBRANCH  12  13
ENDBRANCH  11  12
ENDBRANCH   1  11
TORSDOF 14
ENDMDL
MODEL 9
REMARK VINA RESULT:    -4.268      1.961      3.502
REMARK INTER + INTRA:         -10.025
REMARK INTER:                  -7.712
REMARK INTRA:                  -2.313
REMARK UNBOUND:                -2.264
REMARK SMILES CCCCCCCCCCCCCCCC(=O)[O-]
REMARK SMILES IDX 9 1 10 2 11 3 12 4 13 5 14 6 15 7 16 8 17 9 18 10 8 11 7 12
REMARK SMILES IDX 6 13 5 14 4 15 3 16 2 17 1 18
REMARK H PARENT
REMARK Flexibility Score: inf
ROOT
ATOM      1  C   UNL     1      11.192  16.998 -16.511  1.00  0.00     0.000 C 
ENDROOT
BRANCH   1   2
ATOM      2  C   UNL     1      12.436  16.575 -15.700  1.00  0.00     0.000 C 
BRANCH   2   3
ATOM      3  C   UNL     1      13.552  17.634 -15.751  1.00  0.00     0.000 C 
BRANCH   3   4
ATOM      4  C   UNL     1      14.105  17.847 -17.169  1.00  0.00     0.000 C 
BRANCH   4   5
ATOM      5  C   UNL     1      15.636  17.709 -17.233  1.00  0.00     0.000 C 
BRANCH   5   6
ATOM      6  C   UNL     1      16.168  16.609 -16.301  1.00  0.00     0.006 C 
BRANCH   6   7
ATOM      7  C   UNL     1      15.898  15.197 -16.837  1.00  0.00     0.053 C 
BRANCH   7   8
ATOM      8  C   UNL     1      17.118  14.653 -17.510  1.00  0.00     0.041 C 
ATOM      9  O   UNL     1      17.799  13.750 -16.956  1.00  0.00    -0.550 OA
ATOM     10  O   UNL     1      17.478  15.108 -18.772  1.00  0.00    -0.550 OA
ENDBRANCH   7   8
ENDBRANCH   6   7
ENDBRANCH   5   6
ENDBRANCH   4   5
ENDBRANCH   3   4
ENDBRANCH   2   3
ENDBRANCH   1   2
BRANCH   1  11
ATOM     11  C   UNL     1      10.352  15.811 -17.010  1.00  0.00     0.000 C 
BRANCH  11  12
ATOM     12  C   UNL     1      10.069  15.874 -18.521  1.00  0.00    -0.000 C 
BRANCH  12  13
ATOM     13  C   UNL     1      11.192  16.568 -19.308  1.00  0.00    -0.000 C 
BRANCH  13  14
ATOM     14  C   UNL     1      12.007  15.583 -20.165  1.00  0.00    -0.000 C 
BRANCH  14  15
ATOM     15  C   UNL     1      13.326  15.166 -19.495  1.00  0.00    -0.000 C 
BRANCH  15  16
ATOM     16  C   UNL     1      13.383  13.659 -19.187  1.00  0.00    -0.000 C 
BRANCH  16  17
ATOM     17  C   UNL     1      12.761  13.314 -17.824  1.00  0.00    -0.003 C 
ATOM     18  C   UNL     1      11.702  12.216 -17.917  1.00  0.00     0.004 C 
ENDBRANCH  16  17
ENDBRANCH  15  16
ENDBRANCH  14  15
ENDBRANCH  13  14
ENDBRANCH  12  13
ENDBRANCH  11  12
ENDBRANCH   1  11
TORSDOF 14
ENDMDL
