MODEL 1
REMARK VINA RESULT:    -4.726      0.000      0.000
REMARK INTER + INTRA:          -5.482
REMARK INTER:                  -5.417
REMARK INTRA:                  -0.066
REMARK UNBOUND:                -0.066
REMARK SMILES COc1cc(C(=O)[O-])ccc1O
REMARK SMILES IDX 5 1 9 2 4 3 10 4 3 5 11 6 6 7 7 8 8 9 2 10 1 11 12 12
REMARK H PARENT 12 13
REMARK Flexibility Score: inf
ROOT
ATOM      1  C   UNL     1      10.571   4.096   0.446  1.00  0.00     0.001 A 
ATOM      2  C   UNL     1       9.195   3.881   0.630  1.00  0.00     0.014 A 
ATOM      3  C   UNL     1      11.003   4.868  -0.647  1.00  0.00     0.060 A 
ATOM      4  C   UNL     1       8.269   4.425  -0.262  1.00  0.00     0.051 A 
ATOM      5  C   UNL     1      10.071   5.419  -1.550  1.00  0.00     0.161 A 
ATOM      6  C   UNL     1       8.703   5.193  -1.351  1.00  0.00     0.157 A 
ENDROOT
BRANCH   1   7
ATOM      7  C   UNL     1      11.556   3.521   1.390  1.00  0.00     0.072 C 
ATOM      8  O   UNL     1      12.530   2.844   0.965  1.00  0.00    -0.545 OA
ATOM      9  O   UNL     1      11.420   3.719   2.759  1.00  0.00    -0.545 OA
ENDBRANCH   1   7
BRANCH   5  10
ATOM     10  O   UNL     1      10.465   6.195  -2.653  1.00  0.00    -0.493 OA
ATOM     11  C   UNL     1      10.731   5.675  -3.951  1.00  0.00     0.278 C 
ENDBRANCH   5  10
BRANCH   6  12
ATOM     12  O   UNL     1       7.777   5.737  -2.240  1.00  0.00    -0.504 OA
ATOM     13  H   UNL     1       6.859   6.035  -1.932  1.00  0.00     0.293 HD
ENDBRANCH   6  12
TORSDOF 3
ENDMDL
MODEL 2
REMARK VINA RESULT:    -4.650      7.423      9.027
REMARK INTER + INTRA:          -5.395
REMARK INTER:                  -5.300
REMARK INTRA:                  -0.095
REMARK UNBOUND:                -0.066
REMARK SMILES COc1cc(C(=O)[O-])ccc1O
REMARK SMILES IDX 5 1 9 2 4 3 10 4 3 5 11 6 6 7 7 8 8 9 2 10 1 11 12 12
REMARK H PARENT 12 13
REMARK Flexibility Score: inf
ROOT
ATOM      1  C   UNL     1      11.958   3.423  -8.202  1.00  0.00     0.001 A 
ATOM      2  C   UNL     1      11.551   2.480  -7.243  1.00  0.00     0.014 A 
ATOM      3  C   UNL     1      11.426   3.350  -9.502  1.00  0.00     0.060 A 
ATOM      4  C   UNL     1      10.631   1.484  -7.577  1.00  0.00     0.051 A 
ATOM      5  C   UNL     1      10.497   2.345  -9.843  1.00  0.00     0.161 A 
ATOM      6  C   UNL     1      10.104   1.414  -8.873  1.00  0.00     0.157 A 
ENDROOT
BRANCH   1   7
ATOM      7  C   UNL     1      12.933   4.481  -7.852  1.00  0.00     0.072 C 
ATOM      8  O   UNL     1      13.458   5.190  -8.751  1.00  0.00    -0.545 OA
ATOM      9  O   UNL     1      13.282   4.707  -6.526  1.00  0.00    -0.545 OA
ENDBRANCH   1   7
BRANCH   5  10
ATOM     10  O   UNL     1       9.945   2.241 -11.130  1.00  0.00    -0.493 OA
ATOM     11  C   UNL     1      10.562   1.564 -12.220  1.00  0.00     0.278 C 
ENDBRANCH   5  10
BRANCH   6  12
ATOM     12  O   UNL     1       9.185   0.419  -9.204  1.00  0.00    -0.504 OA
ATOM     13  H   UNL     1       8.652  -0.068  -8.493  1.00  0.00     0.293 HD
ENDBRANCH   6  12
TORSDOF 3
ENDMDL
MODEL 3
REMARK VINA RESULT:    -4.611      9.084     10.549
REMARK INTER + INTRA:          -5.351
REMARK INTER:                  -5.251
REMARK INTRA:                  -0.100
REMARK UNBOUND:                -0.066
REMARK SMILES COc1cc(C(=O)[O-])ccc1O
REMARK SMILES IDX 5 1 9 2 4 3 10 4 3 5 11 6 6 7 7 8 8 9 2 10 1 11 12 12
REMARK H PARENT 12 13
REMARK Flexibility Score: inf
ROOT
ATOM      1  C   UNL     1      17.719  10.742   3.745  1.00  0.00     0.001 A 
ATOM      2  C   UNL     1      16.772  10.774   2.707  1.00  0.00     0.014 A 
ATOM      3  C   UNL     1      18.293   9.511   4.109  1.00  0.00     0.060 A 
ATOM      4  C   UNL     1      16.408   9.599   2.046  1.00  0.00     0.051 A 
ATOM      5  C   UNL     1      17.927   8.322   3.445  1.00  0.00     0.161 A 
ATOM      6  C   UNL     1      16.982   8.375   2.412  1.00  0.00     0.157 A 
ENDROOT
BRANCH   1   7
ATOM      7  C   UNL     1      18.108  11.985   4.447  1.00  0.00     0.072 C 
ATOM      8  O   UNL     1      17.238  12.837   4.771  1.00  0.00    -0.545 OA
ATOM      9  O   UNL     1      19.440  12.231   4.761  1.00  0.00    -0.545 OA
ENDBRANCH   1   7
BRANCH   5  10
ATOM     10  O   UNL     1      18.480   7.076   3.781  1.00  0.00    -0.493 OA
ATOM     11  C   UNL     1      18.076   6.289   4.897  1.00  0.00     0.278 C 
ENDBRANCH   5  10
BRANCH   6  12
ATOM     12  O   UNL     1      16.617   7.203   1.751  1.00  0.00    -0.504 OA
ATOM     13  H   UNL     1      16.755   6.292   2.172  1.00  0.00     0.293 HD
ENDBRANCH   6  12
TORSDOF 3
ENDMDL
MODEL 4
REMARK VINA RESULT:    -4.600      9.675     10.925
REMARK INTER + INTRA:          -5.338
REMARK INTER:                  -5.300
REMARK INTRA:                  -0.038
REMARK UNBOUND:                -0.066
REMARK SMILES COc1cc(C(=O)[O-])ccc1O
REMARK SMILES IDX 5 1 9 2 4 3 10 4 3 5 11 6 6 7 7 8 8 9 2 10 1 11 12 12
REMARK H PARENT 12 13
REMARK Flexibility Score: inf
ROOT
ATOM      1  C   UNL     1      16.787  10.050   2.439  1.00  0.00     0.001 A 
ATOM      2  C   UNL     1      16.279  10.779   3.528  1.00  0.00     0.014 A 
ATOM      3  C   UNL     1      18.168  10.085   2.178  1.00  0.00     0.060 A 
ATOM      4  C   UNL     1      17.135  11.527   4.338  1.00  0.00     0.051 A 
ATOM      5  C   UNL     1      19.036  10.838   2.994  1.00  0.00     0.161 A 
ATOM      6  C   UNL     1      18.510  11.558   4.075  1.00  0.00     0.157 A 
ENDROOT
BRANCH   1   7
ATOM      7  C   UNL     1      15.882   9.257   1.577  1.00  0.00     0.072 C 
ATOM      8  O   UNL     1      14.695   9.629   1.380  1.00  0.00    -0.545 OA
ATOM      9  O   UNL     1      16.330   8.089   0.970  1.00  0.00    -0.545 OA
ENDBRANCH   1   7
BRANCH   5  10
ATOM     10  O   UNL     1      20.420  10.895   2.764  1.00  0.00    -0.493 OA
ATOM     11  C   UNL     1      21.382  10.078   3.423  1.00  0.00     0.278 C 
ENDBRANCH   5  10
BRANCH   6  12
ATOM     12  O   UNL     1      19.363  12.305   4.887  1.00  0.00    -0.504 OA
ATOM     13  H   UNL     1      20.132  11.873   5.387  1.00  0.00     0.293 HD
ENDBRANCH   6  12
TORSDOF 3
ENDMDL
MODEL 5
REMARK VINA RESULT:    -4.595      8.805     10.243
REMARK INTER + INTRA:          -5.332
REMARK INTER:                  -5.230
REMARK INTRA:                  -0.102
REMARK UNBOUND:                -0.066
REMARK SMILES COc1cc(C(=O)[O-])ccc1O
REMARK SMILES IDX 5 1 9 2 4 3 10 4 3 5 11 6 6 7 7 8 8 9 2 10 1 11 12 12
REMARK H PARENT 12 13
REMARK Flexibility Score: inf
ROOT
ATOM      1  C   UNL     1      16.838  10.896   3.753  1.00  0.00     0.001 A 
ATOM      2  C   UNL     1      15.963  10.712   2.668  1.00  0.00     0.014 A 
ATOM      3  C   UNL     1      17.672   9.834   4.146  1.00  0.00     0.060 A 
ATOM      4  C   UNL     1      15.924   9.491   1.992  1.00  0.00     0.051 A 
ATOM      5  C   UNL     1      17.635   8.600   3.466  1.00  0.00     0.161 A 
ATOM      6  C   UNL     1      16.756   8.436   2.388  1.00  0.00     0.157 A 
ENDROOT
BRANCH   1   7
ATOM      7  C   UNL     1      16.884  12.189   4.472  1.00  0.00     0.072 C 
ATOM      8  O   UNL     1      17.954  12.589   5.003  1.00  0.00    -0.545 OA
ATOM      9  O   UNL     1      15.746  12.981   4.572  1.00  0.00    -0.545 OA
ENDBRANCH   1   7
BRANCH   5  10
ATOM     10  O   UNL     1      18.453   7.519   3.831  1.00  0.00    -0.493 OA
ATOM     11  C   UNL     1      18.206   6.658   4.938  1.00  0.00     0.278 C 
ENDBRANCH   5  10
BRANCH   6  12
ATOM     12  O   UNL     1      16.715   7.218   1.710  1.00  0.00    -0.504 OA
ATOM     13  H   UNL     1      17.561   6.752   1.407  1.00  0.00     0.293 HD
ENDBRANCH   6  12
TORSDOF 3
ENDMDL
MODEL 6
REMARK VINA RESULT:    -4.594      1.743      2.170
REMARK INTER + INTRA:          -5.331
REMARK INTER:                  -5.229
REMARK INTRA:                  -0.102
REMARK UNBOUND:                -0.066
REMARK SMILES COc1cc(C(=O)[O-])ccc1O
REMARK SMILES IDX 5 1 9 2 4 3 10 4 3 5 11 6 6 7 7 8 8 9 2 10 1 11 12 12
REMARK H PARENT 12 13
REMARK Flexibility Score: inf
ROOT
ATOM      1  C   UNL     1      10.469   5.404  -0.596  1.00  0.00     0.001 A 
ATOM      2  C   UNL     1       9.660   6.527  -0.353  1.00  0.00     0.014 A 
ATOM      3  C   UNL     1      10.938   5.169  -1.900  1.00  0.00     0.060 A 
ATOM      4  C   UNL     1       9.328   7.397  -1.394  1.00  0.00     0.051 A 
ATOM      5  C   UNL     1      10.605   6.044  -2.953  1.00  0.00     0.161 A 
ATOM      6  C   UNL     1       9.797   7.159  -2.691  1.00  0.00     0.157 A 
ENDROOT
BRANCH   1   7
ATOM      7  C   UNL     1      10.823   4.479   0.504  1.00  0.00     0.072 C 
ATOM      8  O   UNL     1      11.873   3.785   0.444  1.00  0.00    -0.545 OA
ATOM      9  O   UNL     1      10.004   4.365   1.621  1.00  0.00    -0.545 OA
ENDBRANCH   1   7
BRANCH   5  10
ATOM     10  O   UNL     1      11.055   5.841  -4.268  1.00  0.00    -0.493 OA
ATOM     11  C   UNL     1      10.532   4.861  -5.158  1.00  0.00     0.278 C 
ENDBRANCH   5  10
BRANCH   6  12
ATOM     12  O   UNL     1       9.465   8.029  -3.729  1.00  0.00    -0.504 OA
ATOM     13  H   UNL     1       8.916   8.865  -3.564  1.00  0.00     0.293 HD
ENDBRANCH   6  12
TORSDOF 3
ENDMDL
MODEL 7
REMARK VINA RESULT:    -4.591      9.698     10.995
REMARK INTER + INTRA:          -5.327
REMARK INTER:                  -5.244
REMARK INTRA:                  -0.083
REMARK UNBOUND:                -0.066
REMARK SMILES COc1cc(C(=O)[O-])ccc1O
REMARK SMILES IDX 5 1 9 2 4 3 10 4 3 5 11 6 6 7 7 8 8 9 2 10 1 11 12 12
REMARK H PARENT 12 13
REMARK Flexibility Score: inf
ROOT
ATOM      1  C   UNL     1      16.942  10.104   2.422  1.00  0.00     0.001 A 
ATOM      2  C   UNL     1      18.307   9.771   2.387  1.00  0.00     0.014 A 
ATOM      3  C   UNL     1      16.521  11.179   3.225  1.00  0.00     0.060 A 
ATOM      4  C   UNL     1      19.231  10.498   3.139  1.00  0.00     0.051 A 
ATOM      5  C   UNL     1      17.451  11.916   3.986  1.00  0.00     0.161 A 
ATOM      6  C   UNL     1      18.808  11.568   3.938  1.00  0.00     0.157 A 
ENDROOT
BRANCH   1   7
ATOM      7  C   UNL     1      15.959   9.335   1.626  1.00  0.00     0.072 C 
ATOM      8  O   UNL     1      14.770   9.738   1.515  1.00  0.00    -0.545 OA
ATOM      9  O   UNL     1      16.334   8.158   0.988  1.00  0.00    -0.545 OA
ENDBRANCH   1   7
BRANCH   5  10
ATOM     10  O   UNL     1      17.067  12.995   4.798  1.00  0.00    -0.493 OA
ATOM     11  C   UNL     1      15.840  13.706   4.668  1.00  0.00     0.278 C 
ENDBRANCH   5  10
BRANCH   6  12
ATOM     12  O   UNL     1      19.733  12.294   4.687  1.00  0.00    -0.504 OA
ATOM     13  H   UNL     1      19.815  13.300   4.598  1.00  0.00     0.293 HD
ENDBRANCH   6  12
TORSDOF 3
ENDMDL
MODEL 8
REMARK VINA RESULT:    -4.435      9.749     11.159
REMARK INTER + INTRA:          -5.149
REMARK INTER:                  -5.101
REMARK INTRA:                  -0.048
REMARK UNBOUND:                -0.066
REMARK SMILES COc1cc(C(=O)[O-])ccc1O
REMARK SMILES IDX 5 1 9 2 4 3 10 4 3 5 11 6 6 7 7 8 8 9 2 10 1 11 12 12
REMARK H PARENT 12 13
REMARK Flexibility Score: inf
ROOT
ATOM      1  C   UNL     1      17.502   9.353   2.560  1.00  0.00     0.001 A 
ATOM      2  C   UNL     1      17.800   8.304   3.447  1.00  0.00     0.014 A 
ATOM      3  C   UNL     1      18.343  10.479   2.527  1.00  0.00     0.060 A 
ATOM      4  C   UNL     1      18.915   8.381   4.283  1.00  0.00     0.051 A 
ATOM      5  C   UNL     1      19.469  10.561   3.370  1.00  0.00     0.161 A 
ATOM      6  C   UNL     1      19.750   9.505   4.247  1.00  0.00     0.157 A 
ENDROOT
BRANCH   1   7
ATOM      7  C   UNL     1      16.321   9.275   1.671  1.00  0.00     0.072 C 
ATOM      8  O   UNL     1      16.362   8.597   0.610  1.00  0.00    -0.545 OA
ATOM      9  O   UNL     1      15.148   9.947   1.996  1.00  0.00    -0.545 OA
ENDBRANCH   1   7
BRANCH   5  10
ATOM     10  O   UNL     1      20.331  11.670   3.364  1.00  0.00    -0.493 OA
ATOM     11  C   UNL     1      21.524  11.761   2.593  1.00  0.00     0.278 C 
ENDBRANCH   5  10
BRANCH   6  12
ATOM     12  O   UNL     1      20.863   9.580   5.083  1.00  0.00    -0.504 OA
ATOM     13  H   UNL     1      21.424  10.422   5.146  1.00  0.00     0.293 HD
ENDBRANCH   6  12
TORSDOF 3
ENDMDL
