MODEL 1
REMARK VINA RESULT:    -5.328      0.000      0.000
REMARK INTER + INTRA:          -5.328
REMARK INTER:                  -5.328
REMARK INTRA:                   0.000
REMARK UNBOUND:                 0.000
REMARK SMILES CC1=CC[C@@]2(C)CCCC(C)(C)[C@@]23C[C@@H]13
REMARK SMILES IDX 1 1 2 2 3 3 4 4 5 5 7 6 8 7 9 8 10 9 13 10 15 11 14 12 11 13
REMARK SMILES IDX 12 14 6 15
REMARK H PARENT
REMARK Flexibility Score: inf
ROOT
ATOM      1  C   UNL     1       5.814  -1.691  19.005  1.00  0.00     0.039 C 
ATOM      2  C   UNL     1       4.663  -2.648  18.868  1.00  0.00    -0.074 C 
ATOM      3  C   UNL     1       4.003  -2.715  17.692  1.00  0.00    -0.027 C 
ATOM      4  C   UNL     1       2.836  -3.649  17.483  1.00  0.00     0.034 C 
ATOM      5  C   UNL     1       2.008  -3.808  18.792  1.00  0.00    -0.022 C 
ATOM      6  C   UNL     1       0.935  -4.902  18.574  1.00  0.00     0.008 C 
ATOM      7  C   UNL     1       0.152  -5.248  19.854  1.00  0.00     0.001 C 
ATOM      8  C   UNL     1       1.073  -5.682  21.005  1.00  0.00     0.007 C 
ATOM      9  C   UNL     1       2.200  -4.669  21.357  1.00  0.00    -0.029 C 
ATOM     10  C   UNL     1       2.922  -4.243  20.009  1.00  0.00    -0.012 C 
ATOM     11  C   UNL     1       4.269  -3.506  20.061  1.00  0.00     0.022 C 
ATOM     12  C   UNL     1       4.251  -4.993  19.715  1.00  0.00     0.017 C 
ATOM     13  C   UNL     1       1.617  -3.432  22.087  1.00  0.00     0.012 C 
ATOM     14  C   UNL     1       3.122  -5.380  22.391  1.00  0.00     0.012 C 
ATOM     15  C   UNL     1       1.327  -2.428  19.051  1.00  0.00     0.012 C 
ENDROOT
TORSDOF 0
ENDMDL
MODEL 2
REMARK VINA RESULT:    -5.103      1.796      4.509
REMARK INTER + INTRA:          -5.103
REMARK INTER:                  -5.103
REMARK INTRA:                   0.000
REMARK UNBOUND:                 0.000
REMARK SMILES CC1=CC[C@@]2(C)CCCC(C)(C)[C@@]23C[C@@H]13
REMARK SMILES IDX 1 1 2 2 3 3 4 4 5 5 7 6 8 7 9 8 10 9 13 10 15 11 14 12 11 13
REMARK SMILES IDX 12 14 6 15
REMARK H PARENT
REMARK Flexibility Score: inf
ROOT
ATOM      1  C   UNL     1       4.930  -5.251  19.467  1.00  0.00     0.039 C 
ATOM      2  C   UNL     1       3.904  -4.196  19.164  1.00  0.00    -0.074 C 
ATOM      3  C   UNL     1       2.861  -4.034  20.006  1.00  0.00    -0.027 C 
ATOM      4  C   UNL     1       1.791  -2.999  19.763  1.00  0.00     0.034 C 
ATOM      5  C   UNL     1       1.530  -2.813  18.239  1.00  0.00    -0.022 C 
ATOM      6  C   UNL     1       0.557  -1.627  18.040  1.00  0.00     0.008 C 
ATOM      7  C   UNL     1       0.344  -1.258  16.560  1.00  0.00     0.001 C 
ATOM      8  C   UNL     1       1.664  -0.942  15.839  1.00  0.00     0.007 C 
ATOM      9  C   UNL     1       2.744  -2.058  15.934  1.00  0.00    -0.029 C 
ATOM     10  C   UNL     1       2.868  -2.498  17.455  1.00  0.00    -0.012 C 
ATOM     11  C   UNL     1       4.064  -3.348  17.911  1.00  0.00     0.022 C 
ATOM     12  C   UNL     1       4.053  -1.854  18.227  1.00  0.00     0.017 C 
ATOM     13  C   UNL     1       2.366  -3.265  15.038  1.00  0.00     0.012 C 
ATOM     14  C   UNL     1       4.046  -1.461  15.322  1.00  0.00     0.012 C 
ATOM     15  C   UNL     1       0.872  -4.139  17.742  1.00  0.00     0.012 C 
ENDROOT
TORSDOF 0
ENDMDL
MODEL 3
REMARK VINA RESULT:    -5.064      1.205      3.663
REMARK INTER + INTRA:          -5.064
REMARK INTER:                  -5.064
REMARK INTRA:                   0.000
REMARK UNBOUND:                 0.000
REMARK SMILES CC1=CC[C@@]2(C)CCCC(C)(C)[C@@]23C[C@@H]13
REMARK SMILES IDX 1 1 2 2 3 3 4 4 5 5 7 6 8 7 9 8 10 9 13 10 15 11 14 12 11 13
REMARK SMILES IDX 12 14 6 15
REMARK H PARENT
REMARK Flexibility Score: inf
ROOT
ATOM      1  C   UNL     1       0.121  -1.753  18.483  1.00  0.00     0.039 C 
ATOM      2  C   UNL     1       0.773  -2.931  19.150  1.00  0.00    -0.074 C 
ATOM      3  C   UNL     1       0.009  -3.789  19.860  1.00  0.00    -0.027 C 
ATOM      4  C   UNL     1       0.596  -4.990  20.559  1.00  0.00     0.034 C 
ATOM      5  C   UNL     1       2.028  -4.683  21.088  1.00  0.00    -0.022 C 
ATOM      6  C   UNL     1       2.647  -5.990  21.639  1.00  0.00     0.008 C 
ATOM      7  C   UNL     1       4.121  -5.835  22.054  1.00  0.00     0.001 C 
ATOM      8  C   UNL     1       5.003  -5.316  20.907  1.00  0.00     0.007 C 
ATOM      9  C   UNL     1       4.515  -3.988  20.259  1.00  0.00    -0.029 C 
ATOM     10  C   UNL     1       2.966  -4.133  19.939  1.00  0.00    -0.012 C 
ATOM     11  C   UNL     1       2.277  -3.117  19.014  1.00  0.00     0.022 C 
ATOM     12  C   UNL     1       2.635  -4.496  18.464  1.00  0.00     0.017 C 
ATOM     13  C   UNL     1       4.774  -2.788  21.205  1.00  0.00     0.012 C 
ATOM     14  C   UNL     1       5.417  -3.752  19.011  1.00  0.00     0.012 C 
ATOM     15  C   UNL     1       1.857  -3.641  22.238  1.00  0.00     0.012 C 
ENDROOT
TORSDOF 0
ENDMDL
MODEL 4
REMARK VINA RESULT:    -4.976      5.005      7.143
REMARK INTER + INTRA:          -4.976
REMARK INTER:                  -4.976
REMARK INTRA:                   0.000
REMARK UNBOUND:                 0.000
REMARK SMILES CC1=CC[C@@]2(C)CCCC(C)(C)[C@@]23C[C@@H]13
REMARK SMILES IDX 1 1 2 2 3 3 4 4 5 5 7 6 8 7 9 8 10 9 13 10 15 11 14 12 11 13
REMARK SMILES IDX 12 14 6 15
REMARK H PARENT
REMARK Flexibility Score: inf
ROOT
ATOM      1  C   UNL     1       5.252  -1.903  14.827  1.00  0.00     0.039 C 
ATOM      2  C   UNL     1       3.810  -1.534  14.620  1.00  0.00    -0.074 C 
ATOM      3  C   UNL     1       3.178  -0.802  15.563  1.00  0.00    -0.027 C 
ATOM      4  C   UNL     1       1.731  -0.399  15.424  1.00  0.00     0.034 C 
ATOM      5  C   UNL     1       0.912  -1.501  14.692  1.00  0.00    -0.022 C 
ATOM      6  C   UNL     1      -0.515  -0.968  14.423  1.00  0.00     0.008 C 
ATOM      7  C   UNL     1      -1.370  -1.922  13.569  1.00  0.00     0.001 C 
ATOM      8  C   UNL     1      -0.707  -2.258  12.224  1.00  0.00     0.007 C 
ATOM      9  C   UNL     1       0.738  -2.827  12.332  1.00  0.00    -0.029 C 
ATOM     10  C   UNL     1       1.569  -1.887  13.304  1.00  0.00    -0.012 C 
ATOM     11  C   UNL     1       3.100  -2.005  13.359  1.00  0.00     0.022 C 
ATOM     12  C   UNL     1       2.473  -0.844  12.589  1.00  0.00     0.017 C 
ATOM     13  C   UNL     1       0.715  -4.285  12.858  1.00  0.00     0.012 C 
ATOM     14  C   UNL     1       1.288  -2.907  10.877  1.00  0.00     0.012 C 
ATOM     15  C   UNL     1       0.858  -2.724  15.660  1.00  0.00     0.012 C 
ENDROOT
TORSDOF 0
ENDMDL
MODEL 5
REMARK VINA RESULT:    -4.937      4.898      7.432
REMARK INTER + INTRA:          -4.937
REMARK INTER:                  -4.937
REMARK INTRA:                   0.000
REMARK UNBOUND:                 0.000
REMARK SMILES CC1=CC[C@@]2(C)CCCC(C)(C)[C@@]23C[C@@H]13
REMARK SMILES IDX 1 1 2 2 3 3 4 4 5 5 7 6 8 7 9 8 10 9 13 10 15 11 14 12 11 13
REMARK SMILES IDX 12 14 6 15
REMARK H PARENT
REMARK Flexibility Score: inf
ROOT
ATOM      1  C   UNL     1      -2.044  -4.347  12.623  1.00  0.00     0.039 C 
ATOM      2  C   UNL     1      -0.953  -3.319  12.730  1.00  0.00    -0.074 C 
ATOM      3  C   UNL     1      -0.220  -3.025  11.635  1.00  0.00    -0.027 C 
ATOM      4  C   UNL     1       0.894  -2.008  11.670  1.00  0.00     0.034 C 
ATOM      5  C   UNL     1       1.619  -2.020  13.047  1.00  0.00    -0.022 C 
ATOM      6  C   UNL     1       2.629  -0.849  13.091  1.00  0.00     0.008 C 
ATOM      7  C   UNL     1       3.299  -0.675  14.466  1.00  0.00     0.001 C 
ATOM      8  C   UNL     1       2.275  -0.487  15.597  1.00  0.00     0.007 C 
ATOM      9  C   UNL     1       1.196  -1.603  15.694  1.00  0.00    -0.029 C 
ATOM     10  C   UNL     1       0.597  -1.841  14.243  1.00  0.00    -0.012 C 
ATOM     11  C   UNL     1      -0.699  -2.649  14.072  1.00  0.00     0.022 C 
ATOM     12  C   UNL     1      -0.756  -1.126  13.970  1.00  0.00     0.017 C 
ATOM     13  C   UNL     1       1.808  -2.910  16.260  1.00  0.00     0.012 C 
ATOM     14  C   UNL     1       0.161  -1.122  16.754  1.00  0.00     0.012 C 
ATOM     15  C   UNL     1       2.370  -3.385  13.135  1.00  0.00     0.012 C 
ENDROOT
TORSDOF 0
ENDMDL
MODEL 6
REMARK VINA RESULT:    -4.838      1.247      3.972
REMARK INTER + INTRA:          -4.838
REMARK INTER:                  -4.838
REMARK INTRA:                   0.000
REMARK UNBOUND:                 0.000
REMARK SMILES CC1=CC[C@@]2(C)CCCC(C)(C)[C@@]23C[C@@H]13
REMARK SMILES IDX 1 1 2 2 3 3 4 4 5 5 7 6 8 7 9 8 10 9 13 10 15 11 14 12 11 13
REMARK SMILES IDX 12 14 6 15
REMARK H PARENT
REMARK Flexibility Score: inf
ROOT
ATOM      1  C   UNL     1      -0.225  -5.994  20.138  1.00  0.00     0.039 C 
ATOM      2  C   UNL     1       0.888  -4.990  20.031  1.00  0.00    -0.074 C 
ATOM      3  C   UNL     1       0.992  -4.243  18.910  1.00  0.00    -0.027 C 
ATOM      4  C   UNL     1       2.086  -3.220  18.731  1.00  0.00     0.034 C 
ATOM      5  C   UNL     1       3.403  -3.684  19.419  1.00  0.00    -0.022 C 
ATOM      6  C   UNL     1       4.432  -2.530  19.357  1.00  0.00     0.008 C 
ATOM      7  C   UNL     1       5.724  -2.827  20.139  1.00  0.00     0.001 C 
ATOM      8  C   UNL     1       5.453  -3.166  21.613  1.00  0.00     0.007 C 
ATOM      9  C   UNL     1       4.443  -4.328  21.840  1.00  0.00    -0.029 C 
ATOM     10  C   UNL     1       3.164  -4.056  20.939  1.00  0.00    -0.012 C 
ATOM     11  C   UNL     1       1.872  -4.852  21.183  1.00  0.00     0.022 C 
ATOM     12  C   UNL     1       1.963  -3.413  21.687  1.00  0.00     0.017 C 
ATOM     13  C   UNL     1       5.088  -5.692  21.487  1.00  0.00     0.012 C 
ATOM     14  C   UNL     1       4.161  -4.372  23.372  1.00  0.00     0.012 C 
ATOM     15  C   UNL     1       3.916  -4.911  18.602  1.00  0.00     0.012 C 
ENDROOT
TORSDOF 0
ENDMDL
MODEL 7
REMARK VINA RESULT:    -4.833      1.403      3.550
REMARK INTER + INTRA:          -4.833
REMARK INTER:                  -4.833
REMARK INTRA:                   0.000
REMARK UNBOUND:                 0.000
REMARK SMILES CC1=CC[C@@]2(C)CCCC(C)(C)[C@@]23C[C@@H]13
REMARK SMILES IDX 1 1 2 2 3 3 4 4 5 5 7 6 8 7 9 8 10 9 13 10 15 11 14 12 11 13
REMARK SMILES IDX 12 14 6 15
REMARK H PARENT
REMARK Flexibility Score: inf
ROOT
ATOM      1  C   UNL     1       6.525  -2.536  15.907  1.00  0.00     0.039 C 
ATOM      2  C   UNL     1       5.852  -2.594  17.250  1.00  0.00    -0.074 C 
ATOM      3  C   UNL     1       6.603  -2.813  18.351  1.00  0.00    -0.027 C 
ATOM      4  C   UNL     1       5.996  -2.888  19.730  1.00  0.00     0.034 C 
ATOM      5  C   UNL     1       4.576  -3.524  19.681  1.00  0.00    -0.022 C 
ATOM      6  C   UNL     1       3.932  -3.419  21.084  1.00  0.00     0.008 C 
ATOM      7  C   UNL     1       2.465  -3.884  21.116  1.00  0.00     0.001 C 
ATOM      8  C   UNL     1       1.586  -3.123  20.111  1.00  0.00     0.007 C 
ATOM      9  C   UNL     1       2.098  -3.153  18.642  1.00  0.00    -0.029 C 
ATOM     10  C   UNL     1       3.640  -2.776  18.646  1.00  0.00    -0.012 C 
ATOM     11  C   UNL     1       4.344  -2.414  17.329  1.00  0.00     0.022 C 
ATOM     12  C   UNL     1       3.951  -1.295  18.291  1.00  0.00     0.017 C 
ATOM     13  C   UNL     1       1.872  -4.551  18.011  1.00  0.00     0.012 C 
ATOM     14  C   UNL     1       1.191  -2.172  17.841  1.00  0.00     0.012 C 
ATOM     15  C   UNL     1       4.779  -5.022  19.291  1.00  0.00     0.012 C 
ENDROOT
TORSDOF 0
ENDMDL
MODEL 8
REMARK VINA RESULT:    -4.717     10.098     12.785
REMARK INTER + INTRA:          -4.717
REMARK INTER:                  -4.717
REMARK INTRA:                   0.000
REMARK UNBOUND:                 0.000
REMARK SMILES CC1=CC[C@@]2(C)CCCC(C)(C)[C@@]23C[C@@H]13
REMARK SMILES IDX 1 1 2 2 3 3 4 4 5 5 7 6 8 7 9 8 10 9 13 10 15 11 14 12 11 13
REMARK SMILES IDX 12 14 6 15
REMARK H PARENT
REMARK Flexibility Score: inf
ROOT
ATOM      1  C   UNL     1       9.516   1.502  23.944  1.00  0.00     0.039 C 
ATOM      2  C   UNL     1      10.280   0.738  24.989  1.00  0.00    -0.074 C 
ATOM      3  C   UNL     1       9.705   0.517  26.191  1.00  0.00    -0.027 C 
ATOM      4  C   UNL     1      10.413  -0.238  27.288  1.00  0.00     0.034 C 
ATOM      5  C   UNL     1      11.945   0.037  27.255  1.00  0.00    -0.022 C 
ATOM      6  C   UNL     1      12.641  -0.889  28.282  1.00  0.00     0.008 C 
ATOM      7  C   UNL     1      14.177  -0.808  28.229  1.00  0.00     0.001 C 
ATOM      8  C   UNL     1      14.734  -1.116  26.830  1.00  0.00     0.007 C 
ATOM      9  C   UNL     1      14.139  -0.247  25.685  1.00  0.00    -0.029 C 
ATOM     10  C   UNL     1      12.557  -0.257  25.826  1.00  0.00    -0.012 C 
ATOM     11  C   UNL     1      11.682   0.245  24.666  1.00  0.00     0.022 C 
ATOM     12  C   UNL     1      11.825  -1.259  24.890  1.00  0.00     0.017 C 
ATOM     13  C   UNL     1      14.691   1.200  25.752  1.00  0.00     0.012 C 
ATOM     14  C   UNL     1      14.677  -0.848  24.353  1.00  0.00     0.012 C 
ATOM     15  C   UNL     1      12.132   1.532  27.663  1.00  0.00     0.012 C 
ENDROOT
TORSDOF 0
ENDMDL
MODEL 9
REMARK VINA RESULT:    -4.607      1.301      4.127
REMARK INTER + INTRA:          -4.607
REMARK INTER:                  -4.607
REMARK INTRA:                   0.000
REMARK UNBOUND:                 0.000
REMARK SMILES CC1=CC[C@@]2(C)CCCC(C)(C)[C@@]23C[C@@H]13
REMARK SMILES IDX 1 1 2 2 3 3 4 4 5 5 7 6 8 7 9 8 10 9 13 10 15 11 14 12 11 13
REMARK SMILES IDX 12 14 6 15
REMARK H PARENT
REMARK Flexibility Score: inf
ROOT
ATOM      1  C   UNL     1       3.766  -6.880  22.789  1.00  0.00     0.039 C 
ATOM      2  C   UNL     1       2.827  -5.786  22.366  1.00  0.00    -0.074 C 
ATOM      3  C   UNL     1       1.647  -5.649  23.009  1.00  0.00    -0.027 C 
ATOM      4  C   UNL     1       0.654  -4.576  22.636  1.00  0.00     0.034 C 
ATOM      5  C   UNL     1       0.683  -4.297  21.105  1.00  0.00    -0.022 C 
ATOM      6  C   UNL     1      -0.220  -3.078  20.802  1.00  0.00     0.008 C 
ATOM      7  C   UNL     1      -0.150  -2.619  19.334  1.00  0.00     0.001 C 
ATOM      8  C   UNL     1       1.285  -2.292  18.890  1.00  0.00     0.007 C 
ATOM      9  C   UNL     1       2.315  -3.437  19.115  1.00  0.00    -0.029 C 
ATOM     10  C   UNL     1       2.148  -3.968  20.603  1.00  0.00    -0.012 C 
ATOM     11  C   UNL     1       3.228  -4.870  21.219  1.00  0.00     0.022 C 
ATOM     12  C   UNL     1       3.177  -3.397  21.618  1.00  0.00     0.017 C 
ATOM     13  C   UNL     1       2.096  -4.581  18.092  1.00  0.00     0.012 C 
ATOM     14  C   UNL     1       3.715  -2.837  18.793  1.00  0.00     0.012 C 
ATOM     15  C   UNL     1       0.114  -5.576  20.414  1.00  0.00     0.012 C 
ENDROOT
TORSDOF 0
ENDMDL
