MODEL 1
REMARK VINA RESULT:    -4.217      0.000      0.000
REMARK INTER + INTRA:          -5.318
REMARK INTER:                  -5.080
REMARK INTRA:                  -0.238
REMARK UNBOUND:                -0.238
REMARK SMILES NC(=O)C[C@H]([NH3+])C(=O)[O-]
REMARK SMILES IDX 4 1 5 2 6 3 7 7 8 8 9 9 2 10 3 11 1 12
REMARK H PARENT 6 4 6 5 6 6 1 13 1 14
REMARK Flexibility Score: inf
ROOT
ATOM      1  C   UNL     1       7.152  23.567  21.396  1.00  0.00     0.171 C 
ENDROOT
BRANCH   1   2
ATOM      2  C   UNL     1       5.958  22.927  20.660  1.00  0.00     0.237 C 
BRANCH   2   3
ATOM      3  N   UNL     1       4.884  23.909  20.475  1.00  0.00    -0.350 N 
ATOM      4  H   UNL     1       4.854  24.562  21.292  1.00  0.00     0.345 HD
ATOM      5  H   UNL     1       5.033  24.461  19.598  1.00  0.00     0.345 HD
ATOM      6  H   UNL     1       3.962  23.418  20.417  1.00  0.00     0.345 HD
ENDBRANCH   2   3
BRANCH   2   7
ATOM      7  C   UNL     1       5.440  21.730  21.415  1.00  0.00     0.100 C 
ATOM      8  O   UNL     1       4.635  20.934  20.865  1.00  0.00    -0.544 OA
ATOM      9  O   UNL     1       5.854  21.490  22.720  1.00  0.00    -0.544 OA
ENDBRANCH   2   7
ENDBRANCH   1   2
BRANCH   1  10
ATOM     10  C   UNL     1       7.893  24.530  20.514  1.00  0.00     0.223 C 
ATOM     11  O   UNL     1       7.334  24.997  19.485  1.00  0.00    -0.275 OA
ATOM     12  N   UNL     1       9.216  24.949  20.852  1.00  0.00    -0.369 N 
ATOM     13  H   UNL     1       9.686  24.583  21.709  1.00  0.00     0.159 HD
ATOM     14  H   UNL     1       9.724  25.629  20.245  1.00  0.00     0.159 HD
ENDBRANCH   1  10
TORSDOF 4
ENDMDL
MODEL 2
REMARK VINA RESULT:    -4.103      2.198      3.207
REMARK INTER + INTRA:          -5.181
REMARK INTER:                  -5.064
REMARK INTRA:                  -0.117
REMARK UNBOUND:                -0.238
REMARK SMILES NC(=O)C[C@H]([NH3+])C(=O)[O-]
REMARK SMILES IDX 4 1 5 2 6 3 7 7 8 8 9 9 2 10 3 11 1 12
REMARK H PARENT 6 4 6 5 6 6 1 13 1 14
REMARK Flexibility Score: inf
ROOT
ATOM      1  C   UNL     1       7.620  25.803  19.367  1.00  0.00     0.171 C 
ENDROOT
BRANCH   1   2
ATOM      2  C   UNL     1       7.661  24.867  20.591  1.00  0.00     0.237 C 
BRANCH   2   3
ATOM      3  N   UNL     1       8.962  24.196  20.680  1.00  0.00    -0.350 N 
ATOM      4  H   UNL     1       9.267  23.882  19.730  1.00  0.00     0.345 HD
ATOM      5  H   UNL     1       9.685  24.840  21.078  1.00  0.00     0.345 HD
ATOM      6  H   UNL     1       8.884  23.351  21.293  1.00  0.00     0.345 HD
ENDBRANCH   2   3
BRANCH   2   7
ATOM      7  C   UNL     1       6.556  23.844  20.522  1.00  0.00     0.100 C 
ATOM      8  O   UNL     1       6.573  22.841  21.284  1.00  0.00    -0.544 OA
ATOM      9  O   UNL     1       5.505  24.004  19.626  1.00  0.00    -0.544 OA
ENDBRANCH   2   7
ENDBRANCH   1   2
BRANCH   1  10
ATOM     10  C   UNL     1       7.461  27.240  19.775  1.00  0.00     0.223 C 
ATOM     11  O   UNL     1       7.578  28.153  18.915  1.00  0.00    -0.275 OA
ATOM     12  N   UNL     1       7.141  27.576  21.125  1.00  0.00    -0.369 N 
ATOM     13  H   UNL     1       7.025  26.830  21.845  1.00  0.00     0.159 HD
ATOM     14  H   UNL     1       7.017  28.574  21.404  1.00  0.00     0.159 HD
ENDBRANCH   1  10
TORSDOF 4
ENDMDL
MODEL 3
REMARK VINA RESULT:    -4.013      1.972      4.155
REMARK INTER + INTRA:          -5.073
REMARK INTER:                  -4.868
REMARK INTRA:                  -0.205
REMARK UNBOUND:                -0.238
REMARK SMILES NC(=O)C[C@H]([NH3+])C(=O)[O-]
REMARK SMILES IDX 4 1 5 2 6 3 7 7 8 8 9 9 2 10 3 11 1 12
REMARK H PARENT 6 4 6 5 6 6 1 13 1 14
REMARK Flexibility Score: inf
ROOT
ATOM      1  C   UNL     1       7.068  24.850  19.574  1.00  0.00     0.171 C 
ENDROOT
BRANCH   1   2
ATOM      2  C   UNL     1       8.281  25.333  20.393  1.00  0.00     0.237 C 
BRANCH   2   3
ATOM      3  N   UNL     1       9.168  24.208  20.708  1.00  0.00    -0.350 N 
ATOM      4  H   UNL     1       8.848  23.350  20.203  1.00  0.00     0.345 HD
ATOM      5  H   UNL     1      10.154  24.424  20.429  1.00  0.00     0.345 HD
ATOM      6  H   UNL     1       9.140  24.012  21.735  1.00  0.00     0.345 HD
ENDBRANCH   2   3
BRANCH   2   7
ATOM      7  C   UNL     1       7.837  26.011  21.664  1.00  0.00     0.100 C 
ATOM      8  O   UNL     1       7.251  27.125  21.615  1.00  0.00    -0.544 OA
ATOM      9  O   UNL     1       8.060  25.408  22.896  1.00  0.00    -0.544 OA
ENDBRANCH   2   7
ENDBRANCH   1   2
BRANCH   1  10
ATOM     10  C   UNL     1       6.214  23.897  20.360  1.00  0.00     0.223 C 
ATOM     11  O   UNL     1       6.751  22.957  21.003  1.00  0.00    -0.275 OA
ATOM     12  N   UNL     1       4.797  24.072  20.412  1.00  0.00    -0.369 N 
ATOM     13  H   UNL     1       4.339  24.856  19.898  1.00  0.00     0.159 HD
ATOM     14  H   UNL     1       4.206  23.418  20.970  1.00  0.00     0.159 HD
ENDBRANCH   1  10
TORSDOF 4
ENDMDL
MODEL 4
REMARK VINA RESULT:    -3.841      2.341      4.327
REMARK INTER + INTRA:          -4.865
REMARK INTER:                  -4.400
REMARK INTRA:                  -0.465
REMARK UNBOUND:                -0.238
REMARK SMILES NC(=O)C[C@H]([NH3+])C(=O)[O-]
REMARK SMILES IDX 4 1 5 2 6 3 7 7 8 8 9 9 2 10 3 11 1 12
REMARK H PARENT 6 4 6 5 6 6 1 13 1 14
REMARK Flexibility Score: inf
ROOT
ATOM      1  C   UNL     1       4.613  21.437  21.032  1.00  0.00     0.171 C 
ENDROOT
BRANCH   1   2
ATOM      2  C   UNL     1       5.969  22.097  21.352  1.00  0.00     0.237 C 
BRANCH   2   3
ATOM      3  N   UNL     1       6.095  22.337  22.793  1.00  0.00    -0.350 N 
ATOM      4  H   UNL     1       5.259  22.861  23.141  1.00  0.00     0.345 HD
ATOM      5  H   UNL     1       6.176  21.433  23.314  1.00  0.00     0.345 HD
ATOM      6  H   UNL     1       6.945  22.917  22.982  1.00  0.00     0.345 HD
ENDBRANCH   2   3
BRANCH   2   7
ATOM      7  C   UNL     1       6.129  23.392  20.596  1.00  0.00     0.100 C 
ATOM      8  O   UNL     1       5.151  23.888  19.978  1.00  0.00    -0.544 OA
ATOM      9  O   UNL     1       7.352  24.051  20.585  1.00  0.00    -0.544 OA
ENDBRANCH   2   7
ENDBRANCH   1   2
BRANCH   1  10
ATOM     10  C   UNL     1       3.587  21.743  22.085  1.00  0.00     0.223 C 
ATOM     11  O   UNL     1       3.481  20.996  23.093  1.00  0.00    -0.275 OA
ATOM     12  N   UNL     1       2.753  22.897  21.967  1.00  0.00    -0.369 N 
ATOM     13  H   UNL     1       2.840  23.533  21.145  1.00  0.00     0.159 HD
ATOM     14  H   UNL     1       2.050  23.116  22.706  1.00  0.00     0.159 HD
ENDBRANCH   1  10
TORSDOF 4
ENDMDL
MODEL 5
REMARK VINA RESULT:    -3.805      4.877      6.430
REMARK INTER + INTRA:          -4.822
REMARK INTER:                  -4.587
REMARK INTRA:                  -0.236
REMARK UNBOUND:                -0.238
REMARK SMILES NC(=O)C[C@H]([NH3+])C(=O)[O-]
REMARK SMILES IDX 4 1 5 2 6 3 7 7 8 8 9 9 2 10 3 11 1 12
REMARK H PARENT 6 4 6 5 6 6 1 13 1 14
REMARK Flexibility Score: inf
ROOT
ATOM      1  C   UNL     1       2.762  19.033  19.987  1.00  0.00     0.171 C 
ENDROOT
BRANCH   1   2
ATOM      2  C   UNL     1       3.237  19.340  21.421  1.00  0.00     0.237 C 
BRANCH   2   3
ATOM      3  N   UNL     1       2.154  19.104  22.382  1.00  0.00    -0.350 N 
ATOM      4  H   UNL     1       2.087  19.907  23.048  1.00  0.00     0.345 HD
ATOM      5  H   UNL     1       1.238  18.991  21.887  1.00  0.00     0.345 HD
ATOM      6  H   UNL     1       2.352  18.238  22.934  1.00  0.00     0.345 HD
ENDBRANCH   2   3
BRANCH   2   7
ATOM      7  C   UNL     1       3.726  20.761  21.533  1.00  0.00     0.100 C 
ATOM      8  O   UNL     1       2.976  21.653  22.010  1.00  0.00    -0.544 OA
ATOM      9  O   UNL     1       5.011  21.095  21.122  1.00  0.00    -0.544 OA
ENDBRANCH   2   7
ENDBRANCH   1   2
BRANCH   1  10
ATOM     10  C   UNL     1       3.039  17.607  19.606  1.00  0.00     0.223 C 
ATOM     11  O   UNL     1       3.298  16.758  20.499  1.00  0.00    -0.275 OA
ATOM     12  N   UNL     1       2.976  17.199  18.238  1.00  0.00    -0.369 N 
ATOM     13  H   UNL     1       2.747  17.889  17.489  1.00  0.00     0.159 HD
ATOM     14  H   UNL     1       3.155  16.205  17.977  1.00  0.00     0.159 HD
ENDBRANCH   1  10
TORSDOF 4
ENDMDL
MODEL 6
REMARK VINA RESULT:    -3.805      5.081      6.548
REMARK INTER + INTRA:          -4.821
REMARK INTER:                  -4.546
REMARK INTRA:                  -0.275
REMARK UNBOUND:                -0.238
REMARK SMILES NC(=O)C[C@H]([NH3+])C(=O)[O-]
REMARK SMILES IDX 4 1 5 2 6 3 7 7 8 8 9 9 2 10 3 11 1 12
REMARK H PARENT 6 4 6 5 6 6 1 13 1 14
REMARK Flexibility Score: inf
ROOT
ATOM      1  C   UNL     1       2.286  19.096  20.113  1.00  0.00     0.171 C 
ENDROOT
BRANCH   1   2
ATOM      2  C   UNL     1       3.085  19.076  21.431  1.00  0.00     0.237 C 
BRANCH   2   3
ATOM      3  N   UNL     1       2.191  18.834  22.569  1.00  0.00    -0.350 N 
ATOM      4  H   UNL     1       2.754  18.623  23.425  1.00  0.00     0.345 HD
ATOM      5  H   UNL     1       1.587  19.669  22.751  1.00  0.00     0.345 HD
ATOM      6  H   UNL     1       1.580  18.008  22.369  1.00  0.00     0.345 HD
ENDBRANCH   2   3
BRANCH   2   7
ATOM      7  C   UNL     1       3.831  20.371  21.628  1.00  0.00     0.100 C 
ATOM      8  O   UNL     1       4.730  20.714  20.816  1.00  0.00    -0.544 OA
ATOM      9  O   UNL     1       3.525  21.201  22.700  1.00  0.00    -0.544 OA
ENDBRANCH   2   7
ENDBRANCH   1   2
BRANCH   1  10
ATOM     10  C   UNL     1       0.864  19.526  20.334  1.00  0.00     0.223 C 
ATOM     11  O   UNL     1       0.622  20.604  20.939  1.00  0.00    -0.275 OA
ATOM     12  N   UNL     1      -0.215  18.737  19.832  1.00  0.00    -0.369 N 
ATOM     13  H   UNL     1      -0.029  17.850  19.315  1.00  0.00     0.159 HD
ATOM     14  H   UNL     1      -1.202  19.044  19.974  1.00  0.00     0.159 HD
ENDBRANCH   1  10
TORSDOF 4
ENDMDL
MODEL 7
REMARK VINA RESULT:    -3.725      6.964      7.435
REMARK INTER + INTRA:          -4.726
REMARK INTER:                  -4.640
REMARK INTRA:                  -0.086
REMARK UNBOUND:                -0.238
REMARK SMILES NC(=O)C[C@H]([NH3+])C(=O)[O-]
REMARK SMILES IDX 4 1 5 2 6 3 7 7 8 8 9 9 2 10 3 11 1 12
REMARK H PARENT 6 4 6 5 6 6 1 13 1 14
REMARK Flexibility Score: inf
ROOT
ATOM      1  C   UNL     1       1.440  17.790  20.708  1.00  0.00     0.171 C 
ENDROOT
BRANCH   1   2
ATOM      2  C   UNL     1       2.876  17.608  20.178  1.00  0.00     0.237 C 
BRANCH   2   3
ATOM      3  N   UNL     1       2.854  17.178  18.775  1.00  0.00    -0.350 N 
ATOM      4  H   UNL     1       1.954  17.468  18.328  1.00  0.00     0.345 HD
ATOM      5  H   UNL     1       3.653  17.600  18.246  1.00  0.00     0.345 HD
ATOM      6  H   UNL     1       2.924  16.135  18.723  1.00  0.00     0.345 HD
ENDBRANCH   2   3
BRANCH   2   7
ATOM      7  C   UNL     1       3.634  16.608  21.012  1.00  0.00     0.100 C 
ATOM      8  O   UNL     1       3.984  15.505  20.517  1.00  0.00    -0.544 OA
ATOM      9  O   UNL     1       3.963  16.901  22.331  1.00  0.00    -0.544 OA
ENDBRANCH   2   7
ENDBRANCH   1   2
BRANCH   1  10
ATOM     10  C   UNL     1       0.943  19.191  20.489  1.00  0.00     0.223 C 
ATOM     11  O   UNL     1       1.514  20.155  21.064  1.00  0.00    -0.275 OA
ATOM     12  N   UNL     1      -0.150  19.440  19.605  1.00  0.00    -0.369 N 
ATOM     13  H   UNL     1      -0.622  18.652  19.109  1.00  0.00     0.159 HD
ATOM     14  H   UNL     1      -0.485  20.415  19.443  1.00  0.00     0.159 HD
ENDBRANCH   1  10
TORSDOF 4
ENDMDL
MODEL 8
REMARK VINA RESULT:    -3.652     10.991     12.445
REMARK INTER + INTRA:          -4.637
REMARK INTER:                  -4.351
REMARK INTRA:                  -0.285
REMARK UNBOUND:                -0.238
REMARK SMILES NC(=O)C[C@H]([NH3+])C(=O)[O-]
REMARK SMILES IDX 4 1 5 2 6 3 7 7 8 8 9 9 2 10 3 11 1 12
REMARK H PARENT 6 4 6 5 6 6 1 13 1 14
REMARK Flexibility Score: inf
ROOT
ATOM      1  C   UNL     1      -2.294  14.615  17.890  1.00  0.00     0.171 C 
ENDROOT
BRANCH   1   2
ATOM      2  C   UNL     1      -1.978  15.147  19.302  1.00  0.00     0.237 C 
BRANCH   2   3
ATOM      3  N   UNL     1      -2.059  16.612  19.328  1.00  0.00    -0.350 N 
ATOM      4  H   UNL     1      -1.721  16.971  20.251  1.00  0.00     0.345 HD
ATOM      5  H   UNL     1      -1.478  17.029  18.563  1.00  0.00     0.345 HD
ATOM      6  H   UNL     1      -3.053  16.914  19.205  1.00  0.00     0.345 HD
ENDBRANCH   2   3
BRANCH   2   7
ATOM      7  C   UNL     1      -0.612  14.698  19.754  1.00  0.00     0.100 C 
ATOM      8  O   UNL     1       0.049  15.398  20.565  1.00  0.00    -0.544 OA
ATOM      9  O   UNL     1      -0.077  13.503  19.287  1.00  0.00    -0.544 OA
ENDBRANCH   2   7
ENDBRANCH   1   2
BRANCH   1  10
ATOM     10  C   UNL     1      -3.522  15.262  17.317  1.00  0.00     0.223 C 
ATOM     11  O   UNL     1      -4.529  15.455  18.048  1.00  0.00    -0.275 OA
ATOM     12  N   UNL     1      -3.542  15.694  15.956  1.00  0.00    -0.369 N 
ATOM     13  H   UNL     1      -2.709  15.556  15.342  1.00  0.00     0.159 HD
ATOM     14  H   UNL     1      -4.391  16.157  15.563  1.00  0.00     0.159 HD
ENDBRANCH   1  10
TORSDOF 4
ENDMDL
MODEL 9
REMARK VINA RESULT:    -3.645     14.421     15.597
REMARK INTER + INTRA:          -4.629
REMARK INTER:                  -4.334
REMARK INTRA:                  -0.294
REMARK UNBOUND:                -0.238
REMARK SMILES NC(=O)C[C@H]([NH3+])C(=O)[O-]
REMARK SMILES IDX 4 1 5 2 6 3 7 7 8 8 9 9 2 10 3 11 1 12
REMARK H PARENT 6 4 6 5 6 6 1 13 1 14
REMARK Flexibility Score: inf
ROOT
ATOM      1  C   UNL     1      -5.515  15.677  17.515  1.00  0.00     0.171 C 
ENDROOT
BRANCH   1   2
ATOM      2  C   UNL     1      -6.103  14.263  17.690  1.00  0.00     0.237 C 
BRANCH   2   3
ATOM      3  N   UNL     1      -6.326  13.635  16.384  1.00  0.00    -0.350 N 
ATOM      4  H   UNL     1      -7.310  13.804  16.071  1.00  0.00     0.345 HD
ATOM      5  H   UNL     1      -5.667  14.022  15.669  1.00  0.00     0.345 HD
ATOM      6  H   UNL     1      -6.181  12.602  16.459  1.00  0.00     0.345 HD
ENDBRANCH   2   3
BRANCH   2   7
ATOM      7  C   UNL     1      -7.394  14.311  18.468  1.00  0.00     0.100 C 
ATOM      8  O   UNL     1      -7.953  15.415  18.701  1.00  0.00    -0.544 OA
ATOM      9  O   UNL     1      -7.982  13.136  18.924  1.00  0.00    -0.544 OA
ENDBRANCH   2   7
ENDBRANCH   1   2
BRANCH   1  10
ATOM     10  C   UNL     1      -4.718  15.791  16.247  1.00  0.00     0.223 C 
ATOM     11  O   UNL     1      -5.271  16.203  15.193  1.00  0.00    -0.275 OA
ATOM     12  N   UNL     1      -3.326  15.469  16.237  1.00  0.00    -0.369 N 
ATOM     13  H   UNL     1      -2.851  15.141  17.106  1.00  0.00     0.159 HD
ATOM     14  H   UNL     1      -2.771  15.562  15.358  1.00  0.00     0.159 HD
ENDBRANCH   1  10
TORSDOF 4
ENDMDL
