MODEL 1
REMARK VINA RESULT:    -3.491      0.000      0.000
REMARK INTER + INTRA:          -4.628
REMARK INTER:                  -4.919
REMARK INTRA:                   0.291
REMARK UNBOUND:                 0.291
REMARK SMILES CC1=CCC(=C(C)C)C(=O)CC(C)=CCC1
REMARK SMILES IDX 12 1 14 2 13 3 15 4 16 5 2 6 1 7 3 8 11 10 9 11 10 12 5 13
REMARK SMILES IDX 6 14 7 15 8 16 4 17
REMARK H PARENT
REMARK Flexibility Score: 60.00
ROOT
ATOM      1  C   UNL     1       9.583  25.171  38.552  1.00  0.00    -0.070 C 
ATOM      2  C   UNL     1       8.507  24.352  38.619  1.00  0.00    -0.027 C 
ATOM      3  C   UNL     1       9.369  26.559  37.999  1.00  0.00     0.039 C 
ENDROOT
BRANCH   2   4
ATOM      4  C   UNL     1       8.511  22.901  39.036  1.00  0.00     0.032 C 
BRANCH   4   5
ATOM      5  C   UNL     1       8.914  21.957  37.888  1.00  0.00     0.034 C 
BRANCH   5   6
ATOM      6  C   UNL     1       9.972  20.957  38.314  1.00  0.00    -0.077 C 
ATOM      7  C   UNL     1       9.576  19.862  39.271  1.00  0.00     0.039 C 
ATOM      8  C   UNL     1      11.247  20.977  37.865  1.00  0.00    -0.023 CG0
ATOM      9  G   UNL     1      11.821  21.968  36.882  1.00  0.00     0.000 G0
ENDBRANCH   5   6
ENDBRANCH   4   5
ENDBRANCH   2   4
BRANCH   1  10
ATOM     10  C   UNL     1      10.991  24.749  38.939  1.00  0.00     0.111 C 
BRANCH  10  11
ATOM     11  C   UNL     1      11.818  24.396  37.728  1.00  0.00     0.163 C 
ATOM     12  O   UNL     1      11.916  25.251  36.806  1.00  0.00    -0.294 OA
BRANCH  11  13
ATOM     13  C   UNL     1      12.555  23.097  37.623  1.00  0.00    -0.002 C 
ATOM     14  C   UNL     1      13.827  22.953  38.104  1.00  0.00    -0.069 C 
ATOM     15  C   UNL     1      14.552  21.626  38.029  1.00  0.00     0.039 C 
ATOM     16  C   UNL     1      14.586  24.116  38.702  1.00  0.00     0.039 C 
BRANCH  13  17
ATOM     17  C   UNL     1      11.858  21.965  36.891  1.00  0.00     0.066 CG0
ATOM     18  G   UNL     1      11.262  21.001  37.889  1.00  0.00     0.000 G0
ENDBRANCH  13  17
ENDBRANCH  11  13
ENDBRANCH  10  11
ENDBRANCH   1  10
TORSDOF 0
ENDMDL
MODEL 2
REMARK VINA RESULT:    -3.480      3.961      6.152
REMARK INTER + INTRA:          -4.614
REMARK INTER:                  -4.914
REMARK INTRA:                   0.300
REMARK UNBOUND:                 0.291
REMARK SMILES CC1=CCC(=C(C)C)C(=O)CC(C)=CCC1
REMARK SMILES IDX 12 1 14 2 13 3 15 4 16 5 2 6 1 7 3 8 11 10 9 11 10 12 5 13
REMARK SMILES IDX 6 14 7 15 8 16 4 17
REMARK H PARENT
REMARK Flexibility Score: 60.00
ROOT
ATOM      1  C   UNL     1      14.662  22.987  39.709  1.00  0.00    -0.070 C 
ATOM      2  C   UNL     1      15.021  22.317  40.829  1.00  0.00    -0.027 C 
ATOM      3  C   UNL     1      13.227  23.443  39.601  1.00  0.00     0.039 C 
ENDROOT
BRANCH   2   4
ATOM      4  C   UNL     1      16.364  21.682  41.100  1.00  0.00     0.032 C 
BRANCH   4   5
ATOM      5  C   UNL     1      16.467  20.251  40.539  1.00  0.00     0.034 C 
BRANCH   5   6
ATOM      6  C   UNL     1      17.765  20.021  39.792  1.00  0.00    -0.077 C 
ATOM      7  C   UNL     1      19.034  19.871  40.593  1.00  0.00     0.039 C 
ATOM      8  C   UNL     1      17.849  19.918  38.446  1.00  0.00    -0.023 CG0
ATOM      9  G   UNL     1      16.692  20.005  37.481  1.00  0.00     0.000 G0
ENDBRANCH   5   6
ENDBRANCH   4   5
ENDBRANCH   2   4
BRANCH   1  10
ATOM     10  C   UNL     1      15.599  23.243  38.541  1.00  0.00     0.111 C 
BRANCH  10  11
ATOM     11  C   UNL     1      15.407  22.229  37.441  1.00  0.00     0.163 C 
ATOM     12  O   UNL     1      14.258  22.112  36.935  1.00  0.00    -0.294 OA
BRANCH  11  13
ATOM     13  C   UNL     1      16.543  21.411  36.910  1.00  0.00    -0.002 C 
ATOM     14  C   UNL     1      17.375  21.887  35.933  1.00  0.00    -0.069 C 
ATOM     15  C   UNL     1      18.545  21.070  35.429  1.00  0.00     0.039 C 
ATOM     16  C   UNL     1      17.149  23.234  35.286  1.00  0.00     0.039 C 
BRANCH  13  17
ATOM     17  C   UNL     1      16.689  20.000  37.448  1.00  0.00     0.066 CG0
ATOM     18  G   UNL     1      17.821  19.946  38.444  1.00  0.00     0.000 G0
ENDBRANCH  13  17
ENDBRANCH  11  13
ENDBRANCH  10  11
ENDBRANCH   1  10
TORSDOF 0
ENDMDL
MODEL 3
REMARK VINA RESULT:    -3.430      3.961      5.946
REMARK INTER + INTRA:          -4.542
REMARK INTER:                  -5.332
REMARK INTRA:                   0.789
REMARK UNBOUND:                 0.291
REMARK SMILES CC1=CCC(=C(C)C)C(=O)CC(C)=CCC1
REMARK SMILES IDX 12 1 14 2 13 3 15 4 16 5 2 6 1 7 3 8 11 10 9 11 10 12 5 13
REMARK SMILES IDX 6 14 7 15 8 16 4 17
REMARK H PARENT
REMARK Flexibility Score: 60.00
ROOT
ATOM      1  C   UNL     1      14.246  20.610  38.287  1.00  0.00    -0.070 C 
ATOM      2  C   UNL     1      13.311  21.516  37.915  1.00  0.00    -0.027 C 
ATOM      3  C   UNL     1      14.227  20.140  39.721  1.00  0.00     0.039 C 
ENDROOT
BRANCH   2   4
ATOM      4  C   UNL     1      13.211  22.196  36.571  1.00  0.00     0.032 C 
BRANCH   4   5
ATOM      5  C   UNL     1      13.500  23.707  36.648  1.00  0.00     0.034 C 
BRANCH   5   6
ATOM      6  C   UNL     1      14.698  24.016  37.524  1.00  0.00    -0.077 C 
ATOM      7  C   UNL     1      14.457  24.679  38.857  1.00  0.00     0.039 C 
ATOM      8  C   UNL     1      15.972  23.709  37.190  1.00  0.00    -0.023 CG0
ATOM      9  G   UNL     1      16.408  23.017  35.922  1.00  0.00     0.000 G0
ENDBRANCH   5   6
ENDBRANCH   4   5
ENDBRANCH   2   4
BRANCH   1  10
ATOM     10  C   UNL     1      15.339  20.096  37.365  1.00  0.00     0.111 C 
BRANCH  10  11
ATOM     11  C   UNL     1      16.587  20.939  37.458  1.00  0.00     0.163 C 
ATOM     12  O   UNL     1      17.214  20.952  38.552  1.00  0.00    -0.294 OA
BRANCH  11  13
ATOM     13  C   UNL     1      17.115  21.704  36.285  1.00  0.00    -0.002 C 
ATOM     14  C   UNL     1      18.211  21.279  35.585  1.00  0.00    -0.069 C 
ATOM     15  C   UNL     1      18.717  22.037  34.377  1.00  0.00     0.039 C 
ATOM     16  C   UNL     1      18.992  20.053  36.002  1.00  0.00     0.039 C 
BRANCH  13  17
ATOM     17  C   UNL     1      16.429  23.015  35.950  1.00  0.00     0.066 CG0
ATOM     18  G   UNL     1      15.987  23.701  37.220  1.00  0.00     0.000 G0
ENDBRANCH  13  17
ENDBRANCH  11  13
ENDBRANCH  10  11
ENDBRANCH   1  10
TORSDOF 0
ENDMDL
MODEL 4
REMARK VINA RESULT:    -3.402      4.038      6.761
REMARK INTER + INTRA:          -4.503
REMARK INTER:                  -5.140
REMARK INTRA:                   0.637
REMARK UNBOUND:                 0.291
REMARK SMILES CC1=CCC(=C(C)C)C(=O)CC(C)=CCC1
REMARK SMILES IDX 12 1 14 2 13 3 15 4 16 5 2 6 1 7 3 8 11 10 9 11 10 12 5 13
REMARK SMILES IDX 6 14 7 15 8 16 4 17
REMARK H PARENT
REMARK Flexibility Score: 60.00
ROOT
ATOM      1  C   UNL     1      18.164  21.646  35.487  1.00  0.00    -0.070 C 
ATOM      2  C   UNL     1      17.225  22.588  35.235  1.00  0.00    -0.027 C 
ATOM      3  C   UNL     1      18.883  21.046  34.304  1.00  0.00     0.039 C 
ENDROOT
BRANCH   2   4
ATOM      4  C   UNL     1      16.317  23.241  36.250  1.00  0.00     0.032 C 
BRANCH   4   5
ATOM      5  C   UNL     1      14.873  22.710  36.180  1.00  0.00     0.034 C 
BRANCH   5   6
ATOM      6  C   UNL     1      14.279  22.484  37.557  1.00  0.00    -0.077 C 
ATOM      7  C   UNL     1      13.511  23.612  38.197  1.00  0.00     0.039 C 
ATOM      8  C   UNL     1      14.378  21.319  38.235  1.00  0.00    -0.023 CG0
ATOM      9  G   UNL     1      15.073  20.071  37.748  1.00  0.00     0.000 G0
ENDBRANCH   5   6
ENDBRANCH   4   5
ENDBRANCH   2   4
BRANCH   1  10
ATOM     10  C   UNL     1      18.482  21.122  36.878  1.00  0.00     0.111 C 
BRANCH  10  11
ATOM     11  C   UNL     1      17.615  19.940  37.237  1.00  0.00     0.163 C 
ATOM     12  O   UNL     1      17.857  18.835  36.679  1.00  0.00    -0.294 OA
BRANCH  11  13
ATOM     13  C   UNL     1      16.530  20.036  38.263  1.00  0.00    -0.002 C 
ATOM     14  C   UNL     1      16.806  20.038  39.603  1.00  0.00    -0.069 C 
ATOM     15  C   UNL     1      15.707  20.174  40.633  1.00  0.00     0.039 C 
ATOM     16  C   UNL     1      18.216  19.869  40.122  1.00  0.00     0.039 C 
BRANCH  13  17
ATOM     17  C   UNL     1      15.100  20.056  37.755  1.00  0.00     0.066 CG0
ATOM     18  G   UNL     1      14.403  21.306  38.236  1.00  0.00     0.000 G0
ENDBRANCH  13  17
ENDBRANCH  11  13
ENDBRANCH  10  11
ENDBRANCH   1  10
TORSDOF 0
ENDMDL
MODEL 5
REMARK VINA RESULT:    -3.311     14.826     16.828
REMARK INTER + INTRA:          -4.375
REMARK INTER:                  -4.796
REMARK INTRA:                   0.420
REMARK UNBOUND:                 0.291
REMARK SMILES CC1=CCC(=C(C)C)C(=O)CC(C)=CCC1
REMARK SMILES IDX 12 1 14 2 13 3 15 4 16 5 2 6 1 7 3 8 11 10 9 11 10 12 5 13
REMARK SMILES IDX 6 14 7 15 8 16 4 17
REMARK H PARENT
REMARK Flexibility Score: 60.00
ROOT
ATOM      1  C   UNL     1      16.146  10.774  49.993  1.00  0.00    -0.070 C 
ATOM      2  C   UNL     1      17.101  10.643  50.943  1.00  0.00    -0.027 C 
ATOM      3  C   UNL     1      15.789   9.548  49.190  1.00  0.00     0.039 C 
ENDROOT
BRANCH   2   4
ATOM      4  C   UNL     1      17.684  11.752  51.785  1.00  0.00     0.032 C 
BRANCH   4   5
ATOM      5  C   UNL     1      18.732  12.585  51.024  1.00  0.00     0.034 C 
BRANCH   5   6
ATOM      6  C   UNL     1      18.606  14.067  51.315  1.00  0.00    -0.077 C 
ATOM      7  C   UNL     1      18.890  14.547  52.715  1.00  0.00     0.039 C 
ATOM      8  C   UNL     1      18.277  14.990  50.382  1.00  0.00    -0.023 CG0
ATOM      9  G   UNL     1      17.992  14.711  48.927  1.00  0.00     0.000 G0
ENDBRANCH   5   6
ENDBRANCH   4   5
ENDBRANCH   2   4
BRANCH   1  10
ATOM     10  C   UNL     1      15.469  12.092  49.652  1.00  0.00     0.111 C 
BRANCH  10  11
ATOM     11  C   UNL     1      16.228  12.847  48.589  1.00  0.00     0.163 C 
ATOM     12  O   UNL     1      16.574  12.223  47.549  1.00  0.00    -0.294 OA
BRANCH  11  13
ATOM     13  C   UNL     1      16.525  14.309  48.715  1.00  0.00    -0.002 C 
ATOM     14  C   UNL     1      15.542  15.254  48.602  1.00  0.00    -0.069 C 
ATOM     15  C   UNL     1      15.844  16.728  48.770  1.00  0.00     0.039 C 
ATOM     16  C   UNL     1      14.115  14.879  48.271  1.00  0.00     0.039 C 
BRANCH  13  17
ATOM     17  C   UNL     1      17.979  14.704  48.900  1.00  0.00     0.066 CG0
ATOM     18  G   UNL     1      18.256  14.970  50.359  1.00  0.00     0.000 G0
ENDBRANCH  13  17
ENDBRANCH  11  13
ENDBRANCH  10  11
ENDBRANCH   1  10
TORSDOF 0
ENDMDL
MODEL 6
REMARK VINA RESULT:    -3.207      2.572      4.480
REMARK INTER + INTRA:          -4.228
REMARK INTER:                  -4.959
REMARK INTRA:                   0.731
REMARK UNBOUND:                 0.291
REMARK SMILES CC1=CCC(=C(C)C)C(=O)CC(C)=CCC1
REMARK SMILES IDX 12 1 14 2 13 3 15 4 16 5 2 6 1 7 3 8 11 10 9 11 10 12 5 13
REMARK SMILES IDX 6 14 7 15 8 16 4 17
REMARK H PARENT
REMARK Flexibility Score: 60.00
ROOT
ATOM      1  C   UNL     1      12.662  20.298  38.866  1.00  0.00    -0.070 C 
ATOM      2  C   UNL     1      11.563  21.031  38.566  1.00  0.00    -0.027 C 
ATOM      3  C   UNL     1      12.770  19.748  40.267  1.00  0.00     0.039 C 
ENDROOT
BRANCH   2   4
ATOM      4  C   UNL     1      11.301  21.759  37.270  1.00  0.00     0.032 C 
BRANCH   4   5
ATOM      5  C   UNL     1      11.205  23.285  37.457  1.00  0.00     0.034 C 
BRANCH   5   6
ATOM      6  C   UNL     1      12.354  23.834  38.278  1.00  0.00    -0.077 C 
ATOM      7  C   UNL     1      12.042  24.475  39.606  1.00  0.00     0.039 C 
ATOM      8  C   UNL     1      13.651  23.760  37.899  1.00  0.00    -0.023 CG0
ATOM      9  G   UNL     1      14.163  23.128  36.628  1.00  0.00     0.000 G0
ENDBRANCH   5   6
ENDBRANCH   4   5
ENDBRANCH   2   4
BRANCH   1  10
ATOM     10  C   UNL     1      13.808  20.058  37.897  1.00  0.00     0.111 C 
BRANCH  10  11
ATOM     11  C   UNL     1      14.893  21.095  38.052  1.00  0.00     0.163 C 
ATOM     12  O   UNL     1      15.557  21.103  39.124  1.00  0.00    -0.294 OA
BRANCH  11  13
ATOM     13  C   UNL     1      15.227  22.062  36.959  1.00  0.00    -0.002 C 
ATOM     14  C   UNL     1      16.443  22.045  36.332  1.00  0.00    -0.069 C 
ATOM     15  C   UNL     1      16.760  23.000  35.202  1.00  0.00     0.039 C 
ATOM     16  C   UNL     1      17.542  21.097  36.758  1.00  0.00     0.039 C 
BRANCH  13  17
ATOM     17  C   UNL     1      14.186  23.114  36.626  1.00  0.00     0.066 CG0
ATOM     18  G   UNL     1      13.664  23.738  37.897  1.00  0.00     0.000 G0
ENDBRANCH  13  17
ENDBRANCH  11  13
ENDBRANCH  10  11
ENDBRANCH   1  10
TORSDOF 0
ENDMDL
MODEL 7
REMARK VINA RESULT:    -3.141      2.434      3.417
REMARK INTER + INTRA:          -4.135
REMARK INTER:                  -4.876
REMARK INTRA:                   0.740
REMARK UNBOUND:                 0.291
REMARK SMILES CC1=CCC(=C(C)C)C(=O)CC(C)=CCC1
REMARK SMILES IDX 12 1 14 2 13 3 15 4 16 5 2 6 1 7 3 8 11 10 9 11 10 12 5 13
REMARK SMILES IDX 6 14 7 15 8 16 4 17
REMARK H PARENT
REMARK Flexibility Score: 60.00
ROOT
ATOM      1  C   UNL     1      12.213  23.564  36.632  1.00  0.00    -0.070 C 
ATOM      2  C   UNL     1      11.314  22.824  37.324  1.00  0.00    -0.027 C 
ATOM      3  C   UNL     1      11.979  25.053  36.557  1.00  0.00     0.039 C 
ENDROOT
BRANCH   2   4
ATOM      4  C   UNL     1      11.294  21.319  37.440  1.00  0.00     0.032 C 
BRANCH   4   5
ATOM      5  C   UNL     1      11.457  20.834  38.893  1.00  0.00     0.034 C 
BRANCH   5   6
ATOM      6  C   UNL     1      12.574  21.559  39.616  1.00  0.00    -0.077 C 
ATOM      7  C   UNL     1      12.230  22.346  40.855  1.00  0.00     0.039 C 
ATOM      8  C   UNL     1      13.869  21.521  39.228  1.00  0.00    -0.023 CG0
ATOM      9  G   UNL     1      14.412  20.763  38.041  1.00  0.00     0.000 G0
ENDBRANCH   5   6
ENDBRANCH   4   5
ENDBRANCH   2   4
BRANCH   1  10
ATOM     10  C   UNL     1      13.394  22.972  35.882  1.00  0.00     0.111 C 
BRANCH  10  11
ATOM     11  C   UNL     1      14.642  22.962  36.730  1.00  0.00     0.163 C 
ATOM     12  O   UNL     1      15.134  24.070  37.075  1.00  0.00    -0.294 OA
BRANCH  11  13
ATOM     13  C   UNL     1      15.266  21.687  37.206  1.00  0.00    -0.002 C 
ATOM     14  C   UNL     1      16.539  21.333  36.850  1.00  0.00    -0.069 C 
ATOM     15  C   UNL     1      17.176  20.061  37.366  1.00  0.00     0.039 C 
ATOM     16  C   UNL     1      17.359  22.174  35.897  1.00  0.00     0.039 C 
BRANCH  13  17
ATOM     17  C   UNL     1      14.398  20.764  38.042  1.00  0.00     0.066 CG0
ATOM     18  G   UNL     1      13.858  21.512  39.236  1.00  0.00     0.000 G0
ENDBRANCH  13  17
ENDBRANCH  11  13
ENDBRANCH  10  11
ENDBRANCH   1  10
TORSDOF 0
ENDMDL
MODEL 8
REMARK VINA RESULT:    -3.060      3.520      6.468
REMARK INTER + INTRA:          -4.021
REMARK INTER:                  -4.695
REMARK INTRA:                   0.674
REMARK UNBOUND:                 0.291
REMARK SMILES CC1=CCC(=C(C)C)C(=O)CC(C)=CCC1
REMARK SMILES IDX 12 1 14 2 13 3 15 4 16 5 2 6 1 7 3 8 11 10 9 11 10 12 5 13
REMARK SMILES IDX 6 14 7 15 8 16 4 17
REMARK H PARENT
REMARK Flexibility Score: 60.00
ROOT
ATOM      1  C   UNL     1      17.885  21.799  35.937  1.00  0.00    -0.070 C 
ATOM      2  C   UNL     1      18.345  20.712  36.601  1.00  0.00    -0.027 C 
ATOM      3  C   UNL     1      18.244  21.927  34.477  1.00  0.00     0.039 C 
ENDROOT
BRANCH   2   4
ATOM      4  C   UNL     1      18.197  20.436  38.078  1.00  0.00     0.032 C 
BRANCH   4   5
ATOM      5  C   UNL     1      17.540  19.072  38.363  1.00  0.00     0.034 C 
BRANCH   5   6
ATOM      6  C   UNL     1      16.159  18.963  37.748  1.00  0.00    -0.077 C 
ATOM      7  C   UNL     1      15.831  17.733  36.940  1.00  0.00     0.039 C 
ATOM      8  C   UNL     1      15.192  19.896  37.902  1.00  0.00    -0.023 CG0
ATOM      9  G   UNL     1      15.317  21.172  38.699  1.00  0.00     0.000 G0
ENDBRANCH   5   6
ENDBRANCH   4   5
ENDBRANCH   2   4
BRANCH   1  10
ATOM     10  C   UNL     1      17.090  22.915  36.595  1.00  0.00     0.111 C 
BRANCH  10  11
ATOM     11  C   UNL     1      15.610  22.621  36.588  1.00  0.00     0.163 C 
ATOM     12  O   UNL     1      15.023  22.552  35.475  1.00  0.00    -0.294 OA
BRANCH  11  13
ATOM     13  C   UNL     1      14.849  22.359  37.851  1.00  0.00    -0.002 C 
ATOM     14  C   UNL     1      13.836  23.182  38.262  1.00  0.00    -0.069 C 
ATOM     15  C   UNL     1      13.046  22.889  39.520  1.00  0.00     0.039 C 
ATOM     16  C   UNL     1      13.478  24.440  37.504  1.00  0.00     0.039 C 
BRANCH  13  17
ATOM     17  C   UNL     1      15.299  21.182  38.697  1.00  0.00     0.066 CG0
ATOM     18  G   UNL     1      15.191  19.907  37.898  1.00  0.00     0.000 G0
ENDBRANCH  13  17
ENDBRANCH  11  13
ENDBRANCH  10  11
ENDBRANCH   1  10
TORSDOF 0
ENDMDL
MODEL 9
REMARK VINA RESULT:    -2.997     15.202     17.378
REMARK INTER + INTRA:          -3.932
REMARK INTER:                  -4.602
REMARK INTRA:                   0.670
REMARK UNBOUND:                 0.291
REMARK SMILES CC1=CCC(=C(C)C)C(=O)CC(C)=CCC1
REMARK SMILES IDX 12 1 14 2 13 3 15 4 16 5 2 6 1 7 3 8 11 10 9 11 10 12 5 13
REMARK SMILES IDX 6 14 7 15 8 16 4 17
REMARK H PARENT
REMARK Flexibility Score: 60.00
ROOT
ATOM      1  C   UNL     1      18.056  12.022  51.796  1.00  0.00    -0.070 C 
ATOM      2  C   UNL     1      19.069  12.856  51.464  1.00  0.00    -0.027 C 
ATOM      3  C   UNL     1      18.364  10.898  52.755  1.00  0.00     0.039 C 
ENDROOT
BRANCH   2   4
ATOM      4  C   UNL     1      19.013  13.973  50.450  1.00  0.00     0.032 C 
BRANCH   4   5
ATOM      5  C   UNL     1      18.921  13.455  49.002  1.00  0.00     0.034 C 
BRANCH   5   6
ATOM      6  C   UNL     1      17.689  13.972  48.287  1.00  0.00    -0.077 C 
ATOM      7  C   UNL     1      17.540  15.461  48.103  1.00  0.00     0.039 C 
ATOM      8  C   UNL     1      16.724  13.171  47.780  1.00  0.00    -0.023 CG0
ATOM      9  G   UNL     1      16.712  11.663  47.832  1.00  0.00     0.000 G0
ENDBRANCH   5   6
ENDBRANCH   4   5
ENDBRANCH   2   4
BRANCH   1  10
ATOM     10  C   UNL     1      16.657  12.118  51.210  1.00  0.00     0.111 C 
BRANCH  10  11
ATOM     11  C   UNL     1      16.365  10.969  50.278  1.00  0.00     0.163 C 
ATOM     12  O   UNL     1      16.590   9.798  50.689  1.00  0.00    -0.294 OA
BRANCH  11  13
ATOM     13  C   UNL     1      15.772  11.182  48.919  1.00  0.00    -0.002 C 
ATOM     14  C   UNL     1      14.463  10.886  48.652  1.00  0.00    -0.069 C 
ATOM     15  C   UNL     1      13.862  11.140  47.287  1.00  0.00     0.039 C 
ATOM     16  C   UNL     1      13.563  10.260  49.693  1.00  0.00     0.039 C 
BRANCH  13  17
ATOM     17  C   UNL     1      16.707  11.670  47.828  1.00  0.00     0.066 CG0
ATOM     18  G   UNL     1      16.708  13.179  47.793  1.00  0.00     0.000 G0
ENDBRANCH  13  17
ENDBRANCH  11  13
ENDBRANCH  10  11
ENDBRANCH   1  10
TORSDOF 0
ENDMDL
