MODEL 1
REMARK VINA RESULT:    -2.544      0.000      0.000
REMARK INTER + INTRA:          -3.092
REMARK INTER:                  -2.990
REMARK INTRA:                  -0.101
REMARK UNBOUND:                -0.101
REMARK SMILES O=C([O-])CCC(=O)[O-]
REMARK SMILES IDX 4 1 2 2 1 3 3 4 5 5 6 6 7 7 8 8
REMARK H PARENT
REMARK Flexibility Score: inf
ROOT
ATOM      1  C   UNL     1      71.610  31.639  59.544  1.00  0.00     0.059 C 
ENDROOT
BRANCH   1   2
ATOM      2  C   UNL     1      71.419  33.122  59.550  1.00  0.00     0.042 C 
ATOM      3  O   UNL     1      71.373  33.760  58.465  1.00  0.00    -0.550 OA
ATOM      4  O   UNL     1      71.340  33.808  60.757  1.00  0.00    -0.550 OA
ENDBRANCH   1   2
BRANCH   1   5
ATOM      5  C   UNL     1      72.776  31.246  60.452  1.00  0.00     0.059 C 
BRANCH   5   6
ATOM      6  C   UNL     1      72.273  30.564  61.685  1.00  0.00     0.042 C 
ATOM      7  O   UNL     1      73.059  30.314  62.637  1.00  0.00    -0.550 OA
ATOM      8  O   UNL     1      70.925  30.248  61.804  1.00  0.00    -0.550 OA
ENDBRANCH   5   6
ENDBRANCH   1   5
TORSDOF 3
ENDMDL
MODEL 2
REMARK VINA RESULT:    -2.523      8.901      9.876
REMARK INTER + INTRA:          -3.067
REMARK INTER:                  -2.948
REMARK INTRA:                  -0.119
REMARK UNBOUND:                -0.101
REMARK SMILES O=C([O-])CCC(=O)[O-]
REMARK SMILES IDX 4 1 2 2 1 3 3 4 5 5 6 6 7 7 8 8
REMARK H PARENT
REMARK Flexibility Score: inf
ROOT
ATOM      1  C   UNL     1      61.849  31.865  60.278  1.00  0.00     0.059 C 
ENDROOT
BRANCH   1   2
ATOM      2  C   UNL     1      61.410  31.087  61.478  1.00  0.00     0.042 C 
ATOM      3  O   UNL     1      60.340  31.386  62.072  1.00  0.00    -0.550 OA
ATOM      4  O   UNL     1      62.208  30.061  61.971  1.00  0.00    -0.550 OA
ENDBRANCH   1   2
BRANCH   1   5
ATOM      5  C   UNL     1      62.271  33.278  60.683  1.00  0.00     0.059 C 
BRANCH   5   6
ATOM      6  C   UNL     1      63.754  33.351  60.860  1.00  0.00     0.042 C 
ATOM      7  O   UNL     1      64.278  34.355  61.412  1.00  0.00    -0.550 OA
ATOM      8  O   UNL     1      64.555  32.288  60.461  1.00  0.00    -0.550 OA
ENDBRANCH   5   6
ENDBRANCH   1   5
TORSDOF 3
ENDMDL
MODEL 3
REMARK VINA RESULT:    -2.501     17.723     18.802
REMARK INTER + INTRA:          -3.041
REMARK INTER:                  -2.977
REMARK INTRA:                  -0.063
REMARK UNBOUND:                -0.101
REMARK SMILES O=C([O-])CCC(=O)[O-]
REMARK SMILES IDX 4 1 2 2 1 3 3 4 5 5 6 6 7 7 8 8
REMARK H PARENT
REMARK Flexibility Score: inf
ROOT
ATOM      1  C   UNL     1      56.762  28.369  50.475  1.00  0.00     0.059 C 
ENDROOT
BRANCH   1   2
ATOM      2  C   UNL     1      55.608  27.498  50.093  1.00  0.00     0.042 C 
ATOM      3  O   UNL     1      55.780  26.265  49.902  1.00  0.00    -0.550 OA
ATOM      4  O   UNL     1      54.349  28.056  49.901  1.00  0.00    -0.550 OA
ENDBRANCH   1   2
BRANCH   1   5
ATOM      5  C   UNL     1      58.085  27.644  50.225  1.00  0.00     0.059 C 
BRANCH   5   6
ATOM      6  C   UNL     1      59.021  28.514  49.448  1.00  0.00     0.042 C 
ATOM      7  O   UNL     1      60.160  28.088  49.121  1.00  0.00    -0.550 OA
ATOM      8  O   UNL     1      58.617  29.781  49.043  1.00  0.00    -0.550 OA
ENDBRANCH   5   6
ENDBRANCH   1   5
TORSDOF 3
ENDMDL
MODEL 4
REMARK VINA RESULT:    -2.496      8.926      9.630
REMARK INTER + INTRA:          -3.035
REMARK INTER:                  -2.904
REMARK INTRA:                  -0.131
REMARK UNBOUND:                -0.101
REMARK SMILES O=C([O-])CCC(=O)[O-]
REMARK SMILES IDX 4 1 2 2 1 3 3 4 5 5 6 6 7 7 8 8
REMARK H PARENT
REMARK Flexibility Score: inf
ROOT
ATOM      1  C   UNL     1      62.165  33.529  60.676  1.00  0.00     0.059 C 
ENDROOT
BRANCH   1   2
ATOM      2  C   UNL     1      63.653  33.589  60.811  1.00  0.00     0.042 C 
ATOM      3  O   UNL     1      64.191  34.498  61.497  1.00  0.00    -0.550 OA
ATOM      4  O   UNL     1      64.450  32.671  60.137  1.00  0.00    -0.550 OA
ENDBRANCH   1   2
BRANCH   1   5
ATOM      5  C   UNL     1      61.723  32.127  60.252  1.00  0.00     0.059 C 
BRANCH   5   6
ATOM      6  C   UNL     1      61.464  31.275  61.453  1.00  0.00     0.042 C 
ATOM      7  O   UNL     1      60.375  31.373  62.078  1.00  0.00    -0.550 OA
ATOM      8  O   UNL     1      62.406  30.334  61.854  1.00  0.00    -0.550 OA
ENDBRANCH   5   6
ENDBRANCH   1   5
TORSDOF 3
ENDMDL
MODEL 5
REMARK VINA RESULT:    -2.494      9.652     10.726
REMARK INTER + INTRA:          -3.033
REMARK INTER:                  -2.998
REMARK INTRA:                  -0.034
REMARK UNBOUND:                -0.101
REMARK SMILES O=C([O-])CCC(=O)[O-]
REMARK SMILES IDX 4 1 2 2 1 3 3 4 5 5 6 6 7 7 8 8
REMARK H PARENT
REMARK Flexibility Score: inf
ROOT
ATOM      1  C   UNL     1      62.133  32.577  60.763  1.00  0.00     0.059 C 
ENDROOT
BRANCH   1   2
ATOM      2  C   UNL     1      60.886  31.770  60.935  1.00  0.00     0.042 C 
ATOM      3  O   UNL     1      60.581  31.308  62.067  1.00  0.00    -0.550 OA
ATOM      4  O   UNL     1      60.084  31.484  59.836  1.00  0.00    -0.550 OA
ENDBRANCH   1   2
BRANCH   1   5
ATOM      5  C   UNL     1      61.788  34.041  60.484  1.00  0.00     0.059 C 
BRANCH   5   6
ATOM      6  C   UNL     1      62.845  34.942  61.037  1.00  0.00     0.042 C 
ATOM      7  O   UNL     1      64.020  34.518  61.199  1.00  0.00    -0.550 OA
ATOM      8  O   UNL     1      62.545  36.268  61.330  1.00  0.00    -0.550 OA
ENDBRANCH   5   6
ENDBRANCH   1   5
TORSDOF 3
ENDMDL
MODEL 6
REMARK VINA RESULT:    -2.487      0.307      3.802
REMARK INTER + INTRA:          -3.024
REMARK INTER:                  -2.946
REMARK INTRA:                  -0.078
REMARK UNBOUND:                -0.101
REMARK SMILES O=C([O-])CCC(=O)[O-]
REMARK SMILES IDX 4 1 2 2 1 3 3 4 5 5 6 6 7 7 8 8
REMARK H PARENT
REMARK Flexibility Score: inf
ROOT
ATOM      1  C   UNL     1      72.755  31.331  60.515  1.00  0.00     0.059 C 
ENDROOT
BRANCH   1   2
ATOM      2  C   UNL     1      72.254  30.550  61.688  1.00  0.00     0.042 C 
ATOM      3  O   UNL     1      73.039  30.233  62.621  1.00  0.00    -0.550 OA
ATOM      4  O   UNL     1      70.930  30.129  61.730  1.00  0.00    -0.550 OA
ENDBRANCH   1   2
BRANCH   1   5
ATOM      5  C   UNL     1      71.599  31.700  59.585  1.00  0.00     0.059 C 
BRANCH   5   6
ATOM      6  C   UNL     1      71.261  33.151  59.721  1.00  0.00     0.042 C 
ATOM      7  O   UNL     1      71.583  33.783  60.762  1.00  0.00    -0.550 OA
ATOM      8  O   UNL     1      70.634  33.820  58.676  1.00  0.00    -0.550 OA
ENDBRANCH   5   6
ENDBRANCH   1   5
TORSDOF 3
ENDMDL
MODEL 7
REMARK VINA RESULT:    -2.478     17.684     18.686
REMARK INTER + INTRA:          -3.014
REMARK INTER:                  -2.938
REMARK INTRA:                  -0.075
REMARK UNBOUND:                -0.101
REMARK SMILES O=C([O-])CCC(=O)[O-]
REMARK SMILES IDX 4 1 2 2 1 3 3 4 5 5 6 6 7 7 8 8
REMARK H PARENT
REMARK Flexibility Score: inf
ROOT
ATOM      1  C   UNL     1      58.052  28.048  50.551  1.00  0.00     0.059 C 
ENDROOT
BRANCH   1   2
ATOM      2  C   UNL     1      58.903  28.700  49.508  1.00  0.00     0.042 C 
ATOM      3  O   UNL     1      58.583  29.824  49.039  1.00  0.00    -0.550 OA
ATOM      4  O   UNL     1      60.026  28.044  49.017  1.00  0.00    -0.550 OA
ENDBRANCH   1   2
BRANCH   1   5
ATOM      5  C   UNL     1      56.632  28.615  50.513  1.00  0.00     0.059 C 
BRANCH   5   6
ATOM      6  C   UNL     1      55.652  27.547  50.143  1.00  0.00     0.042 C 
ATOM      7  O   UNL     1      55.994  26.335  50.172  1.00  0.00    -0.550 OA
ATOM      8  O   UNL     1      54.345  27.886  49.813  1.00  0.00    -0.550 OA
ENDBRANCH   5   6
ENDBRANCH   1   5
TORSDOF 3
ENDMDL
MODEL 8
REMARK VINA RESULT:    -2.454     10.083     10.606
REMARK INTER + INTRA:          -2.985
REMARK INTER:                  -2.828
REMARK INTRA:                  -0.158
REMARK UNBOUND:                -0.101
REMARK SMILES O=C([O-])CCC(=O)[O-]
REMARK SMILES IDX 4 1 2 2 1 3 3 4 5 5 6 6 7 7 8 8
REMARK H PARENT
REMARK Flexibility Score: inf
ROOT
ATOM      1  C   UNL     1      61.119  32.282  60.969  1.00  0.00     0.059 C 
ENDROOT
BRANCH   1   2
ATOM      2  C   UNL     1      60.845  31.975  59.532  1.00  0.00     0.042 C 
ATOM      3  O   UNL     1      59.669  31.739  59.146  1.00  0.00    -0.550 OA
ATOM      4  O   UNL     1      61.895  31.901  58.623  1.00  0.00    -0.550 OA
ENDBRANCH   1   2
BRANCH   1   5
ATOM      5  C   UNL     1      60.866  31.049  61.837  1.00  0.00     0.059 C 
BRANCH   5   6
ATOM      6  C   UNL     1      62.033  30.115  61.773  1.00  0.00     0.042 C 
ATOM      7  O   UNL     1      61.848  28.870  61.740  1.00  0.00    -0.550 OA
ATOM      8  O   UNL     1      63.325  30.621  61.700  1.00  0.00    -0.550 OA
ENDBRANCH   5   6
ENDBRANCH   1   5
TORSDOF 3
ENDMDL
MODEL 9
REMARK VINA RESULT:    -2.445     10.084     11.062
REMARK INTER + INTRA:          -2.975
REMARK INTER:                  -2.824
REMARK INTRA:                  -0.151
REMARK UNBOUND:                -0.101
REMARK SMILES O=C([O-])CCC(=O)[O-]
REMARK SMILES IDX 4 1 2 2 1 3 3 4 5 5 6 6 7 7 8 8
REMARK H PARENT
REMARK Flexibility Score: inf
ROOT
ATOM      1  C   UNL     1      60.861  30.988  61.799  1.00  0.00     0.059 C 
ENDROOT
BRANCH   1   2
ATOM      2  C   UNL     1      62.040  30.071  61.737  1.00  0.00     0.042 C 
ATOM      3  O   UNL     1      61.875  28.822  61.751  1.00  0.00    -0.550 OA
ATOM      4  O   UNL     1      63.328  30.594  61.713  1.00  0.00    -0.550 OA
ENDBRANCH   1   2
BRANCH   1   5
ATOM      5  C   UNL     1      61.121  32.251  60.978  1.00  0.00     0.059 C 
BRANCH   5   6
ATOM      6  C   UNL     1      60.885  31.988  59.524  1.00  0.00     0.042 C 
ATOM      7  O   UNL     1      61.833  32.084  58.700  1.00  0.00    -0.550 OA
ATOM      8  O   UNL     1      59.628  31.588  59.085  1.00  0.00    -0.550 OA
ENDBRANCH   5   6
ENDBRANCH   1   5
TORSDOF 3
ENDMDL
