MODEL 1
REMARK VINA RESULT:    -4.085      0.000      0.000
REMARK INTER + INTRA:         -15.786
REMARK INTER:                 -10.771
REMARK INTRA:                  -5.015
REMARK UNBOUND:                -5.015
REMARK SMILES CCCCCCCCCCCCCCCCCCCCCCCCCCCCCC(=O)[O-]
REMARK SMILES IDX 16 1 17 2 18 3 19 4 20 5 21 6 22 7 23 8 24 9 25 10 26 11
REMARK SMILES IDX 27 12 28 13 29 14 30 15 31 16 32 17 15 18 14 19 13 20 12 21
REMARK SMILES IDX 11 22 10 23 9 24 8 25 7 26 6 27 5 28 4 29 3 30 2 31 1 32
REMARK H PARENT
REMARK Flexibility Score: inf
ROOT
ATOM      1  C   UNL     1       0.252  -1.817   6.103  1.00  0.00     0.000 C 
ENDROOT
BRANCH   1   2
ATOM      2  C   UNL     1       1.470  -1.386   5.264  1.00  0.00     0.000 C 
BRANCH   2   3
ATOM      3  C   UNL     1       2.564  -2.458   5.089  1.00  0.00     0.000 C 
BRANCH   3   4
ATOM      4  C   UNL     1       3.988  -1.896   5.239  1.00  0.00     0.000 C 
BRANCH   4   5
ATOM      5  C   UNL     1       4.348  -1.580   6.700  1.00  0.00     0.000 C 
BRANCH   5   6
ATOM      6  C   UNL     1       3.807  -2.615   7.711  1.00  0.00     0.000 C 
BRANCH   6   7
ATOM      7  C   UNL     1       2.896  -1.971   8.771  1.00  0.00     0.000 C 
BRANCH   7   8
ATOM      8  C   UNL     1       2.791  -0.444   8.606  1.00  0.00     0.000 C 
BRANCH   8   9
ATOM      9  C   UNL     1       1.427   0.101   9.068  1.00  0.00     0.000 C 
BRANCH   9  10
ATOM     10  C   UNL     1       1.135   1.510   8.529  1.00  0.00     0.000 C 
BRANCH  10  11
ATOM     11  C   UNL     1       1.817   1.776   7.175  1.00  0.00     0.000 C 
BRANCH  11  12
ATOM     12  C   UNL     1       2.104   3.269   6.939  1.00  0.00     0.000 C 
BRANCH  12  13
ATOM     13  C   UNL     1       0.836   4.071   6.585  1.00  0.00     0.006 C 
BRANCH  13  14
ATOM     14  C   UNL     1       1.159   5.507   6.147  1.00  0.00     0.053 C 
BRANCH  14  15
ATOM     15  C   UNL     1       0.491   5.869   4.856  1.00  0.00     0.041 C 
ATOM     16  O   UNL     1       0.138   4.970   4.045  1.00  0.00    -0.550 OA
ATOM     17  O   UNL     1       0.241   7.203   4.552  1.00  0.00    -0.550 OA
ENDBRANCH  14  15
ENDBRANCH  13  14
ENDBRANCH  12  13
ENDBRANCH  11  12
ENDBRANCH  10  11
ENDBRANCH   9  10
ENDBRANCH   8   9
ENDBRANCH   7   8
ENDBRANCH   6   7
ENDBRANCH   5   6
ENDBRANCH   4   5
ENDBRANCH   3   4
ENDBRANCH   2   3
ENDBRANCH   1   2
BRANCH   1  18
ATOM     18  C   UNL     1       0.232  -3.321   6.412  1.00  0.00     0.000 C 
BRANCH  18  19
ATOM     19  C   UNL     1      -0.335  -3.585   7.817  1.00  0.00     0.000 C 
BRANCH  19  20
ATOM     20  C   UNL     1      -1.124  -2.389   8.383  1.00  0.00     0.000 C 
BRANCH  20  21
ATOM     21  C   UNL     1      -2.634  -2.631   8.563  1.00  0.00     0.000 C 
BRANCH  21  22
ATOM     22  C   UNL     1      -3.407  -2.928   7.264  1.00  0.00     0.000 C 
BRANCH  22  23
ATOM     23  C   UNL     1      -4.913  -2.599   7.344  1.00  0.00     0.000 C 
BRANCH  23  24
ATOM     24  C   UNL     1      -5.473  -2.091   6.005  1.00  0.00    -0.000 C 
BRANCH  24  25
ATOM     25  C   UNL     1      -4.598  -0.984   5.387  1.00  0.00    -0.000 C 
BRANCH  25  26
ATOM     26  C   UNL     1      -4.052  -1.336   3.991  1.00  0.00    -0.000 C 
BRANCH  26  27
ATOM     27  C   UNL     1      -2.530  -1.564   4.003  1.00  0.00    -0.000 C 
BRANCH  27  28
ATOM     28  C   UNL     1      -2.129  -2.951   3.470  1.00  0.00    -0.000 C 
BRANCH  28  29
ATOM     29  C   UNL     1      -3.329  -3.894   3.241  1.00  0.00    -0.000 C 
BRANCH  29  30
ATOM     30  C   UNL     1      -3.324  -5.086   4.215  1.00  0.00    -0.000 C 
BRANCH  30  31
ATOM     31  C   UNL     1      -4.615  -5.915   4.146  1.00  0.00    -0.003 C 
ATOM     32  C   UNL     1      -5.542  -5.669   5.335  1.00  0.00     0.004 C 
ENDBRANCH  30  31
ENDBRANCH  29  30
ENDBRANCH  28  29
ENDBRANCH  27  28
ENDBRANCH  26  27
ENDBRANCH  25  26
ENDBRANCH  24  25
ENDBRANCH  23  24
ENDBRANCH  22  23
ENDBRANCH  21  22
ENDBRANCH  20  21
ENDBRANCH  19  20
ENDBRANCH  18  19
ENDBRANCH   1  18
TORSDOF 28
ENDMDL
MODEL 2
REMARK VINA RESULT:    -4.048      1.914      4.900
REMARK INTER + INTRA:         -15.689
REMARK INTER:                 -11.955
REMARK INTRA:                  -3.734
REMARK UNBOUND:                -5.015
REMARK SMILES CCCCCCCCCCCCCCCCCCCCCCCCCCCCCC(=O)[O-]
REMARK SMILES IDX 16 1 17 2 18 3 19 4 20 5 21 6 22 7 23 8 24 9 25 10 26 11
REMARK SMILES IDX 27 12 28 13 29 14 30 15 31 16 32 17 15 18 14 19 13 20 12 21
REMARK SMILES IDX 11 22 10 23 9 24 8 25 7 26 6 27 5 28 4 29 3 30 2 31 1 32
REMARK H PARENT
REMARK Flexibility Score: inf
ROOT
ATOM      1  C   UNL     1       1.160  -0.171   5.868  1.00  0.00     0.000 C 
ENDROOT
BRANCH   1   2
ATOM      2  C   UNL     1       2.061   0.129   7.081  1.00  0.00     0.000 C 
BRANCH   2   3
ATOM      3  C   UNL     1       1.421   1.004   8.177  1.00  0.00     0.000 C 
BRANCH   3   4
ATOM      4  C   UNL     1       1.369   2.496   7.804  1.00  0.00     0.000 C 
BRANCH   4   5
ATOM      5  C   UNL     1       0.323   3.273   8.621  1.00  0.00     0.000 C 
BRANCH   5   6
ATOM      6  C   UNL     1       0.699   4.752   8.865  1.00  0.00     0.000 C 
BRANCH   6   7
ATOM      7  C   UNL     1      -0.534   5.671   8.870  1.00  0.00     0.000 C 
BRANCH   7   8
ATOM      8  C   UNL     1      -0.564   6.622   7.659  1.00  0.00     0.000 C 
BRANCH   8   9
ATOM      9  C   UNL     1      -1.885   6.528   6.874  1.00  0.00     0.000 C 
BRANCH   9  10
ATOM     10  C   UNL     1      -1.670   6.304   5.369  1.00  0.00     0.000 C 
BRANCH  10  11
ATOM     11  C   UNL     1      -0.182   6.340   4.975  1.00  0.00     0.000 C 
BRANCH  11  12
ATOM     12  C   UNL     1       0.339   4.971   4.504  1.00  0.00     0.000 C 
BRANCH  12  13
ATOM     13  C   UNL     1       1.736   4.641   5.064  1.00  0.00     0.006 C 
BRANCH  13  14
ATOM     14  C   UNL     1       2.809   5.622   4.570  1.00  0.00     0.053 C 
BRANCH  14  15
ATOM     15  C   UNL     1       2.945   5.608   3.077  1.00  0.00     0.041 C 
ATOM     16  O   UNL     1       3.459   4.616   2.493  1.00  0.00    -0.550 OA
ATOM     17  O   UNL     1       2.491   6.687   2.328  1.00  0.00    -0.550 OA
ENDBRANCH  14  15
ENDBRANCH  13  14
ENDBRANCH  12  13
ENDBRANCH  11  12
ENDBRANCH  10  11
ENDBRANCH   9  10
ENDBRANCH   8   9
ENDBRANCH   7   8
ENDBRANCH   6   7
ENDBRANCH   5   6
ENDBRANCH   4   5
ENDBRANCH   3   4
ENDBRANCH   2   3
ENDBRANCH   1   2
BRANCH   1  18
ATOM     18  C   UNL     1       1.450  -1.533   5.223  1.00  0.00     0.000 C 
BRANCH  18  19
ATOM     19  C   UNL     1       2.939  -1.895   5.349  1.00  0.00     0.000 C 
BRANCH  19  20
ATOM     20  C   UNL     1       3.171  -3.279   5.983  1.00  0.00     0.000 C 
BRANCH  20  21
ATOM     21  C   UNL     1       2.360  -3.553   7.264  1.00  0.00     0.000 C 
BRANCH  21  22
ATOM     22  C   UNL     1       1.618  -4.902   7.289  1.00  0.00     0.000 C 
BRANCH  22  23
ATOM     23  C   UNL     1       0.080  -4.769   7.329  1.00  0.00     0.000 C 
BRANCH  23  24
ATOM     24  C   UNL     1      -0.375  -3.359   7.743  1.00  0.00    -0.000 C 
BRANCH  24  25
ATOM     25  C   UNL     1      -1.476  -2.805   6.820  1.00  0.00    -0.000 C 
BRANCH  25  26
ATOM     26  C   UNL     1      -1.731  -3.675   5.574  1.00  0.00    -0.000 C 
BRANCH  26  27
ATOM     27  C   UNL     1      -1.681  -2.856   4.272  1.00  0.00    -0.000 C 
BRANCH  27  28
ATOM     28  C   UNL     1      -2.584  -1.610   4.315  1.00  0.00    -0.000 C 
BRANCH  28  29
ATOM     29  C   UNL     1      -3.939  -1.807   3.603  1.00  0.00    -0.000 C 
BRANCH  29  30
ATOM     30  C   UNL     1      -5.131  -1.548   4.541  1.00  0.00    -0.000 C 
BRANCH  30  31
ATOM     31  C   UNL     1      -4.699  -1.024   5.920  1.00  0.00    -0.003 C 
ATOM     32  C   UNL     1      -5.782  -0.190   6.603  1.00  0.00     0.004 C 
ENDBRANCH  30  31
ENDBRANCH  29  30
ENDBRANCH  28  29
ENDBRANCH  27  28
ENDBRANCH  26  27
ENDBRANCH  25  26
ENDBRANCH  24  25
ENDBRANCH  23  24
ENDBRANCH  22  23
ENDBRANCH  21  22
ENDBRANCH  20  21
ENDBRANCH  19  20
ENDBRANCH  18  19
ENDBRANCH   1  18
TORSDOF 28
ENDMDL
MODEL 3
REMARK VINA RESULT:    -4.010      1.264      2.960
REMARK INTER + INTRA:         -15.588
REMARK INTER:                 -11.538
REMARK INTRA:                  -4.050
REMARK UNBOUND:                -5.015
REMARK SMILES CCCCCCCCCCCCCCCCCCCCCCCCCCCCCC(=O)[O-]
REMARK SMILES IDX 16 1 17 2 18 3 19 4 20 5 21 6 22 7 23 8 24 9 25 10 26 11
REMARK SMILES IDX 27 12 28 13 29 14 30 15 31 16 32 17 15 18 14 19 13 20 12 21
REMARK SMILES IDX 11 22 10 23 9 24 8 25 7 26 6 27 5 28 4 29 3 30 2 31 1 32
REMARK H PARENT
REMARK Flexibility Score: inf
ROOT
ATOM      1  C   UNL     1       1.968  -3.088   5.987  1.00  0.00     0.000 C 
ENDROOT
BRANCH   1   2
ATOM      2  C   UNL     1       2.929  -2.386   5.009  1.00  0.00     0.000 C 
BRANCH   2   3
ATOM      3  C   UNL     1       4.164  -1.728   5.655  1.00  0.00     0.000 C 
BRANCH   3   4
ATOM      4  C   UNL     1       4.187  -1.864   7.187  1.00  0.00     0.000 C 
BRANCH   4   5
ATOM      5  C   UNL     1       3.882  -0.537   7.903  1.00  0.00     0.000 C 
BRANCH   5   6
ATOM      6  C   UNL     1       2.762  -0.644   8.962  1.00  0.00     0.000 C 
BRANCH   6   7
ATOM      7  C   UNL     1       1.457   0.025   8.497  1.00  0.00     0.000 C 
BRANCH   7   8
ATOM      8  C   UNL     1       1.637   0.823   7.193  1.00  0.00     0.000 C 
BRANCH   8   9
ATOM      9  C   UNL     1       1.476   2.339   7.407  1.00  0.00     0.000 C 
BRANCH   9  10
ATOM     10  C   UNL     1       0.687   2.681   8.681  1.00  0.00     0.000 C 
BRANCH  10  11
ATOM     11  C   UNL     1       0.008   4.059   8.600  1.00  0.00     0.000 C 
BRANCH  11  12
ATOM     12  C   UNL     1       0.552   4.922   7.449  1.00  0.00     0.000 C 
BRANCH  12  13
ATOM     13  C   UNL     1      -0.531   5.812   6.809  1.00  0.00     0.006 C 
BRANCH  13  14
ATOM     14  C   UNL     1      -0.595   5.645   5.283  1.00  0.00     0.053 C 
BRANCH  14  15
ATOM     15  C   UNL     1      -0.017   6.823   4.559  1.00  0.00     0.041 C 
ATOM     16  O   UNL     1       1.203   6.840   4.240  1.00  0.00    -0.550 OA
ATOM     17  O   UNL     1      -0.830   7.899   4.223  1.00  0.00    -0.550 OA
ENDBRANCH  14  15
ENDBRANCH  13  14
ENDBRANCH  12  13
ENDBRANCH  11  12
ENDBRANCH  10  11
ENDBRANCH   9  10
ENDBRANCH   8   9
ENDBRANCH   7   8
ENDBRANCH   6   7
ENDBRANCH   5   6
ENDBRANCH   4   5
ENDBRANCH   3   4
ENDBRANCH   2   3
ENDBRANCH   1   2
BRANCH   1  18
ATOM     18  C   UNL     1       0.558  -2.481   5.989  1.00  0.00     0.000 C 
BRANCH  18  19
ATOM     19  C   UNL     1      -0.247  -2.969   7.205  1.00  0.00     0.000 C 
BRANCH  19  20
ATOM     20  C   UNL     1      -1.750  -2.647   7.100  1.00  0.00     0.000 C 
BRANCH  20  21
ATOM     21  C   UNL     1      -2.684  -3.870   7.173  1.00  0.00     0.000 C 
BRANCH  21  22
ATOM     22  C   UNL     1      -2.166  -5.131   6.457  1.00  0.00     0.000 C 
BRANCH  22  23
ATOM     23  C   UNL     1      -3.154  -5.713   5.423  1.00  0.00     0.000 C 
BRANCH  23  24
ATOM     24  C   UNL     1      -2.705  -5.457   3.974  1.00  0.00    -0.000 C 
BRANCH  24  25
ATOM     25  C   UNL     1      -3.291  -4.153   3.402  1.00  0.00    -0.000 C 
BRANCH  25  26
ATOM     26  C   UNL     1      -2.243  -3.042   3.201  1.00  0.00    -0.000 C 
BRANCH  26  27
ATOM     27  C   UNL     1      -2.712  -1.690   3.767  1.00  0.00    -0.000 C 
BRANCH  27  28
ATOM     28  C   UNL     1      -4.197  -1.696   4.174  1.00  0.00    -0.000 C 
BRANCH  28  29
ATOM     29  C   UNL     1      -4.515  -0.756   5.356  1.00  0.00    -0.000 C 
BRANCH  29  30
ATOM     30  C   UNL     1      -5.356  -1.453   6.441  1.00  0.00    -0.000 C 
BRANCH  30  31
ATOM     31  C   UNL     1      -6.697  -0.747   6.698  1.00  0.00    -0.003 C 
ATOM     32  C   UNL     1      -6.525   0.679   7.217  1.00  0.00     0.004 C 
ENDBRANCH  30  31
ENDBRANCH  29  30
ENDBRANCH  28  29
ENDBRANCH  27  28
ENDBRANCH  26  27
ENDBRANCH  25  26
ENDBRANCH  24  25
ENDBRANCH  23  24
ENDBRANCH  22  23
ENDBRANCH  21  22
ENDBRANCH  20  21
ENDBRANCH  19  20
ENDBRANCH  18  19
ENDBRANCH   1  18
TORSDOF 28
ENDMDL
MODEL 4
REMARK VINA RESULT:    -3.996      1.402      3.924
REMARK INTER + INTRA:         -15.552
REMARK INTER:                 -11.397
REMARK INTRA:                  -4.155
REMARK UNBOUND:                -5.015
REMARK SMILES CCCCCCCCCCCCCCCCCCCCCCCCCCCCCC(=O)[O-]
REMARK SMILES IDX 16 1 17 2 18 3 19 4 20 5 21 6 22 7 23 8 24 9 25 10 26 11
REMARK SMILES IDX 27 12 28 13 29 14 30 15 31 16 32 17 15 18 14 19 13 20 12 21
REMARK SMILES IDX 11 22 10 23 9 24 8 25 7 26 6 27 5 28 4 29 3 30 2 31 1 32
REMARK H PARENT
REMARK Flexibility Score: inf
ROOT
ATOM      1  C   UNL     1       4.520  -2.120   7.005  1.00  0.00     0.000 C 
ENDROOT
BRANCH   1   2
ATOM      2  C   UNL     1       4.382  -0.973   8.024  1.00  0.00     0.000 C 
BRANCH   2   3
ATOM      3  C   UNL     1       2.951  -0.711   8.533  1.00  0.00     0.000 C 
BRANCH   3   4
ATOM      4  C   UNL     1       2.482   0.735   8.295  1.00  0.00     0.000 C 
BRANCH   4   5
ATOM      5  C   UNL     1       1.789   0.913   6.934  1.00  0.00     0.000 C 
BRANCH   5   6
ATOM      6  C   UNL     1       1.436   2.381   6.604  1.00  0.00     0.000 C 
BRANCH   6   7
ATOM      7  C   UNL     1       2.383   3.376   7.295  1.00  0.00     0.000 C 
BRANCH   7   8
ATOM      8  C   UNL     1       1.634   4.369   8.202  1.00  0.00     0.000 C 
BRANCH   8   9
ATOM      9  C   UNL     1       0.242   3.853   8.611  1.00  0.00     0.000 C 
BRANCH   9  10
ATOM     10  C   UNL     1      -0.763   4.987   8.865  1.00  0.00     0.000 C 
BRANCH  10  11
ATOM     11  C   UNL     1      -0.507   6.213   7.970  1.00  0.00     0.000 C 
BRANCH  11  12
ATOM     12  C   UNL     1      -1.634   6.447   6.949  1.00  0.00     0.000 C 
BRANCH  12  13
ATOM     13  C   UNL     1      -1.113   6.558   5.503  1.00  0.00     0.006 C 
BRANCH  13  14
ATOM     14  C   UNL     1      -0.161   5.409   5.137  1.00  0.00     0.053 C 
BRANCH  14  15
ATOM     15  C   UNL     1       1.083   5.898   4.460  1.00  0.00     0.041 C 
ATOM     16  O   UNL     1       1.673   6.931   4.878  1.00  0.00    -0.550 OA
ATOM     17  O   UNL     1       1.601   5.204   3.372  1.00  0.00    -0.550 OA
ENDBRANCH  14  15
ENDBRANCH  13  14
ENDBRANCH  12  13
ENDBRANCH  11  12
ENDBRANCH  10  11
ENDBRANCH   9  10
ENDBRANCH   8   9
ENDBRANCH   7   8
ENDBRANCH   6   7
ENDBRANCH   5   6
ENDBRANCH   4   5
ENDBRANCH   3   4
ENDBRANCH   2   3
ENDBRANCH   1   2
BRANCH   1  18
ATOM     18  C   UNL     1       4.303  -1.670   5.554  1.00  0.00     0.000 C 
BRANCH  18  19
ATOM     19  C   UNL     1       3.236  -2.538   4.864  1.00  0.00     0.000 C 
BRANCH  19  20
ATOM     20  C   UNL     1       1.797  -2.091   5.186  1.00  0.00     0.000 C 
BRANCH  20  21
ATOM     21  C   UNL     1       1.130  -2.839   6.356  1.00  0.00     0.000 C 
BRANCH  21  22
ATOM     22  C   UNL     1      -0.379  -2.577   6.521  1.00  0.00     0.000 C 
BRANCH  22  23
ATOM     23  C   UNL     1      -1.090  -2.173   5.212  1.00  0.00     0.000 C 
BRANCH  23  24
ATOM     24  C   UNL     1      -1.908  -3.327   4.608  1.00  0.00    -0.000 C 
BRANCH  24  25
ATOM     25  C   UNL     1      -2.694  -2.895   3.356  1.00  0.00    -0.000 C 
BRANCH  25  26
ATOM     26  C   UNL     1      -4.151  -2.495   3.651  1.00  0.00    -0.000 C 
BRANCH  26  27
ATOM     27  C   UNL     1      -4.282  -1.009   4.029  1.00  0.00    -0.000 C 
BRANCH  27  28
ATOM     28  C   UNL     1      -4.729  -0.801   5.488  1.00  0.00    -0.000 C 
BRANCH  28  29
ATOM     29  C   UNL     1      -5.075  -2.115   6.219  1.00  0.00    -0.000 C 
BRANCH  29  30
ATOM     30  C   UNL     1      -4.223  -2.316   7.485  1.00  0.00    -0.000 C 
BRANCH  30  31
ATOM     31  C   UNL     1      -3.777  -3.775   7.676  1.00  0.00    -0.003 C 
ATOM     32  C   UNL     1      -4.530  -4.747   6.770  1.00  0.00     0.004 C 
ENDBRANCH  30  31
ENDBRANCH  29  30
ENDBRANCH  28  29
ENDBRANCH  27  28
ENDBRANCH  26  27
ENDBRANCH  25  26
ENDBRANCH  24  25
ENDBRANCH  23  24
ENDBRANCH  22  23
ENDBRANCH  21  22
ENDBRANCH  20  21
ENDBRANCH  19  20
ENDBRANCH  18  19
ENDBRANCH   1  18
TORSDOF 28
ENDMDL
MODEL 5
REMARK VINA RESULT:    -3.956      1.389      2.810
REMARK INTER + INTRA:         -15.446
REMARK INTER:                 -10.338
REMARK INTRA:                  -5.108
REMARK UNBOUND:                -5.015
REMARK SMILES CCCCCCCCCCCCCCCCCCCCCCCCCCCCCC(=O)[O-]
REMARK SMILES IDX 16 1 17 2 18 3 19 4 20 5 21 6 22 7 23 8 24 9 25 10 26 11
REMARK SMILES IDX 27 12 28 13 29 14 30 15 31 16 32 17 15 18 14 19 13 20 12 21
REMARK SMILES IDX 11 22 10 23 9 24 8 25 7 26 6 27 5 28 4 29 3 30 2 31 1 32
REMARK H PARENT
REMARK Flexibility Score: inf
ROOT
ATOM      1  C   UNL     1       0.311  -3.564   8.078  1.00  0.00     0.000 C 
ENDROOT
BRANCH   1   2
ATOM      2  C   UNL     1       1.652  -3.202   8.745  1.00  0.00     0.000 C 
BRANCH   2   3
ATOM      3  C   UNL     1       2.906  -3.455   7.886  1.00  0.00     0.000 C 
BRANCH   3   4
ATOM      4  C   UNL     1       2.597  -3.554   6.382  1.00  0.00     0.000 C 
BRANCH   4   5
ATOM      5  C   UNL     1       2.758  -2.209   5.656  1.00  0.00     0.000 C 
BRANCH   5   6
ATOM      6  C   UNL     1       1.421  -1.584   5.199  1.00  0.00     0.000 C 
BRANCH   6   7
ATOM      7  C   UNL     1       1.180  -0.201   5.828  1.00  0.00     0.000 C 
BRANCH   7   8
ATOM      8  C   UNL     1       2.124   0.079   7.011  1.00  0.00     0.000 C 
BRANCH   8   9
ATOM      9  C   UNL     1       1.380   0.654   8.230  1.00  0.00     0.000 C 
BRANCH   9  10
ATOM     10  C   UNL     1       1.758   2.113   8.527  1.00  0.00     0.000 C 
BRANCH  10  11
ATOM     11  C   UNL     1       0.524   3.013   8.721  1.00  0.00     0.000 C 
BRANCH  11  12
ATOM     12  C   UNL     1       0.421   4.115   7.653  1.00  0.00     0.000 C 
BRANCH  12  13
ATOM     13  C   UNL     1       1.259   3.808   6.397  1.00  0.00     0.006 C 
BRANCH  13  14
ATOM     14  C   UNL     1       0.822   4.647   5.186  1.00  0.00     0.053 C 
BRANCH  14  15
ATOM     15  C   UNL     1       1.990   5.150   4.394  1.00  0.00     0.041 C 
ATOM     16  O   UNL     1       3.075   5.434   4.969  1.00  0.00    -0.550 OA
ATOM     17  O   UNL     1       1.886   5.291   3.015  1.00  0.00    -0.550 OA
ENDBRANCH  14  15
ENDBRANCH  13  14
ENDBRANCH  12  13
ENDBRANCH  11  12
ENDBRANCH  10  11
ENDBRANCH   9  10
ENDBRANCH   8   9
ENDBRANCH   7   8
ENDBRANCH   6   7
ENDBRANCH   5   6
ENDBRANCH   4   5
ENDBRANCH   3   4
ENDBRANCH   2   3
ENDBRANCH   1   2
BRANCH   1  18
ATOM     18  C   UNL     1      -0.746  -2.459   8.206  1.00  0.00     0.000 C 
BRANCH  18  19
ATOM     19  C   UNL     1      -1.838  -2.618   7.135  1.00  0.00     0.000 C 
BRANCH  19  20
ATOM     20  C   UNL     1      -1.481  -3.663   6.061  1.00  0.00     0.000 C 
BRANCH  20  21
ATOM     21  C   UNL     1      -1.859  -3.272   4.620  1.00  0.00     0.000 C 
BRANCH  21  22
ATOM     22  C   UNL     1      -2.144  -1.773   4.406  1.00  0.00     0.000 C 
BRANCH  22  23
ATOM     23  C   UNL     1      -3.584  -1.472   3.935  1.00  0.00     0.000 C 
BRANCH  23  24
ATOM     24  C   UNL     1      -4.431  -0.803   5.031  1.00  0.00    -0.000 C 
BRANCH  24  25
ATOM     25  C   UNL     1      -5.466  -1.767   5.640  1.00  0.00    -0.000 C 
BRANCH  25  26
ATOM     26  C   UNL     1      -5.659  -3.060   4.826  1.00  0.00    -0.000 C 
BRANCH  26  27
ATOM     27  C   UNL     1      -5.302  -4.318   5.637  1.00  0.00    -0.000 C 
BRANCH  27  28
ATOM     28  C   UNL     1      -5.361  -5.607   4.798  1.00  0.00    -0.000 C 
BRANCH  28  29
ATOM     29  C   UNL     1      -3.987  -6.285   4.613  1.00  0.00    -0.000 C 
BRANCH  29  30
ATOM     30  C   UNL     1      -3.763  -6.756   3.165  1.00  0.00    -0.000 C 
BRANCH  30  31
ATOM     31  C   UNL     1      -2.718  -5.911   2.419  1.00  0.00    -0.003 C 
ATOM     32  C   UNL     1      -3.347  -4.852   1.516  1.00  0.00     0.004 C 
ENDBRANCH  30  31
ENDBRANCH  29  30
ENDBRANCH  28  29
ENDBRANCH  27  28
ENDBRANCH  26  27
ENDBRANCH  25  26
ENDBRANCH  24  25
ENDBRANCH  23  24
ENDBRANCH  22  23
ENDBRANCH  21  22
ENDBRANCH  20  21
ENDBRANCH  19  20
ENDBRANCH  18  19
ENDBRANCH   1  18
TORSDOF 28
ENDMDL
MODEL 6
REMARK VINA RESULT:    -3.936      3.216      5.391
REMARK INTER + INTRA:         -15.393
REMARK INTER:                 -12.535
REMARK INTRA:                  -2.858
REMARK UNBOUND:                -5.015
REMARK SMILES CCCCCCCCCCCCCCCCCCCCCCCCCCCCCC(=O)[O-]
REMARK SMILES IDX 16 1 17 2 18 3 19 4 20 5 21 6 22 7 23 8 24 9 25 10 26 11
REMARK SMILES IDX 27 12 28 13 29 14 30 15 31 16 32 17 15 18 14 19 13 20 12 21
REMARK SMILES IDX 11 22 10 23 9 24 8 25 7 26 6 27 5 28 4 29 3 30 2 31 1 32
REMARK H PARENT
REMARK Flexibility Score: inf
ROOT
ATOM      1  C   UNL     1      -5.561  -2.884   6.591  1.00  0.00     0.000 C 
ENDROOT
BRANCH   1   2
ATOM      2  C   UNL     1      -4.269  -2.888   7.429  1.00  0.00     0.000 C 
BRANCH   2   3
ATOM      3  C   UNL     1      -3.177  -3.867   6.955  1.00  0.00     0.000 C 
BRANCH   3   4
ATOM      4  C   UNL     1      -1.808  -3.605   7.606  1.00  0.00     0.000 C 
BRANCH   4   5
ATOM      5  C   UNL     1      -1.063  -2.425   6.960  1.00  0.00     0.000 C 
BRANCH   5   6
ATOM      6  C   UNL     1       0.376  -2.767   6.513  1.00  0.00     0.000 C 
BRANCH   6   7
ATOM      7  C   UNL     1       0.815  -1.947   5.287  1.00  0.00     0.000 C 
BRANCH   7   8
ATOM      8  C   UNL     1       1.139  -0.485   5.643  1.00  0.00     0.000 C 
BRANCH   8   9
ATOM      9  C   UNL     1       2.163  -0.373   6.786  1.00  0.00     0.000 C 
BRANCH   9  10
ATOM     10  C   UNL     1       1.955   0.878   7.654  1.00  0.00     0.000 C 
BRANCH  10  11
ATOM     11  C   UNL     1       1.483   2.092   6.834  1.00  0.00     0.000 C 
BRANCH  11  12
ATOM     12  C   UNL     1       0.903   3.212   7.714  1.00  0.00     0.000 C 
BRANCH  12  13
ATOM     13  C   UNL     1       0.522   4.467   6.906  1.00  0.00     0.006 C 
BRANCH  13  14
ATOM     14  C   UNL     1       1.516   4.751   5.769  1.00  0.00     0.053 C 
BRANCH  14  15
ATOM     15  C   UNL     1       0.828   5.193   4.513  1.00  0.00     0.041 C 
ATOM     16  O   UNL     1       1.458   5.237   3.422  1.00  0.00    -0.550 OA
ATOM     17  O   UNL     1      -0.517   5.543   4.543  1.00  0.00    -0.550 OA
ENDBRANCH  14  15
ENDBRANCH  13  14
ENDBRANCH  12  13
ENDBRANCH  11  12
ENDBRANCH  10  11
ENDBRANCH   9  10
ENDBRANCH   8   9
ENDBRANCH   7   8
ENDBRANCH   6   7
ENDBRANCH   5   6
ENDBRANCH   4   5
ENDBRANCH   3   4
ENDBRANCH   2   3
ENDBRANCH   1   2
BRANCH   1  18
ATOM     18  C   UNL     1      -5.954  -1.487   6.093  1.00  0.00     0.000 C 
BRANCH  18  19
ATOM     19  C   UNL     1      -4.745  -0.764   5.476  1.00  0.00     0.000 C 
BRANCH  19  20
ATOM     20  C   UNL     1      -4.286  -1.388   4.144  1.00  0.00     0.000 C 
BRANCH  20  21
ATOM     21  C   UNL     1      -2.765  -1.590   4.010  1.00  0.00     0.000 C 
BRANCH  21  22
ATOM     22  C   UNL     1      -2.336  -2.954   3.439  1.00  0.00     0.000 C 
BRANCH  22  23
ATOM     23  C   UNL     1      -3.462  -3.700   2.690  1.00  0.00     0.000 C 
BRANCH  23  24
ATOM     24  C   UNL     1      -2.954  -4.967   1.981  1.00  0.00    -0.000 C 
BRANCH  24  25
ATOM     25  C   UNL     1      -3.412  -5.039   0.512  1.00  0.00    -0.000 C 
BRANCH  25  26
ATOM     26  C   UNL     1      -2.247  -5.067  -0.495  1.00  0.00    -0.000 C 
BRANCH  26  27
ATOM     27  C   UNL     1      -1.829  -6.502  -0.861  1.00  0.00    -0.000 C 
BRANCH  27  28
ATOM     28  C   UNL     1      -0.899  -6.560  -2.087  1.00  0.00    -0.000 C 
BRANCH  28  29
ATOM     29  C   UNL     1      -0.018  -5.303  -2.251  1.00  0.00    -0.000 C 
BRANCH  29  30
ATOM     30  C   UNL     1      -0.245  -4.609  -3.606  1.00  0.00    -0.000 C 
BRANCH  30  31
ATOM     31  C   UNL     1      -0.674  -3.141  -3.457  1.00  0.00    -0.003 C 
ATOM     32  C   UNL     1      -1.690  -2.711  -4.514  1.00  0.00     0.004 C 
ENDBRANCH  30  31
ENDBRANCH  29  30
ENDBRANCH  28  29
ENDBRANCH  27  28
ENDBRANCH  26  27
ENDBRANCH  25  26
ENDBRANCH  24  25
ENDBRANCH  23  24
ENDBRANCH  22  23
ENDBRANCH  21  22
ENDBRANCH  20  21
ENDBRANCH  19  20
ENDBRANCH  18  19
ENDBRANCH   1  18
TORSDOF 28
ENDMDL
MODEL 7
REMARK VINA RESULT:    -3.919      1.528      3.285
REMARK INTER + INTRA:         -15.349
REMARK INTER:                 -11.183
REMARK INTRA:                  -4.165
REMARK UNBOUND:                -5.015
REMARK SMILES CCCCCCCCCCCCCCCCCCCCCCCCCCCCCC(=O)[O-]
REMARK SMILES IDX 16 1 17 2 18 3 19 4 20 5 21 6 22 7 23 8 24 9 25 10 26 11
REMARK SMILES IDX 27 12 28 13 29 14 30 15 31 16 32 17 15 18 14 19 13 20 12 21
REMARK SMILES IDX 11 22 10 23 9 24 8 25 7 26 6 27 5 28 4 29 3 30 2 31 1 32
REMARK H PARENT
REMARK Flexibility Score: inf
ROOT
ATOM      1  C   UNL     1       3.985  -2.788   9.185  1.00  0.00     0.000 C 
ENDROOT
BRANCH   1   2
ATOM      2  C   UNL     1       4.835  -2.723   7.902  1.00  0.00     0.000 C 
BRANCH   2   3
ATOM      3  C   UNL     1       4.660  -1.444   7.059  1.00  0.00     0.000 C 
BRANCH   3   4
ATOM      4  C   UNL     1       4.231  -1.731   5.609  1.00  0.00     0.000 C 
BRANCH   4   5
ATOM      5  C   UNL     1       3.081  -2.748   5.524  1.00  0.00     0.000 C 
BRANCH   5   6
ATOM      6  C   UNL     1       1.724  -2.121   5.135  1.00  0.00     0.000 C 
BRANCH   6   7
ATOM      7  C   UNL     1       1.463  -0.796   5.871  1.00  0.00     0.000 C 
BRANCH   7   8
ATOM      8  C   UNL     1       0.993  -1.011   7.321  1.00  0.00     0.000 C 
BRANCH   8   9
ATOM      9  C   UNL     1       1.525   0.073   8.276  1.00  0.00     0.000 C 
BRANCH   9  10
ATOM     10  C   UNL     1       1.467   1.483   7.669  1.00  0.00     0.000 C 
BRANCH  10  11
ATOM     11  C   UNL     1       1.074   2.553   8.703  1.00  0.00     0.000 C 
BRANCH  11  12
ATOM     12  C   UNL     1       0.214   3.675   8.097  1.00  0.00     0.000 C 
BRANCH  12  13
ATOM     13  C   UNL     1       0.762   4.185   6.750  1.00  0.00     0.006 C 
BRANCH  13  14
ATOM     14  C   UNL     1       0.399   5.655   6.492  1.00  0.00     0.053 C 
BRANCH  14  15
ATOM     15  C   UNL     1      -0.372   5.832   5.219  1.00  0.00     0.041 C 
ATOM     16  O   UNL     1      -1.385   6.582   5.186  1.00  0.00    -0.550 OA
ATOM     17  O   UNL     1       0.038   5.181   4.061  1.00  0.00    -0.550 OA
ENDBRANCH  14  15
ENDBRANCH  13  14
ENDBRANCH  12  13
ENDBRANCH  11  12
ENDBRANCH  10  11
ENDBRANCH   9  10
ENDBRANCH   8   9
ENDBRANCH   7   8
ENDBRANCH   6   7
ENDBRANCH   5   6
ENDBRANCH   4   5
ENDBRANCH   3   4
ENDBRANCH   2   3
ENDBRANCH   1   2
BRANCH   1  18
ATOM     18  C   UNL     1       2.874  -3.846   9.121  1.00  0.00     0.000 C 
BRANCH  18  19
ATOM     19  C   UNL     1       3.390  -5.145   8.477  1.00  0.00     0.000 C 
BRANCH  19  20
ATOM     20  C   UNL     1       2.507  -5.632   7.313  1.00  0.00     0.000 C 
BRANCH  20  21
ATOM     21  C   UNL     1       1.065  -6.006   7.702  1.00  0.00     0.000 C 
BRANCH  21  22
ATOM     22  C   UNL     1      -0.023  -5.057   7.163  1.00  0.00     0.000 C 
BRANCH  22  23
ATOM     23  C   UNL     1      -1.242  -5.785   6.556  1.00  0.00     0.000 C 
BRANCH  23  24
ATOM     24  C   UNL     1      -2.414  -4.829   6.275  1.00  0.00    -0.000 C 
BRANCH  24  25
ATOM     25  C   UNL     1      -2.179  -3.970   5.019  1.00  0.00    -0.000 C 
BRANCH  25  26
ATOM     26  C   UNL     1      -1.915  -2.484   5.329  1.00  0.00    -0.000 C 
BRANCH  26  27
ATOM     27  C   UNL     1      -2.241  -1.573   4.132  1.00  0.00    -0.000 C 
BRANCH  27  28
ATOM     28  C   UNL     1      -3.749  -1.493   3.836  1.00  0.00    -0.000 C 
BRANCH  28  29
ATOM     29  C   UNL     1      -4.580  -0.937   5.012  1.00  0.00    -0.000 C 
BRANCH  29  30
ATOM     30  C   UNL     1      -5.841  -1.778   5.281  1.00  0.00    -0.000 C 
BRANCH  30  31
ATOM     31  C   UNL     1      -5.761  -2.563   6.599  1.00  0.00    -0.003 C 
ATOM     32  C   UNL     1      -4.731  -1.989   7.570  1.00  0.00     0.004 C 
ENDBRANCH  30  31
ENDBRANCH  29  30
ENDBRANCH  28  29
ENDBRANCH  27  28
ENDBRANCH  26  27
ENDBRANCH  25  26
ENDBRANCH  24  25
ENDBRANCH  23  24
ENDBRANCH  22  23
ENDBRANCH  21  22
ENDBRANCH  20  21
ENDBRANCH  19  20
ENDBRANCH  18  19
ENDBRANCH   1  18
TORSDOF 28
ENDMDL
MODEL 8
REMARK VINA RESULT:    -3.874      4.283      7.799
REMARK INTER + INTRA:         -15.230
REMARK INTER:                  -9.860
REMARK INTRA:                  -5.370
REMARK UNBOUND:                -5.015
REMARK SMILES CCCCCCCCCCCCCCCCCCCCCCCCCCCCCC(=O)[O-]
REMARK SMILES IDX 16 1 17 2 18 3 19 4 20 5 21 6 22 7 23 8 24 9 25 10 26 11
REMARK SMILES IDX 27 12 28 13 29 14 30 15 31 16 32 17 15 18 14 19 13 20 12 21
REMARK SMILES IDX 11 22 10 23 9 24 8 25 7 26 6 27 5 28 4 29 3 30 2 31 1 32
REMARK H PARENT
REMARK Flexibility Score: inf
ROOT
ATOM      1  C   UNL     1      -3.884  -3.879   2.578  1.00  0.00     0.000 C 
ENDROOT
BRANCH   1   2
ATOM      2  C   UNL     1      -2.560  -3.274   3.082  1.00  0.00     0.000 C 
BRANCH   2   3
ATOM      3  C   UNL     1      -2.665  -1.852   3.668  1.00  0.00     0.000 C 
BRANCH   3   4
ATOM      4  C   UNL     1      -4.118  -1.364   3.809  1.00  0.00     0.000 C 
BRANCH   4   5
ATOM      5  C   UNL     1      -4.504  -1.074   5.269  1.00  0.00     0.000 C 
BRANCH   5   6
ATOM      6  C   UNL     1      -5.749  -1.852   5.749  1.00  0.00     0.000 C 
BRANCH   6   7
ATOM      7  C   UNL     1      -5.406  -3.288   6.184  1.00  0.00     0.000 C 
BRANCH   7   8
ATOM      8  C   UNL     1      -4.021  -3.386   6.849  1.00  0.00     0.000 C 
BRANCH   8   9
ATOM      9  C   UNL     1      -3.215  -4.597   6.346  1.00  0.00     0.000 C 
BRANCH   9  10
ATOM     10  C   UNL     1      -1.701  -4.432   6.550  1.00  0.00     0.000 C 
BRANCH  10  11
ATOM     11  C   UNL     1      -1.363  -3.464   7.698  1.00  0.00     0.000 C 
BRANCH  11  12
ATOM     12  C   UNL     1      -0.344  -2.388   7.286  1.00  0.00     0.000 C 
BRANCH  12  13
ATOM     13  C   UNL     1      -0.001  -2.437   5.785  1.00  0.00     0.006 C 
BRANCH  13  14
ATOM     14  C   UNL     1       0.887  -1.260   5.352  1.00  0.00     0.053 C 
BRANCH  14  15
ATOM     15  C   UNL     1       2.346  -1.562   5.512  1.00  0.00     0.041 C 
ATOM     16  O   UNL     1       2.972  -1.162   6.530  1.00  0.00    -0.550 OA
ATOM     17  O   UNL     1       3.013  -2.301   4.541  1.00  0.00    -0.550 OA
ENDBRANCH  14  15
ENDBRANCH  13  14
ENDBRANCH  12  13
ENDBRANCH  11  12
ENDBRANCH  10  11
ENDBRANCH   9  10
ENDBRANCH   8   9
ENDBRANCH   7   8
ENDBRANCH   6   7
ENDBRANCH   5   6
ENDBRANCH   4   5
ENDBRANCH   3   4
ENDBRANCH   2   3
ENDBRANCH   1   2
BRANCH   1  18
ATOM     18  C   UNL     1      -3.968  -5.399   2.777  1.00  0.00     0.000 C 
BRANCH  18  19
ATOM     19  C   UNL     1      -2.565  -6.011   2.925  1.00  0.00     0.000 C 
BRANCH  19  20
ATOM     20  C   UNL     1      -2.527  -7.516   2.597  1.00  0.00     0.000 C 
BRANCH  20  21
ATOM     21  C   UNL     1      -2.961  -7.881   1.164  1.00  0.00     0.000 C 
BRANCH  21  22
ATOM     22  C   UNL     1      -1.807  -8.177   0.189  1.00  0.00     0.000 C 
BRANCH  22  23
ATOM     23  C   UNL     1      -2.264  -8.780  -1.156  1.00  0.00     0.000 C 
BRANCH  23  24
ATOM     24  C   UNL     1      -1.477  -8.214  -2.351  1.00  0.00    -0.000 C 
BRANCH  24  25
ATOM     25  C   UNL     1       0.020  -8.041  -2.035  1.00  0.00    -0.000 C 
BRANCH  25  26
ATOM     26  C   UNL     1       0.555  -6.629  -2.339  1.00  0.00    -0.000 C 
BRANCH  26  27
ATOM     27  C   UNL     1      -0.241  -5.934  -3.457  1.00  0.00    -0.000 C 
BRANCH  27  28
ATOM     28  C   UNL     1      -0.981  -4.675  -2.970  1.00  0.00    -0.000 C 
BRANCH  28  29
ATOM     29  C   UNL     1      -0.822  -4.414  -1.457  1.00  0.00    -0.000 C 
BRANCH  29  30
ATOM     30  C   UNL     1      -2.114  -4.719  -0.677  1.00  0.00    -0.000 C 
BRANCH  30  31
ATOM     31  C   UNL     1      -3.289  -5.089  -1.596  1.00  0.00    -0.003 C 
ATOM     32  C   UNL     1      -4.594  -5.304  -0.831  1.00  0.00     0.004 C 
ENDBRANCH  30  31
ENDBRANCH  29  30
ENDBRANCH  28  29
ENDBRANCH  27  28
ENDBRANCH  26  27
ENDBRANCH  25  26
ENDBRANCH  24  25
ENDBRANCH  23  24
ENDBRANCH  22  23
ENDBRANCH  21  22
ENDBRANCH  20  21
ENDBRANCH  19  20
ENDBRANCH  18  19
ENDBRANCH   1  18
TORSDOF 28
ENDMDL
MODEL 9
REMARK VINA RESULT:    -3.856      1.270      3.069
REMARK INTER + INTRA:         -15.183
REMARK INTER:                 -10.966
REMARK INTRA:                  -4.217
REMARK UNBOUND:                -5.015
REMARK SMILES CCCCCCCCCCCCCCCCCCCCCCCCCCCCCC(=O)[O-]
REMARK SMILES IDX 16 1 17 2 18 3 19 4 20 5 21 6 22 7 23 8 24 9 25 10 26 11
REMARK SMILES IDX 27 12 28 13 29 14 30 15 31 16 32 17 15 18 14 19 13 20 12 21
REMARK SMILES IDX 11 22 10 23 9 24 8 25 7 26 6 27 5 28 4 29 3 30 2 31 1 32
REMARK H PARENT
REMARK Flexibility Score: inf
ROOT
ATOM      1  C   UNL     1       3.946  -1.917   5.451  1.00  0.00     0.000 C 
ENDROOT
BRANCH   1   2
ATOM      2  C   UNL     1       4.172  -1.639   6.950  1.00  0.00     0.000 C 
BRANCH   2   3
ATOM      3  C   UNL     1       4.075  -2.871   7.871  1.00  0.00     0.000 C 
BRANCH   3   4
ATOM      4  C   UNL     1       2.968  -2.744   8.933  1.00  0.00     0.000 C 
BRANCH   4   5
ATOM      5  C   UNL     1       2.917  -1.345   9.569  1.00  0.00     0.000 C 
BRANCH   5   6
ATOM      6  C   UNL     1       1.543  -0.651   9.436  1.00  0.00     0.000 C 
BRANCH   6   7
ATOM      7  C   UNL     1       1.662   0.765   8.849  1.00  0.00     0.000 C 
BRANCH   7   8
ATOM      8  C   UNL     1       0.705   1.764   9.523  1.00  0.00     0.000 C 
BRANCH   8   9
ATOM      9  C   UNL     1       1.000   3.221   9.122  1.00  0.00     0.000 C 
BRANCH   9  10
ATOM     10  C   UNL     1       0.609   3.531   7.669  1.00  0.00     0.000 C 
BRANCH  10  11
ATOM     11  C   UNL     1       1.820   3.530   6.720  1.00  0.00     0.000 C 
BRANCH  11  12
ATOM     12  C   UNL     1       2.388   4.940   6.482  1.00  0.00     0.000 C 
BRANCH  12  13
ATOM     13  C   UNL     1       1.393   6.054   6.859  1.00  0.00     0.006 C 
BRANCH  13  14
ATOM     14  C   UNL     1       0.902   6.837   5.632  1.00  0.00     0.053 C 
BRANCH  14  15
ATOM     15  C   UNL     1      -0.283   6.190   4.983  1.00  0.00     0.041 C 
ATOM     16  O   UNL     1      -0.124   5.253   4.154  1.00  0.00    -0.550 OA
ATOM     17  O   UNL     1      -1.568   6.611   5.305  1.00  0.00    -0.550 OA
ENDBRANCH  14  15
ENDBRANCH  13  14
ENDBRANCH  12  13
ENDBRANCH  11  12
ENDBRANCH  10  11
ENDBRANCH   9  10
ENDBRANCH   8   9
ENDBRANCH   7   8
ENDBRANCH   6   7
ENDBRANCH   5   6
ENDBRANCH   4   5
ENDBRANCH   3   4
ENDBRANCH   2   3
ENDBRANCH   1   2
BRANCH   1  18
ATOM     18  C   UNL     1       2.486  -2.241   5.110  1.00  0.00     0.000 C 
BRANCH  18  19
ATOM     19  C   UNL     1       1.546  -1.133   5.615  1.00  0.00     0.000 C 
BRANCH  19  20
ATOM     20  C   UNL     1       0.266  -1.682   6.274  1.00  0.00     0.000 C 
BRANCH  20  21
ATOM     21  C   UNL     1       0.237  -3.211   6.464  1.00  0.00     0.000 C 
BRANCH  21  22
ATOM     22  C   UNL     1      -0.889  -3.733   7.376  1.00  0.00     0.000 C 
BRANCH  22  23
ATOM     23  C   UNL     1      -1.204  -2.809   8.572  1.00  0.00     0.000 C 
BRANCH  23  24
ATOM     24  C   UNL     1      -2.715  -2.601   8.771  1.00  0.00    -0.000 C 
BRANCH  24  25
ATOM     25  C   UNL     1      -3.500  -2.716   7.451  1.00  0.00    -0.000 C 
BRANCH  25  26
ATOM     26  C   UNL     1      -4.792  -1.878   7.427  1.00  0.00    -0.000 C 
BRANCH  26  27
ATOM     27  C   UNL     1      -4.883  -0.986   6.176  1.00  0.00    -0.000 C 
BRANCH  27  28
ATOM     28  C   UNL     1      -5.133  -1.788   4.887  1.00  0.00    -0.000 C 
BRANCH  28  29
ATOM     29  C   UNL     1      -4.243  -1.348   3.705  1.00  0.00    -0.000 C 
BRANCH  29  30
ATOM     30  C   UNL     1      -2.747  -1.581   3.987  1.00  0.00    -0.000 C 
BRANCH  30  31
ATOM     31  C   UNL     1      -2.363  -3.068   3.968  1.00  0.00    -0.003 C 
ATOM     32  C   UNL     1      -2.611  -3.726   2.611  1.00  0.00     0.004 C 
ENDBRANCH  30  31
ENDBRANCH  29  30
ENDBRANCH  28  29
ENDBRANCH  27  28
ENDBRANCH  26  27
ENDBRANCH  25  26
ENDBRANCH  24  25
ENDBRANCH  23  24
ENDBRANCH  22  23
ENDBRANCH  21  22
ENDBRANCH  20  21
ENDBRANCH  19  20
ENDBRANCH  18  19
ENDBRANCH   1  18
TORSDOF 28
ENDMDL
