MODEL 1
REMARK VINA RESULT:    -4.105      0.000      0.000
REMARK INTER + INTRA:          -4.530
REMARK INTER:                  -4.345
REMARK INTRA:                  -0.185
REMARK UNBOUND:                -0.185
REMARK SMILES C=C1CC=C(C(C)C)CC1
REMARK SMILES IDX 5 1 4 2 3 3 2 4 1 5 10 6 9 7 6 8 7 9 8 10
REMARK H PARENT
REMARK Flexibility Score: inf
ROOT
ATOM      1  C   UNL     1     138.701 134.505 131.808  1.00  0.00    -0.071 C 
ATOM      2  C   UNL     1     139.953 135.012 131.826  1.00  0.00    -0.023 C 
ATOM      3  C   UNL     1     140.412 135.918 132.939  1.00  0.00     0.057 C 
ATOM      4  C   UNL     1     139.801 135.507 134.261  1.00  0.00    -0.073 C 
ATOM      5  C   UNL     1     140.430 135.789 135.410  1.00  0.00     0.008 C 
ATOM      6  C   UNL     1     138.458 134.805 134.290  1.00  0.00     0.035 C 
ATOM      7  C   UNL     1     137.754 134.878 132.929  1.00  0.00     0.035 C 
ENDROOT
BRANCH   1   8
ATOM      8  C   UNL     1     138.244 133.559 130.708  1.00  0.00     0.008 C 
ATOM      9  C   UNL     1     139.361 133.310 129.687  1.00  0.00     0.012 C 
ATOM     10  C   UNL     1     137.722 132.241 131.291  1.00  0.00     0.012 C 
ENDBRANCH   1   8
TORSDOF 1
ENDMDL
MODEL 2
REMARK VINA RESULT:    -4.105      5.769      7.057
REMARK INTER + INTRA:          -4.530
REMARK INTER:                  -4.345
REMARK INTRA:                  -0.185
REMARK UNBOUND:                -0.185
REMARK SMILES C=C1CC=C(C(C)C)CC1
REMARK SMILES IDX 5 1 4 2 3 3 2 4 1 5 10 6 9 7 6 8 7 9 8 10
REMARK H PARENT
REMARK Flexibility Score: inf
ROOT
ATOM      1  C   UNL     1     135.077 139.253 131.823  1.00  0.00    -0.071 C 
ATOM      2  C   UNL     1     133.822 138.753 131.843  1.00  0.00    -0.023 C 
ATOM      3  C   UNL     1     133.365 137.837 132.950  1.00  0.00     0.057 C 
ATOM      4  C   UNL     1     133.988 138.232 134.272  1.00  0.00    -0.073 C 
ATOM      5  C   UNL     1     133.365 137.942 135.423  1.00  0.00     0.008 C 
ATOM      6  C   UNL     1     135.334 138.927 134.300  1.00  0.00     0.035 C 
ATOM      7  C   UNL     1     136.029 138.863 132.933  1.00  0.00     0.035 C 
ENDROOT
BRANCH   1   8
ATOM      8  C   UNL     1     135.532 140.208 130.729  1.00  0.00     0.008 C 
ATOM      9  C   UNL     1     134.423 140.441 129.696  1.00  0.00     0.012 C 
ATOM     10  C   UNL     1     136.027 141.533 131.320  1.00  0.00     0.012 C 
ENDBRANCH   1   8
TORSDOF 1
ENDMDL
MODEL 3
REMARK VINA RESULT:    -4.093      4.018      4.998
REMARK INTER + INTRA:          -4.517
REMARK INTER:                  -4.333
REMARK INTRA:                  -0.184
REMARK UNBOUND:                -0.185
REMARK SMILES C=C1CC=C(C(C)C)CC1
REMARK SMILES IDX 5 1 4 2 3 3 2 4 1 5 10 6 9 7 6 8 7 9 8 10
REMARK H PARENT
REMARK Flexibility Score: inf
ROOT
ATOM      1  C   UNL     1     139.252 138.705 131.771  1.00  0.00    -0.071 C 
ATOM      2  C   UNL     1     138.765 139.965 131.810  1.00  0.00    -0.023 C 
ATOM      3  C   UNL     1     137.866 140.419 132.931  1.00  0.00     0.057 C 
ATOM      4  C   UNL     1     138.268 139.779 134.242  1.00  0.00    -0.073 C 
ATOM      5  C   UNL     1     137.996 140.393 135.402  1.00  0.00     0.008 C 
ATOM      6  C   UNL     1     138.949 138.425 134.248  1.00  0.00     0.035 C 
ATOM      7  C   UNL     1     138.864 137.745 132.875  1.00  0.00     0.035 C 
ENDROOT
BRANCH   1   8
ATOM      8  C   UNL     1     140.190 138.253 130.662  1.00  0.00     0.008 C 
ATOM      9  C   UNL     1     140.388 139.354 129.614  1.00  0.00     0.012 C 
ATOM     10  C   UNL     1     141.534 137.780 131.231  1.00  0.00     0.012 C 
ENDBRANCH   1   8
TORSDOF 1
ENDMDL
MODEL 4
REMARK VINA RESULT:    -4.082      4.064      5.054
REMARK INTER + INTRA:          -4.506
REMARK INTER:                  -4.321
REMARK INTRA:                  -0.185
REMARK UNBOUND:                -0.185
REMARK SMILES C=C1CC=C(C(C)C)CC1
REMARK SMILES IDX 5 1 4 2 3 3 2 4 1 5 10 6 9 7 6 8 7 9 8 10
REMARK H PARENT
REMARK Flexibility Score: inf
ROOT
ATOM      1  C   UNL     1     134.446 135.081 131.799  1.00  0.00    -0.071 C 
ATOM      2  C   UNL     1     134.943 133.824 131.815  1.00  0.00    -0.023 C 
ATOM      3  C   UNL     1     135.847 133.357 132.926  1.00  0.00     0.057 C 
ATOM      4  C   UNL     1     135.442 133.972 134.249  1.00  0.00    -0.073 C 
ATOM      5  C   UNL     1     135.721 133.340 135.398  1.00  0.00     0.008 C 
ATOM      6  C   UNL     1     134.752 135.320 134.280  1.00  0.00     0.035 C 
ATOM      7  C   UNL     1     134.829 136.024 132.919  1.00  0.00     0.035 C 
ENDROOT
BRANCH   1   8
ATOM      8  C   UNL     1     133.503 135.546 130.700  1.00  0.00     0.008 C 
ATOM      9  C   UNL     1     133.294 134.453 129.645  1.00  0.00     0.012 C 
ATOM     10  C   UNL     1     132.165 136.019 131.281  1.00  0.00     0.012 C 
ENDBRANCH   1   8
TORSDOF 1
ENDMDL
MODEL 5
REMARK VINA RESULT:    -4.044      4.517      5.819
REMARK INTER + INTRA:          -4.466
REMARK INTER:                  -4.330
REMARK INTRA:                  -0.136
REMARK UNBOUND:                -0.185
REMARK SMILES C=C1CC=C(C(C)C)CC1
REMARK SMILES IDX 5 1 4 2 3 3 2 4 1 5 10 6 9 7 6 8 7 9 8 10
REMARK H PARENT
REMARK Flexibility Score: inf
ROOT
ATOM      1  C   UNL     1     139.247 138.842 131.672  1.00  0.00    -0.071 C 
ATOM      2  C   UNL     1     138.722 139.565 132.685  1.00  0.00    -0.023 C 
ATOM      3  C   UNL     1     137.823 140.745 132.417  1.00  0.00     0.057 C 
ATOM      4  C   UNL     1     136.953 140.499 131.203  1.00  0.00    -0.073 C 
ATOM      5  C   UNL     1     135.769 141.116 131.087  1.00  0.00     0.008 C 
ATOM      6  C   UNL     1     137.434 139.580 130.098  1.00  0.00     0.035 C 
ATOM      7  C   UNL     1     138.925 139.249 130.250  1.00  0.00     0.035 C 
ENDROOT
BRANCH   1   8
ATOM      8  C   UNL     1     140.124 137.627 131.937  1.00  0.00     0.008 C 
ATOM      9  C   UNL     1     141.487 137.763 131.248  1.00  0.00     0.012 C 
ATOM     10  C   UNL     1     140.285 137.378 133.441  1.00  0.00     0.012 C 
ENDBRANCH   1   8
TORSDOF 1
ENDMDL
MODEL 6
REMARK VINA RESULT:    -4.033      1.618      2.883
REMARK INTER + INTRA:          -4.454
REMARK INTER:                  -4.318
REMARK INTRA:                  -0.136
REMARK UNBOUND:                -0.185
REMARK SMILES C=C1CC=C(C(C)C)CC1
REMARK SMILES IDX 5 1 4 2 3 3 2 4 1 5 10 6 9 7 6 8 7 9 8 10
REMARK H PARENT
REMARK Flexibility Score: inf
ROOT
ATOM      1  C   UNL     1     138.845 134.579 131.679  1.00  0.00    -0.071 C 
ATOM      2  C   UNL     1     139.598 135.103 132.672  1.00  0.00    -0.023 C 
ATOM      3  C   UNL     1     140.767 136.005 132.371  1.00  0.00     0.057 C 
ATOM      4  C   UNL     1     140.483 136.878 131.167  1.00  0.00    -0.073 C 
ATOM      5  C   UNL     1     141.094 138.064 131.037  1.00  0.00     0.008 C 
ATOM      6  C   UNL     1     139.531 136.399 130.090  1.00  0.00     0.035 C 
ATOM      7  C   UNL     1     139.207 134.907 130.247  1.00  0.00     0.035 C 
ENDROOT
BRANCH   1   8
ATOM      8  C   UNL     1     137.641 133.699 131.979  1.00  0.00     0.008 C 
ATOM      9  C   UNL     1     137.736 132.356 131.246  1.00  0.00     0.012 C 
ATOM     10  C   UNL     1     137.464 133.497 133.489  1.00  0.00     0.012 C 
ENDBRANCH   1   8
TORSDOF 1
ENDMDL
MODEL 7
REMARK VINA RESULT:    -4.028      3.397      5.401
REMARK INTER + INTRA:          -4.448
REMARK INTER:                  -4.313
REMARK INTRA:                  -0.136
REMARK UNBOUND:                -0.185
REMARK SMILES C=C1CC=C(C(C)C)CC1
REMARK SMILES IDX 5 1 4 2 3 3 2 4 1 5 10 6 9 7 6 8 7 9 8 10
REMARK H PARENT
REMARK Flexibility Score: inf
ROOT
ATOM      1  C   UNL     1     134.571 134.888 131.648  1.00  0.00    -0.071 C 
ATOM      2  C   UNL     1     135.051 134.108 132.642  1.00  0.00    -0.023 C 
ATOM      3  C   UNL     1     135.970 132.950 132.349  1.00  0.00     0.057 C 
ATOM      4  C   UNL     1     136.897 133.271 131.196  1.00  0.00    -0.073 C 
ATOM      5  C   UNL     1     138.090 132.667 131.103  1.00  0.00     0.008 C 
ATOM      6  C   UNL     1     136.464 134.251 130.125  1.00  0.00     0.035 C 
ATOM      7  C   UNL     1     134.965 134.567 130.222  1.00  0.00     0.035 C 
ENDROOT
BRANCH   1   8
ATOM      8  C   UNL     1     133.673 136.081 131.940  1.00  0.00     0.008 C 
ATOM      9  C   UNL     1     132.308 135.932 131.258  1.00  0.00     0.012 C 
ATOM     10  C   UNL     1     133.518 136.301 133.450  1.00  0.00     0.012 C 
ENDBRANCH   1   8
TORSDOF 1
ENDMDL
MODEL 8
REMARK VINA RESULT:    -4.009      5.951      7.402
REMARK INTER + INTRA:          -4.428
REMARK INTER:                  -4.292
REMARK INTRA:                  -0.136
REMARK UNBOUND:                -0.185
REMARK SMILES C=C1CC=C(C(C)C)CC1
REMARK SMILES IDX 5 1 4 2 3 3 2 4 1 5 10 6 9 7 6 8 7 9 8 10
REMARK H PARENT
REMARK Flexibility Score: inf
ROOT
ATOM      1  C   UNL     1     134.879 139.089 131.875  1.00  0.00    -0.071 C 
ATOM      2  C   UNL     1     134.082 138.538 132.817  1.00  0.00    -0.023 C 
ATOM      3  C   UNL     1     132.910 137.671 132.436  1.00  0.00     0.057 C 
ATOM      4  C   UNL     1     133.223 136.845 131.207  1.00  0.00    -0.073 C 
ATOM      5  C   UNL     1     132.597 135.677 131.004  1.00  0.00     0.008 C 
ATOM      6  C   UNL     1     134.220 137.352 130.185  1.00  0.00     0.035 C 
ATOM      7  C   UNL     1     134.563 138.830 130.418  1.00  0.00     0.035 C 
ENDROOT
BRANCH   1   8
ATOM      8  C   UNL     1     136.086 139.934 132.255  1.00  0.00     0.008 C 
ATOM      9  C   UNL     1     136.110 141.255 131.476  1.00  0.00     0.012 C 
ATOM     10  C   UNL     1     136.137 140.180 133.767  1.00  0.00     0.012 C 
ENDBRANCH   1   8
TORSDOF 1
ENDMDL
MODEL 9
REMARK VINA RESULT:    -3.950      1.308      4.236
REMARK INTER + INTRA:          -4.366
REMARK INTER:                  -4.224
REMARK INTRA:                  -0.142
REMARK UNBOUND:                -0.185
REMARK SMILES C=C1CC=C(C(C)C)CC1
REMARK SMILES IDX 5 1 4 2 3 3 2 4 1 5 10 6 9 7 6 8 7 9 8 10
REMARK H PARENT
REMARK Flexibility Score: inf
ROOT
ATOM      1  C   UNL     1     139.641 135.790 132.065  1.00  0.00    -0.071 C 
ATOM      2  C   UNL     1     138.911 135.134 132.995  1.00  0.00    -0.023 C 
ATOM      3  C   UNL     1     137.845 134.147 132.595  1.00  0.00     0.057 C 
ATOM      4  C   UNL     1     138.250 133.385 131.351  1.00  0.00    -0.073 C 
ATOM      5  C   UNL     1     137.761 132.158 131.124  1.00  0.00     0.008 C 
ATOM      6  C   UNL     1     139.184 134.022 130.341  1.00  0.00     0.035 C 
ATOM      7  C   UNL     1     139.356 135.524 130.603  1.00  0.00     0.035 C 
ENDROOT
BRANCH   1   8
ATOM      8  C   UNL     1     140.744 136.759 132.464  1.00  0.00     0.008 C 
ATOM      9  C   UNL     1     141.167 137.639 131.281  1.00  0.00     0.012 C 
ATOM     10  C   UNL     1     140.325 137.612 133.667  1.00  0.00     0.012 C 
ENDBRANCH   1   8
TORSDOF 1
ENDMDL
