MODEL 1
REMARK VINA RESULT:    -3.692      0.000      0.000
REMARK INTER + INTRA:          -4.045
REMARK INTER:                  -4.015
REMARK INTRA:                  -0.030
REMARK UNBOUND:                -0.030
REMARK SMILES O=C([O-])c1ccc(O)cc1
REMARK SMILES IDX 4 1 5 2 10 3 6 4 9 5 7 6 2 7 1 8 3 9 8 10
REMARK H PARENT 8 11
REMARK Flexibility Score: inf
ROOT
ATOM      1  C   UNL     1      38.355  20.915  80.872  1.00  0.00    -0.003 A 
ATOM      2  C   UNL     1      37.264  20.043  81.048  1.00  0.00     0.014 A 
ATOM      3  C   UNL     1      39.480  20.463  80.161  1.00  0.00     0.014 A 
ATOM      4  C   UNL     1      37.300  18.748  80.523  1.00  0.00     0.047 A 
ATOM      5  C   UNL     1      39.513  19.167  79.636  1.00  0.00     0.047 A 
ATOM      6  C   UNL     1      38.423  18.306  79.816  1.00  0.00     0.115 A 
ENDROOT
BRANCH   1   7
ATOM      7  C   UNL     1      38.322  22.286  81.426  1.00  0.00     0.071 C 
ATOM      8  O   UNL     1      38.560  23.281  80.691  1.00  0.00    -0.545 OA
ATOM      9  O   UNL     1      38.030  22.496  82.770  1.00  0.00    -0.545 OA
ENDBRANCH   1   7
BRANCH   6  10
ATOM     10  O   UNL     1      38.445  17.014  79.298  1.00  0.00    -0.508 OA
ATOM     11  H   UNL     1      39.109  16.741  78.582  1.00  0.00     0.293 HD
ENDBRANCH   6  10
TORSDOF 2
ENDMDL
MODEL 2
REMARK VINA RESULT:    -3.614     14.308     16.610
REMARK INTER + INTRA:          -3.961
REMARK INTER:                  -3.926
REMARK INTRA:                  -0.035
REMARK UNBOUND:                -0.030
REMARK SMILES O=C([O-])c1ccc(O)cc1
REMARK SMILES IDX 4 1 5 2 10 3 6 4 9 5 7 6 2 7 1 8 3 9 8 10
REMARK H PARENT 8 11
REMARK Flexibility Score: inf
ROOT
ATOM      1  C   UNL     1      44.457  29.290  91.681  1.00  0.00    -0.003 A 
ATOM      2  C   UNL     1      43.693  29.544  92.836  1.00  0.00     0.014 A 
ATOM      3  C   UNL     1      45.219  30.332  91.125  1.00  0.00     0.014 A 
ATOM      4  C   UNL     1      43.694  30.814  93.420  1.00  0.00     0.047 A 
ATOM      5  C   UNL     1      45.218  31.601  91.712  1.00  0.00     0.047 A 
ATOM      6  C   UNL     1      44.455  31.845  92.861  1.00  0.00     0.115 A 
ENDROOT
BRANCH   1   7
ATOM      7  C   UNL     1      44.459  27.948  91.059  1.00  0.00     0.071 C 
ATOM      8  O   UNL     1      45.376  27.611  90.263  1.00  0.00    -0.545 OA
ATOM      9  O   UNL     1      43.445  27.038  91.341  1.00  0.00    -0.545 OA
ENDBRANCH   1   7
BRANCH   6  10
ATOM     10  O   UNL     1      44.446  33.105  93.454  1.00  0.00    -0.508 OA
ATOM     11  H   UNL     1      44.297  33.221  94.450  1.00  0.00     0.293 HD
ENDBRANCH   6  10
TORSDOF 2
ENDMDL
MODEL 3
REMARK VINA RESULT:    -3.496     18.371     20.297
REMARK INTER + INTRA:          -3.833
REMARK INTER:                  -3.803
REMARK INTRA:                  -0.030
REMARK UNBOUND:                -0.030
REMARK SMILES O=C([O-])c1ccc(O)cc1
REMARK SMILES IDX 4 1 5 2 10 3 6 4 9 5 7 6 2 7 1 8 3 9 8 10
REMARK H PARENT 8 11
REMARK Flexibility Score: inf
ROOT
ATOM      1  C   UNL     1      50.444  34.403  86.314  1.00  0.00    -0.003 A 
ATOM      2  C   UNL     1      50.620  34.974  87.589  1.00  0.00     0.014 A 
ATOM      3  C   UNL     1      51.579  34.067  85.555  1.00  0.00     0.014 A 
ATOM      4  C   UNL     1      51.904  35.203  88.091  1.00  0.00     0.047 A 
ATOM      5  C   UNL     1      52.863  34.297  86.061  1.00  0.00     0.047 A 
ATOM      6  C   UNL     1      53.028  34.866  87.330  1.00  0.00     0.115 A 
ENDROOT
BRANCH   1   7
ATOM      7  C   UNL     1      49.087  34.159  85.777  1.00  0.00     0.071 C 
ATOM      8  O   UNL     1      48.248  33.488  86.435  1.00  0.00    -0.545 OA
ATOM      9  O   UNL     1      48.720  34.666  84.535  1.00  0.00    -0.545 OA
ENDBRANCH   1   7
BRANCH   6  10
ATOM     10  O   UNL     1      54.301  35.099  87.844  1.00  0.00    -0.508 OA
ATOM     11  H   UNL     1      54.665  36.040  87.952  1.00  0.00     0.293 HD
ENDBRANCH   6  10
TORSDOF 2
ENDMDL
MODEL 4
REMARK VINA RESULT:    -3.496      2.460      3.445
REMARK INTER + INTRA:          -3.832
REMARK INTER:                  -3.801
REMARK INTRA:                  -0.031
REMARK UNBOUND:                -0.030
REMARK SMILES O=C([O-])c1ccc(O)cc1
REMARK SMILES IDX 4 1 5 2 10 3 6 4 9 5 7 6 2 7 1 8 3 9 8 10
REMARK H PARENT 8 11
REMARK Flexibility Score: inf
ROOT
ATOM      1  C   UNL     1      39.577  20.367  79.530  1.00  0.00    -0.003 A 
ATOM      2  C   UNL     1      39.203  19.144  80.120  1.00  0.00     0.014 A 
ATOM      3  C   UNL     1      38.728  21.478  79.667  1.00  0.00     0.014 A 
ATOM      4  C   UNL     1      38.005  19.039  80.832  1.00  0.00     0.047 A 
ATOM      5  C   UNL     1      37.529  21.369  80.381  1.00  0.00     0.047 A 
ATOM      6  C   UNL     1      37.165  20.150  80.964  1.00  0.00     0.115 A 
ENDROOT
BRANCH   1   7
ATOM      7  C   UNL     1      40.844  20.483  78.774  1.00  0.00     0.071 C 
ATOM      8  O   UNL     1      40.874  21.070  77.660  1.00  0.00    -0.545 OA
ATOM      9  O   UNL     1      42.021  19.944  79.284  1.00  0.00    -0.545 OA
ENDBRANCH   1   7
BRANCH   6  10
ATOM     10  O   UNL     1      35.974  20.030  81.677  1.00  0.00    -0.508 OA
ATOM     11  H   UNL     1      35.286  20.775  81.688  1.00  0.00     0.293 HD
ENDBRANCH   6  10
TORSDOF 2
ENDMDL
MODEL 5
REMARK VINA RESULT:    -3.476     18.417     20.221
REMARK INTER + INTRA:          -3.811
REMARK INTER:                  -3.778
REMARK INTRA:                  -0.033
REMARK UNBOUND:                -0.030
REMARK SMILES O=C([O-])c1ccc(O)cc1
REMARK SMILES IDX 4 1 5 2 10 3 6 4 9 5 7 6 2 7 1 8 3 9 8 10
REMARK H PARENT 8 11
REMARK Flexibility Score: inf
ROOT
ATOM      1  C   UNL     1      51.490  34.820  87.104  1.00  0.00    -0.003 A 
ATOM      2  C   UNL     1      50.227  35.096  87.662  1.00  0.00     0.014 A 
ATOM      3  C   UNL     1      51.558  34.262  85.816  1.00  0.00     0.014 A 
ATOM      4  C   UNL     1      49.060  34.821  86.944  1.00  0.00     0.047 A 
ATOM      5  C   UNL     1      50.388  33.988  85.100  1.00  0.00     0.047 A 
ATOM      6  C   UNL     1      49.137  34.266  85.662  1.00  0.00     0.115 A 
ENDROOT
BRANCH   1   7
ATOM      7  C   UNL     1      52.729  35.108  87.860  1.00  0.00     0.071 C 
ATOM      8  O   UNL     1      52.795  36.109  88.623  1.00  0.00    -0.545 OA
ATOM      9  O   UNL     1      53.839  34.280  87.736  1.00  0.00    -0.545 OA
ENDBRANCH   1   7
BRANCH   6  10
ATOM     10  O   UNL     1      47.965  33.997  84.959  1.00  0.00    -0.508 OA
ATOM     11  H   UNL     1      47.214  34.676  84.902  1.00  0.00     0.293 HD
ENDBRANCH   6  10
TORSDOF 2
ENDMDL
MODEL 6
REMARK VINA RESULT:    -3.443      2.465      3.572
REMARK INTER + INTRA:          -3.775
REMARK INTER:                  -3.746
REMARK INTRA:                  -0.029
REMARK UNBOUND:                -0.030
REMARK SMILES O=C([O-])c1ccc(O)cc1
REMARK SMILES IDX 4 1 5 2 10 3 6 4 9 5 7 6 2 7 1 8 3 9 8 10
REMARK H PARENT 8 11
REMARK Flexibility Score: inf
ROOT
ATOM      1  C   UNL     1      39.621  20.348  79.513  1.00  0.00    -0.003 A 
ATOM      2  C   UNL     1      38.864  21.486  79.850  1.00  0.00     0.014 A 
ATOM      3  C   UNL     1      39.161  19.081  79.912  1.00  0.00     0.014 A 
ATOM      4  C   UNL     1      37.673  21.356  80.570  1.00  0.00     0.047 A 
ATOM      5  C   UNL     1      37.969  18.954  80.632  1.00  0.00     0.047 A 
ATOM      6  C   UNL     1      37.222  20.092  80.963  1.00  0.00     0.115 A 
ENDROOT
BRANCH   1   7
ATOM      7  C   UNL     1      40.883  20.479  78.751  1.00  0.00     0.071 C 
ATOM      8  O   UNL     1      41.964  20.035  79.221  1.00  0.00    -0.545 OA
ATOM      9  O   UNL     1      40.893  21.099  77.506  1.00  0.00    -0.545 OA
ENDBRANCH   1   7
BRANCH   6  10
ATOM     10  O   UNL     1      36.033  19.978  81.679  1.00  0.00    -0.508 OA
ATOM     11  H   UNL     1      35.169  20.387  81.341  1.00  0.00     0.293 HD
ENDBRANCH   6  10
TORSDOF 2
ENDMDL
MODEL 7
REMARK VINA RESULT:    -3.420     16.288     16.887
REMARK INTER + INTRA:          -3.750
REMARK INTER:                  -3.719
REMARK INTRA:                  -0.031
REMARK UNBOUND:                -0.030
REMARK SMILES O=C([O-])c1ccc(O)cc1
REMARK SMILES IDX 4 1 5 2 10 3 6 4 9 5 7 6 2 7 1 8 3 9 8 10
REMARK H PARENT 8 11
REMARK Flexibility Score: inf
ROOT
ATOM      1  C   UNL     1      45.830  30.505  91.565  1.00  0.00    -0.003 A 
ATOM      2  C   UNL     1      44.782  31.326  92.024  1.00  0.00     0.014 A 
ATOM      3  C   UNL     1      45.831  29.143  91.911  1.00  0.00     0.014 A 
ATOM      4  C   UNL     1      43.758  30.792  92.811  1.00  0.00     0.047 A 
ATOM      5  C   UNL     1      44.803  28.612  92.698  1.00  0.00     0.047 A 
ATOM      6  C   UNL     1      43.765  29.435  93.150  1.00  0.00     0.115 A 
ENDROOT
BRANCH   1   7
ATOM      7  C   UNL     1      46.918  31.065  90.733  1.00  0.00     0.071 C 
ATOM      8  O   UNL     1      48.121  30.778  90.972  1.00  0.00    -0.545 OA
ATOM      9  O   UNL     1      46.627  31.920  89.675  1.00  0.00    -0.545 OA
ENDBRANCH   1   7
BRANCH   6  10
ATOM     10  O   UNL     1      42.737  28.917  93.935  1.00  0.00    -0.508 OA
ATOM     11  H   UNL     1      42.310  29.462  94.676  1.00  0.00     0.293 HD
ENDBRANCH   6  10
TORSDOF 2
ENDMDL
MODEL 8
REMARK VINA RESULT:    -3.372      2.052      3.757
REMARK INTER + INTRA:          -3.697
REMARK INTER:                  -3.667
REMARK INTRA:                  -0.030
REMARK UNBOUND:                -0.030
REMARK SMILES O=C([O-])c1ccc(O)cc1
REMARK SMILES IDX 4 1 5 2 10 3 6 4 9 5 7 6 2 7 1 8 3 9 8 10
REMARK H PARENT 8 11
REMARK Flexibility Score: inf
ROOT
ATOM      1  C   UNL     1      38.559  20.035  80.121  1.00  0.00    -0.003 A 
ATOM      2  C   UNL     1      38.202  21.385  79.941  1.00  0.00     0.014 A 
ATOM      3  C   UNL     1      39.774  19.574  79.586  1.00  0.00     0.014 A 
ATOM      4  C   UNL     1      39.045  22.253  79.241  1.00  0.00     0.047 A 
ATOM      5  C   UNL     1      40.616  20.445  78.886  1.00  0.00     0.047 A 
ATOM      6  C   UNL     1      40.253  21.786  78.712  1.00  0.00     0.115 A 
ENDROOT
BRANCH   1   7
ATOM      7  C   UNL     1      37.670  19.112  80.860  1.00  0.00     0.071 C 
ATOM      8  O   UNL     1      37.256  19.407  82.013  1.00  0.00    -0.545 OA
ATOM      9  O   UNL     1      37.280  17.904  80.293  1.00  0.00    -0.545 OA
ENDBRANCH   1   7
BRANCH   6  10
ATOM     10  O   UNL     1      41.084  22.663  78.017  1.00  0.00    -0.508 OA
ATOM     11  H   UNL     1      40.995  23.668  78.117  1.00  0.00     0.293 HD
ENDBRANCH   6  10
TORSDOF 2
ENDMDL
MODEL 9
REMARK VINA RESULT:    -3.300      8.332      9.046
REMARK INTER + INTRA:          -3.619
REMARK INTER:                  -3.584
REMARK INTRA:                  -0.036
REMARK UNBOUND:                -0.030
REMARK SMILES O=C([O-])c1ccc(O)cc1
REMARK SMILES IDX 4 1 5 2 10 3 6 4 9 5 7 6 2 7 1 8 3 9 8 10
REMARK H PARENT 8 11
REMARK Flexibility Score: inf
ROOT
ATOM      1  C   UNL     1      46.415  20.570  76.434  1.00  0.00    -0.003 A 
ATOM      2  C   UNL     1      46.037  20.144  77.721  1.00  0.00     0.014 A 
ATOM      3  C   UNL     1      46.401  19.643  75.378  1.00  0.00     0.014 A 
ATOM      4  C   UNL     1      45.652  18.819  77.944  1.00  0.00     0.047 A 
ATOM      5  C   UNL     1      46.015  18.317  75.604  1.00  0.00     0.047 A 
ATOM      6  C   UNL     1      45.640  17.902  76.887  1.00  0.00     0.115 A 
ENDROOT
BRANCH   1   7
ATOM      7  C   UNL     1      46.824  21.971  76.193  1.00  0.00     0.071 C 
ATOM      8  O   UNL     1      47.074  22.741  77.159  1.00  0.00    -0.545 OA
ATOM      9  O   UNL     1      46.935  22.460  74.896  1.00  0.00    -0.545 OA
ENDBRANCH   1   7
BRANCH   6  10
ATOM     10  O   UNL     1      45.255  16.585  77.124  1.00  0.00    -0.508 OA
ATOM     11  H   UNL     1      45.836  15.951  77.660  1.00  0.00     0.293 HD
ENDBRANCH   6  10
TORSDOF 2
ENDMDL
