MODEL 1
REMARK VINA RESULT:    -5.365      0.000      0.000
REMARK INTER + INTRA:          -6.504
REMARK INTER:                  -7.247
REMARK INTRA:                   0.744
REMARK UNBOUND:                 0.744
REMARK SMILES C=C1C(=O)O[C@H]2[C@H]3O[C@@]3(C)CCC=C(C)CC[C@@H]12
REMARK SMILES IDX 6 1 18 2 2 3 1 4 3 5 4 6 5 7 17 8 16 9 14 10 15 11 13 12
REMARK SMILES IDX 7 14 9 15 8 16 10 17 11 18 12 19
REMARK H PARENT
REMARK Flexibility Score: 70.00
ROOT
ATOM      1  C   UNL     1       3.833   8.409  22.206  1.00  0.00     0.216 C 
ATOM      2  C   UNL     1       3.740   7.484  23.469  1.00  0.00     0.070 C 
ATOM      3  C   UNL     1       5.170   7.585  23.938  1.00  0.00     0.037 C 
ATOM      4  C   UNL     1       5.616   7.346  25.171  1.00  0.00     0.021 C 
ATOM      5  C   UNL     1       5.981   7.934  22.787  1.00  0.00     0.334 C 
ATOM      6  O   UNL     1       7.239   7.913  22.735  1.00  0.00    -0.247 OA
ATOM      7  O   UNL     1       5.171   8.286  21.728  1.00  0.00    -0.455 OA
ENDROOT
BRANCH   2   8
ATOM      8  C   UNL     1       3.476   5.978  23.214  1.00  0.00     0.017 C 
BRANCH   8   9
ATOM      9  C   UNL     1       4.474   5.252  22.305  1.00  0.00     0.031 C 
BRANCH   9  10
ATOM     10  C   UNL     1       3.980   4.001  21.612  1.00  0.00    -0.077 C 
ATOM     11  C   UNL     1       4.450   2.661  22.119  1.00  0.00     0.039 C 
ATOM     12  C   UNL     1       3.289   4.027  20.451  1.00  0.00    -0.028 CG0
ATOM     13  G   UNL     1       2.476   5.194  19.929  1.00  0.00     0.000 G0
ENDBRANCH   9  10
ENDBRANCH   8   9
ENDBRANCH   2   8
BRANCH   1  14
ATOM     14  C   UNL     1       2.738   8.501  21.112  1.00  0.00     0.192 C 
ATOM     15  C   UNL     1       2.590   7.768  19.811  1.00  0.00     0.096 C 
ATOM     16  O   UNL     1       3.397   8.903  19.919  1.00  0.00    -0.362 OA
ATOM     17  C   UNL     1       1.347   8.074  18.962  1.00  0.00     0.045 C 
BRANCH  15  18
ATOM     18  C   UNL     1       3.339   6.445  19.582  1.00  0.00     0.042 C 
BRANCH  18  19
ATOM     19  C   UNL     1       2.475   5.190  19.916  1.00  0.00     0.030 CG0
ATOM     20  G   UNL     1       3.280   4.025  20.455  1.00  0.00     0.000 G0
ENDBRANCH  18  19
ENDBRANCH  15  18
ENDBRANCH   1  14
TORSDOF 0
ENDMDL
MODEL 2
REMARK VINA RESULT:    -5.311      1.794      2.424
REMARK INTER + INTRA:          -6.430
REMARK INTER:                  -6.606
REMARK INTRA:                   0.176
REMARK UNBOUND:                 0.744
REMARK SMILES C=C1C(=O)O[C@H]2[C@H]3O[C@@]3(C)CCC=C(C)CC[C@@H]12
REMARK SMILES IDX 6 1 18 2 2 3 1 4 3 5 4 6 5 7 17 8 16 9 14 10 15 11 13 12
REMARK SMILES IDX 7 14 9 15 8 16 10 17 11 18 12 19
REMARK H PARENT
REMARK Flexibility Score: 70.00
ROOT
ATOM      1  C   UNL     1       2.200   7.382  20.969  1.00  0.00     0.216 C 
ATOM      2  C   UNL     1       2.722   6.112  21.725  1.00  0.00     0.070 C 
ATOM      3  C   UNL     1       3.599   6.792  22.746  1.00  0.00     0.037 C 
ATOM      4  C   UNL     1       3.997   6.281  23.911  1.00  0.00     0.021 C 
ATOM      5  C   UNL     1       3.981   8.080  22.202  1.00  0.00     0.334 C 
ATOM      6  O   UNL     1       4.862   8.848  22.668  1.00  0.00    -0.247 OA
ATOM      7  O   UNL     1       3.240   8.353  21.070  1.00  0.00    -0.455 OA
ENDROOT
BRANCH   2   8
ATOM      8  C   UNL     1       3.648   5.156  20.929  1.00  0.00     0.017 C 
BRANCH   8   9
ATOM      9  C   UNL     1       2.956   4.107  20.052  1.00  0.00     0.031 C 
BRANCH   9  10
ATOM     10  C   UNL     1       3.793   3.469  18.965  1.00  0.00    -0.077 C 
ATOM     11  C   UNL     1       4.483   2.160  19.258  1.00  0.00     0.039 C 
ATOM     12  C   UNL     1       4.106   4.100  17.812  1.00  0.00    -0.028 CG0
ATOM     13  G   UNL     1       3.328   5.240  17.186  1.00  0.00     0.000 G0
ENDBRANCH   9  10
ENDBRANCH   8   9
ENDBRANCH   2   8
BRANCH   1  14
ATOM     14  C   UNL     1       1.454   7.342  19.610  1.00  0.00     0.192 C 
ATOM     15  C   UNL     1       1.974   7.181  18.212  1.00  0.00     0.096 C 
ATOM     16  O   UNL     1       1.958   8.427  18.843  1.00  0.00    -0.362 OA
ATOM     17  C   UNL     1       0.946   7.146  17.071  1.00  0.00     0.045 C 
BRANCH  15  18
ATOM     18  C   UNL     1       3.369   6.580  17.973  1.00  0.00     0.042 C 
BRANCH  18  19
ATOM     19  C   UNL     1       3.328   5.242  17.173  1.00  0.00     0.030 CG0
ATOM     20  G   UNL     1       4.117   4.122  17.820  1.00  0.00     0.000 G0
ENDBRANCH  18  19
ENDBRANCH  15  18
ENDBRANCH   1  14
TORSDOF 0
ENDMDL
MODEL 3
REMARK VINA RESULT:    -5.254      2.185      3.412
REMARK INTER + INTRA:          -6.354
REMARK INTER:                  -6.520
REMARK INTRA:                   0.166
REMARK UNBOUND:                 0.744
REMARK SMILES C=C1C(=O)O[C@H]2[C@H]3O[C@@]3(C)CCC=C(C)CC[C@@H]12
REMARK SMILES IDX 6 1 18 2 2 3 1 4 3 5 4 6 5 7 17 8 16 9 14 10 15 11 13 12
REMARK SMILES IDX 7 14 9 15 8 16 10 17 11 18 12 19
REMARK H PARENT
REMARK Flexibility Score: 70.00
ROOT
ATOM      1  C   UNL     1       3.728   6.149  22.169  1.00  0.00     0.216 C 
ATOM      2  C   UNL     1       4.720   7.222  21.601  1.00  0.00     0.070 C 
ATOM      3  C   UNL     1       5.511   7.497  22.856  1.00  0.00     0.037 C 
ATOM      4  C   UNL     1       6.737   8.017  22.918  1.00  0.00     0.021 C 
ATOM      5  C   UNL     1       4.671   7.147  23.984  1.00  0.00     0.334 C 
ATOM      6  O   UNL     1       4.903   7.420  25.191  1.00  0.00    -0.247 OA
ATOM      7  O   UNL     1       3.551   6.470  23.548  1.00  0.00    -0.455 OA
ENDROOT
BRANCH   2   8
ATOM      8  C   UNL     1       4.108   8.581  21.172  1.00  0.00     0.017 C 
BRANCH   8   9
ATOM      9  C   UNL     1       4.201   8.933  19.684  1.00  0.00     0.031 C 
BRANCH   9  10
ATOM     10  C   UNL     1       5.173   8.126  18.852  1.00  0.00    -0.077 C 
ATOM     11  C   UNL     1       6.632   8.506  18.873  1.00  0.00     0.039 C 
ATOM     12  C   UNL     1       4.777   7.201  17.949  1.00  0.00    -0.028 CG0
ATOM     13  G   UNL     1       3.454   6.463  17.958  1.00  0.00     0.000 G0
ENDBRANCH   9  10
ENDBRANCH   8   9
ENDBRANCH   2   8
BRANCH   1  14
ATOM     14  C   UNL     1       2.458   5.658  21.429  1.00  0.00     0.192 C 
ATOM     15  C   UNL     1       2.196   5.452  19.966  1.00  0.00     0.096 C 
ATOM     16  O   UNL     1       2.070   6.711  20.558  1.00  0.00    -0.362 OA
ATOM     17  C   UNL     1       0.816   4.911  19.561  1.00  0.00     0.045 C 
BRANCH  15  18
ATOM     18  C   UNL     1       3.371   5.298  18.986  1.00  0.00     0.042 C 
BRANCH  18  19
ATOM     19  C   UNL     1       3.453   6.457  17.945  1.00  0.00     0.030 CG0
ATOM     20  G   UNL     1       4.775   7.196  17.963  1.00  0.00     0.000 G0
ENDBRANCH  18  19
ENDBRANCH  15  18
ENDBRANCH   1  14
TORSDOF 0
ENDMDL
MODEL 4
REMARK VINA RESULT:    -5.118      2.170      3.346
REMARK INTER + INTRA:          -6.170
REMARK INTER:                  -6.415
REMARK INTRA:                   0.245
REMARK UNBOUND:                 0.744
REMARK SMILES C=C1C(=O)O[C@H]2[C@H]3O[C@@]3(C)CCC=C(C)CC[C@@H]12
REMARK SMILES IDX 6 1 18 2 2 3 1 4 3 5 4 6 5 7 17 8 16 9 14 10 15 11 13 12
REMARK SMILES IDX 7 14 9 15 8 16 10 17 11 18 12 19
REMARK H PARENT
REMARK Flexibility Score: 70.00
ROOT
ATOM      1  C   UNL     1       1.518   6.878  19.660  1.00  0.00     0.216 C 
ATOM      2  C   UNL     1       2.257   6.567  21.007  1.00  0.00     0.070 C 
ATOM      3  C   UNL     1       2.932   7.900  21.216  1.00  0.00     0.037 C 
ATOM      4  C   UNL     1       3.376   8.387  22.375  1.00  0.00     0.021 C 
ATOM      5  C   UNL     1       3.064   8.529  19.917  1.00  0.00     0.334 C 
ATOM      6  O   UNL     1       3.748   9.552  19.656  1.00  0.00    -0.247 OA
ATOM      7  O   UNL     1       2.332   7.831  18.978  1.00  0.00    -0.455 OA
ENDROOT
BRANCH   2   8
ATOM      8  C   UNL     1       3.392   5.513  20.955  1.00  0.00     0.017 C 
BRANCH   8   9
ATOM      9  C   UNL     1       2.963   4.043  21.003  1.00  0.00     0.031 C 
BRANCH   9  10
ATOM     10  C   UNL     1       3.978   3.021  20.538  1.00  0.00    -0.077 C 
ATOM     11  C   UNL     1       4.907   2.411  21.557  1.00  0.00     0.039 C 
ATOM     12  C   UNL     1       4.219   2.764  19.234  1.00  0.00    -0.028 CG0
ATOM     13  G   UNL     1       3.258   3.013  18.089  1.00  0.00     0.000 G0
ENDBRANCH   9  10
ENDBRANCH   8   9
ENDBRANCH   2   8
BRANCH   1  14
ATOM     14  C   UNL     1       0.854   5.802  18.762  1.00  0.00     0.192 C 
ATOM     15  C   UNL     1       1.454   4.852  17.767  1.00  0.00     0.096 C 
ATOM     16  O   UNL     1       1.142   6.168  17.419  1.00  0.00    -0.362 OA
ATOM     17  C   UNL     1       0.506   3.872  17.060  1.00  0.00     0.045 C 
BRANCH  15  18
ATOM     18  C   UNL     1       2.955   4.523  17.823  1.00  0.00     0.042 C 
BRANCH  18  19
ATOM     19  C   UNL     1       3.239   3.012  18.083  1.00  0.00     0.030 CG0
ATOM     20  G   UNL     1       4.221   2.763  19.209  1.00  0.00     0.000 G0
ENDBRANCH  18  19
ENDBRANCH  15  18
ENDBRANCH   1  14
TORSDOF 0
ENDMDL
MODEL 5
REMARK VINA RESULT:    -5.054      3.035      5.717
REMARK INTER + INTRA:          -6.084
REMARK INTER:                  -6.174
REMARK INTRA:                   0.091
REMARK UNBOUND:                 0.744
REMARK SMILES C=C1C(=O)O[C@H]2[C@H]3O[C@@]3(C)CCC=C(C)CC[C@@H]12
REMARK SMILES IDX 6 1 18 2 2 3 1 4 3 5 4 6 5 7 17 8 16 9 14 10 15 11 13 12
REMARK SMILES IDX 7 14 9 15 8 16 10 17 11 18 12 19
REMARK H PARENT
REMARK Flexibility Score: 70.00
ROOT
ATOM      1  C   UNL     1       1.508   5.862  20.343  1.00  0.00     0.216 C 
ATOM      2  C   UNL     1       1.997   5.962  18.857  1.00  0.00     0.070 C 
ATOM      3  C   UNL     1       0.837   5.273  18.182  1.00  0.00     0.037 C 
ATOM      4  C   UNL     1       0.480   5.396  16.904  1.00  0.00     0.021 C 
ATOM      5  C   UNL     1       0.217   4.405  19.165  1.00  0.00     0.334 C 
ATOM      6  O   UNL     1      -0.651   3.524  18.930  1.00  0.00    -0.247 OA
ATOM      7  O   UNL     1       0.726   4.672  20.419  1.00  0.00    -0.455 OA
ENDROOT
BRANCH   2   8
ATOM      8  C   UNL     1       3.261   5.146  18.480  1.00  0.00     0.017 C 
BRANCH   8   9
ATOM      9  C   UNL     1       4.405   5.922  17.819  1.00  0.00     0.031 C 
BRANCH   9  10
ATOM     10  C   UNL     1       4.174   7.396  17.572  1.00  0.00    -0.077 C 
ATOM     11  C   UNL     1       3.597   7.825  16.245  1.00  0.00     0.039 C 
ATOM     12  C   UNL     1       4.628   8.362  18.401  1.00  0.00    -0.028 CG0
ATOM     13  G   UNL     1       4.954   8.187  19.870  1.00  0.00     0.000 G0
ENDBRANCH   9  10
ENDBRANCH   8   9
ENDBRANCH   2   8
BRANCH   1  14
ATOM     14  C   UNL     1       2.403   6.154  21.576  1.00  0.00     0.192 C 
ATOM     15  C   UNL     1       3.539   7.118  21.754  1.00  0.00     0.096 C 
ATOM     16  O   UNL     1       3.736   5.859  21.182  1.00  0.00    -0.362 OA
ATOM     17  C   UNL     1       4.201   7.185  23.138  1.00  0.00     0.045 C 
BRANCH  15  18
ATOM     18  C   UNL     1       3.696   8.310  20.797  1.00  0.00     0.042 C 
BRANCH  18  19
ATOM     19  C   UNL     1       4.945   8.188  19.870  1.00  0.00     0.030 CG0
ATOM     20  G   UNL     1       4.628   8.361  18.399  1.00  0.00     0.000 G0
ENDBRANCH  18  19
ENDBRANCH  15  18
ENDBRANCH   1  14
TORSDOF 0
ENDMDL
MODEL 6
REMARK VINA RESULT:    -5.015      2.668      5.345
REMARK INTER + INTRA:          -6.031
REMARK INTER:                  -6.117
REMARK INTRA:                   0.086
REMARK UNBOUND:                 0.744
REMARK SMILES C=C1C(=O)O[C@H]2[C@H]3O[C@@]3(C)CCC=C(C)CC[C@@H]12
REMARK SMILES IDX 6 1 18 2 2 3 1 4 3 5 4 6 5 7 17 8 16 9 14 10 15 11 13 12
REMARK SMILES IDX 7 14 9 15 8 16 10 17 11 18 12 19
REMARK H PARENT
REMARK Flexibility Score: 70.00
ROOT
ATOM      1  C   UNL     1       3.393   4.541  20.581  1.00  0.00     0.216 C 
ATOM      2  C   UNL     1       3.111   5.068  19.132  1.00  0.00     0.070 C 
ATOM      3  C   UNL     1       3.183   3.758  18.388  1.00  0.00     0.037 C 
ATOM      4  C   UNL     1       2.643   3.494  17.198  1.00  0.00     0.021 C 
ATOM      5  C   UNL     1       3.998   2.855  19.177  1.00  0.00     0.334 C 
ATOM      6  O   UNL     1       4.449   1.743  18.798  1.00  0.00    -0.247 OA
ATOM      7  O   UNL     1       4.229   3.396  20.425  1.00  0.00    -0.455 OA
ENDROOT
BRANCH   2   8
ATOM      8  C   UNL     1       4.191   5.983  18.498  1.00  0.00     0.017 C 
BRANCH   8   9
ATOM      9  C   UNL     1       3.700   7.298  17.885  1.00  0.00     0.031 C 
BRANCH   9  10
ATOM     10  C   UNL     1       2.228   7.613  18.037  1.00  0.00    -0.077 C 
ATOM     11  C   UNL     1       1.295   7.274  16.902  1.00  0.00     0.039 C 
ATOM     12  C   UNL     1       1.735   8.350  19.057  1.00  0.00    -0.028 CG0
ATOM     13  G   UNL     1       2.390   8.540  20.411  1.00  0.00     0.000 G0
ENDBRANCH   9  10
ENDBRANCH   8   9
ENDBRANCH   2   8
BRANCH   1  14
ATOM     14  C   UNL     1       3.727   5.453  21.790  1.00  0.00     0.192 C 
ATOM     15  C   UNL     1       3.292   6.853  22.109  1.00  0.00     0.096 C 
ATOM     16  O   UNL     1       4.371   6.603  21.259  1.00  0.00    -0.362 OA
ATOM     17  C   UNL     1       3.783   7.465  23.430  1.00  0.00     0.045 C 
BRANCH  15  18
ATOM     18  C   UNL     1       2.044   7.445  21.435  1.00  0.00     0.042 C 
BRANCH  18  19
ATOM     19  C   UNL     1       2.381   8.566  20.404  1.00  0.00     0.030 CG0
ATOM     20  G   UNL     1       1.741   8.355  19.047  1.00  0.00     0.000 G0
ENDBRANCH  18  19
ENDBRANCH  15  18
ENDBRANCH   1  14
TORSDOF 0
ENDMDL
MODEL 7
REMARK VINA RESULT:    -4.965      2.571      5.419
REMARK INTER + INTRA:          -5.962
REMARK INTER:                  -6.219
REMARK INTRA:                   0.257
REMARK UNBOUND:                 0.744
REMARK SMILES C=C1C(=O)O[C@H]2[C@H]3O[C@@]3(C)CCC=C(C)CC[C@@H]12
REMARK SMILES IDX 6 1 18 2 2 3 1 4 3 5 4 6 5 7 17 8 16 9 14 10 15 11 13 12
REMARK SMILES IDX 7 14 9 15 8 16 10 17 11 18 12 19
REMARK H PARENT
REMARK Flexibility Score: 70.00
ROOT
ATOM      1  C   UNL     1       2.979   4.598  21.354  1.00  0.00     0.216 C 
ATOM      2  C   UNL     1       1.840   5.009  20.357  1.00  0.00     0.070 C 
ATOM      3  C   UNL     1       2.138   4.033  19.246  1.00  0.00     0.037 C 
ATOM      4  C   UNL     1       1.287   3.623  18.306  1.00  0.00     0.021 C 
ATOM      5  C   UNL     1       3.537   3.667  19.353  1.00  0.00     0.334 C 
ATOM      6  O   UNL     1       4.203   3.033  18.494  1.00  0.00    -0.247 OA
ATOM      7  O   UNL     1       4.056   4.130  20.545  1.00  0.00    -0.455 OA
ENDROOT
BRANCH   2   8
ATOM      8  C   UNL     1       1.939   6.422  19.727  1.00  0.00     0.017 C 
BRANCH   8   9
ATOM      9  C   UNL     1       1.485   7.595  20.602  1.00  0.00     0.031 C 
BRANCH   9  10
ATOM     10  C   UNL     1       1.958   8.972  20.194  1.00  0.00    -0.077 C 
ATOM     11  C   UNL     1       1.109   9.776  19.242  1.00  0.00     0.039 C 
ATOM     12  C   UNL     1       3.188   9.446  20.492  1.00  0.00    -0.028 CG0
ATOM     13  G   UNL     1       4.067   8.976  21.633  1.00  0.00     0.000 G0
ENDBRANCH   9  10
ENDBRANCH   8   9
ENDBRANCH   2   8
BRANCH   1  14
ATOM     14  C   UNL     1       3.389   5.427  22.598  1.00  0.00     0.192 C 
ATOM     15  C   UNL     1       4.273   6.634  22.722  1.00  0.00     0.096 C 
ATOM     16  O   UNL     1       4.805   5.343  22.687  1.00  0.00    -0.362 OA
ATOM     17  C   UNL     1       4.446   7.246  24.120  1.00  0.00     0.045 C 
BRANCH  15  18
ATOM     18  C   UNL     1       4.568   7.503  21.488  1.00  0.00     0.042 C 
BRANCH  18  19
ATOM     19  C   UNL     1       4.069   8.973  21.645  1.00  0.00     0.030 CG0
ATOM     20  G   UNL     1       3.202   9.445  20.496  1.00  0.00     0.000 G0
ENDBRANCH  18  19
ENDBRANCH  15  18
ENDBRANCH   1  14
TORSDOF 0
ENDMDL
MODEL 8
REMARK VINA RESULT:    -4.885      3.018      4.709
REMARK INTER + INTRA:          -5.855
REMARK INTER:                  -6.111
REMARK INTRA:                   0.256
REMARK UNBOUND:                 0.744
REMARK SMILES C=C1C(=O)O[C@H]2[C@H]3O[C@@]3(C)CCC=C(C)CC[C@@H]12
REMARK SMILES IDX 6 1 18 2 2 3 1 4 3 5 4 6 5 7 17 8 16 9 14 10 15 11 13 12
REMARK SMILES IDX 7 14 9 15 8 16 10 17 11 18 12 19
REMARK H PARENT
REMARK Flexibility Score: 70.00
ROOT
ATOM      1  C   UNL     1       4.172   4.259  18.476  1.00  0.00     0.216 C 
ATOM      2  C   UNL     1       3.715   4.446  19.964  1.00  0.00     0.070 C 
ATOM      3  C   UNL     1       4.265   3.164  20.540  1.00  0.00     0.037 C 
ATOM      4  C   UNL     1       4.543   2.930  21.822  1.00  0.00     0.021 C 
ATOM      5  C   UNL     1       4.380   2.214  19.451  1.00  0.00     0.334 C 
ATOM      6  O   UNL     1       4.611   0.982  19.567  1.00  0.00    -0.247 OA
ATOM      7  O   UNL     1       4.185   2.852  18.244  1.00  0.00    -0.455 OA
ENDROOT
BRANCH   2   8
ATOM      8  C   UNL     1       2.188   4.420  20.235  1.00  0.00     0.017 C 
BRANCH   8   9
ATOM      9  C   UNL     1       1.542   5.749  20.637  1.00  0.00     0.031 C 
BRANCH   9  10
ATOM     10  C   UNL     1       2.457   6.801  21.226  1.00  0.00    -0.077 C 
ATOM     11  C   UNL     1       2.917   6.642  22.653  1.00  0.00     0.039 C 
ATOM     12  C   UNL     1       2.733   7.968  20.603  1.00  0.00    -0.028 CG0
ATOM     13  G   UNL     1       2.640   8.220  19.111  1.00  0.00     0.000 G0
ENDBRANCH   9  10
ENDBRANCH   8   9
ENDBRANCH   2   8
BRANCH   1  14
ATOM     14  C   UNL     1       3.667   5.127  17.294  1.00  0.00     0.192 C 
ATOM     15  C   UNL     1       3.299   6.581  17.235  1.00  0.00     0.096 C 
ATOM     16  O   UNL     1       2.389   5.618  17.676  1.00  0.00    -0.362 OA
ATOM     17  C   UNL     1       2.862   7.147  15.875  1.00  0.00     0.045 C 
BRANCH  15  18
ATOM     18  C   UNL     1       3.809   7.550  18.314  1.00  0.00     0.042 C 
BRANCH  18  19
ATOM     19  C   UNL     1       2.658   8.235  19.112  1.00  0.00     0.030 CG0
ATOM     20  G   UNL     1       2.720   7.982  20.605  1.00  0.00     0.000 G0
ENDBRANCH  18  19
ENDBRANCH  15  18
ENDBRANCH   1  14
TORSDOF 0
ENDMDL
MODEL 9
REMARK VINA RESULT:    -4.683     15.373     16.809
REMARK INTER + INTRA:          -5.582
REMARK INTER:                  -6.126
REMARK INTRA:                   0.544
REMARK UNBOUND:                 0.744
REMARK SMILES C=C1C(=O)O[C@H]2[C@H]3O[C@@]3(C)CCC=C(C)CC[C@@H]12
REMARK SMILES IDX 6 1 18 2 2 3 1 4 3 5 4 6 5 7 17 8 16 9 14 10 15 11 13 12
REMARK SMILES IDX 7 14 9 15 8 16 10 17 11 18 12 19
REMARK H PARENT
REMARK Flexibility Score: 70.00
ROOT
ATOM      1  C   UNL     1      12.147  -1.250  31.369  1.00  0.00     0.216 C 
ATOM      2  C   UNL     1      11.002  -2.314  31.240  1.00  0.00     0.070 C 
ATOM      3  C   UNL     1      10.545  -2.341  32.677  1.00  0.00     0.037 C 
ATOM      4  C   UNL     1       9.355  -2.749  33.119  1.00  0.00     0.021 C 
ATOM      5  C   UNL     1      11.657  -1.899  33.495  1.00  0.00     0.334 C 
ATOM      6  O   UNL     1      11.729  -1.975  34.750  1.00  0.00    -0.247 OA
ATOM      7  O   UNL     1      12.656  -1.382  32.695  1.00  0.00    -0.455 OA
ENDROOT
BRANCH   2   8
ATOM      8  C   UNL     1      11.431  -3.764  30.897  1.00  0.00     0.017 C 
BRANCH   8   9
ATOM      9  C   UNL     1      12.922  -3.990  30.622  1.00  0.00     0.031 C 
BRANCH   9  10
ATOM     10  C   UNL     1      13.754  -4.512  31.772  1.00  0.00    -0.077 C 
ATOM     11  C   UNL     1      13.194  -5.623  32.624  1.00  0.00     0.039 C 
ATOM     12  C   UNL     1      14.892  -3.913  32.189  1.00  0.00    -0.028 CG0
ATOM     13  G   UNL     1      15.775  -3.009  31.354  1.00  0.00     0.000 G0
ENDBRANCH   9  10
ENDBRANCH   8   9
ENDBRANCH   2   8
BRANCH   1  14
ATOM     14  C   UNL     1      13.207  -0.973  30.272  1.00  0.00     0.192 C 
ATOM     15  C   UNL     1      14.701  -0.871  30.358  1.00  0.00     0.096 C 
ATOM     16  O   UNL     1      13.879   0.219  30.657  1.00  0.00    -0.362 OA
ATOM     17  C   UNL     1      15.472  -0.617  29.054  1.00  0.00     0.045 C 
BRANCH  15  18
ATOM     18  C   UNL     1      15.448  -1.482  31.555  1.00  0.00     0.042 C 
BRANCH  18  19
ATOM     19  C   UNL     1      15.776  -2.994  31.362  1.00  0.00     0.030 CG0
ATOM     20  G   UNL     1      14.900  -3.915  32.186  1.00  0.00     0.000 G0
ENDBRANCH  18  19
ENDBRANCH  15  18
ENDBRANCH   1  14
TORSDOF 0
ENDMDL
