MODEL 1
REMARK VINA RESULT:    -3.406      0.000      0.000
REMARK INTER + INTRA:          -8.085
REMARK INTER:                  -5.795
REMARK INTRA:                  -2.290
REMARK UNBOUND:                -2.290
REMARK SMILES CCCCCCCCCCCCCC(=O)[O-]
REMARK SMILES IDX 8 1 9 2 10 3 11 4 12 5 13 6 14 7 15 8 16 9 7 10 6 11 5 12
REMARK SMILES IDX 4 13 3 14 2 15 1 16
REMARK H PARENT
REMARK Flexibility Score: inf
ROOT
ATOM      1  C   UNL     1     -12.927   8.491 -20.248  1.00  0.00     0.000 C 
ENDROOT
BRANCH   1   2
ATOM      2  C   UNL     1     -11.891   7.960 -19.246  1.00  0.00     0.000 C 
BRANCH   2   3
ATOM      3  C   UNL     1     -10.843   9.030 -18.918  1.00  0.00     0.000 C 
BRANCH   3   4
ATOM      4  C   UNL     1      -9.546   8.390 -18.403  1.00  0.00     0.000 C 
BRANCH   4   5
ATOM      5  C   UNL     1      -9.321   6.966 -18.944  1.00  0.00     0.006 C 
BRANCH   5   6
ATOM      6  C   UNL     1      -7.856   6.660 -19.302  1.00  0.00     0.053 C 
BRANCH   6   7
ATOM      7  C   UNL     1      -7.652   5.241 -19.742  1.00  0.00     0.041 C 
ATOM      8  O   UNL     1      -7.574   4.317 -18.890  1.00  0.00    -0.550 OA
ATOM      9  O   UNL     1      -7.577   4.936 -21.095  1.00  0.00    -0.550 OA
ENDBRANCH   6   7
ENDBRANCH   5   6
ENDBRANCH   4   5
ENDBRANCH   3   4
ENDBRANCH   2   3
ENDBRANCH   1   2
BRANCH   1  10
ATOM     10  C   UNL     1     -13.062   7.589 -21.493  1.00  0.00     0.000 C 
BRANCH  10  11
ATOM     11  C   UNL     1     -12.335   6.238 -21.363  1.00  0.00    -0.000 C 
BRANCH  11  12
ATOM     12  C   UNL     1     -11.029   6.117 -22.170  1.00  0.00    -0.000 C 
BRANCH  12  13
ATOM     13  C   UNL     1     -10.584   7.403 -22.892  1.00  0.00    -0.000 C 
BRANCH  13  14
ATOM     14  C   UNL     1      -9.129   7.791 -22.579  1.00  0.00    -0.000 C 
BRANCH  14  15
ATOM     15  C   UNL     1      -8.998   9.245 -22.102  1.00  0.00    -0.003 C 
ATOM     16  C   UNL     1     -10.252  10.075 -22.378  1.00  0.00     0.004 C 
ENDBRANCH  14  15
ENDBRANCH  13  14
ENDBRANCH  12  13
ENDBRANCH  11  12
ENDBRANCH  10  11
ENDBRANCH   1  10
TORSDOF 12
ENDMDL
MODEL 2
REMARK VINA RESULT:    -3.362      3.235      4.294
REMARK INTER + INTRA:          -8.010
REMARK INTER:                  -6.679
REMARK INTRA:                  -1.331
REMARK UNBOUND:                -2.290
REMARK SMILES CCCCCCCCCCCCCC(=O)[O-]
REMARK SMILES IDX 8 1 9 2 10 3 11 4 12 5 13 6 14 7 15 8 16 9 7 10 6 11 5 12
REMARK SMILES IDX 4 13 3 14 2 15 1 16
REMARK H PARENT
REMARK Flexibility Score: inf
ROOT
ATOM      1  C   UNL     1     -12.977   8.162 -20.348  1.00  0.00     0.000 C 
ENDROOT
BRANCH   1   2
ATOM      2  C   UNL     1     -11.908   9.241 -20.119  1.00  0.00     0.000 C 
BRANCH   2   3
ATOM      3  C   UNL     1     -11.254   9.084 -18.741  1.00  0.00     0.000 C 
BRANCH   3   4
ATOM      4  C   UNL     1     -10.015   9.982 -18.615  1.00  0.00     0.000 C 
BRANCH   4   5
ATOM      5  C   UNL     1      -9.081   9.563 -17.465  1.00  0.00     0.006 C 
BRANCH   5   6
ATOM      6  C   UNL     1      -7.881  10.505 -17.261  1.00  0.00     0.053 C 
BRANCH   6   7
ATOM      7  C   UNL     1      -7.822  11.074 -15.875  1.00  0.00     0.041 C 
ATOM      8  O   UNL     1      -7.281  12.193 -15.671  1.00  0.00    -0.550 OA
ATOM      9  O   UNL     1      -8.390  10.382 -14.814  1.00  0.00    -0.550 OA
ENDBRANCH   6   7
ENDBRANCH   5   6
ENDBRANCH   4   5
ENDBRANCH   3   4
ENDBRANCH   2   3
ENDBRANCH   1   2
BRANCH   1  10
ATOM     10  C   UNL     1     -13.033   7.686 -21.815  1.00  0.00     0.000 C 
BRANCH  10  11
ATOM     11  C   UNL     1     -12.165   6.446 -22.098  1.00  0.00    -0.000 C 
BRANCH  11  12
ATOM     12  C   UNL     1     -12.041   5.454 -20.926  1.00  0.00    -0.000 C 
BRANCH  12  13
ATOM     13  C   UNL     1     -10.601   5.031 -20.577  1.00  0.00    -0.000 C 
BRANCH  13  14
ATOM     14  C   UNL     1      -9.623   6.218 -20.537  1.00  0.00    -0.000 C 
BRANCH  14  15
ATOM     15  C   UNL     1      -8.898   6.337 -19.188  1.00  0.00    -0.003 C 
ATOM     16  C   UNL     1      -7.376   6.312 -19.329  1.00  0.00     0.004 C 
ENDBRANCH  14  15
ENDBRANCH  13  14
ENDBRANCH  12  13
ENDBRANCH  11  12
ENDBRANCH  10  11
ENDBRANCH   1  10
TORSDOF 12
ENDMDL
MODEL 3
REMARK VINA RESULT:    -3.288      3.599      5.010
REMARK INTER + INTRA:          -7.884
REMARK INTER:                  -6.502
REMARK INTRA:                  -1.382
REMARK UNBOUND:                -2.290
REMARK SMILES CCCCCCCCCCCCCC(=O)[O-]
REMARK SMILES IDX 8 1 9 2 10 3 11 4 12 5 13 6 14 7 15 8 16 9 7 10 6 11 5 12
REMARK SMILES IDX 4 13 3 14 2 15 1 16
REMARK H PARENT
REMARK Flexibility Score: inf
ROOT
ATOM      1  C   UNL     1      -9.422   8.781 -20.128  1.00  0.00     0.000 C 
ENDROOT
BRANCH   1   2
ATOM      2  C   UNL     1      -9.209   7.990 -18.830  1.00  0.00     0.000 C 
BRANCH   2   3
ATOM      3  C   UNL     1      -8.273   8.740 -17.875  1.00  0.00     0.000 C 
BRANCH   3   4
ATOM      4  C   UNL     1      -9.058   9.360 -16.710  1.00  0.00     0.000 C 
BRANCH   4   5
ATOM      5  C   UNL     1      -8.479  10.707 -16.241  1.00  0.00     0.006 C 
BRANCH   5   6
ATOM      6  C   UNL     1      -7.920  10.682 -14.808  1.00  0.00     0.053 C 
BRANCH   6   7
ATOM      7  C   UNL     1      -6.429  10.839 -14.765  1.00  0.00     0.041 C 
ATOM      8  O   UNL     1      -5.897  11.626 -13.938  1.00  0.00    -0.550 OA
ATOM      9  O   UNL     1      -5.627  10.093 -15.618  1.00  0.00    -0.550 OA
ENDBRANCH   6   7
ENDBRANCH   5   6
ENDBRANCH   4   5
ENDBRANCH   3   4
ENDBRANCH   2   3
ENDBRANCH   1   2
BRANCH   1  10
ATOM     10  C   UNL     1     -10.728   9.603 -20.113  1.00  0.00     0.000 C 
BRANCH  10  11
ATOM     11  C   UNL     1     -11.762   9.107 -19.085  1.00  0.00    -0.000 C 
BRANCH  11  12
ATOM     12  C   UNL     1     -12.833   8.150 -19.644  1.00  0.00    -0.000 C 
BRANCH  12  13
ATOM     13  C   UNL     1     -12.861   8.025 -21.178  1.00  0.00    -0.000 C 
BRANCH  13  14
ATOM     14  C   UNL     1     -12.513   6.610 -21.669  1.00  0.00    -0.000 C 
BRANCH  14  15
ATOM     15  C   UNL     1     -12.069   5.683 -20.527  1.00  0.00    -0.003 C 
ATOM     16  C   UNL     1     -10.649   5.150 -20.715  1.00  0.00     0.004 C 
ENDBRANCH  14  15
ENDBRANCH  13  14
ENDBRANCH  12  13
ENDBRANCH  11  12
ENDBRANCH  10  11
ENDBRANCH   1  10
TORSDOF 12
ENDMDL
MODEL 4
REMARK VINA RESULT:    -3.258      3.011      4.298
REMARK INTER + INTRA:          -7.833
REMARK INTER:                  -5.735
REMARK INTRA:                  -2.097
REMARK UNBOUND:                -2.290
REMARK SMILES CCCCCCCCCCCCCC(=O)[O-]
REMARK SMILES IDX 8 1 9 2 10 3 11 4 12 5 13 6 14 7 15 8 16 9 7 10 6 11 5 12
REMARK SMILES IDX 4 13 3 14 2 15 1 16
REMARK H PARENT
REMARK Flexibility Score: inf
ROOT
ATOM      1  C   UNL     1      -8.936   6.236 -21.217  1.00  0.00     0.000 C 
ENDROOT
BRANCH   1   2
ATOM      2  C   UNL     1      -7.774   6.994 -20.557  1.00  0.00     0.000 C 
BRANCH   2   3
ATOM      3  C   UNL     1      -7.791   6.809 -19.035  1.00  0.00     0.000 C 
BRANCH   3   4
ATOM      4  C   UNL     1      -7.750   8.166 -18.317  1.00  0.00     0.000 C 
BRANCH   4   5
ATOM      5  C   UNL     1      -9.045   8.479 -17.545  1.00  0.00     0.006 C 
BRANCH   5   6
ATOM      6  C   UNL     1      -9.269   9.979 -17.283  1.00  0.00     0.053 C 
BRANCH   6   7
ATOM      7  C   UNL     1      -8.366  10.521 -16.217  1.00  0.00     0.041 C 
ATOM      8  O   UNL     1      -8.613  10.299 -15.002  1.00  0.00    -0.550 OA
ATOM      9  O   UNL     1      -7.235  11.248 -16.567  1.00  0.00    -0.550 OA
ENDBRANCH   6   7
ENDBRANCH   5   6
ENDBRANCH   4   5
ENDBRANCH   3   4
ENDBRANCH   2   3
ENDBRANCH   1   2
BRANCH   1  10
ATOM     10  C   UNL     1      -9.892   5.602 -20.184  1.00  0.00     0.000 C 
BRANCH  10  11
ATOM     11  C   UNL     1     -11.359   6.041 -20.344  1.00  0.00    -0.000 C 
BRANCH  11  12
ATOM     12  C   UNL     1     -11.935   6.842 -19.160  1.00  0.00    -0.000 C 
BRANCH  12  13
ATOM     13  C   UNL     1     -12.487   8.234 -19.519  1.00  0.00    -0.000 C 
BRANCH  13  14
ATOM     14  C   UNL     1     -11.907   8.787 -20.832  1.00  0.00    -0.000 C 
BRANCH  14  15
ATOM     15  C   UNL     1     -10.738   9.754 -20.597  1.00  0.00    -0.003 C 
ATOM     16  C   UNL     1      -9.796   9.849 -21.798  1.00  0.00     0.004 C 
ENDBRANCH  14  15
ENDBRANCH  13  14
ENDBRANCH  12  13
ENDBRANCH  11  12
ENDBRANCH  10  11
ENDBRANCH   1  10
TORSDOF 12
ENDMDL
MODEL 5
REMARK VINA RESULT:    -3.253      3.275      4.276
REMARK INTER + INTRA:          -7.825
REMARK INTER:                  -6.315
REMARK INTRA:                  -1.510
REMARK UNBOUND:                -2.290
REMARK SMILES CCCCCCCCCCCCCC(=O)[O-]
REMARK SMILES IDX 8 1 9 2 10 3 11 4 12 5 13 6 14 7 15 8 16 9 7 10 6 11 5 12
REMARK SMILES IDX 4 13 3 14 2 15 1 16
REMARK H PARENT
REMARK Flexibility Score: inf
ROOT
ATOM      1  C   UNL     1     -12.015   7.007 -19.268  1.00  0.00     0.000 C 
ENDROOT
BRANCH   1   2
ATOM      2  C   UNL     1     -10.602   7.462 -18.873  1.00  0.00     0.000 C 
BRANCH   2   3
ATOM      3  C   UNL     1     -10.285   8.842 -19.461  1.00  0.00     0.000 C 
BRANCH   3   4
ATOM      4  C   UNL     1     -10.159   9.896 -18.351  1.00  0.00     0.000 C 
BRANCH   4   5
ATOM      5  C   UNL     1      -9.206   9.470 -17.220  1.00  0.00     0.006 C 
BRANCH   5   6
ATOM      6  C   UNL     1      -7.953  10.355 -17.093  1.00  0.00     0.053 C 
BRANCH   6   7
ATOM      7  C   UNL     1      -7.827  10.991 -15.742  1.00  0.00     0.041 C 
ATOM      8  O   UNL     1      -7.340  12.147 -15.627  1.00  0.00    -0.550 OA
ATOM      9  O   UNL     1      -8.276  10.319 -14.613  1.00  0.00    -0.550 OA
ENDBRANCH   6   7
ENDBRANCH   5   6
ENDBRANCH   4   5
ENDBRANCH   3   4
ENDBRANCH   2   3
ENDBRANCH   1   2
BRANCH   1  10
ATOM     10  C   UNL     1     -12.749   8.045 -20.143  1.00  0.00     0.000 C 
BRANCH  10  11
ATOM     11  C   UNL     1     -13.043   7.555 -21.573  1.00  0.00    -0.000 C 
BRANCH  11  12
ATOM     12  C   UNL     1     -11.906   7.779 -22.588  1.00  0.00    -0.000 C 
BRANCH  12  13
ATOM     13  C   UNL     1     -11.196   6.499 -23.068  1.00  0.00    -0.000 C 
BRANCH  13  14
ATOM     14  C   UNL     1      -9.752   6.386 -22.550  1.00  0.00    -0.000 C 
BRANCH  14  15
ATOM     15  C   UNL     1      -9.572   5.225 -21.559  1.00  0.00    -0.003 C 
ATOM     16  C   UNL     1     -10.794   4.309 -21.492  1.00  0.00     0.004 C 
ENDBRANCH  14  15
ENDBRANCH  13  14
ENDBRANCH  12  13
ENDBRANCH  11  12
ENDBRANCH  10  11
ENDBRANCH   1  10
TORSDOF 12
ENDMDL
MODEL 6
REMARK VINA RESULT:    -3.232      1.103      3.076
REMARK INTER + INTRA:          -7.789
REMARK INTER:                  -5.762
REMARK INTRA:                  -2.028
REMARK UNBOUND:                -2.290
REMARK SMILES CCCCCCCCCCCCCC(=O)[O-]
REMARK SMILES IDX 8 1 9 2 10 3 11 4 12 5 13 6 14 7 15 8 16 9 7 10 6 11 5 12
REMARK SMILES IDX 4 13 3 14 2 15 1 16
REMARK H PARENT
REMARK Flexibility Score: inf
ROOT
ATOM      1  C   UNL     1     -10.953   7.361 -23.145  1.00  0.00     0.000 C 
ENDROOT
BRANCH   1   2
ATOM      2  C   UNL     1     -10.690   8.851 -22.881  1.00  0.00     0.000 C 
BRANCH   2   3
ATOM      3  C   UNL     1      -9.349   9.055 -22.165  1.00  0.00     0.000 C 
BRANCH   3   4
ATOM      4  C   UNL     1      -8.450   7.821 -22.321  1.00  0.00     0.000 C 
BRANCH   4   5
ATOM      5  C   UNL     1      -7.757   7.410 -21.009  1.00  0.00     0.006 C 
BRANCH   5   6
ATOM      6  C   UNL     1      -7.302   5.940 -20.977  1.00  0.00     0.053 C 
BRANCH   6   7
ATOM      7  C   UNL     1      -8.234   5.063 -20.195  1.00  0.00     0.041 C 
ATOM      8  O   UNL     1      -7.876   4.586 -19.086  1.00  0.00    -0.550 OA
ATOM      9  O   UNL     1      -9.508   4.797 -20.679  1.00  0.00    -0.550 OA
ENDBRANCH   6   7
ENDBRANCH   5   6
ENDBRANCH   4   5
ENDBRANCH   3   4
ENDBRANCH   2   3
ENDBRANCH   1   2
BRANCH   1  10
ATOM     10  C   UNL     1     -12.049   6.781 -22.226  1.00  0.00     0.000 C 
BRANCH  10  11
ATOM     11  C   UNL     1     -12.995   7.847 -21.640  1.00  0.00    -0.000 C 
BRANCH  11  12
ATOM     12  C   UNL     1     -12.847   8.091 -20.126  1.00  0.00    -0.000 C 
BRANCH  12  13
ATOM     13  C   UNL     1     -11.952   7.081 -19.385  1.00  0.00    -0.000 C 
BRANCH  13  14
ATOM     14  C   UNL     1     -10.646   7.708 -18.867  1.00  0.00    -0.000 C 
BRANCH  14  15
ATOM     15  C   UNL     1     -10.728   9.238 -18.763  1.00  0.00    -0.003 C 
ATOM     16  C   UNL     1      -9.379   9.883 -18.444  1.00  0.00     0.004 C 
ENDBRANCH  14  15
ENDBRANCH  13  14
ENDBRANCH  12  13
ENDBRANCH  11  12
ENDBRANCH  10  11
ENDBRANCH   1  10
TORSDOF 12
ENDMDL
MODEL 7
REMARK VINA RESULT:    -3.219      2.243      3.907
REMARK INTER + INTRA:          -7.768
REMARK INTER:                  -5.577
REMARK INTRA:                  -2.190
REMARK UNBOUND:                -2.290
REMARK SMILES CCCCCCCCCCCCCC(=O)[O-]
REMARK SMILES IDX 8 1 9 2 10 3 11 4 12 5 13 6 14 7 15 8 16 9 7 10 6 11 5 12
REMARK SMILES IDX 4 13 3 14 2 15 1 16
REMARK H PARENT
REMARK Flexibility Score: inf
ROOT
ATOM      1  C   UNL     1     -11.419   5.177 -21.346  1.00  0.00     0.000 C 
ENDROOT
BRANCH   1   2
ATOM      2  C   UNL     1     -12.002   6.121 -20.284  1.00  0.00     0.000 C 
BRANCH   2   3
ATOM      3  C   UNL     1     -12.625   7.363 -20.934  1.00  0.00     0.000 C 
BRANCH   3   4
ATOM      4  C   UNL     1     -12.503   8.585 -20.012  1.00  0.00     0.000 C 
BRANCH   4   5
ATOM      5  C   UNL     1     -11.336   8.474 -19.015  1.00  0.00     0.006 C 
BRANCH   5   6
ATOM      6  C   UNL     1     -10.591   9.800 -18.776  1.00  0.00     0.053 C 
BRANCH   6   7
ATOM      7  C   UNL     1      -9.334   9.622 -17.979  1.00  0.00     0.041 C 
ATOM      8  O   UNL     1      -9.304   8.816 -17.011  1.00  0.00    -0.550 OA
ATOM      9  O   UNL     1      -8.187  10.325 -18.323  1.00  0.00    -0.550 OA
ENDBRANCH   6   7
ENDBRANCH   5   6
ENDBRANCH   4   5
ENDBRANCH   3   4
ENDBRANCH   2   3
ENDBRANCH   1   2
BRANCH   1  10
ATOM     10  C   UNL     1     -11.118   5.897 -22.678  1.00  0.00     0.000 C 
BRANCH  10  11
ATOM     11  C   UNL     1      -9.620   6.169 -22.911  1.00  0.00    -0.000 C 
BRANCH  11  12
ATOM     12  C   UNL     1      -9.197   7.646 -22.790  1.00  0.00    -0.000 C 
BRANCH  12  13
ATOM     13  C   UNL     1      -8.663   8.063 -21.407  1.00  0.00    -0.000 C 
BRANCH  13  14
ATOM     14  C   UNL     1      -7.724   7.014 -20.788  1.00  0.00    -0.000 C 
BRANCH  14  15
ATOM     15  C   UNL     1      -8.270   6.438 -19.473  1.00  0.00    -0.003 C 
ATOM     16  C   UNL     1      -8.203   4.912 -19.421  1.00  0.00     0.004 C 
ENDBRANCH  14  15
ENDBRANCH  13  14
ENDBRANCH  12  13
ENDBRANCH  11  12
ENDBRANCH  10  11
ENDBRANCH   1  10
TORSDOF 12
ENDMDL
MODEL 8
REMARK VINA RESULT:    -3.181      2.112      4.664
REMARK INTER + INTRA:          -7.702
REMARK INTER:                  -5.758
REMARK INTRA:                  -1.944
REMARK UNBOUND:                -2.290
REMARK SMILES CCCCCCCCCCCCCC(=O)[O-]
REMARK SMILES IDX 8 1 9 2 10 3 11 4 12 5 13 6 14 7 15 8 16 9 7 10 6 11 5 12
REMARK SMILES IDX 4 13 3 14 2 15 1 16
REMARK H PARENT
REMARK Flexibility Score: inf
ROOT
ATOM      1  C   UNL     1      -7.228   9.472 -17.596  1.00  0.00     0.000 C 
ENDROOT
BRANCH   1   2
ATOM      2  C   UNL     1      -6.438   8.281 -18.158  1.00  0.00     0.000 C 
BRANCH   2   3
ATOM      3  C   UNL     1      -6.793   8.029 -19.628  1.00  0.00     0.000 C 
BRANCH   3   4
ATOM      4  C   UNL     1      -7.383   6.624 -19.817  1.00  0.00     0.000 C 
BRANCH   4   5
ATOM      5  C   UNL     1      -8.243   6.498 -21.088  1.00  0.00     0.006 C 
BRANCH   5   6
ATOM      6  C   UNL     1      -8.483   7.833 -21.815  1.00  0.00     0.053 C 
BRANCH   6   7
ATOM      7  C   UNL     1      -9.706   7.809 -22.682  1.00  0.00     0.041 C 
ATOM      8  O   UNL     1     -10.123   6.722 -23.162  1.00  0.00    -0.550 OA
ATOM      9  O   UNL     1     -10.402   8.984 -22.935  1.00  0.00    -0.550 OA
ENDBRANCH   6   7
ENDBRANCH   5   6
ENDBRANCH   4   5
ENDBRANCH   3   4
ENDBRANCH   2   3
ENDBRANCH   1   2
BRANCH   1  10
ATOM     10  C   UNL     1      -8.714   9.134 -17.351  1.00  0.00     0.000 C 
BRANCH  10  11
ATOM     11  C   UNL     1      -9.691   9.998 -18.169  1.00  0.00    -0.000 C 
BRANCH  11  12
ATOM     12  C   UNL     1     -10.624   9.215 -19.113  1.00  0.00    -0.000 C 
BRANCH  12  13
ATOM     13  C   UNL     1     -10.799   7.724 -18.771  1.00  0.00    -0.000 C 
BRANCH  13  14
ATOM     14  C   UNL     1     -11.778   7.005 -19.714  1.00  0.00    -0.000 C 
BRANCH  14  15
ATOM     15  C   UNL     1     -12.744   7.976 -20.410  1.00  0.00    -0.003 C 
ATOM     16  C   UNL     1     -13.282   7.430 -21.733  1.00  0.00     0.004 C 
ENDBRANCH  14  15
ENDBRANCH  13  14
ENDBRANCH  12  13
ENDBRANCH  11  12
ENDBRANCH  10  11
ENDBRANCH   1  10
TORSDOF 12
ENDMDL
MODEL 9
REMARK VINA RESULT:    -3.173      1.085      2.826
REMARK INTER + INTRA:          -7.688
REMARK INTER:                  -5.626
REMARK INTRA:                  -2.062
REMARK UNBOUND:                -2.290
REMARK SMILES CCCCCCCCCCCCCC(=O)[O-]
REMARK SMILES IDX 8 1 9 2 10 3 11 4 12 5 13 6 14 7 15 8 16 9 7 10 6 11 5 12
REMARK SMILES IDX 4 13 3 14 2 15 1 16
REMARK H PARENT
REMARK Flexibility Score: inf
ROOT
ATOM      1  C   UNL     1      -9.354  10.181 -19.776  1.00  0.00     0.000 C 
ENDROOT
BRANCH   1   2
ATOM      2  C   UNL     1     -10.068   9.764 -18.482  1.00  0.00     0.000 C 
BRANCH   2   3
ATOM      3  C   UNL     1      -9.370   8.565 -17.829  1.00  0.00     0.000 C 
BRANCH   3   4
ATOM      4  C   UNL     1      -9.805   7.249 -18.491  1.00  0.00     0.000 C 
BRANCH   4   5
ATOM      5  C   UNL     1      -8.636   6.487 -19.142  1.00  0.00     0.006 C 
BRANCH   5   6
ATOM      6  C   UNL     1      -9.060   5.199 -19.870  1.00  0.00     0.053 C 
BRANCH   6   7
ATOM      7  C   UNL     1      -8.076   4.776 -20.919  1.00  0.00     0.041 C 
ATOM      8  O   UNL     1      -7.068   4.089 -20.605  1.00  0.00    -0.550 OA
ATOM      9  O   UNL     1      -8.288   5.115 -22.249  1.00  0.00    -0.550 OA
ENDBRANCH   6   7
ENDBRANCH   5   6
ENDBRANCH   4   5
ENDBRANCH   3   4
ENDBRANCH   2   3
ENDBRANCH   1   2
BRANCH   1  10
ATOM     10  C   UNL     1     -10.340  10.603 -20.886  1.00  0.00     0.000 C 
BRANCH  10  11
ATOM     11  C   UNL     1     -10.123   9.868 -22.222  1.00  0.00    -0.000 C 
BRANCH  11  12
ATOM     12  C   UNL     1      -9.853   8.356 -22.100  1.00  0.00    -0.000 C 
BRANCH  12  13
ATOM     13  C   UNL     1     -10.972   7.446 -22.639  1.00  0.00    -0.000 C 
BRANCH  13  14
ATOM     14  C   UNL     1     -11.882   6.897 -21.527  1.00  0.00    -0.000 C 
BRANCH  14  15
ATOM     15  C   UNL     1     -13.111   7.785 -21.281  1.00  0.00    -0.003 C 
ATOM     16  C   UNL     1     -13.088   8.460 -19.909  1.00  0.00     0.004 C 
ENDBRANCH  14  15
ENDBRANCH  13  14
ENDBRANCH  12  13
ENDBRANCH  11  12
ENDBRANCH  10  11
ENDBRANCH   1  10
TORSDOF 12
ENDMDL
