MODEL 1
REMARK VINA RESULT:    -4.537      0.000      0.000
REMARK INTER + INTRA:          -5.993
REMARK INTER:                  -6.128
REMARK INTRA:                   0.135
REMARK UNBOUND:                 0.135
REMARK SMILES C=C1C(=O)O[C@@H]2[C@@H]1CCC(C)=CCC[C@]1(C)O[C@@H]21
REMARK SMILES IDX 6 1 7 2 2 3 1 4 3 5 4 6 5 7 8 8 9 9 10 10 11 11 12 12 18 14
REMARK SMILES IDX 15 15 17 16 16 17 14 18 13 19
REMARK H PARENT
REMARK Flexibility Score: 70.00
ROOT
ATOM      1  C   UNL     1      56.572  57.629 248.504  1.00  0.00     0.216 C 
ATOM      2  C   UNL     1      57.834  58.098 247.731  1.00  0.00     0.070 C 
ATOM      3  C   UNL     1      58.926  57.365 248.446  1.00  0.00     0.037 C 
ATOM      4  C   UNL     1      60.200  57.268 248.069  1.00  0.00     0.021 C 
ATOM      5  C   UNL     1      58.389  57.020 249.749  1.00  0.00     0.334 C 
ATOM      6  O   UNL     1      59.048  56.556 250.716  1.00  0.00    -0.247 OA
ATOM      7  O   UNL     1      57.039  57.316 249.812  1.00  0.00    -0.455 OA
ENDROOT
BRANCH   2   8
ATOM      8  C   UNL     1      57.706  57.871 246.197  1.00  0.00     0.017 C 
BRANCH   8   9
ATOM      9  C   UNL     1      58.053  59.095 245.310  1.00  0.00     0.031 C 
BRANCH   9  10
ATOM     10  C   UNL     1      57.710  60.469 245.883  1.00  0.00    -0.077 C 
ATOM     11  C   UNL     1      58.845  61.342 246.366  1.00  0.00     0.039 C 
ATOM     12  C   UNL     1      56.458  60.986 245.964  1.00  0.00    -0.028 CG0
ATOM     13  G   UNL     1      55.172  60.332 245.515  1.00  0.00     0.000 G0
ENDBRANCH   9  10
ENDBRANCH   8   9
ENDBRANCH   2   8
BRANCH   1  14
ATOM     14  C   UNL     1      55.527  58.749 248.474  1.00  0.00     0.192 C 
ATOM     15  C   UNL     1      54.569  58.672 247.326  1.00  0.00     0.096 C 
ATOM     16  O   UNL     1      54.165  58.432 248.661  1.00  0.00    -0.362 OA
ATOM     17  C   UNL     1      54.275  57.423 246.476  1.00  0.00     0.045 C 
BRANCH  15  18
ATOM     18  C   UNL     1      54.229  60.039 246.724  1.00  0.00     0.042 C 
BRANCH  18  19
ATOM     19  C   UNL     1      55.151  60.327 245.517  1.00  0.00     0.030 CG0
ATOM     20  G   UNL     1      56.441  60.978 245.955  1.00  0.00     0.000 G0
ENDBRANCH  18  19
ENDBRANCH  15  18
ENDBRANCH   1  14
TORSDOF 0
ENDMDL
MODEL 2
REMARK VINA RESULT:    -4.531      3.326      4.784
REMARK INTER + INTRA:          -5.985
REMARK INTER:                  -6.104
REMARK INTRA:                   0.118
REMARK UNBOUND:                 0.135
REMARK SMILES C=C1C(=O)O[C@@H]2[C@@H]1CCC(C)=CCC[C@]1(C)O[C@@H]21
REMARK SMILES IDX 6 1 7 2 2 3 1 4 3 5 4 6 5 7 8 8 9 9 10 10 11 11 12 12 18 14
REMARK SMILES IDX 15 15 17 16 16 17 14 18 13 19
REMARK H PARENT
REMARK Flexibility Score: 70.00
ROOT
ATOM      1  C   UNL     1      55.136  60.029 245.211  1.00  0.00     0.216 C 
ATOM      2  C   UNL     1      55.400  60.251 246.724  1.00  0.00     0.070 C 
ATOM      3  C   UNL     1      56.894  60.352 246.767  1.00  0.00     0.037 C 
ATOM      4  C   UNL     1      57.638  60.727 247.806  1.00  0.00     0.021 C 
ATOM      5  C   UNL     1      57.372  59.709 245.557  1.00  0.00     0.334 C 
ATOM      6  O   UNL     1      58.572  59.424 245.301  1.00  0.00    -0.247 OA
ATOM      7  O   UNL     1      56.314  59.396 244.722  1.00  0.00    -0.455 OA
ENDROOT
BRANCH   2   8
ATOM      8  C   UNL     1      54.587  61.448 247.297  1.00  0.00     0.017 C 
BRANCH   8   9
ATOM      9  C   UNL     1      53.796  61.155 248.599  1.00  0.00     0.031 C 
BRANCH   9  10
ATOM     10  C   UNL     1      53.222  59.747 248.743  1.00  0.00    -0.077 C 
ATOM     11  C   UNL     1      53.865  58.815 249.743  1.00  0.00     0.039 C 
ATOM     12  C   UNL     1      52.149  59.272 248.060  1.00  0.00    -0.028 CG0
ATOM     13  G   UNL     1      51.316  60.015 247.042  1.00  0.00     0.000 G0
ENDBRANCH   9  10
ENDBRANCH   8   9
ENDBRANCH   2   8
BRANCH   1  14
ATOM     14  C   UNL     1      53.869  59.183 245.048  1.00  0.00     0.192 C 
ATOM     15  C   UNL     1      52.610  59.977 244.890  1.00  0.00     0.096 C 
ATOM     16  O   UNL     1      53.162  59.221 243.829  1.00  0.00    -0.362 OA
ATOM     17  C   UNL     1      52.520  61.454 244.466  1.00  0.00     0.045 C 
BRANCH  15  18
ATOM     18  C   UNL     1      51.413  59.375 245.633  1.00  0.00     0.042 C 
BRANCH  18  19
ATOM     19  C   UNL     1      51.294  60.007 247.038  1.00  0.00     0.030 CG0
ATOM     20  G   UNL     1      52.140  59.266 248.046  1.00  0.00     0.000 G0
ENDBRANCH  18  19
ENDBRANCH  15  18
ENDBRANCH   1  14
TORSDOF 0
ENDMDL
MODEL 3
REMARK VINA RESULT:    -4.499      2.590      5.659
REMARK INTER + INTRA:          -5.942
REMARK INTER:                  -6.086
REMARK INTRA:                   0.144
REMARK UNBOUND:                 0.135
REMARK SMILES C=C1C(=O)O[C@@H]2[C@@H]1CCC(C)=CCC[C@]1(C)O[C@@H]21
REMARK SMILES IDX 6 1 7 2 2 3 1 4 3 5 4 6 5 7 8 8 9 9 10 10 11 11 12 12 18 14
REMARK SMILES IDX 15 15 17 16 16 17 14 18 13 19
REMARK H PARENT
REMARK Flexibility Score: 70.00
ROOT
ATOM      1  C   UNL     1      52.284  58.287 247.682  1.00  0.00     0.216 C 
ATOM      2  C   UNL     1      52.013  59.384 246.618  1.00  0.00     0.070 C 
ATOM      3  C   UNL     1      50.517  59.431 246.595  1.00  0.00     0.037 C 
ATOM      4  C   UNL     1      49.757  60.337 245.981  1.00  0.00     0.021 C 
ATOM      5  C   UNL     1      50.070  58.160 247.135  1.00  0.00     0.334 C 
ATOM      6  O   UNL     1      48.886  57.731 247.120  1.00  0.00    -0.247 OA
ATOM      7  O   UNL     1      51.140  57.442 247.637  1.00  0.00    -0.455 OA
ENDROOT
BRANCH   2   8
ATOM      8  C   UNL     1      52.764  60.711 246.932  1.00  0.00     0.017 C 
BRANCH   8   9
ATOM      9  C   UNL     1      53.587  61.305 245.759  1.00  0.00     0.031 C 
BRANCH   9  10
ATOM     10  C   UNL     1      54.228  60.302 244.801  1.00  0.00    -0.077 C 
ATOM     11  C   UNL     1      53.616  60.135 243.430  1.00  0.00     0.039 C 
ATOM     12  C   UNL     1      55.334  59.564 245.076  1.00  0.00    -0.028 CG0
ATOM     13  G   UNL     1      56.146  59.580 246.350  1.00  0.00     0.000 G0
ENDBRANCH   9  10
ENDBRANCH   8   9
ENDBRANCH   2   8
BRANCH   1  14
ATOM     14  C   UNL     1      53.594  57.572 247.334  1.00  0.00     0.192 C 
ATOM     15  C   UNL     1      54.810  58.155 247.983  1.00  0.00     0.096 C 
ATOM     16  O   UNL     1      54.299  56.886 248.344  1.00  0.00    -0.362 OA
ATOM     17  C   UNL     1      54.824  59.066 249.223  1.00  0.00     0.045 C 
BRANCH  15  18
ATOM     18  C   UNL     1      56.036  58.184 247.065  1.00  0.00     0.042 C 
BRANCH  18  19
ATOM     19  C   UNL     1      56.133  59.555 246.358  1.00  0.00     0.030 CG0
ATOM     20  G   UNL     1      55.343  59.565 245.071  1.00  0.00     0.000 G0
ENDBRANCH  18  19
ENDBRANCH  15  18
ENDBRANCH   1  14
TORSDOF 0
ENDMDL
MODEL 4
REMARK VINA RESULT:    -4.412      2.854      4.339
REMARK INTER + INTRA:          -5.825
REMARK INTER:                  -6.266
REMARK INTRA:                   0.441
REMARK UNBOUND:                 0.135
REMARK SMILES C=C1C(=O)O[C@@H]2[C@@H]1CCC(C)=CCC[C@]1(C)O[C@@H]21
REMARK SMILES IDX 6 1 7 2 2 3 1 4 3 5 4 6 5 7 8 8 9 9 10 10 11 11 12 12 18 14
REMARK SMILES IDX 15 15 17 16 16 17 14 18 13 19
REMARK H PARENT
REMARK Flexibility Score: 70.00
ROOT
ATOM      1  C   UNL     1      56.362  60.249 246.330  1.00  0.00     0.216 C 
ATOM      2  C   UNL     1      56.520  58.719 246.124  1.00  0.00     0.070 C 
ATOM      3  C   UNL     1      58.005  58.574 245.999  1.00  0.00     0.037 C 
ATOM      4  C   UNL     1      58.697  57.436 245.990  1.00  0.00     0.021 C 
ATOM      5  C   UNL     1      58.503  59.884 245.621  1.00  0.00     0.334 C 
ATOM      6  O   UNL     1      59.676  60.143 245.244  1.00  0.00    -0.247 OA
ATOM      7  O   UNL     1      57.490  60.825 245.682  1.00  0.00    -0.455 OA
ENDROOT
BRANCH   2   8
ATOM      8  C   UNL     1      55.814  57.895 247.240  1.00  0.00     0.017 C 
BRANCH   8   9
ATOM      9  C   UNL     1      54.736  56.894 246.749  1.00  0.00     0.031 C 
BRANCH   9  10
ATOM     10  C   UNL     1      53.326  57.084 247.306  1.00  0.00    -0.077 C 
ATOM     11  C   UNL     1      52.884  56.194 248.443  1.00  0.00     0.039 C 
ATOM     12  C   UNL     1      52.442  58.022 246.878  1.00  0.00    -0.028 CG0
ATOM     13  G   UNL     1      52.659  59.048 245.792  1.00  0.00     0.000 G0
ENDBRANCH   9  10
ENDBRANCH   8   9
ENDBRANCH   2   8
BRANCH   1  14
ATOM     14  C   UNL     1      55.019  60.693 245.741  1.00  0.00     0.192 C 
ATOM     15  C   UNL     1      53.956  60.969 246.758  1.00  0.00     0.096 C 
ATOM     16  O   UNL     1      54.550  61.999 245.989  1.00  0.00    -0.362 OA
ATOM     17  C   UNL     1      54.189  61.256 248.253  1.00  0.00     0.045 C 
BRANCH  15  18
ATOM     18  C   UNL     1      52.566  60.488 246.333  1.00  0.00     0.042 C 
BRANCH  18  19
ATOM     19  C   UNL     1      52.654  59.047 245.782  1.00  0.00     0.030 CG0
ATOM     20  G   UNL     1      52.454  58.027 246.877  1.00  0.00     0.000 G0
ENDBRANCH  18  19
ENDBRANCH  15  18
ENDBRANCH   1  14
TORSDOF 0
ENDMDL
MODEL 5
REMARK VINA RESULT:    -4.391      2.559      4.962
REMARK INTER + INTRA:          -5.796
REMARK INTER:                  -6.297
REMARK INTRA:                   0.502
REMARK UNBOUND:                 0.135
REMARK SMILES C=C1C(=O)O[C@@H]2[C@@H]1CCC(C)=CCC[C@]1(C)O[C@@H]21
REMARK SMILES IDX 6 1 7 2 2 3 1 4 3 5 4 6 5 7 8 8 9 9 10 10 11 11 12 12 18 14
REMARK SMILES IDX 15 15 17 16 16 17 14 18 13 19
REMARK H PARENT
REMARK Flexibility Score: 70.00
ROOT
ATOM      1  C   UNL     1      57.424  58.259 246.675  1.00  0.00     0.216 C 
ATOM      2  C   UNL     1      57.156  59.719 246.220  1.00  0.00     0.070 C 
ATOM      3  C   UNL     1      55.661  59.747 246.131  1.00  0.00     0.037 C 
ATOM      4  C   UNL     1      54.893  60.821 245.958  1.00  0.00     0.021 C 
ATOM      5  C   UNL     1      55.244  58.363 246.000  1.00  0.00     0.334 C 
ATOM      6  O   UNL     1      54.081  57.970 245.719  1.00  0.00    -0.247 OA
ATOM      7  O   UNL     1      56.320  57.512 246.178  1.00  0.00    -0.455 OA
ENDROOT
BRANCH   2   8
ATOM      8  C   UNL     1      57.835  60.764 247.152  1.00  0.00     0.017 C 
BRANCH   8   9
ATOM      9  C   UNL     1      58.985  61.583 246.509  1.00  0.00     0.031 C 
BRANCH   9  10
ATOM     10  C   UNL     1      60.351  61.486 247.187  1.00  0.00    -0.077 C 
ATOM     11  C   UNL     1      60.704  62.523 248.227  1.00  0.00     0.039 C 
ATOM     12  C   UNL     1      61.268  60.514 246.950  1.00  0.00    -0.028 CG0
ATOM     13  G   UNL     1      61.136  59.352 245.994  1.00  0.00     0.000 G0
ENDBRANCH   9  10
ENDBRANCH   8   9
ENDBRANCH   2   8
BRANCH   1  14
ATOM     14  C   UNL     1      58.777  57.807 246.116  1.00  0.00     0.192 C 
ATOM     15  C   UNL     1      59.814  57.522 247.157  1.00  0.00     0.096 C 
ATOM     16  O   UNL     1      59.231  56.497 246.374  1.00  0.00    -0.362 OA
ATOM     17  C   UNL     1      59.546  57.236 248.645  1.00  0.00     0.045 C 
BRANCH  15  18
ATOM     18  C   UNL     1      61.217  57.994 246.764  1.00  0.00     0.042 C 
BRANCH  18  19
ATOM     19  C   UNL     1      61.127  59.337 246.005  1.00  0.00     0.030 CG0
ATOM     20  G   UNL     1      61.269  60.510 246.947  1.00  0.00     0.000 G0
ENDBRANCH  18  19
ENDBRANCH  15  18
ENDBRANCH   1  14
TORSDOF 0
ENDMDL
MODEL 6
REMARK VINA RESULT:    -4.361      2.500      4.894
REMARK INTER + INTRA:          -5.755
REMARK INTER:                  -5.908
REMARK INTRA:                   0.153
REMARK UNBOUND:                 0.135
REMARK SMILES C=C1C(=O)O[C@@H]2[C@@H]1CCC(C)=CCC[C@]1(C)O[C@@H]21
REMARK SMILES IDX 6 1 7 2 2 3 1 4 3 5 4 6 5 7 8 8 9 9 10 10 11 11 12 12 18 14
REMARK SMILES IDX 15 15 17 16 16 17 14 18 13 19
REMARK H PARENT
REMARK Flexibility Score: 70.00
ROOT
ATOM      1  C   UNL     1      56.871  61.284 248.466  1.00  0.00     0.216 C 
ATOM      2  C   UNL     1      55.687  60.659 247.681  1.00  0.00     0.070 C 
ATOM      3  C   UNL     1      54.509  61.355 248.290  1.00  0.00     0.037 C 
ATOM      4  C   UNL     1      53.251  61.323 247.854  1.00  0.00     0.021 C 
ATOM      5  C   UNL     1      54.957  61.840 249.583  1.00  0.00     0.334 C 
ATOM      6  O   UNL     1      54.219  62.322 250.482  1.00  0.00    -0.247 OA
ATOM      7  O   UNL     1      56.321  61.657 249.725  1.00  0.00    -0.455 OA
ENDROOT
BRANCH   2   8
ATOM      8  C   UNL     1      55.869  60.780 246.140  1.00  0.00     0.017 C 
BRANCH   8   9
ATOM      9  C   UNL     1      55.669  59.466 245.340  1.00  0.00     0.031 C 
BRANCH   9  10
ATOM     10  C   UNL     1      56.095  58.174 246.036  1.00  0.00    -0.077 C 
ATOM     11  C   UNL     1      55.014  57.248 246.541  1.00  0.00     0.039 C 
ATOM     12  C   UNL     1      57.380  57.774 246.210  1.00  0.00    -0.028 CG0
ATOM     13  G   UNL     1      58.628  58.499 245.763  1.00  0.00     0.000 G0
ENDBRANCH   9  10
ENDBRANCH   8   9
ENDBRANCH   2   8
BRANCH   1  14
ATOM     14  C   UNL     1      57.999  60.252 248.567  1.00  0.00     0.192 C 
ATOM     15  C   UNL     1      59.003  60.320 247.460  1.00  0.00     0.096 C 
ATOM     16  O   UNL     1      59.321  60.687 248.789  1.00  0.00    -0.362 OA
ATOM     17  C   UNL     1      59.244  61.523 246.531  1.00  0.00     0.045 C 
BRANCH  15  18
ATOM     18  C   UNL     1      59.475  58.944 246.980  1.00  0.00     0.042 C 
BRANCH  18  19
ATOM     19  C   UNL     1      58.639  58.497 245.760  1.00  0.00     0.030 CG0
ATOM     20  G   UNL     1      57.389  57.766 246.189  1.00  0.00     0.000 G0
ENDBRANCH  18  19
ENDBRANCH  15  18
ENDBRANCH   1  14
TORSDOF 0
ENDMDL
MODEL 7
REMARK VINA RESULT:    -4.284      3.742      5.426
REMARK INTER + INTRA:          -5.651
REMARK INTER:                  -5.820
REMARK INTRA:                   0.168
REMARK UNBOUND:                 0.135
REMARK SMILES C=C1C(=O)O[C@@H]2[C@@H]1CCC(C)=CCC[C@]1(C)O[C@@H]21
REMARK SMILES IDX 6 1 7 2 2 3 1 4 3 5 4 6 5 7 8 8 9 9 10 10 11 11 12 12 18 14
REMARK SMILES IDX 15 15 17 16 16 17 14 18 13 19
REMARK H PARENT
REMARK Flexibility Score: 70.00
ROOT
ATOM      1  C   UNL     1      62.289  58.482 246.388  1.00  0.00     0.216 C 
ATOM      2  C   UNL     1      62.156  59.537 247.518  1.00  0.00     0.070 C 
ATOM      3  C   UNL     1      63.587  59.873 247.800  1.00  0.00     0.037 C 
ATOM      4  C   UNL     1      64.037  60.866 248.565  1.00  0.00     0.021 C 
ATOM      5  C   UNL     1      64.365  58.753 247.303  1.00  0.00     0.334 C 
ATOM      6  O   UNL     1      65.593  58.563 247.507  1.00  0.00    -0.247 OA
ATOM      7  O   UNL     1      63.559  57.875 246.601  1.00  0.00    -0.455 OA
ENDROOT
BRANCH   2   8
ATOM      8  C   UNL     1      61.211  60.709 247.124  1.00  0.00     0.017 C 
BRANCH   8   9
ATOM      9  C   UNL     1      60.054  60.996 248.117  1.00  0.00     0.031 C 
BRANCH   9  10
ATOM     10  C   UNL     1      59.463  59.787 248.840  1.00  0.00    -0.077 C 
ATOM     11  C   UNL     1      59.771  59.616 250.309  1.00  0.00     0.039 C 
ATOM     12  C   UNL     1      58.650  58.862 248.269  1.00  0.00    -0.028 CG0
ATOM     13  G   UNL     1      58.166  58.834 246.839  1.00  0.00     0.000 G0
ENDBRANCH   9  10
ENDBRANCH   8   9
ENDBRANCH   2   8
BRANCH   1  14
ATOM     14  C   UNL     1      61.114  57.503 246.481  1.00  0.00     0.192 C 
ATOM     15  C   UNL     1      60.008  57.766 245.508  1.00  0.00     0.096 C 
ATOM     16  O   UNL     1      60.848  56.632 245.405  1.00  0.00    -0.362 OA
ATOM     17  C   UNL     1      60.120  58.597 244.217  1.00  0.00     0.045 C 
BRANCH  15  18
ATOM     18  C   UNL     1      58.611  57.555 246.100  1.00  0.00     0.042 C 
BRANCH  18  19
ATOM     19  C   UNL     1      58.151  58.835 246.832  1.00  0.00     0.030 CG0
ATOM     20  G   UNL     1      58.632  58.851 248.264  1.00  0.00     0.000 G0
ENDBRANCH  18  19
ENDBRANCH  15  18
ENDBRANCH   1  14
TORSDOF 0
ENDMDL
MODEL 8
REMARK VINA RESULT:    -4.255      3.575      6.305
REMARK INTER + INTRA:          -5.613
REMARK INTER:                  -6.015
REMARK INTRA:                   0.403
REMARK UNBOUND:                 0.135
REMARK SMILES C=C1C(=O)O[C@@H]2[C@@H]1CCC(C)=CCC[C@]1(C)O[C@@H]21
REMARK SMILES IDX 6 1 7 2 2 3 1 4 3 5 4 6 5 7 8 8 9 9 10 10 11 11 12 12 18 14
REMARK SMILES IDX 15 15 17 16 16 17 14 18 13 19
REMARK H PARENT
REMARK Flexibility Score: 70.00
ROOT
ATOM      1  C   UNL     1      51.819  60.017 246.077  1.00  0.00     0.216 C 
ATOM      2  C   UNL     1      51.485  59.257 247.388  1.00  0.00     0.070 C 
ATOM      3  C   UNL     1      49.992  59.166 247.323  1.00  0.00     0.037 C 
ATOM      4  C   UNL     1      49.201  58.446 248.117  1.00  0.00     0.021 C 
ATOM      5  C   UNL     1      49.568  60.216 246.415  1.00  0.00     0.334 C 
ATOM      6  O   UNL     1      48.380  60.590 246.227  1.00  0.00    -0.247 OA
ATOM      7  O   UNL     1      50.663  60.800 245.802  1.00  0.00    -0.455 OA
ENDROOT
BRANCH   2   8
ATOM      8  C   UNL     1      52.276  57.922 247.517  1.00  0.00     0.017 C 
BRANCH   8   9
ATOM      9  C   UNL     1      53.530  57.801 246.612  1.00  0.00     0.031 C 
BRANCH   9  10
ATOM     10  C   UNL     1      54.884  57.860 247.316  1.00  0.00    -0.077 C 
ATOM     11  C   UNL     1      55.034  57.136 248.633  1.00  0.00     0.039 C 
ATOM     12  C   UNL     1      55.984  58.492 246.832  1.00  0.00    -0.028 CG0
ATOM     13  G   UNL     1      56.100  59.247 245.529  1.00  0.00     0.000 G0
ENDBRANCH   9  10
ENDBRANCH   8   9
ENDBRANCH   2   8
BRANCH   1  14
ATOM     14  C   UNL     1      53.089  60.846 246.294  1.00  0.00     0.192 C 
ATOM     15  C   UNL     1      54.091  60.747 245.188  1.00  0.00     0.096 C 
ATOM     16  O   UNL     1      53.362  61.934 245.440  1.00  0.00    -0.362 OA
ATOM     17  C   UNL     1      53.807  60.275 243.750  1.00  0.00     0.045 C 
BRANCH  15  18
ATOM     18  C   UNL     1      55.541  60.695 245.681  1.00  0.00     0.042 C 
BRANCH  18  19
ATOM     19  C   UNL     1      56.098  59.262 245.527  1.00  0.00     0.030 CG0
ATOM     20  G   UNL     1      55.989  58.489 246.820  1.00  0.00     0.000 G0
ENDBRANCH  18  19
ENDBRANCH  15  18
ENDBRANCH   1  14
TORSDOF 0
ENDMDL
MODEL 9
REMARK VINA RESULT:    -4.218      3.165      4.375
REMARK INTER + INTRA:          -5.563
REMARK INTER:                  -6.033
REMARK INTRA:                   0.471
REMARK UNBOUND:                 0.135
REMARK SMILES C=C1C(=O)O[C@@H]2[C@@H]1CCC(C)=CCC[C@]1(C)O[C@@H]21
REMARK SMILES IDX 6 1 7 2 2 3 1 4 3 5 4 6 5 7 8 8 9 9 10 10 11 11 12 12 18 14
REMARK SMILES IDX 15 15 17 16 16 17 14 18 13 19
REMARK H PARENT
REMARK Flexibility Score: 70.00
ROOT
ATOM      1  C   UNL     1      52.189  58.241 246.745  1.00  0.00     0.216 C 
ATOM      2  C   UNL     1      53.463  57.655 247.409  1.00  0.00     0.070 C 
ATOM      3  C   UNL     1      52.966  56.343 247.931  1.00  0.00     0.037 C 
ATOM      4  C   UNL     1      53.703  55.353 248.433  1.00  0.00     0.021 C 
ATOM      5  C   UNL     1      51.524  56.475 248.033  1.00  0.00     0.334 C 
ATOM      6  O   UNL     1      50.749  55.658 248.597  1.00  0.00    -0.247 OA
ATOM      7  O   UNL     1      51.103  57.662 247.460  1.00  0.00    -0.455 OA
ENDROOT
BRANCH   2   8
ATOM      8  C   UNL     1      54.676  57.622 246.434  1.00  0.00     0.017 C 
BRANCH   8   9
ATOM      9  C   UNL     1      55.971  58.296 246.958  1.00  0.00     0.031 C 
BRANCH   9  10
ATOM     10  C   UNL     1      56.527  59.446 246.119  1.00  0.00    -0.077 C 
ATOM     11  C   UNL     1      57.716  59.167 245.230  1.00  0.00     0.039 C 
ATOM     12  C   UNL     1      56.011  60.701 246.083  1.00  0.00    -0.028 CG0
ATOM     13  G   UNL     1      54.811  61.214 246.844  1.00  0.00     0.000 G0
ENDBRANCH   9  10
ENDBRANCH   8   9
ENDBRANCH   2   8
BRANCH   1  14
ATOM     14  C   UNL     1      52.241  59.770 246.835  1.00  0.00     0.192 C 
ATOM     15  C   UNL     1      52.760  60.446 245.604  1.00  0.00     0.096 C 
ATOM     16  O   UNL     1      51.405  60.543 246.003  1.00  0.00    -0.362 OA
ATOM     17  C   UNL     1      52.829  59.830 244.196  1.00  0.00     0.045 C 
BRANCH  15  18
ATOM     18  C   UNL     1      53.667  61.643 245.903  1.00  0.00     0.042 C 
BRANCH  18  19
ATOM     19  C   UNL     1      54.811  61.213 246.849  1.00  0.00     0.030 CG0
ATOM     20  G   UNL     1      56.002  60.703 246.073  1.00  0.00     0.000 G0
ENDBRANCH  18  19
ENDBRANCH  15  18
ENDBRANCH   1  14
TORSDOF 0
ENDMDL
