MODEL 1
REMARK VINA RESULT:    -2.917      0.000      0.000
REMARK INTER + INTRA:          -3.538
REMARK INTER:                  -3.429
REMARK INTRA:                  -0.109
REMARK UNBOUND:                -0.109
REMARK SMILES CCCCC(=O)[O-]
REMARK SMILES IDX 4 1 5 2 6 3 7 4 3 5 2 6 1 7
REMARK H PARENT
REMARK Flexibility Score: inf
ROOT
ATOM      1  C   UNL     1       6.522  43.965  11.799  1.00  0.00     0.053 C 
ENDROOT
BRANCH   1   2
ATOM      2  C   UNL     1       6.660  42.942  12.885  1.00  0.00     0.041 C 
ATOM      3  O   UNL     1       7.572  42.075  12.829  1.00  0.00    -0.550 OA
ATOM      4  O   UNL     1       5.765  42.928  13.946  1.00  0.00    -0.550 OA
ENDBRANCH   1   2
BRANCH   1   5
ATOM      5  C   UNL     1       5.527  45.082  12.159  1.00  0.00     0.006 C 
BRANCH   5   6
ATOM      6  C   UNL     1       4.284  45.125  11.252  1.00  0.00    -0.003 C 
ATOM      7  C   UNL     1       3.264  44.035  11.577  1.00  0.00     0.004 C 
ENDBRANCH   5   6
ENDBRANCH   1   5
TORSDOF 3
ENDMDL
MODEL 2
REMARK VINA RESULT:    -2.904      1.014      1.845
REMARK INTER + INTRA:          -3.522
REMARK INTER:                  -3.432
REMARK INTRA:                  -0.090
REMARK UNBOUND:                -0.109
REMARK SMILES CCCCC(=O)[O-]
REMARK SMILES IDX 4 1 5 2 6 3 7 4 3 5 2 6 1 7
REMARK H PARENT
REMARK Flexibility Score: inf
ROOT
ATOM      1  C   UNL     1       5.375  45.102  12.186  1.00  0.00     0.053 C 
ENDROOT
BRANCH   1   2
ATOM      2  C   UNL     1       6.002  43.770  12.465  1.00  0.00     0.041 C 
ATOM      3  O   UNL     1       5.899  43.245  13.606  1.00  0.00    -0.550 OA
ATOM      4  O   UNL     1       6.726  43.120  11.474  1.00  0.00    -0.550 OA
ENDBRANCH   1   2
BRANCH   1   5
ATOM      5  C   UNL     1       4.199  45.010  11.199  1.00  0.00     0.006 C 
BRANCH   5   6
ATOM      6  C   UNL     1       3.099  44.023  11.630  1.00  0.00    -0.003 C 
ATOM      7  C   UNL     1       2.382  43.367  10.451  1.00  0.00     0.004 C 
ENDBRANCH   5   6
ENDBRANCH   1   5
TORSDOF 3
ENDMDL
MODEL 3
REMARK VINA RESULT:    -2.828      2.462      3.558
REMARK INTER + INTRA:          -3.433
REMARK INTER:                  -3.371
REMARK INTRA:                  -0.062
REMARK UNBOUND:                -0.109
REMARK SMILES CCCCC(=O)[O-]
REMARK SMILES IDX 4 1 5 2 6 3 7 4 3 5 2 6 1 7
REMARK H PARENT
REMARK Flexibility Score: inf
ROOT
ATOM      1  C   UNL     1       5.256  44.266  12.411  1.00  0.00     0.053 C 
ENDROOT
BRANCH   1   2
ATOM      2  C   UNL     1       4.055  44.360  11.519  1.00  0.00     0.041 C 
ATOM      3  O   UNL     1       4.064  45.125  10.518  1.00  0.00    -0.550 OA
ATOM      4  O   UNL     1       2.913  43.626  11.811  1.00  0.00    -0.550 OA
ENDBRANCH   1   2
BRANCH   1   5
ATOM      5  C   UNL     1       6.547  44.735  11.718  1.00  0.00     0.006 C 
BRANCH   5   6
ATOM      6  C   UNL     1       7.507  43.589  11.349  1.00  0.00    -0.003 C 
ATOM      7  C   UNL     1       7.577  42.496  12.413  1.00  0.00     0.004 C 
ENDBRANCH   5   6
ENDBRANCH   1   5
TORSDOF 3
ENDMDL
MODEL 4
REMARK VINA RESULT:    -2.693      3.080      4.311
REMARK INTER + INTRA:          -3.274
REMARK INTER:                  -3.212
REMARK INTRA:                  -0.062
REMARK UNBOUND:                -0.109
REMARK SMILES CCCCC(=O)[O-]
REMARK SMILES IDX 4 1 5 2 6 3 7 4 3 5 2 6 1 7
REMARK H PARENT
REMARK Flexibility Score: inf
ROOT
ATOM      1  C   UNL     1       3.180  43.308   9.992  1.00  0.00     0.053 C 
ENDROOT
BRANCH   1   2
ATOM      2  C   UNL     1       1.948  43.266  10.844  1.00  0.00     0.041 C 
ATOM      3  O   UNL     1       1.941  43.814  11.979  1.00  0.00    -0.550 OA
ATOM      4  O   UNL     1       0.816  42.597  10.399  1.00  0.00    -0.550 OA
ENDBRANCH   1   2
BRANCH   1   5
ATOM      5  C   UNL     1       4.101  44.491  10.336  1.00  0.00     0.006 C 
BRANCH   5   6
ATOM      6  C   UNL     1       5.386  44.086  11.079  1.00  0.00    -0.003 C 
ATOM      7  C   UNL     1       5.845  45.125  12.100  1.00  0.00     0.004 C 
ENDBRANCH   5   6
ENDBRANCH   1   5
TORSDOF 3
ENDMDL
MODEL 5
REMARK VINA RESULT:    -2.549     21.490     22.758
REMARK INTER + INTRA:          -3.105
REMARK INTER:                  -3.084
REMARK INTRA:                  -0.021
REMARK UNBOUND:                -0.109
REMARK SMILES CCCCC(=O)[O-]
REMARK SMILES IDX 4 1 5 2 6 3 7 4 3 5 2 6 1 7
REMARK H PARENT
REMARK Flexibility Score: inf
ROOT
ATOM      1  C   UNL     1       5.821  30.108  30.080  1.00  0.00     0.053 C 
ENDROOT
BRANCH   1   2
ATOM      2  C   UNL     1       4.606  30.087  29.202  1.00  0.00     0.041 C 
ATOM      3  O   UNL     1       3.941  29.026  29.063  1.00  0.00    -0.550 OA
ATOM      4  O   UNL     1       4.224  31.231  28.515  1.00  0.00    -0.550 OA
ENDBRANCH   1   2
BRANCH   1   5
ATOM      5  C   UNL     1       6.546  28.752  30.124  1.00  0.00     0.006 C 
BRANCH   5   6
ATOM      6  C   UNL     1       8.078  28.861  30.022  1.00  0.00    -0.003 C 
ATOM      7  C   UNL     1       8.778  27.504  29.994  1.00  0.00     0.004 C 
ENDBRANCH   5   6
ENDBRANCH   1   5
TORSDOF 3
ENDMDL
MODEL 6
REMARK VINA RESULT:    -2.543     22.028     23.129
REMARK INTER + INTRA:          -3.098
REMARK INTER:                  -3.061
REMARK INTRA:                  -0.037
REMARK UNBOUND:                -0.109
REMARK SMILES CCCCC(=O)[O-]
REMARK SMILES IDX 4 1 5 2 6 3 7 4 3 5 2 6 1 7
REMARK H PARENT
REMARK Flexibility Score: inf
ROOT
ATOM      1  C   UNL     1       6.716  29.109  30.086  1.00  0.00     0.053 C 
ENDROOT
BRANCH   1   2
ATOM      2  C   UNL     1       7.823  28.099  30.084  1.00  0.00     0.041 C 
ATOM      3  O   UNL     1       9.025  28.472  30.025  1.00  0.00    -0.550 OA
ATOM      4  O   UNL     1       7.527  26.742  30.119  1.00  0.00    -0.550 OA
ENDBRANCH   1   2
BRANCH   1   5
ATOM      5  C   UNL     1       5.321  28.462  30.125  1.00  0.00     0.006 C 
BRANCH   5   6
ATOM      6  C   UNL     1       4.270  29.195  29.274  1.00  0.00    -0.003 C 
ATOM      7  C   UNL     1       4.618  30.660  29.017  1.00  0.00     0.004 C 
ENDBRANCH   5   6
ENDBRANCH   1   5
TORSDOF 3
ENDMDL
MODEL 7
REMARK VINA RESULT:    -2.360      2.903      3.545
REMARK INTER + INTRA:          -2.883
REMARK INTER:                  -2.914
REMARK INTRA:                   0.031
REMARK UNBOUND:                -0.109
REMARK SMILES CCCCC(=O)[O-]
REMARK SMILES IDX 4 1 5 2 6 3 7 4 3 5 2 6 1 7
REMARK H PARENT
REMARK Flexibility Score: inf
ROOT
ATOM      1  C   UNL     1       7.140  42.394  10.907  1.00  0.00     0.053 C 
ENDROOT
BRANCH   1   2
ATOM      2  C   UNL     1       6.525  43.613  10.289  1.00  0.00     0.041 C 
ATOM      3  O   UNL     1       5.336  43.585   9.875  1.00  0.00    -0.550 OA
ATOM      4  O   UNL     1       7.275  44.773  10.144  1.00  0.00    -0.550 OA
ENDBRANCH   1   2
BRANCH   1   5
ATOM      5  C   UNL     1       7.811  42.688  12.260  1.00  0.00     0.006 C 
BRANCH   5   6
ATOM      6  C   UNL     1       6.925  42.369  13.477  1.00  0.00    -0.003 C 
ATOM      7  C   UNL     1       5.694  43.269  13.579  1.00  0.00     0.004 C 
ENDBRANCH   5   6
ENDBRANCH   1   5
TORSDOF 3
ENDMDL
MODEL 8
REMARK VINA RESULT:    -2.339     12.162     13.520
REMARK INTER + INTRA:          -2.858
REMARK INTER:                  -2.822
REMARK INTRA:                  -0.036
REMARK UNBOUND:                -0.109
REMARK SMILES CCCCC(=O)[O-]
REMARK SMILES IDX 4 1 5 2 6 3 7 4 3 5 2 6 1 7
REMARK H PARENT
REMARK Flexibility Score: inf
ROOT
ATOM      1  C   UNL     1       7.535  31.315  10.701  1.00  0.00     0.053 C 
ENDROOT
BRANCH   1   2
ATOM      2  C   UNL     1       8.466  32.363  11.230  1.00  0.00     0.041 C 
ATOM      3  O   UNL     1       8.953  33.230  10.456  1.00  0.00    -0.550 OA
ATOM      4  O   UNL     1       8.821  32.365  12.572  1.00  0.00    -0.550 OA
ENDBRANCH   1   2
BRANCH   1   5
ATOM      5  C   UNL     1       7.699  29.961  11.413  1.00  0.00     0.006 C 
BRANCH   5   6
ATOM      6  C   UNL     1       9.058  29.284  11.158  1.00  0.00    -0.003 C 
ATOM      7  C   UNL     1       9.036  28.312   9.980  1.00  0.00     0.004 C 
ENDBRANCH   5   6
ENDBRANCH   1   5
TORSDOF 3
ENDMDL
