MODEL 1
REMARK VINA RESULT:    -4.245      0.000      0.000
REMARK INTER + INTRA:          -4.509
REMARK INTER:                  -4.493
REMARK INTRA:                  -0.016
REMARK UNBOUND:                -0.016
REMARK SMILES O=C([O-])c1cccnc1
REMARK SMILES IDX 4 1 5 2 9 3 6 4 8 5 7 6 2 7 1 8 3 9
REMARK H PARENT
REMARK Flexibility Score: inf
ROOT
ATOM      1  C   UNL     1     -40.261  57.028  31.443  1.00  0.00     0.016 A 
ATOM      2  C   UNL     1     -40.934  58.126  30.884  1.00  0.00     0.013 A 
ATOM      3  C   UNL     1     -39.368  56.308  30.630  1.00  0.00     0.120 A 
ATOM      4  C   UNL     1     -40.711  58.482  29.554  1.00  0.00     0.021 A 
ATOM      5  N   UNL     1     -39.168  56.676  29.336  1.00  0.00    -0.264 NA
ATOM      6  C   UNL     1     -39.814  57.738  28.787  1.00  0.00     0.111 A 
ENDROOT
BRANCH   1   7
ATOM      7  C   UNL     1     -40.489  56.641  32.852  1.00  0.00     0.073 C 
ATOM      8  O   UNL     1     -39.684  56.999  33.754  1.00  0.00    -0.545 OA
ATOM      9  O   UNL     1     -41.596  55.876  33.202  1.00  0.00    -0.545 OA
ENDBRANCH   1   7
TORSDOF 1
ENDMDL
MODEL 2
REMARK VINA RESULT:    -4.239     16.116     16.592
REMARK INTER + INTRA:          -4.503
REMARK INTER:                  -4.487
REMARK INTRA:                  -0.016
REMARK UNBOUND:                -0.016
REMARK SMILES O=C([O-])c1cccnc1
REMARK SMILES IDX 4 1 5 2 9 3 6 4 8 5 7 6 2 7 1 8 3 9
REMARK H PARENT
REMARK Flexibility Score: inf
ROOT
ATOM      1  C   UNL     1     -30.211  69.345  34.195  1.00  0.00     0.016 A 
ATOM      2  C   UNL     1     -29.308  69.841  35.149  1.00  0.00     0.013 A 
ATOM      3  C   UNL     1     -31.575  69.652  34.344  1.00  0.00     0.120 A 
ATOM      4  C   UNL     1     -29.768  70.618  36.213  1.00  0.00     0.021 A 
ATOM      5  N   UNL     1     -31.998  70.412  35.390  1.00  0.00    -0.264 NA
ATOM      6  C   UNL     1     -31.132  70.896  36.318  1.00  0.00     0.111 A 
ENDROOT
BRANCH   1   7
ATOM      7  C   UNL     1     -29.735  68.521  33.063  1.00  0.00     0.073 C 
ATOM      8  O   UNL     1     -29.425  69.058  31.965  1.00  0.00    -0.545 OA
ATOM      9  O   UNL     1     -29.624  67.142  33.193  1.00  0.00    -0.545 OA
ENDBRANCH   1   7
TORSDOF 1
ENDMDL
MODEL 3
REMARK VINA RESULT:    -4.162     16.123     16.573
REMARK INTER + INTRA:          -4.422
REMARK INTER:                  -4.406
REMARK INTRA:                  -0.016
REMARK UNBOUND:                -0.016
REMARK SMILES O=C([O-])c1cccnc1
REMARK SMILES IDX 4 1 5 2 9 3 6 4 8 5 7 6 2 7 1 8 3 9
REMARK H PARENT
REMARK Flexibility Score: inf
ROOT
ATOM      1  C   UNL     1     -30.194  69.344  34.209  1.00  0.00     0.016 A 
ATOM      2  C   UNL     1     -31.546  69.686  34.373  1.00  0.00     0.013 A 
ATOM      3  C   UNL     1     -29.267  69.809  35.158  1.00  0.00     0.120 A 
ATOM      4  C   UNL     1     -31.944  70.470  35.458  1.00  0.00     0.021 A 
ATOM      5  N   UNL     1     -29.681  70.570  36.206  1.00  0.00    -0.264 NA
ATOM      6  C   UNL     1     -30.987  70.907  36.374  1.00  0.00     0.111 A 
ENDROOT
BRANCH   1   7
ATOM      7  C   UNL     1     -29.760  68.515  33.063  1.00  0.00     0.073 C 
ATOM      8  O   UNL     1     -29.491  69.047  31.953  1.00  0.00    -0.545 OA
ATOM      9  O   UNL     1     -29.645  67.136  33.196  1.00  0.00    -0.545 OA
ENDBRANCH   1   7
TORSDOF 1
ENDMDL
MODEL 4
REMARK VINA RESULT:    -4.162      3.027      3.748
REMARK INTER + INTRA:          -4.421
REMARK INTER:                  -4.397
REMARK INTRA:                  -0.024
REMARK UNBOUND:                -0.016
REMARK SMILES O=C([O-])c1cccnc1
REMARK SMILES IDX 4 1 5 2 9 3 6 4 8 5 7 6 2 7 1 8 3 9
REMARK H PARENT
REMARK Flexibility Score: inf
ROOT
ATOM      1  C   UNL     1     -40.216  57.626  30.044  1.00  0.00     0.016 A 
ATOM      2  C   UNL     1     -41.119  58.223  30.938  1.00  0.00     0.013 A 
ATOM      3  C   UNL     1     -39.367  56.614  30.526  1.00  0.00     0.120 A 
ATOM      4  C   UNL     1     -41.162  57.811  32.270  1.00  0.00     0.021 A 
ATOM      5  N   UNL     1     -39.430  56.231  31.830  1.00  0.00    -0.264 NA
ATOM      6  C   UNL     1     -40.300  56.802  32.703  1.00  0.00     0.111 A 
ENDROOT
BRANCH   1   7
ATOM      7  C   UNL     1     -40.161  58.054  28.629  1.00  0.00     0.073 C 
ATOM      8  O   UNL     1     -40.798  59.072  28.242  1.00  0.00    -0.545 OA
ATOM      9  O   UNL     1     -39.407  57.340  27.705  1.00  0.00    -0.545 OA
ENDBRANCH   1   7
TORSDOF 1
ENDMDL
MODEL 5
REMARK VINA RESULT:    -4.118      2.911      3.639
REMARK INTER + INTRA:          -4.375
REMARK INTER:                  -4.352
REMARK INTRA:                  -0.022
REMARK UNBOUND:                -0.016
REMARK SMILES O=C([O-])c1cccnc1
REMARK SMILES IDX 4 1 5 2 9 3 6 4 8 5 7 6 2 7 1 8 3 9
REMARK H PARENT
REMARK Flexibility Score: inf
ROOT
ATOM      1  C   UNL     1     -40.778  58.073  30.099  1.00  0.00     0.016 A 
ATOM      2  C   UNL     1     -41.262  58.164  31.414  1.00  0.00     0.013 A 
ATOM      3  C   UNL     1     -39.729  57.175  29.834  1.00  0.00     0.120 A 
ATOM      4  C   UNL     1     -40.705  57.376  32.422  1.00  0.00     0.021 A 
ATOM      5  N   UNL     1     -39.204  56.418  30.834  1.00  0.00    -0.264 NA
ATOM      6  C   UNL     1     -39.666  56.499  32.110  1.00  0.00     0.111 A 
ENDROOT
BRANCH   1   7
ATOM      7  C   UNL     1     -41.360  58.903  29.022  1.00  0.00     0.073 C 
ATOM      8  O   UNL     1     -40.707  59.136  27.969  1.00  0.00    -0.545 OA
ATOM      9  O   UNL     1     -42.636  59.439  29.157  1.00  0.00    -0.545 OA
ENDBRANCH   1   7
TORSDOF 1
ENDMDL
MODEL 6
REMARK VINA RESULT:    -4.033     16.738     17.182
REMARK INTER + INTRA:          -4.285
REMARK INTER:                  -4.264
REMARK INTRA:                  -0.020
REMARK UNBOUND:                -0.016
REMARK SMILES O=C([O-])c1cccnc1
REMARK SMILES IDX 4 1 5 2 9 3 6 4 8 5 7 6 2 7 1 8 3 9
REMARK H PARENT
REMARK Flexibility Score: inf
ROOT
ATOM      1  C   UNL     1     -29.488  69.710  34.941  1.00  0.00     0.016 A 
ATOM      2  C   UNL     1     -29.634  70.495  36.096  1.00  0.00     0.013 A 
ATOM      3  C   UNL     1     -30.636  69.406  34.189  1.00  0.00     0.120 A 
ATOM      4  C   UNL     1     -30.896  70.956  36.475  1.00  0.00     0.021 A 
ATOM      5  N   UNL     1     -31.854  69.868  34.580  1.00  0.00    -0.264 NA
ATOM      6  C   UNL     1     -32.006  70.629  35.696  1.00  0.00     0.111 A 
ENDROOT
BRANCH   1   7
ATOM      7  C   UNL     1     -28.155  69.216  34.529  1.00  0.00     0.073 C 
ATOM      8  O   UNL     1     -27.142  69.961  34.615  1.00  0.00    -0.545 OA
ATOM      9  O   UNL     1     -28.003  67.923  34.041  1.00  0.00    -0.545 OA
ENDBRANCH   1   7
TORSDOF 1
ENDMDL
MODEL 7
REMARK VINA RESULT:    -4.007     16.101     16.507
REMARK INTER + INTRA:          -4.257
REMARK INTER:                  -4.240
REMARK INTRA:                  -0.017
REMARK UNBOUND:                -0.016
REMARK SMILES O=C([O-])c1cccnc1
REMARK SMILES IDX 4 1 5 2 9 3 6 4 8 5 7 6 2 7 1 8 3 9
REMARK H PARENT
REMARK Flexibility Score: inf
ROOT
ATOM      1  C   UNL     1     -30.710  69.857  34.666  1.00  0.00     0.016 A 
ATOM      2  C   UNL     1     -30.903  68.843  33.714  1.00  0.00     0.013 A 
ATOM      3  C   UNL     1     -29.426  70.024  35.214  1.00  0.00     0.120 A 
ATOM      4  C   UNL     1     -29.836  68.028  33.332  1.00  0.00     0.021 A 
ATOM      5  N   UNL     1     -28.403  69.217  34.823  1.00  0.00    -0.264 NA
ATOM      6  C   UNL     1     -28.580  68.233  33.903  1.00  0.00     0.111 A 
ENDROOT
BRANCH   1   7
ATOM      7  C   UNL     1     -31.833  70.726  35.080  1.00  0.00     0.073 C 
ATOM      8  O   UNL     1     -32.787  70.260  35.760  1.00  0.00    -0.545 OA
ATOM      9  O   UNL     1     -31.852  72.070  34.723  1.00  0.00    -0.545 OA
ENDBRANCH   1   7
TORSDOF 1
ENDMDL
MODEL 8
REMARK VINA RESULT:    -3.989      3.568      4.392
REMARK INTER + INTRA:          -4.238
REMARK INTER:                  -4.214
REMARK INTRA:                  -0.024
REMARK UNBOUND:                -0.016
REMARK SMILES O=C([O-])c1cccnc1
REMARK SMILES IDX 4 1 5 2 9 3 6 4 8 5 7 6 2 7 1 8 3 9
REMARK H PARENT
REMARK Flexibility Score: inf
ROOT
ATOM      1  C   UNL     1     -40.888  58.528  28.706  1.00  0.00     0.016 A 
ATOM      2  C   UNL     1     -41.414  58.667  30.000  1.00  0.00     0.013 A 
ATOM      3  C   UNL     1     -39.819  57.635  28.511  1.00  0.00     0.120 A 
ATOM      4  C   UNL     1     -40.879  57.930  31.057  1.00  0.00     0.021 A 
ATOM      5  N   UNL     1     -39.316  56.927  29.559  1.00  0.00    -0.264 NA
ATOM      6  C   UNL     1     -39.819  57.055  30.815  1.00  0.00     0.111 A 
ENDROOT
BRANCH   1   7
ATOM      7  C   UNL     1     -41.446  59.304  27.577  1.00  0.00     0.073 C 
ATOM      8  O   UNL     1     -42.489  59.995  27.729  1.00  0.00    -0.545 OA
ATOM      9  O   UNL     1     -40.828  59.281  26.332  1.00  0.00    -0.545 OA
ENDBRANCH   1   7
TORSDOF 1
ENDMDL
MODEL 9
REMARK VINA RESULT:    -3.967      3.250      4.095
REMARK INTER + INTRA:          -4.215
REMARK INTER:                  -4.192
REMARK INTRA:                  -0.023
REMARK UNBOUND:                -0.016
REMARK SMILES O=C([O-])c1cccnc1
REMARK SMILES IDX 4 1 5 2 9 3 6 4 8 5 7 6 2 7 1 8 3 9
REMARK H PARENT
REMARK Flexibility Score: inf
ROOT
ATOM      1  C   UNL     1     -40.852  58.335  29.307  1.00  0.00     0.016 A 
ATOM      2  C   UNL     1     -39.782  57.592  28.784  1.00  0.00     0.013 A 
ATOM      3  C   UNL     1     -41.167  58.187  30.669  1.00  0.00     0.120 A 
ATOM      4  C   UNL     1     -39.058  56.730  29.609  1.00  0.00     0.021 A 
ATOM      5  N   UNL     1     -40.444  57.341  31.452  1.00  0.00    -0.264 NA
ATOM      6  C   UNL     1     -39.407  56.617  30.955  1.00  0.00     0.111 A 
ENDROOT
BRANCH   1   7
ATOM      7  C   UNL     1     -41.627  59.252  28.442  1.00  0.00     0.073 C 
ATOM      8  O   UNL     1     -41.136  59.685  27.364  1.00  0.00    -0.545 OA
ATOM      9  O   UNL     1     -42.909  59.649  28.806  1.00  0.00    -0.545 OA
ENDBRANCH   1   7
TORSDOF 1
ENDMDL
