MODEL 1
REMARK VINA RESULT:    -3.367      0.000      0.000
REMARK INTER + INTRA:          -3.202
REMARK INTER:                  -5.138
REMARK INTRA:                   1.936
REMARK UNBOUND:                 1.936
REMARK SMILES CC1=CCC[C@@H](C)C(=O)C[C@@H](C(C)C)C(=O)C1
REMARK SMILES IDX 8 1 9 2 6 3 7 4 5 5 4 6 3 7 2 8 1 9 10 11 11 12 15 13 16 14
REMARK SMILES IDX 17 15 12 17 13 18 14 19
REMARK H PARENT
REMARK Flexibility Score: 70.00
ROOT
ATOM      1  C   UNL     1      -3.104  28.037  30.535  1.00  0.00     0.136 C 
ATOM      2  O   UNL     1      -2.728  29.094  31.024  1.00  0.00    -0.299 OA
ENDROOT
BRANCH   1   3
ATOM      3  C   UNL     1      -4.582  27.699  30.555  1.00  0.00     0.053 C 
ATOM      4  C   UNL     1      -4.876  26.495  29.651  1.00  0.00     0.016 C 
BRANCH   3   5
ATOM      5  C   UNL     1      -5.403  28.946  30.126  1.00  0.00     0.015 C 
BRANCH   5   6
ATOM      6  C   UNL     1      -5.802  28.985  28.638  1.00  0.00     0.028 C 
BRANCH   6   7
ATOM      7  C   UNL     1      -5.319  30.187  27.851  1.00  0.00    -0.028 C 
ATOM      8  C   UNL     1      -4.032  30.560  27.654  1.00  0.00    -0.070 CG0
ATOM      9  C   UNL     1      -3.769  31.756  26.772  1.00  0.00     0.039 C 
ATOM     10  G   UNL     1      -2.850  29.881  28.318  1.00  0.00     0.000 G0
ENDBRANCH   6   7
ENDBRANCH   5   6
ENDBRANCH   3   5
ENDBRANCH   1   3
BRANCH   1  11
ATOM     11  C   UNL     1      -2.074  27.102  29.938  1.00  0.00     0.087 C 
BRANCH  11  12
ATOM     12  C   UNL     1      -1.525  27.567  28.558  1.00  0.00     0.066 C 
BRANCH  12  13
ATOM     13  C   UNL     1      -2.490  28.508  27.837  1.00  0.00     0.140 C 
ATOM     14  O   UNL     1      -3.014  28.130  26.799  1.00  0.00    -0.299 OA
BRANCH  13  15
ATOM     15  C   UNL     1      -2.821  29.909  28.324  1.00  0.00     0.106 CG0
ATOM     16  G   UNL     1      -4.026  30.540  27.654  1.00  0.00     0.000 G0
ENDBRANCH  13  15
ENDBRANCH  12  13
BRANCH  12  17
ATOM     17  C   UNL     1      -1.087  26.397  27.624  1.00  0.00    -0.006 C 
ATOM     18  C   UNL     1      -2.129  25.272  27.478  1.00  0.00     0.008 C 
ATOM     19  C   UNL     1       0.265  25.803  28.048  1.00  0.00     0.008 C 
ENDBRANCH  12  17
ENDBRANCH  11  12
ENDBRANCH   1  11
TORSDOF 1
ENDMDL
MODEL 2
REMARK VINA RESULT:    -2.850      1.692      4.477
REMARK INTER + INTRA:          -2.413
REMARK INTER:                  -3.188
REMARK INTRA:                   0.775
REMARK UNBOUND:                 1.936
REMARK SMILES CC1=CCC[C@@H](C)C(=O)C[C@@H](C(C)C)C(=O)C1
REMARK SMILES IDX 8 1 9 2 6 3 7 4 5 5 4 6 3 7 2 8 1 9 10 11 11 12 15 13 16 14
REMARK SMILES IDX 17 15 12 17 13 18 14 19
REMARK H PARENT
REMARK Flexibility Score: 70.00
ROOT
ATOM      1  C   UNL     1      -4.410  28.885  30.316  1.00  0.00     0.136 C 
ATOM      2  O   UNL     1      -5.317  28.087  30.124  1.00  0.00    -0.299 OA
ENDROOT
BRANCH   1   3
ATOM      3  C   UNL     1      -3.390  28.597  31.400  1.00  0.00     0.053 C 
ATOM      4  C   UNL     1      -2.531  29.836  31.680  1.00  0.00     0.016 C 
BRANCH   3   5
ATOM      5  C   UNL     1      -2.517  27.383  30.979  1.00  0.00     0.015 C 
BRANCH   5   6
ATOM      6  C   UNL     1      -1.232  27.740  30.209  1.00  0.00     0.028 C 
BRANCH   6   7
ATOM      7  C   UNL     1      -0.942  26.909  28.976  1.00  0.00    -0.028 C 
ATOM      8  C   UNL     1      -1.706  26.823  27.861  1.00  0.00    -0.070 CG0
ATOM      9  C   UNL     1      -1.194  25.988  26.713  1.00  0.00     0.039 C 
ATOM     10  G   UNL     1      -3.072  27.468  27.728  1.00  0.00     0.000 G0
ENDBRANCH   6   7
ENDBRANCH   5   6
ENDBRANCH   3   5
ENDBRANCH   1   3
BRANCH   1  11
ATOM     11  C   UNL     1      -4.349  30.137  29.468  1.00  0.00     0.087 C 
BRANCH  11  12
ATOM     12  C   UNL     1      -4.270  29.860  27.939  1.00  0.00     0.066 C 
BRANCH  12  13
ATOM     13  C   UNL     1      -3.079  28.974  27.571  1.00  0.00     0.140 C 
ATOM     14  O   UNL     1      -2.075  29.499  27.114  1.00  0.00    -0.299 OA
BRANCH  13  15
ATOM     15  C   UNL     1      -3.080  27.461  27.717  1.00  0.00     0.106 CG0
ATOM     16  G   UNL     1      -1.702  26.840  27.840  1.00  0.00     0.000 G0
ENDBRANCH  13  15
ENDBRANCH  12  13
BRANCH  12  17
ATOM     17  C   UNL     1      -4.295  31.148  27.059  1.00  0.00    -0.006 C 
ATOM     18  C   UNL     1      -3.518  32.339  27.648  1.00  0.00     0.008 C 
ATOM     19  C   UNL     1      -5.731  31.580  26.721  1.00  0.00     0.008 C 
ENDBRANCH  12  17
ENDBRANCH  11  12
ENDBRANCH   1  11
TORSDOF 1
ENDMDL
MODEL 3
REMARK VINA RESULT:    -2.729      1.798      4.568
REMARK INTER + INTRA:          -2.229
REMARK INTER:                  -3.447
REMARK INTRA:                   1.217
REMARK UNBOUND:                 1.936
REMARK SMILES CC1=CCC[C@@H](C)C(=O)C[C@@H](C(C)C)C(=O)C1
REMARK SMILES IDX 8 1 9 2 6 3 7 4 5 5 4 6 3 7 2 8 1 9 10 11 11 12 15 13 16 14
REMARK SMILES IDX 17 15 12 17 13 18 14 19
REMARK H PARENT
REMARK Flexibility Score: 70.00
ROOT
ATOM      1  C   UNL     1      -2.355  28.323  27.641  1.00  0.00     0.136 C 
ATOM      2  O   UNL     1      -1.365  29.030  27.504  1.00  0.00    -0.299 OA
ENDROOT
BRANCH   1   3
ATOM      3  C   UNL     1      -2.180  26.886  28.090  1.00  0.00     0.053 C 
ATOM      4  C   UNL     1      -1.634  26.023  26.946  1.00  0.00     0.016 C 
BRANCH   3   5
ATOM      5  C   UNL     1      -3.536  26.341  28.617  1.00  0.00     0.015 C 
BRANCH   5   6
ATOM      6  C   UNL     1      -3.728  26.435  30.143  1.00  0.00     0.028 C 
BRANCH   6   7
ATOM      7  C   UNL     1      -3.191  27.689  30.805  1.00  0.00    -0.028 C 
ATOM      8  C   UNL     1      -3.802  28.896  30.862  1.00  0.00    -0.070 CG0
ATOM      9  C   UNL     1      -3.122  29.998  31.638  1.00  0.00     0.039 C 
ATOM     10  G   UNL     1      -5.097  29.218  30.142  1.00  0.00     0.000 G0
ENDBRANCH   6   7
ENDBRANCH   5   6
ENDBRANCH   3   5
ENDBRANCH   1   3
BRANCH   1  11
ATOM     11  C   UNL     1      -3.718  28.913  27.344  1.00  0.00     0.087 C 
BRANCH  11  12
ATOM     12  C   UNL     1      -3.955  30.308  27.990  1.00  0.00     0.066 C 
BRANCH  12  13
ATOM     13  C   UNL     1      -5.036  30.271  29.070  1.00  0.00     0.140 C 
ATOM     14  O   UNL     1      -5.874  31.160  29.095  1.00  0.00    -0.299 OA
BRANCH  13  15
ATOM     15  C   UNL     1      -5.117  29.197  30.143  1.00  0.00     0.106 CG0
ATOM     16  G   UNL     1      -3.806  28.915  30.852  1.00  0.00     0.000 G0
ENDBRANCH  13  15
ENDBRANCH  12  13
BRANCH  12  17
ATOM     17  C   UNL     1      -4.242  31.443  26.958  1.00  0.00    -0.006 C 
ATOM     18  C   UNL     1      -3.785  32.844  27.404  1.00  0.00     0.008 C 
ATOM     19  C   UNL     1      -5.723  31.483  26.550  1.00  0.00     0.008 C 
ENDBRANCH  12  17
ENDBRANCH  11  12
ENDBRANCH   1  11
TORSDOF 1
ENDMDL
MODEL 4
REMARK VINA RESULT:    -2.504      1.493      3.509
REMARK INTER + INTRA:          -1.885
REMARK INTER:                  -3.941
REMARK INTRA:                   2.056
REMARK UNBOUND:                 1.936
REMARK SMILES CC1=CCC[C@@H](C)C(=O)C[C@@H](C(C)C)C(=O)C1
REMARK SMILES IDX 8 1 9 2 6 3 7 4 5 5 4 6 3 7 2 8 1 9 10 11 11 12 15 13 16 14
REMARK SMILES IDX 17 15 12 17 13 18 14 19
REMARK H PARENT
REMARK Flexibility Score: 70.00
ROOT
ATOM      1  C   UNL     1      -3.766  29.623  27.302  1.00  0.00     0.136 C 
ATOM      2  O   UNL     1      -4.330  28.933  26.463  1.00  0.00    -0.299 OA
ENDROOT
BRANCH   1   3
ATOM      3  C   UNL     1      -4.465  30.858  27.834  1.00  0.00     0.053 C 
ATOM      4  C   UNL     1      -3.695  32.127  27.448  1.00  0.00     0.016 C 
BRANCH   3   5
ATOM      5  C   UNL     1      -4.627  30.738  29.374  1.00  0.00     0.015 C 
BRANCH   5   6
ATOM      6  C   UNL     1      -5.856  29.934  29.840  1.00  0.00     0.028 C 
BRANCH   6   7
ATOM      7  C   UNL     1      -5.800  28.438  29.608  1.00  0.00    -0.028 C 
ATOM      8  C   UNL     1      -4.860  27.582  30.075  1.00  0.00    -0.070 CG0
ATOM      9  C   UNL     1      -5.034  26.111  29.786  1.00  0.00     0.039 C 
ATOM     10  G   UNL     1      -3.615  28.027  30.817  1.00  0.00     0.000 G0
ENDBRANCH   6   7
ENDBRANCH   5   6
ENDBRANCH   3   5
ENDBRANCH   1   3
BRANCH   1  11
ATOM     11  C   UNL     1      -2.384  29.218  27.768  1.00  0.00     0.087 C 
BRANCH  11  12
ATOM     12  C   UNL     1      -2.330  27.814  28.439  1.00  0.00     0.066 C 
BRANCH  12  13
ATOM     13  C   UNL     1      -2.328  27.900  29.965  1.00  0.00     0.140 C 
ATOM     14  O   UNL     1      -1.259  27.862  30.555  1.00  0.00    -0.299 OA
BRANCH  13  15
ATOM     15  C   UNL     1      -3.591  28.006  30.803  1.00  0.00     0.106 CG0
ATOM     16  G   UNL     1      -4.861  27.592  30.085  1.00  0.00     0.000 G0
ENDBRANCH  13  15
ENDBRANCH  12  13
BRANCH  12  17
ATOM     17  C   UNL     1      -1.160  26.916  27.932  1.00  0.00    -0.006 C 
ATOM     18  C   UNL     1      -1.607  25.620  27.231  1.00  0.00     0.008 C 
ATOM     19  C   UNL     1      -0.167  26.583  29.057  1.00  0.00     0.008 C 
ENDBRANCH  12  17
ENDBRANCH  11  12
ENDBRANCH   1  11
TORSDOF 1
ENDMDL
MODEL 5
REMARK VINA RESULT:    -2.361      1.749      3.258
REMARK INTER + INTRA:          -1.666
REMARK INTER:                  -3.579
REMARK INTRA:                   1.912
REMARK UNBOUND:                 1.936
REMARK SMILES CC1=CCC[C@@H](C)C(=O)C[C@@H](C(C)C)C(=O)C1
REMARK SMILES IDX 8 1 9 2 6 3 7 4 5 5 4 6 3 7 2 8 1 9 10 11 11 12 15 13 16 14
REMARK SMILES IDX 17 15 12 17 13 18 14 19
REMARK H PARENT
REMARK Flexibility Score: 70.00
ROOT
ATOM      1  C   UNL     1      -3.376  29.590  27.737  1.00  0.00     0.136 C 
ATOM      2  O   UNL     1      -2.871  30.378  28.525  1.00  0.00    -0.299 OA
ENDROOT
BRANCH   1   3
ATOM      3  C   UNL     1      -4.845  29.730  27.390  1.00  0.00     0.053 C 
ATOM      4  C   UNL     1      -5.142  31.130  26.840  1.00  0.00     0.016 C 
BRANCH   3   5
ATOM      5  C   UNL     1      -5.704  29.417  28.646  1.00  0.00     0.015 C 
BRANCH   5   6
ATOM      6  C   UNL     1      -5.053  28.456  29.659  1.00  0.00     0.028 C 
BRANCH   6   7
ATOM      7  C   UNL     1      -4.254  29.104  30.772  1.00  0.00    -0.028 C 
ATOM      8  C   UNL     1      -3.036  28.718  31.221  1.00  0.00    -0.070 CG0
ATOM      9  C   UNL     1      -2.381  29.550  32.296  1.00  0.00     0.039 C 
ATOM     10  G   UNL     1      -2.324  27.465  30.749  1.00  0.00     0.000 G0
ENDBRANCH   6   7
ENDBRANCH   5   6
ENDBRANCH   3   5
ENDBRANCH   1   3
BRANCH   1  11
ATOM     11  C   UNL     1      -2.511  28.496  27.146  1.00  0.00     0.087 C 
BRANCH  11  12
ATOM     12  C   UNL     1      -2.355  27.250  28.065  1.00  0.00     0.066 C 
BRANCH  12  13
ATOM     13  C   UNL     1      -1.652  27.585  29.381  1.00  0.00     0.140 C 
ATOM     14  O   UNL     1      -0.487  27.953  29.349  1.00  0.00    -0.299 OA
BRANCH  13  15
ATOM     15  C   UNL     1      -2.314  27.463  30.743  1.00  0.00     0.106 CG0
ATOM     16  G   UNL     1      -3.025  28.717  31.213  1.00  0.00     0.000 G0
ENDBRANCH  13  15
ENDBRANCH  12  13
BRANCH  12  17
ATOM     17  C   UNL     1      -1.675  26.031  27.368  1.00  0.00    -0.006 C 
ATOM     18  C   UNL     1      -2.487  24.724  27.433  1.00  0.00     0.008 C 
ATOM     19  C   UNL     1      -0.254  25.788  27.900  1.00  0.00     0.008 C 
ENDBRANCH  12  17
ENDBRANCH  11  12
ENDBRANCH   1  11
TORSDOF 1
ENDMDL
MODEL 6
REMARK VINA RESULT:    -0.639      1.493      4.252
REMARK INTER + INTRA:           0.962
REMARK INTER:                  -1.666
REMARK INTRA:                   2.627
REMARK UNBOUND:                 1.936
REMARK SMILES CC1=CCC[C@@H](C)C(=O)C[C@@H](C(C)C)C(=O)C1
REMARK SMILES IDX 8 1 9 2 6 3 7 4 5 5 4 6 3 7 2 8 1 9 10 11 11 12 15 13 16 14
REMARK SMILES IDX 17 15 12 17 13 18 14 19
REMARK H PARENT
REMARK Flexibility Score: 70.00
ROOT
ATOM      1  C   UNL     1      -4.639  28.997  29.944  1.00  0.00     0.136 C 
ATOM      2  O   UNL     1      -4.130  29.961  30.500  1.00  0.00    -0.299 OA
ENDROOT
BRANCH   1   3
ATOM      3  C   UNL     1      -4.390  27.609  30.498  1.00  0.00     0.053 C 
ATOM      4  C   UNL     1      -2.968  27.496  31.063  1.00  0.00     0.016 C 
BRANCH   3   5
ATOM      5  C   UNL     1      -4.646  26.555  29.386  1.00  0.00     0.015 C 
BRANCH   5   6
ATOM      6  C   UNL     1      -3.386  25.832  28.871  1.00  0.00     0.028 C 
BRANCH   6   7
ATOM      7  C   UNL     1      -2.087  26.606  28.971  1.00  0.00    -0.028 C 
ATOM      8  C   UNL     1      -1.766  27.736  28.297  1.00  0.00    -0.070 CG0
ATOM      9  C   UNL     1      -0.439  28.389  28.601  1.00  0.00     0.039 C 
ATOM     10  G   UNL     1      -2.636  28.344  27.215  1.00  0.00     0.000 G0
ENDBRANCH   6   7
ENDBRANCH   5   6
ENDBRANCH   3   5
ENDBRANCH   1   3
BRANCH   1  11
ATOM     11  C   UNL     1      -5.491  29.231  28.715  1.00  0.00     0.087 C 
BRANCH  11  12
ATOM     12  C   UNL     1      -4.754  29.987  27.571  1.00  0.00     0.066 C 
BRANCH  12  13
ATOM     13  C   UNL     1      -3.251  29.710  27.567  1.00  0.00     0.140 C 
ATOM     14  O   UNL     1      -2.484  30.620  27.844  1.00  0.00    -0.299 OA
BRANCH  13  15
ATOM     15  C   UNL     1      -2.645  28.362  27.211  1.00  0.00     0.106 CG0
ATOM     16  G   UNL     1      -1.789  27.748  28.301  1.00  0.00     0.000 G0
ENDBRANCH  13  15
ENDBRANCH  12  13
BRANCH  12  17
ATOM     17  C   UNL     1      -5.035  31.522  27.544  1.00  0.00    -0.006 C 
ATOM     18  C   UNL     1      -6.068  32.001  28.580  1.00  0.00     0.008 C 
ATOM     19  C   UNL     1      -5.443  32.003  26.142  1.00  0.00     0.008 C 
ENDBRANCH  12  17
ENDBRANCH  11  12
ENDBRANCH   1  11
TORSDOF 1
ENDMDL
MODEL 7
REMARK VINA RESULT:    -0.412      1.529      3.650
REMARK INTER + INTRA:           1.307
REMARK INTER:                  -0.244
REMARK INTRA:                   1.551
REMARK UNBOUND:                 1.936
REMARK SMILES CC1=CCC[C@@H](C)C(=O)C[C@@H](C(C)C)C(=O)C1
REMARK SMILES IDX 8 1 9 2 6 3 7 4 5 5 4 6 3 7 2 8 1 9 10 11 11 12 15 13 16 14
REMARK SMILES IDX 17 15 12 17 13 18 14 19
REMARK H PARENT
REMARK Flexibility Score: 70.00
ROOT
ATOM      1  C   UNL     1      -2.496  26.794  29.217  1.00  0.00     0.136 C 
ATOM      2  O   UNL     1      -1.589  27.077  29.989  1.00  0.00    -0.299 OA
ENDROOT
BRANCH   1   3
ATOM      3  C   UNL     1      -2.163  26.458  27.777  1.00  0.00     0.053 C 
ATOM      4  C   UNL     1      -0.809  25.744  27.686  1.00  0.00     0.016 C 
BRANCH   3   5
ATOM      5  C   UNL     1      -2.180  27.758  26.926  1.00  0.00     0.015 C 
BRANCH   5   6
ATOM      6  C   UNL     1      -2.114  29.068  27.734  1.00  0.00     0.028 C 
BRANCH   6   7
ATOM      7  C   UNL     1      -3.068  30.164  27.305  1.00  0.00    -0.028 C 
ATOM      8  C   UNL     1      -4.408  30.192  27.502  1.00  0.00    -0.070 CG0
ATOM      9  C   UNL     1      -5.165  31.419  27.056  1.00  0.00     0.039 C 
ATOM     10  G   UNL     1      -5.195  29.036  28.090  1.00  0.00     0.000 G0
ENDBRANCH   6   7
ENDBRANCH   5   6
ENDBRANCH   3   5
ENDBRANCH   1   3
BRANCH   1  11
ATOM     11  C   UNL     1      -3.920  26.802  29.732  1.00  0.00     0.087 C 
BRANCH  11  12
ATOM     12  C   UNL     1      -4.324  28.124  30.448  1.00  0.00     0.066 C 
BRANCH  12  13
ATOM     13  C   UNL     1      -5.267  28.978  29.600  1.00  0.00     0.140 C 
ATOM     14  O   UNL     1      -6.125  29.642  30.162  1.00  0.00    -0.299 OA
BRANCH  13  15
ATOM     15  C   UNL     1      -5.217  29.031  28.082  1.00  0.00     0.106 CG0
ATOM     16  G   UNL     1      -4.403  30.181  27.519  1.00  0.00     0.000 G0
ENDBRANCH  13  15
ENDBRANCH  12  13
BRANCH  12  17
ATOM     17  C   UNL     1      -3.112  28.968  30.951  1.00  0.00    -0.006 C 
ATOM     18  C   UNL     1      -2.566  28.546  32.327  1.00  0.00     0.008 C 
ATOM     19  C   UNL     1      -3.426  30.472  30.954  1.00  0.00     0.008 C 
ENDBRANCH  12  17
ENDBRANCH  11  12
ENDBRANCH   1  11
TORSDOF 1
ENDMDL
