MODEL 1
REMARK VINA RESULT:    -4.224      0.000      0.000
REMARK INTER + INTRA:          -7.889
REMARK INTER:                  -6.446
REMARK INTRA:                  -1.443
REMARK UNBOUND:                -1.443
REMARK SMILES OC[C@@H]1O[C@H](O[C@@]2(CO)O[C@H](CO)[C@@H](O)[C@H]2O)[C@H](O)[C@@H](O)[C@H]1O
REMARK SMILES IDX 6 1 5 2 3 3 22 4 4 5 20 6 18 7 2 8 1 9 23 11 21 13 19 15
REMARK SMILES IDX 7 17 16 18 10 19 14 20 11 21 8 22 9 23 17 25 15 27 12 29
REMARK SMILES IDX 13 30
REMARK H PARENT 1 10 23 12 21 14 19 16 9 24 17 26 15 28 13 31
REMARK Flexibility Score: inf
ROOT
ATOM      1  O   UNL     1       2.488   3.146  -3.894  1.00  0.00    -0.313 OA
ENDROOT
BRANCH   1   2
ATOM      2  C   UNL     1       3.232   2.044  -4.406  1.00  0.00     0.285 C 
ATOM      3  C   UNL     1       5.374   2.868  -3.709  1.00  0.00     0.178 C 
ATOM      4  C   UNL     1       5.460   1.841  -2.552  1.00  0.00     0.177 C 
ATOM      5  O   UNL     1       4.536   2.459  -4.788  1.00  0.00    -0.341 OA
ATOM      6  C   UNL     1       4.070   1.329  -2.137  1.00  0.00     0.179 C 
ATOM      7  C   UNL     1       3.290   0.893  -3.381  1.00  0.00     0.202 C 
BRANCH   3   8
ATOM      8  C   UNL     1       5.131   4.332  -3.271  1.00  0.00     0.191 C 
BRANCH   8   9
ATOM      9  O   UNL     1       4.914   5.184  -4.361  1.00  0.00    -0.394 OA
ATOM     10  H   UNL     1       5.785   5.617  -4.552  1.00  0.00     0.210 HD
ENDBRANCH   8   9
ENDBRANCH   3   8
BRANCH   4  11
ATOM     11  O   UNL     1       6.259   0.760  -2.971  1.00  0.00    -0.387 OA
ATOM     12  H   UNL     1       5.847   0.393  -3.797  1.00  0.00     0.211 HD
ENDBRANCH   4  11
BRANCH   6  13
ATOM     13  O   UNL     1       4.212   0.248  -1.251  1.00  0.00    -0.387 OA
ATOM     14  H   UNL     1       4.561  -0.517  -1.778  1.00  0.00     0.211 HD
ENDBRANCH   6  13
BRANCH   7  15
ATOM     15  O   UNL     1       1.994   0.502  -3.007  1.00  0.00    -0.385 OA
ATOM     16  H   UNL     1       2.060  -0.433  -2.681  1.00  0.00     0.211 HD
ENDBRANCH   7  15
ENDBRANCH   1   2
BRANCH   1  17
ATOM     17  C   UNL     1       1.485   3.674  -4.764  1.00  0.00     0.224 C 
ATOM     18  C   UNL     1       0.039   3.404  -4.267  1.00  0.00     0.208 C 
ATOM     19  O   UNL     1       1.640   3.015  -6.009  1.00  0.00    -0.337 OA
ATOM     20  C   UNL     1      -0.694   3.078  -5.544  1.00  0.00     0.180 C 
ATOM     21  C   UNL     1       0.406   2.437  -6.377  1.00  0.00     0.179 C 
BRANCH  17  22
ATOM     22  C   UNL     1       1.736   5.186  -5.023  1.00  0.00     0.225 C 
BRANCH  22  23
ATOM     23  O   UNL     1       1.979   5.880  -3.828  1.00  0.00    -0.391 OA
ATOM     24  H   UNL     1       2.790   6.433  -3.974  1.00  0.00     0.210 HD
ENDBRANCH  22  23
ENDBRANCH  17  22
BRANCH  18  25
ATOM     25  O   UNL     1       0.008   2.291  -3.407  1.00  0.00    -0.385 OA
ATOM     26  H   UNL     1       0.925   2.185  -3.039  1.00  0.00     0.211 HD
ENDBRANCH  18  25
BRANCH  20  27
ATOM     27  O   UNL     1      -1.761   2.191  -5.320  1.00  0.00    -0.387 OA
ATOM     28  H   UNL     1      -1.440   1.291  -5.587  1.00  0.00     0.211 HD
ENDBRANCH  20  27
BRANCH  21  29
ATOM     29  C   UNL     1       0.166   2.618  -7.881  1.00  0.00     0.191 C 
BRANCH  29  30
ATOM     30  O   UNL     1      -0.942   1.865  -8.293  1.00  0.00    -0.394 OA
ATOM     31  H   UNL     1      -1.496   2.459  -8.866  1.00  0.00     0.210 HD
ENDBRANCH  29  30
ENDBRANCH  21  29
ENDBRANCH   1  17
TORSDOF 13
ENDMDL
MODEL 2
REMARK VINA RESULT:    -4.162      2.479      6.825
REMARK INTER + INTRA:          -7.795
REMARK INTER:                  -6.069
REMARK INTRA:                  -1.726
REMARK UNBOUND:                -1.443
REMARK SMILES OC[C@@H]1O[C@H](O[C@@]2(CO)O[C@H](CO)[C@@H](O)[C@H]2O)[C@H](O)[C@@H](O)[C@H]1O
REMARK SMILES IDX 6 1 5 2 3 3 22 4 4 5 20 6 18 7 2 8 1 9 23 11 21 13 19 15
REMARK SMILES IDX 7 17 16 18 10 19 14 20 11 21 8 22 9 23 17 25 15 27 12 29
REMARK SMILES IDX 13 30
REMARK H PARENT 1 10 23 12 21 14 19 16 9 24 17 26 15 28 13 31
REMARK Flexibility Score: inf
ROOT
ATOM      1  O   UNL     1      -0.869   3.894  -6.656  1.00  0.00    -0.313 OA
ENDROOT
BRANCH   1   2
ATOM      2  C   UNL     1      -2.267   4.067  -6.449  1.00  0.00     0.285 C 
ATOM      3  C   UNL     1      -2.771   4.614  -8.730  1.00  0.00     0.178 C 
ATOM      4  C   UNL     1      -3.410   3.225  -8.985  1.00  0.00     0.177 C 
ATOM      5  O   UNL     1      -2.791   5.020  -7.363  1.00  0.00    -0.341 OA
ATOM      6  C   UNL     1      -2.906   2.171  -7.985  1.00  0.00     0.179 C 
ATOM      7  C   UNL     1      -3.013   2.721  -6.560  1.00  0.00     0.202 C 
BRANCH   3   8
ATOM      8  C   UNL     1      -1.400   4.840  -9.413  1.00  0.00     0.191 C 
BRANCH   8   9
ATOM      9  O   UNL     1      -0.704   5.922  -8.860  1.00  0.00    -0.394 OA
ATOM     10  H   UNL     1      -0.384   6.466  -9.625  1.00  0.00     0.210 HD
ENDBRANCH   8   9
ENDBRANCH   3   8
BRANCH   4  11
ATOM     11  O   UNL     1      -4.809   3.351  -8.879  1.00  0.00    -0.387 OA
ATOM     12  H   UNL     1      -5.138   3.716  -9.743  1.00  0.00     0.211 HD
ENDBRANCH   4  11
BRANCH   6  13
ATOM     13  O   UNL     1      -3.672   0.999  -8.112  1.00  0.00    -0.387 OA
ATOM     14  H   UNL     1      -4.626   1.271  -8.078  1.00  0.00     0.211 HD
ENDBRANCH   6  13
BRANCH   7  15
ATOM     15  O   UNL     1      -2.477   1.787  -5.658  1.00  0.00    -0.385 OA
ATOM     16  H   UNL     1      -2.579   0.893  -6.077  1.00  0.00     0.211 HD
ENDBRANCH   7  15
ENDBRANCH   1   2
BRANCH   1  17
ATOM     17  C   UNL     1      -0.051   4.012  -5.489  1.00  0.00     0.224 C 
ATOM     18  C   UNL     1       1.133   5.000  -5.668  1.00  0.00     0.208 C 
ATOM     19  O   UNL     1       0.497   2.727  -5.248  1.00  0.00    -0.337 OA
ATOM     20  C   UNL     1       2.260   4.300  -4.952  1.00  0.00     0.180 C 
ATOM     21  C   UNL     1       1.902   2.837  -5.169  1.00  0.00     0.179 C 
BRANCH  17  22
ATOM     22  C   UNL     1      -0.922   4.368  -4.252  1.00  0.00     0.225 C 
BRANCH  22  23
ATOM     23  O   UNL     1      -1.107   3.256  -3.416  1.00  0.00    -0.391 OA
ATOM     24  H   UNL     1      -1.672   3.555  -2.657  1.00  0.00     0.210 HD
ENDBRANCH  22  23
ENDBRANCH  17  22
BRANCH  18  25
ATOM     25  O   UNL     1       1.456   5.148  -7.029  1.00  0.00    -0.385 OA
ATOM     26  H   UNL     1       2.364   4.765  -7.154  1.00  0.00     0.211 HD
ENDBRANCH  18  25
BRANCH  20  27
ATOM     27  O   UNL     1       3.510   4.618  -5.511  1.00  0.00    -0.387 OA
ATOM     28  H   UNL     1       3.713   3.907  -6.171  1.00  0.00     0.211 HD
ENDBRANCH  20  27
BRANCH  21  29
ATOM     29  C   UNL     1       2.440   1.942  -4.045  1.00  0.00     0.191 C 
BRANCH  29  30
ATOM     30  O   UNL     1       1.381   1.371  -3.327  1.00  0.00    -0.394 OA
ATOM     31  H   UNL     1       1.182   0.497  -3.756  1.00  0.00     0.210 HD
ENDBRANCH  29  30
ENDBRANCH  21  29
ENDBRANCH   1  17
TORSDOF 13
ENDMDL
MODEL 3
REMARK VINA RESULT:    -3.985      7.851     11.101
REMARK INTER + INTRA:          -7.524
REMARK INTER:                  -5.636
REMARK INTRA:                  -1.888
REMARK UNBOUND:                -1.443
REMARK SMILES OC[C@@H]1O[C@H](O[C@@]2(CO)O[C@H](CO)[C@@H](O)[C@H]2O)[C@H](O)[C@@H](O)[C@H]1O
REMARK SMILES IDX 6 1 5 2 3 3 22 4 4 5 20 6 18 7 2 8 1 9 23 11 21 13 19 15
REMARK SMILES IDX 7 17 16 18 10 19 14 20 11 21 8 22 9 23 17 25 15 27 12 29
REMARK SMILES IDX 13 30
REMARK H PARENT 1 10 23 12 21 14 19 16 9 24 17 26 15 28 13 31
REMARK Flexibility Score: inf
ROOT
ATOM      1  O   UNL     1       3.876  -6.668   0.690  1.00  0.00    -0.313 OA
ENDROOT
BRANCH   1   2
ATOM      2  C   UNL     1       3.726  -6.623  -0.725  1.00  0.00     0.285 C 
ATOM      3  C   UNL     1       4.040  -8.976  -1.065  1.00  0.00     0.178 C 
ATOM      4  C   UNL     1       2.530  -9.200  -1.337  1.00  0.00     0.177 C 
ATOM      5  O   UNL     1       4.490  -7.652  -1.339  1.00  0.00    -0.341 OA
ATOM      6  C   UNL     1       1.668  -8.081  -0.729  1.00  0.00     0.179 C 
ATOM      7  C   UNL     1       2.239  -6.716  -1.127  1.00  0.00     0.202 C 
BRANCH   3   8
ATOM      8  C   UNL     1       4.550  -9.525   0.289  1.00  0.00     0.191 C 
BRANCH   8   9
ATOM      9  O   UNL     1       5.857  -9.109   0.572  1.00  0.00    -0.394 OA
ATOM     10  H   UNL     1       6.046  -8.354  -0.043  1.00  0.00     0.210 HD
ENDBRANCH   8   9
ENDBRANCH   3   8
BRANCH   4  11
ATOM     11  O   UNL     1       2.330  -9.251  -2.730  1.00  0.00    -0.387 OA
ATOM     12  H   UNL     1       1.961 -10.150  -2.941  1.00  0.00     0.211 HD
ENDBRANCH   4  11
BRANCH   6  13
ATOM     13  O   UNL     1       0.345  -8.205  -1.188  1.00  0.00    -0.387 OA
ATOM     14  H   UNL     1      -0.195  -7.526  -0.706  1.00  0.00     0.211 HD
ENDBRANCH   6  13
BRANCH   7  15
ATOM     15  O   UNL     1       1.498  -5.700  -0.504  1.00  0.00    -0.385 OA
ATOM     16  H   UNL     1       0.986  -6.128   0.232  1.00  0.00     0.211 HD
ENDBRANCH   7  15
ENDBRANCH   1   2
BRANCH   1  17
ATOM     17  C   UNL     1       4.468  -5.512   1.288  1.00  0.00     0.224 C 
ATOM     18  C   UNL     1       3.621  -4.919   2.446  1.00  0.00     0.208 C 
ATOM     19  O   UNL     1       4.549  -4.527   0.271  1.00  0.00    -0.337 OA
ATOM     20  C   UNL     1       3.762  -3.433   2.233  1.00  0.00     0.180 C 
ATOM     21  C   UNL     1       3.913  -3.351   0.721  1.00  0.00     0.179 C 
BRANCH  17  22
ATOM     22  C   UNL     1       5.925  -5.819   1.732  1.00  0.00     0.225 C 
BRANCH  22  23
ATOM     23  O   UNL     1       6.667  -6.405   0.695  1.00  0.00    -0.391 OA
ATOM     24  H   UNL     1       6.118  -7.146   0.330  1.00  0.00     0.210 HD
ENDBRANCH  22  23
ENDBRANCH  17  22
BRANCH  18  25
ATOM     25  O   UNL     1       2.270  -5.290   2.315  1.00  0.00    -0.385 OA
ATOM     26  H   UNL     1       2.168  -5.698   1.416  1.00  0.00     0.211 HD
ENDBRANCH  18  25
BRANCH  20  27
ATOM     27  O   UNL     1       2.629  -2.732   2.681  1.00  0.00    -0.387 OA
ATOM     28  H   UNL     1       2.453  -2.023   2.011  1.00  0.00     0.211 HD
ENDBRANCH  20  27
BRANCH  21  29
ATOM     29  C   UNL     1       4.718  -2.117   0.292  1.00  0.00     0.191 C 
BRANCH  29  30
ATOM     30  O   UNL     1       4.173  -0.957   0.859  1.00  0.00    -0.394 OA
ATOM     31  H   UNL     1       4.237  -0.244   0.169  1.00  0.00     0.210 HD
ENDBRANCH  29  30
ENDBRANCH  21  29
ENDBRANCH   1  17
TORSDOF 13
ENDMDL
MODEL 4
REMARK VINA RESULT:    -3.965      0.969      2.236
REMARK INTER + INTRA:          -7.494
REMARK INTER:                  -5.953
REMARK INTRA:                  -1.540
REMARK UNBOUND:                -1.443
REMARK SMILES OC[C@@H]1O[C@H](O[C@@]2(CO)O[C@H](CO)[C@@H](O)[C@H]2O)[C@H](O)[C@@H](O)[C@H]1O
REMARK SMILES IDX 6 1 5 2 3 3 22 4 4 5 20 6 18 7 2 8 1 9 23 11 21 13 19 15
REMARK SMILES IDX 7 17 16 18 10 19 14 20 11 21 8 22 9 23 17 25 15 27 12 29
REMARK SMILES IDX 13 30
REMARK H PARENT 1 10 23 12 21 14 19 16 9 24 17 26 15 28 13 31
REMARK Flexibility Score: inf
ROOT
ATOM      1  O   UNL     1       2.602   3.211  -4.006  1.00  0.00    -0.313 OA
ENDROOT
BRANCH   1   2
ATOM      2  C   UNL     1       3.317   2.059  -4.441  1.00  0.00     0.285 C 
ATOM      3  C   UNL     1       5.467   2.834  -3.711  1.00  0.00     0.178 C 
ATOM      4  C   UNL     1       5.475   1.861  -2.505  1.00  0.00     0.177 C 
ATOM      5  O   UNL     1       4.649   2.406  -4.798  1.00  0.00    -0.341 OA
ATOM      6  C   UNL     1       4.054   1.423  -2.114  1.00  0.00     0.179 C 
ATOM      7  C   UNL     1       3.298   0.957  -3.362  1.00  0.00     0.202 C 
BRANCH   3   8
ATOM      8  C   UNL     1       5.268   4.326  -3.350  1.00  0.00     0.191 C 
BRANCH   8   9
ATOM      9  O   UNL     1       4.758   5.068  -4.422  1.00  0.00    -0.394 OA
ATOM     10  H   UNL     1       5.394   4.944  -5.173  1.00  0.00     0.210 HD
ENDBRANCH   8   9
ENDBRANCH   3   8
BRANCH   4  11
ATOM     11  O   UNL     1       6.245   0.732  -2.846  1.00  0.00    -0.387 OA
ATOM     12  H   UNL     1       7.031   0.718  -2.238  1.00  0.00     0.211 HD
ENDBRANCH   4  11
BRANCH   6  13
ATOM     13  O   UNL     1       4.126   0.381  -1.174  1.00  0.00    -0.387 OA
ATOM     14  H   UNL     1       3.409   0.542  -0.506  1.00  0.00     0.211 HD
ENDBRANCH   6  13
BRANCH   7  15
ATOM     15  O   UNL     1       1.976   0.634  -3.015  1.00  0.00    -0.385 OA
ATOM     16  H   UNL     1       1.975  -0.324  -2.754  1.00  0.00     0.211 HD
ENDBRANCH   7  15
ENDBRANCH   1   2
BRANCH   1  17
ATOM     17  C   UNL     1       1.513   3.616  -4.840  1.00  0.00     0.224 C 
ATOM     18  C   UNL     1       1.237   5.143  -4.789  1.00  0.00     0.208 C 
ATOM     19  O   UNL     1       0.360   2.956  -4.348  1.00  0.00    -0.337 OA
ATOM     20  C   UNL     1      -0.269   5.208  -4.799  1.00  0.00     0.180 C 
ATOM     21  C   UNL     1      -0.639   3.918  -4.081  1.00  0.00     0.179 C 
BRANCH  17  22
ATOM     22  C   UNL     1       1.731   3.115  -6.294  1.00  0.00     0.225 C 
BRANCH  22  23
ATOM     23  O   UNL     1       0.604   2.433  -6.778  1.00  0.00    -0.391 OA
ATOM     24  H   UNL     1      -0.193   2.945  -6.482  1.00  0.00     0.210 HD
ENDBRANCH  22  23
ENDBRANCH  17  22
BRANCH  18  25
ATOM     25  O   UNL     1       1.726   5.697  -3.592  1.00  0.00    -0.385 OA
ATOM     26  H   UNL     1       2.714   5.590  -3.605  1.00  0.00     0.211 HD
ENDBRANCH  18  25
BRANCH  20  27
ATOM     27  O   UNL     1      -0.747   6.338  -4.114  1.00  0.00    -0.387 OA
ATOM     28  H   UNL     1       0.048   6.879  -3.872  1.00  0.00     0.211 HD
ENDBRANCH  20  27
BRANCH  21  29
ATOM     29  C   UNL     1      -2.011   3.390  -4.519  1.00  0.00     0.191 C 
BRANCH  29  30
ATOM     30  O   UNL     1      -1.920   2.042  -4.892  1.00  0.00    -0.394 OA
ATOM     31  H   UNL     1      -1.516   1.560  -4.122  1.00  0.00     0.210 HD
ENDBRANCH  29  30
ENDBRANCH  21  29
ENDBRANCH   1  17
TORSDOF 13
ENDMDL
MODEL 5
REMARK VINA RESULT:    -3.921     10.257     13.135
REMARK INTER + INTRA:          -7.427
REMARK INTER:                  -6.005
REMARK INTRA:                  -1.422
REMARK UNBOUND:                -1.443
REMARK SMILES OC[C@@H]1O[C@H](O[C@@]2(CO)O[C@H](CO)[C@@H](O)[C@H]2O)[C@H](O)[C@@H](O)[C@H]1O
REMARK SMILES IDX 6 1 5 2 3 3 22 4 4 5 20 6 18 7 2 8 1 9 23 11 21 13 19 15
REMARK SMILES IDX 7 17 16 18 10 19 14 20 11 21 8 22 9 23 17 25 15 27 12 29
REMARK SMILES IDX 13 30
REMARK H PARENT 1 10 23 12 21 14 19 16 9 24 17 26 15 28 13 31
REMARK Flexibility Score: inf
ROOT
ATOM      1  O   UNL     1       0.055  -0.505   7.418  1.00  0.00    -0.313 OA
ENDROOT
BRANCH   1   2
ATOM      2  C   UNL     1      -1.365  -0.560   7.516  1.00  0.00     0.285 C 
ATOM      3  C   UNL     1      -1.527   0.955   9.369  1.00  0.00     0.178 C 
ATOM      4  C   UNL     1      -2.057   2.098   8.466  1.00  0.00     0.177 C 
ATOM      5  O   UNL     1      -1.780  -0.353   8.859  1.00  0.00    -0.341 OA
ATOM      6  C   UNL     1      -1.670   1.888   6.992  1.00  0.00     0.179 C 
ATOM      7  C   UNL     1      -2.024   0.460   6.565  1.00  0.00     0.202 C 
BRANCH   3   8
ATOM      8  C   UNL     1      -0.078   1.141   9.879  1.00  0.00     0.191 C 
BRANCH   8   9
ATOM      9  O   UNL     1       0.771   1.651   8.890  1.00  0.00    -0.394 OA
ATOM     10  H   UNL     1       0.186   1.933   8.141  1.00  0.00     0.210 HD
ENDBRANCH   8   9
ENDBRANCH   3   8
BRANCH   4  11
ATOM     11  O   UNL     1      -3.459   2.150   8.587  1.00  0.00    -0.387 OA
ATOM     12  H   UNL     1      -3.717   1.511   9.303  1.00  0.00     0.211 HD
ENDBRANCH   4  11
BRANCH   6  13
ATOM     13  O   UNL     1      -2.355   2.818   6.190  1.00  0.00    -0.387 OA
ATOM     14  H   UNL     1      -3.303   2.814   6.485  1.00  0.00     0.211 HD
ENDBRANCH   6  13
BRANCH   7  15
ATOM     15  O   UNL     1      -1.596   0.248   5.244  1.00  0.00    -0.385 OA
ATOM     16  H   UNL     1      -0.615   0.401   5.234  1.00  0.00     0.211 HD
ENDBRANCH   7  15
ENDBRANCH   1   2
BRANCH   1  17
ATOM     17  C   UNL     1       0.693  -1.708   6.982  1.00  0.00     0.224 C 
ATOM     18  C   UNL     1       2.069  -1.952   7.659  1.00  0.00     0.208 C 
ATOM     19  O   UNL     1       0.920  -1.563   5.591  1.00  0.00    -0.337 OA
ATOM     20  C   UNL     1       2.905  -2.489   6.525  1.00  0.00     0.180 C 
ATOM     21  C   UNL     1       2.289  -1.783   5.326  1.00  0.00     0.179 C 
BRANCH  17  22
ATOM     22  C   UNL     1      -0.263  -2.921   7.157  1.00  0.00     0.225 C 
BRANCH  22  23
ATOM     23  O   UNL     1      -0.526  -3.549   5.930  1.00  0.00    -0.391 OA
ATOM     24  H   UNL     1      -0.504  -4.527   6.095  1.00  0.00     0.210 HD
ENDBRANCH  22  23
ENDBRANCH  17  22
BRANCH  18  25
ATOM     25  O   UNL     1       2.618  -0.742   8.120  1.00  0.00    -0.385 OA
ATOM     26  H   UNL     1       2.381  -0.044   7.454  1.00  0.00     0.211 HD
ENDBRANCH  18  25
BRANCH  20  27
ATOM     27  O   UNL     1       4.263  -2.163   6.679  1.00  0.00    -0.387 OA
ATOM     28  H   UNL     1       4.776  -2.989   6.484  1.00  0.00     0.211 HD
ENDBRANCH  20  27
BRANCH  21  29
ATOM     29  C   UNL     1       2.454  -2.596   4.035  1.00  0.00     0.191 C 
BRANCH  29  30
ATOM     30  O   UNL     1       1.208  -2.805   3.428  1.00  0.00    -0.394 OA
ATOM     31  H   UNL     1       0.632  -3.252   4.103  1.00  0.00     0.210 HD
ENDBRANCH  29  30
ENDBRANCH  21  29
ENDBRANCH   1  17
TORSDOF 13
ENDMDL
MODEL 6
REMARK VINA RESULT:    -3.897      7.731     10.726
REMARK INTER + INTRA:          -7.391
REMARK INTER:                  -5.599
REMARK INTRA:                  -1.792
REMARK UNBOUND:                -1.443
REMARK SMILES OC[C@@H]1O[C@H](O[C@@]2(CO)O[C@H](CO)[C@@H](O)[C@H]2O)[C@H](O)[C@@H](O)[C@H]1O
REMARK SMILES IDX 6 1 5 2 3 3 22 4 4 5 20 6 18 7 2 8 1 9 23 11 21 13 19 15
REMARK SMILES IDX 7 17 16 18 10 19 14 20 11 21 8 22 9 23 17 25 15 27 12 29
REMARK SMILES IDX 13 30
REMARK H PARENT 1 10 23 12 21 14 19 16 9 24 17 26 15 28 13 31
REMARK Flexibility Score: inf
ROOT
ATOM      1  O   UNL     1       3.173  -5.630   0.286  1.00  0.00    -0.313 OA
ENDROOT
BRANCH   1   2
ATOM      2  C   UNL     1       3.290  -7.017   0.589  1.00  0.00     0.285 C 
ATOM      3  C   UNL     1       0.930  -7.430   0.697  1.00  0.00     0.178 C 
ATOM      4  C   UNL     1       0.934  -8.162  -0.669  1.00  0.00     0.177 C 
ATOM      5  O   UNL     1       2.186  -7.450   1.371  1.00  0.00    -0.341 OA
ATOM      6  C   UNL     1       2.142  -7.757  -1.531  1.00  0.00     0.179 C 
ATOM      7  C   UNL     1       3.424  -7.855  -0.699  1.00  0.00     0.202 C 
BRANCH   3   8
ATOM      8  C   UNL     1       0.265  -6.032   0.690  1.00  0.00     0.191 C 
BRANCH   8   9
ATOM      9  O   UNL     1       0.528  -5.314   1.863  1.00  0.00    -0.394 OA
ATOM     10  H   UNL     1       1.103  -5.897   2.422  1.00  0.00     0.210 HD
ENDBRANCH   8   9
ENDBRANCH   3   8
BRANCH   4  11
ATOM     11  O   UNL     1       0.962  -9.550  -0.433  1.00  0.00    -0.387 OA
ATOM     12  H   UNL     1       0.023  -9.844  -0.294  1.00  0.00     0.211 HD
ENDBRANCH   4  11
BRANCH   6  13
ATOM     13  O   UNL     1       2.224  -8.602  -2.651  1.00  0.00    -0.387 OA
ATOM     14  H   UNL     1       3.124  -9.019  -2.635  1.00  0.00     0.211 HD
ENDBRANCH   6  13
BRANCH   7  15
ATOM     15  O   UNL     1       4.513  -7.408  -1.465  1.00  0.00    -0.385 OA
ATOM     16  H   UNL     1       5.194  -8.130  -1.443  1.00  0.00     0.211 HD
ENDBRANCH   7  15
ENDBRANCH   1   2
BRANCH   1  17
ATOM     17  C   UNL     1       4.260  -4.808   0.717  1.00  0.00     0.224 C 
ATOM     18  C   UNL     1       3.805  -3.577   1.546  1.00  0.00     0.208 C 
ATOM     19  O   UNL     1       4.891  -4.324  -0.456  1.00  0.00    -0.337 OA
ATOM     20  C   UNL     1       4.718  -2.486   1.047  1.00  0.00     0.180 C 
ATOM     21  C   UNL     1       4.954  -2.915  -0.394  1.00  0.00     0.179 C 
BRANCH  17  22
ATOM     22  C   UNL     1       5.315  -5.661   1.475  1.00  0.00     0.225 C 
BRANCH  22  23
ATOM     23  O   UNL     1       6.428  -5.939   0.667  1.00  0.00    -0.391 OA
ATOM     24  H   UNL     1       6.172  -6.690   0.070  1.00  0.00     0.210 HD
ENDBRANCH  22  23
ENDBRANCH  17  22
BRANCH  18  25
ATOM     25  O   UNL     1       2.469  -3.247   1.255  1.00  0.00    -0.385 OA
ATOM     26  H   UNL     1       2.304  -3.515   0.313  1.00  0.00     0.211 HD
ENDBRANCH  18  25
BRANCH  20  27
ATOM     27  O   UNL     1       4.108  -1.222   1.119  1.00  0.00    -0.387 OA
ATOM     28  H   UNL     1       4.781  -0.565   0.805  1.00  0.00     0.211 HD
ENDBRANCH  20  27
BRANCH  21  29
ATOM     29  C   UNL     1       6.306  -2.422  -0.926  1.00  0.00     0.191 C 
BRANCH  29  30
ATOM     30  O   UNL     1       7.262  -3.445  -0.852  1.00  0.00    -0.394 OA
ATOM     31  H   UNL     1       7.370  -3.802  -1.773  1.00  0.00     0.210 HD
ENDBRANCH  29  30
ENDBRANCH  21  29
ENDBRANCH   1  17
TORSDOF 13
ENDMDL
MODEL 7
REMARK VINA RESULT:    -3.797      7.732      9.944
REMARK INTER + INTRA:          -7.237
REMARK INTER:                  -5.392
REMARK INTRA:                  -1.846
REMARK UNBOUND:                -1.443
REMARK SMILES OC[C@@H]1O[C@H](O[C@@]2(CO)O[C@H](CO)[C@@H](O)[C@H]2O)[C@H](O)[C@@H](O)[C@H]1O
REMARK SMILES IDX 6 1 5 2 3 3 22 4 4 5 20 6 18 7 2 8 1 9 23 11 21 13 19 15
REMARK SMILES IDX 7 17 16 18 10 19 14 20 11 21 8 22 9 23 17 25 15 27 12 29
REMARK SMILES IDX 13 30
REMARK H PARENT 1 10 23 12 21 14 19 16 9 24 17 26 15 28 13 31
REMARK Flexibility Score: inf
ROOT
ATOM      1  O   UNL     1       3.349  -5.034   0.192  1.00  0.00    -0.313 OA
ENDROOT
BRANCH   1   2
ATOM      2  C   UNL     1       4.019  -4.703   1.405  1.00  0.00     0.285 C 
ATOM      3  C   UNL     1       6.100  -4.116   0.365  1.00  0.00     0.178 C 
ATOM      4  C   UNL     1       5.852  -2.602   0.584  1.00  0.00     0.177 C 
ATOM      5  O   UNL     1       5.412  -4.957   1.289  1.00  0.00    -0.341 OA
ATOM      6  C   UNL     1       4.357  -2.287   0.762  1.00  0.00     0.179 C 
ATOM      7  C   UNL     1       3.751  -3.236   1.801  1.00  0.00     0.202 C 
BRANCH   3   8
ATOM      8  C   UNL     1       5.979  -4.595  -1.101  1.00  0.00     0.191 C 
BRANCH   8   9
ATOM      9  O   UNL     1       5.895  -5.989  -1.199  1.00  0.00    -0.394 OA
ATOM     10  H   UNL     1       6.469  -6.249  -1.965  1.00  0.00     0.210 HD
ENDBRANCH   8   9
ENDBRANCH   3   8
BRANCH   4  11
ATOM     11  O   UNL     1       6.563  -2.193   1.729  1.00  0.00    -0.387 OA
ATOM     12  H   UNL     1       6.300  -2.799   2.471  1.00  0.00     0.211 HD
ENDBRANCH   4  11
BRANCH   6  13
ATOM     13  O   UNL     1       4.204  -0.953   1.176  1.00  0.00    -0.387 OA
ATOM     14  H   UNL     1       3.242  -0.728   1.083  1.00  0.00     0.211 HD
ENDBRANCH   6  13
BRANCH   7  15
ATOM     15  O   UNL     1       2.371  -2.999   1.900  1.00  0.00    -0.385 OA
ATOM     16  H   UNL     1       1.935  -3.885   2.007  1.00  0.00     0.211 HD
ENDBRANCH   7  15
ENDBRANCH   1   2
BRANCH   1  17
ATOM     17  C   UNL     1       2.317  -6.016   0.304  1.00  0.00     0.224 C 
ATOM     18  C   UNL     1       0.945  -5.526  -0.233  1.00  0.00     0.208 C 
ATOM     19  O   UNL     1       2.163  -6.287   1.686  1.00  0.00    -0.337 OA
ATOM     20  C   UNL     1      -0.026  -6.096   0.770  1.00  0.00     0.180 C 
ATOM     21  C   UNL     1       0.810  -6.100   2.042  1.00  0.00     0.179 C 
BRANCH  17  22
ATOM     22  C   UNL     1       2.760  -7.346  -0.368  1.00  0.00     0.225 C 
BRANCH  22  23
ATOM     23  O   UNL     1       3.217  -7.134  -1.678  1.00  0.00    -0.391 OA
ATOM     24  H   UNL     1       4.008  -7.717  -1.807  1.00  0.00     0.210 HD
ENDBRANCH  22  23
ENDBRANCH  17  22
BRANCH  18  25
ATOM     25  O   UNL     1       0.876  -4.121  -0.212  1.00  0.00    -0.385 OA
ATOM     26  H   UNL     1       1.711  -3.784  -0.631  1.00  0.00     0.211 HD
ENDBRANCH  18  25
BRANCH  20  27
ATOM     27  O   UNL     1      -1.171  -5.292   0.904  1.00  0.00    -0.387 OA
ATOM     28  H   UNL     1      -1.773  -5.531   0.153  1.00  0.00     0.211 HD
ENDBRANCH  20  27
BRANCH  21  29
ATOM     29  C   UNL     1       0.364  -7.196   3.019  1.00  0.00     0.191 C 
BRANCH  29  30
ATOM     30  O   UNL     1      -0.988  -7.508   2.818  1.00  0.00    -0.394 OA
ATOM     31  H   UNL     1      -1.362  -6.795   2.235  1.00  0.00     0.210 HD
ENDBRANCH  29  30
ENDBRANCH  21  29
ENDBRANCH   1  17
TORSDOF 13
ENDMDL
MODEL 8
REMARK VINA RESULT:    -3.760     10.105     12.619
REMARK INTER + INTRA:          -7.181
REMARK INTER:                  -5.391
REMARK INTRA:                  -1.789
REMARK UNBOUND:                -1.443
REMARK SMILES OC[C@@H]1O[C@H](O[C@@]2(CO)O[C@H](CO)[C@@H](O)[C@H]2O)[C@H](O)[C@@H](O)[C@H]1O
REMARK SMILES IDX 6 1 5 2 3 3 22 4 4 5 20 6 18 7 2 8 1 9 23 11 21 13 19 15
REMARK SMILES IDX 7 17 16 18 10 19 14 20 11 21 8 22 9 23 17 25 15 27 12 29
REMARK SMILES IDX 13 30
REMARK H PARENT 1 10 23 12 21 14 19 16 9 24 17 26 15 28 13 31
REMARK Flexibility Score: inf
ROOT
ATOM      1  O   UNL     1       0.501  -0.989   6.668  1.00  0.00    -0.313 OA
ENDROOT
BRANCH   1   2
ATOM      2  C   UNL     1       0.817  -2.298   7.131  1.00  0.00     0.285 C 
ATOM      3  C   UNL     1       1.984  -2.968   5.146  1.00  0.00     0.178 C 
ATOM      4  C   UNL     1       3.363  -2.849   5.843  1.00  0.00     0.177 C 
ATOM      5  O   UNL     1       0.899  -3.205   6.040  1.00  0.00    -0.341 OA
ATOM      6  C   UNL     1       3.308  -1.912   7.061  1.00  0.00     0.179 C 
ATOM      7  C   UNL     1       2.123  -2.294   7.952  1.00  0.00     0.202 C 
BRANCH   3   8
ATOM      8  C   UNL     1       1.682  -1.870   4.098  1.00  0.00     0.191 C 
BRANCH   8   9
ATOM      9  O   UNL     1       0.308  -1.682   3.907  1.00  0.00    -0.394 OA
ATOM     10  H   UNL     1       0.114  -1.974   2.979  1.00  0.00     0.210 HD
ENDBRANCH   8   9
ENDBRANCH   3   8
BRANCH   4  11
ATOM     11  O   UNL     1       3.771  -4.134   6.250  1.00  0.00    -0.387 OA
ATOM     12  H   UNL     1       2.954  -4.631   6.519  1.00  0.00     0.211 HD
ENDBRANCH   4  11
BRANCH   6  13
ATOM     13  O   UNL     1       4.510  -2.011   7.784  1.00  0.00    -0.387 OA
ATOM     14  H   UNL     1       4.443  -1.380   8.547  1.00  0.00     0.211 HD
ENDBRANCH   6  13
BRANCH   7  15
ATOM     15  O   UNL     1       2.028  -1.387   9.020  1.00  0.00    -0.385 OA
ATOM     16  H   UNL     1       1.528  -0.598   8.682  1.00  0.00     0.211 HD
ENDBRANCH   7  15
ENDBRANCH   1   2
BRANCH   1  17
ATOM     17  C   UNL     1      -0.599  -0.350   7.320  1.00  0.00     0.224 C 
ATOM     18  C   UNL     1      -1.607   0.294   6.330  1.00  0.00     0.208 C 
ATOM     19  O   UNL     1      -0.053   0.690   8.112  1.00  0.00    -0.337 OA
ATOM     20  C   UNL     1      -1.971   1.584   7.021  1.00  0.00     0.180 C 
ATOM     21  C   UNL     1      -0.687   1.905   7.773  1.00  0.00     0.179 C 
BRANCH  17  22
ATOM     22  C   UNL     1      -1.296  -1.338   8.297  1.00  0.00     0.225 C 
BRANCH  22  23
ATOM     23  O   UNL     1      -1.015  -1.023   9.635  1.00  0.00    -0.391 OA
ATOM     24  H   UNL     1      -0.617  -1.834  10.046  1.00  0.00     0.210 HD
ENDBRANCH  22  23
ENDBRANCH  17  22
BRANCH  18  25
ATOM     25  O   UNL     1      -0.985   0.576   5.100  1.00  0.00    -0.385 OA
ATOM     26  H   UNL     1      -0.029   0.326   5.196  1.00  0.00     0.211 HD
ENDBRANCH  18  25
BRANCH  20  27
ATOM     27  O   UNL     1      -2.300   2.594   6.101  1.00  0.00    -0.387 OA
ATOM     28  H   UNL     1      -3.264   2.788   6.227  1.00  0.00     0.211 HD
ENDBRANCH  20  27
BRANCH  21  29
ATOM     29  C   UNL     1      -0.954   2.732   9.037  1.00  0.00     0.191 C 
BRANCH  29  30
ATOM     30  O   UNL     1      -1.435   1.911  10.066  1.00  0.00    -0.394 OA
ATOM     31  H   UNL     1      -1.093   0.995   9.884  1.00  0.00     0.210 HD
ENDBRANCH  29  30
ENDBRANCH  21  29
ENDBRANCH   1  17
TORSDOF 13
ENDMDL
MODEL 9
REMARK VINA RESULT:    -3.753      9.002     10.937
REMARK INTER + INTRA:          -7.171
REMARK INTER:                  -5.458
REMARK INTRA:                  -1.713
REMARK UNBOUND:                -1.443
REMARK SMILES OC[C@@H]1O[C@H](O[C@@]2(CO)O[C@H](CO)[C@@H](O)[C@H]2O)[C@H](O)[C@@H](O)[C@H]1O
REMARK SMILES IDX 6 1 5 2 3 3 22 4 4 5 20 6 18 7 2 8 1 9 23 11 21 13 19 15
REMARK SMILES IDX 7 17 16 18 10 19 14 20 11 21 8 22 9 23 17 25 15 27 12 29
REMARK SMILES IDX 13 30
REMARK H PARENT 1 10 23 12 21 14 19 16 9 24 17 26 15 28 13 31
REMARK Flexibility Score: inf
ROOT
ATOM      1  O   UNL     1       3.466  -6.766  -0.014  1.00  0.00    -0.313 OA
ENDROOT
BRANCH   1   2
ATOM      2  C   UNL     1       4.074  -7.742  -0.855  1.00  0.00     0.285 C 
ATOM      3  C   UNL     1       6.292  -6.844  -0.684  1.00  0.00     0.178 C 
ATOM      4  C   UNL     1       6.747  -7.988   0.258  1.00  0.00     0.177 C 
ATOM      5  O   UNL     1       5.196  -7.189  -1.529  1.00  0.00    -0.341 OA
ATOM      6  C   UNL     1       5.556  -8.648   0.974  1.00  0.00     0.179 C 
ATOM      7  C   UNL     1       4.470  -8.996  -0.048  1.00  0.00     0.202 C 
BRANCH   3   8
ATOM      8  C   UNL     1       6.127  -5.463  -0.006  1.00  0.00     0.191 C 
BRANCH   8   9
ATOM      9  O   UNL     1       5.356  -4.583  -0.775  1.00  0.00    -0.394 OA
ATOM     10  H   UNL     1       5.173  -3.798  -0.197  1.00  0.00     0.210 HD
ENDBRANCH   8   9
ENDBRANCH   3   8
BRANCH   4  11
ATOM     11  O   UNL     1       7.435  -8.950  -0.507  1.00  0.00    -0.387 OA
ATOM     12  H   UNL     1       6.941  -9.052  -1.364  1.00  0.00     0.211 HD
ENDBRANCH   4  11
BRANCH   6  13
ATOM     13  O   UNL     1       5.991  -9.809   1.635  1.00  0.00    -0.387 OA
ATOM     14  H   UNL     1       6.979  -9.753   1.703  1.00  0.00     0.211 HD
ENDBRANCH   6  13
BRANCH   7  15
ATOM     15  O   UNL     1       3.353  -9.523   0.619  1.00  0.00    -0.385 OA
ATOM     16  H   UNL     1       3.676 -10.298   1.150  1.00  0.00     0.211 HD
ENDBRANCH   7  15
ENDBRANCH   1   2
BRANCH   1  17
ATOM     17  C   UNL     1       2.091  -6.484  -0.285  1.00  0.00     0.224 C 
ATOM     18  C   UNL     1       1.753  -4.970  -0.233  1.00  0.00     0.208 C 
ATOM     19  O   UNL     1       1.339  -7.125   0.731  1.00  0.00    -0.337 OA
ATOM     20  C   UNL     1       0.406  -4.954   0.443  1.00  0.00     0.180 C 
ATOM     21  C   UNL     1       0.501  -6.173   1.349  1.00  0.00     0.179 C 
BRANCH  17  22
ATOM     22  C   UNL     1       1.663  -7.128  -1.633  1.00  0.00     0.225 C 
BRANCH  22  23
ATOM     23  O   UNL     1       0.654  -8.086  -1.449  1.00  0.00    -0.391 OA
ATOM     24  H   UNL     1       0.635  -8.648  -2.266  1.00  0.00     0.210 HD
ENDBRANCH  22  23
ENDBRANCH  17  22
BRANCH  18  25
ATOM     25  O   UNL     1       2.689  -4.279   0.558  1.00  0.00    -0.385 OA
ATOM     26  H   UNL     1       2.763  -4.773   1.417  1.00  0.00     0.211 HD
ENDBRANCH  18  25
BRANCH  20  27
ATOM     27  O   UNL     1       0.206  -3.773   1.179  1.00  0.00    -0.387 OA
ATOM     28  H   UNL     1       0.797  -3.086   0.776  1.00  0.00     0.211 HD
ENDBRANCH  20  27
BRANCH  21  29
ATOM     29  C   UNL     1      -0.877  -6.785   1.632  1.00  0.00     0.191 C 
BRANCH  29  30
ATOM     30  O   UNL     1      -1.879  -5.814   1.504  1.00  0.00    -0.394 OA
ATOM     31  H   UNL     1      -2.377  -5.801   2.364  1.00  0.00     0.210 HD
ENDBRANCH  29  30
ENDBRANCH  21  29
ENDBRANCH   1  17
TORSDOF 13
ENDMDL
