MODEL 1
REMARK VINA RESULT:    -4.798      0.000      0.000
REMARK INTER + INTRA:         -10.272
REMARK INTER:                  -7.322
REMARK INTRA:                  -2.950
REMARK UNBOUND:                -2.950
REMARK SMILES CC(=O)CCC=C(C)CCC=C(C)CCC=C(C)C
REMARK SMILES IDX 10 1 11 2 12 3 13 4 14 5 15 6 16 7 18 8 17 9 19 10 9 11 7 12
REMARK SMILES IDX 6 13 8 14 5 15 4 16 2 17 3 18 1 19
REMARK H PARENT
REMARK Flexibility Score: inf
ROOT
ATOM      1  C   UNL     1       5.750   3.689 110.076  1.00  0.00     0.032 C 
ENDROOT
BRANCH   1   2
ATOM      2  C   UNL     1       4.643   4.516 109.467  1.00  0.00    -0.028 C 
ATOM      3  C   UNL     1       4.632   4.999 108.204  1.00  0.00    -0.077 C 
ATOM      4  C   UNL     1       3.479   5.877 107.789  1.00  0.00     0.039 C 
BRANCH   3   5
ATOM      5  C   UNL     1       5.699   4.675 107.173  1.00  0.00     0.034 C 
BRANCH   5   6
ATOM      6  C   UNL     1       5.105   4.005 105.926  1.00  0.00     0.032 C 
BRANCH   6   7
ATOM      7  C   UNL     1       5.329   2.511 105.942  1.00  0.00    -0.028 C 
ATOM      8  C   UNL     1       3.095   1.992 106.948  1.00  0.00     0.039 C 
ATOM      9  C   UNL     1       4.454   1.600 106.421  1.00  0.00    -0.080 C 
ATOM     10  C   UNL     1       4.861   0.149 106.425  1.00  0.00     0.039 C 
ENDBRANCH   6   7
ENDBRANCH   5   6
ENDBRANCH   3   5
ENDBRANCH   1   2
BRANCH   1  11
ATOM     11  C   UNL     1       5.440   2.187 110.006  1.00  0.00     0.034 C 
BRANCH  11  12
ATOM     12  C   UNL     1       6.614   1.394 109.466  1.00  0.00    -0.077 C 
ATOM     13  C   UNL     1       7.626   2.046 108.853  1.00  0.00    -0.028 C 
ATOM     14  C   UNL     1       6.625  -0.107 109.622  1.00  0.00     0.039 C 
BRANCH  13  15
ATOM     15  C   UNL     1       8.833   1.340 108.278  1.00  0.00     0.035 C 
BRANCH  15  16
ATOM     16  C   UNL     1       8.743   1.194 106.753  1.00  0.00     0.079 C 
BRANCH  16  17
ATOM     17  C   UNL     1       9.886   1.888 106.058  1.00  0.00     0.130 C 
ATOM     18  O   UNL     1      11.017   1.438 106.163  1.00  0.00    -0.300 OA
ATOM     19  C   UNL     1       9.665   3.118 105.228  1.00  0.00     0.087 C 
ENDBRANCH  16  17
ENDBRANCH  15  16
ENDBRANCH  13  15
ENDBRANCH  11  12
ENDBRANCH   1  11
TORSDOF 9
ENDMDL
MODEL 2
REMARK VINA RESULT:    -4.665      1.245      2.031
REMARK INTER + INTRA:         -10.070
REMARK INTER:                  -7.812
REMARK INTRA:                  -2.258
REMARK UNBOUND:                -2.950
REMARK SMILES CC(=O)CCC=C(C)CCC=C(C)CCC=C(C)C
REMARK SMILES IDX 10 1 11 2 12 3 13 4 14 5 15 6 16 7 18 8 17 9 19 10 9 11 7 12
REMARK SMILES IDX 6 13 8 14 5 15 4 16 2 17 3 18 1 19
REMARK H PARENT
REMARK Flexibility Score: inf
ROOT
ATOM      1  C   UNL     1       5.172   4.848 108.494  1.00  0.00     0.032 C 
ENDROOT
BRANCH   1   2
ATOM      2  C   UNL     1       3.844   5.326 107.958  1.00  0.00    -0.028 C 
ATOM      3  C   UNL     1       3.246   4.874 106.832  1.00  0.00    -0.077 C 
ATOM      4  C   UNL     1       1.956   5.525 106.401  1.00  0.00     0.039 C 
BRANCH   3   5
ATOM      5  C   UNL     1       3.787   3.725 106.000  1.00  0.00     0.034 C 
BRANCH   5   6
ATOM      6  C   UNL     1       2.924   2.463 106.139  1.00  0.00     0.032 C 
BRANCH   6   7
ATOM      7  C   UNL     1       3.434   1.564 107.241  1.00  0.00    -0.028 C 
ATOM      8  C   UNL     1       4.729   0.079 105.695  1.00  0.00     0.039 C 
ATOM      9  C   UNL     1       4.217   0.479 107.057  1.00  0.00    -0.080 C 
ATOM     10  C   UNL     1       4.584  -0.352 108.260  1.00  0.00     0.039 C 
ENDBRANCH   6   7
ENDBRANCH   5   6
ENDBRANCH   3   5
ENDBRANCH   1   2
BRANCH   1  11
ATOM     11  C   UNL     1       5.017   4.158 109.857  1.00  0.00     0.034 C 
BRANCH  11  12
ATOM     12  C   UNL     1       5.796   2.859 109.921  1.00  0.00    -0.077 C 
ATOM     13  C   UNL     1       6.810   2.652 109.054  1.00  0.00    -0.028 C 
ATOM     14  C   UNL     1       5.419   1.822 110.953  1.00  0.00     0.039 C 
BRANCH  13  15
ATOM     15  C   UNL     1       7.638   1.387 109.038  1.00  0.00     0.035 C 
BRANCH  15  16
ATOM     16  C   UNL     1       8.303   1.151 107.676  1.00  0.00     0.079 C 
BRANCH  16  17
ATOM     17  C   UNL     1       9.696   1.726 107.628  1.00  0.00     0.130 C 
ATOM     18  O   UNL     1      10.368   1.762 108.648  1.00  0.00    -0.300 OA
ATOM     19  C   UNL     1      10.283   2.249 106.350  1.00  0.00     0.087 C 
ENDBRANCH  16  17
ENDBRANCH  15  16
ENDBRANCH  13  15
ENDBRANCH  11  12
ENDBRANCH   1  11
TORSDOF 9
ENDMDL
MODEL 3
REMARK VINA RESULT:    -4.644      1.618      3.564
REMARK INTER + INTRA:         -10.037
REMARK INTER:                  -7.661
REMARK INTRA:                  -2.376
REMARK UNBOUND:                -2.950
REMARK SMILES CC(=O)CCC=C(C)CCC=C(C)CCC=C(C)C
REMARK SMILES IDX 10 1 11 2 12 3 13 4 14 5 15 6 16 7 18 8 17 9 19 10 9 11 7 12
REMARK SMILES IDX 6 13 8 14 5 15 4 16 2 17 3 18 1 19
REMARK H PARENT
REMARK Flexibility Score: inf
ROOT
ATOM      1  C   UNL     1       3.017   2.362 106.317  1.00  0.00     0.032 C 
ENDROOT
BRANCH   1   2
ATOM      2  C   UNL     1       3.391   3.374 105.260  1.00  0.00    -0.028 C 
ATOM      3  C   UNL     1       3.006   4.670 105.247  1.00  0.00    -0.077 C 
ATOM      4  C   UNL     1       3.406   5.519 104.067  1.00  0.00     0.039 C 
BRANCH   3   5
ATOM      5  C   UNL     1       2.222   5.323 106.372  1.00  0.00     0.034 C 
BRANCH   5   6
ATOM      6  C   UNL     1       3.111   6.224 107.240  1.00  0.00     0.032 C 
BRANCH   6   7
ATOM      7  C   UNL     1       3.587   5.502 108.479  1.00  0.00    -0.028 C 
ATOM      8  C   UNL     1       5.751   4.768 107.455  1.00  0.00     0.039 C 
ATOM      9  C   UNL     1       4.750   4.823 108.582  1.00  0.00    -0.080 C 
ATOM     10  C   UNL     1       5.045   4.100 109.871  1.00  0.00     0.039 C 
ENDBRANCH   6   7
ENDBRANCH   5   6
ENDBRANCH   3   5
ENDBRANCH   1   2
BRANCH   1  11
ATOM     11  C   UNL     1       3.973   1.160 106.314  1.00  0.00     0.034 C 
BRANCH  11  12
ATOM     12  C   UNL     1       4.692   1.011 107.640  1.00  0.00    -0.077 C 
ATOM     13  C   UNL     1       6.039   1.105 107.676  1.00  0.00    -0.028 C 
ATOM     14  C   UNL     1       3.888   0.757 108.892  1.00  0.00     0.039 C 
BRANCH  13  15
ATOM     15  C   UNL     1       6.842   0.964 108.949  1.00  0.00     0.035 C 
BRANCH  15  16
ATOM     16  C   UNL     1       8.064   1.893 108.966  1.00  0.00     0.079 C 
BRANCH  16  17
ATOM     17  C   UNL     1       9.290   1.212 108.413  1.00  0.00     0.130 C 
ATOM     18  O   UNL     1       9.474   0.026 108.640  1.00  0.00    -0.300 OA
ATOM     19  C   UNL     1      10.289   1.958 107.578  1.00  0.00     0.087 C 
ENDBRANCH  16  17
ENDBRANCH  15  16
ENDBRANCH  13  15
ENDBRANCH  11  12
ENDBRANCH   1  11
TORSDOF 9
ENDMDL
MODEL 4
REMARK VINA RESULT:    -4.596      1.285      3.288
REMARK INTER + INTRA:          -9.964
REMARK INTER:                  -7.497
REMARK INTRA:                  -2.467
REMARK UNBOUND:                -2.950
REMARK SMILES CC(=O)CCC=C(C)CCC=C(C)CCC=C(C)C
REMARK SMILES IDX 10 1 11 2 12 3 13 4 14 5 15 6 16 7 18 8 17 9 19 10 9 11 7 12
REMARK SMILES IDX 6 13 8 14 5 15 4 16 2 17 3 18 1 19
REMARK H PARENT
REMARK Flexibility Score: inf
ROOT
ATOM      1  C   UNL     1       2.732   3.292 106.754  1.00  0.00     0.032 C 
ENDROOT
BRANCH   1   2
ATOM      2  C   UNL     1       2.520   4.764 107.012  1.00  0.00    -0.028 C 
ATOM      3  C   UNL     1       3.453   5.615 107.498  1.00  0.00    -0.077 C 
ATOM      4  C   UNL     1       3.042   7.040 107.772  1.00  0.00     0.039 C 
BRANCH   3   5
ATOM      5  C   UNL     1       4.898   5.220 107.749  1.00  0.00     0.034 C 
BRANCH   5   6
ATOM      6  C   UNL     1       5.045   4.362 109.014  1.00  0.00     0.032 C 
BRANCH   6   7
ATOM      7  C   UNL     1       6.202   3.398 108.896  1.00  0.00    -0.028 C 
ATOM      8  C   UNL     1       4.772   1.354 109.114  1.00  0.00     0.039 C 
ATOM      9  C   UNL     1       6.101   2.053 108.967  1.00  0.00    -0.080 C 
ATOM     10  C   UNL     1       7.366   1.236 108.898  1.00  0.00     0.039 C 
ENDBRANCH   6   7
ENDBRANCH   5   6
ENDBRANCH   3   5
ENDBRANCH   1   2
BRANCH   1  11
ATOM     11  C   UNL     1       3.268   3.037 105.337  1.00  0.00     0.034 C 
BRANCH  11  12
ATOM     12  C   UNL     1       4.582   2.282 105.361  1.00  0.00    -0.077 C 
ATOM     13  C   UNL     1       5.740   2.965 105.231  1.00  0.00    -0.028 C 
ATOM     14  C   UNL     1       4.569   0.781 105.527  1.00  0.00     0.039 C 
BRANCH  13  15
ATOM     15  C   UNL     1       7.097   2.298 105.236  1.00  0.00     0.035 C 
BRANCH  15  16
ATOM     16  C   UNL     1       8.241   3.320 105.263  1.00  0.00     0.079 C 
BRANCH  16  17
ATOM     17  C   UNL     1       9.590   2.649 105.227  1.00  0.00     0.130 C 
ATOM     18  O   UNL     1      10.162   2.503 104.157  1.00  0.00    -0.300 OA
ATOM     19  C   UNL     1      10.254   2.163 106.481  1.00  0.00     0.087 C 
ENDBRANCH  16  17
ENDBRANCH  15  16
ENDBRANCH  13  15
ENDBRANCH  11  12
ENDBRANCH   1  11
TORSDOF 9
ENDMDL
MODEL 5
REMARK VINA RESULT:    -4.558      2.522      5.355
REMARK INTER + INTRA:          -9.906
REMARK INTER:                  -7.808
REMARK INTRA:                  -2.098
REMARK UNBOUND:                -2.950
REMARK SMILES CC(=O)CCC=C(C)CCC=C(C)CCC=C(C)C
REMARK SMILES IDX 10 1 11 2 12 3 13 4 14 5 15 6 16 7 18 8 17 9 19 10 9 11 7 12
REMARK SMILES IDX 6 13 8 14 5 15 4 16 2 17 3 18 1 19
REMARK H PARENT
REMARK Flexibility Score: inf
ROOT
ATOM      1  C   UNL     1       5.915   3.070 110.106  1.00  0.00     0.032 C 
ENDROOT
BRANCH   1   2
ATOM      2  C   UNL     1       5.200   1.786 110.447  1.00  0.00    -0.028 C 
ATOM      3  C   UNL     1       4.642   0.940 109.551  1.00  0.00    -0.077 C 
ATOM      4  C   UNL     1       3.894  -0.259 110.076  1.00  0.00     0.039 C 
BRANCH   3   5
ATOM      5  C   UNL     1       4.758   1.115 108.048  1.00  0.00     0.034 C 
BRANCH   5   6
ATOM      6  C   UNL     1       5.880   0.249 107.456  1.00  0.00     0.032 C 
BRANCH   6   7
ATOM      7  C   UNL     1       7.226   0.921 107.592  1.00  0.00    -0.028 C 
ATOM      8  C   UNL     1       8.020  -0.604 109.413  1.00  0.00     0.039 C 
ATOM      9  C   UNL     1       8.182   0.571 108.480  1.00  0.00    -0.080 C 
ATOM     10  C   UNL     1       9.446   1.389 108.531  1.00  0.00     0.039 C 
ENDBRANCH   6   7
ENDBRANCH   5   6
ENDBRANCH   3   5
ENDBRANCH   1   2
BRANCH   1  11
ATOM     11  C   UNL     1       4.964   4.276 110.144  1.00  0.00     0.034 C 
BRANCH  11  12
ATOM     12  C   UNL     1       4.668   4.803 108.754  1.00  0.00    -0.077 C 
ATOM     13  C   UNL     1       3.528   5.493 108.537  1.00  0.00    -0.028 C 
ATOM     14  C   UNL     1       5.654   4.543 107.640  1.00  0.00     0.039 C 
BRANCH  13  15
ATOM     15  C   UNL     1       3.145   6.051 107.185  1.00  0.00     0.035 C 
BRANCH  15  16
ATOM     16  C   UNL     1       2.256   5.082 106.393  1.00  0.00     0.079 C 
BRANCH  16  17
ATOM     17  C   UNL     1       3.018   4.410 105.281  1.00  0.00     0.130 C 
ATOM     18  O   UNL     1       3.119   3.192 105.270  1.00  0.00    -0.300 OA
ATOM     19  C   UNL     1       3.650   5.203 104.174  1.00  0.00     0.087 C 
ENDBRANCH  16  17
ENDBRANCH  15  16
ENDBRANCH  13  15
ENDBRANCH  11  12
ENDBRANCH   1  11
TORSDOF 9
ENDMDL
MODEL 6
REMARK VINA RESULT:    -4.529      2.003      3.286
REMARK INTER + INTRA:          -9.863
REMARK INTER:                  -6.723
REMARK INTRA:                  -3.139
REMARK UNBOUND:                -2.950
REMARK SMILES CC(=O)CCC=C(C)CCC=C(C)CCC=C(C)C
REMARK SMILES IDX 10 1 11 2 12 3 13 4 14 5 15 6 16 7 18 8 17 9 19 10 9 11 7 12
REMARK SMILES IDX 6 13 8 14 5 15 4 16 2 17 3 18 1 19
REMARK H PARENT
REMARK Flexibility Score: inf
ROOT
ATOM      1  C   UNL     1       2.852   3.261 106.923  1.00  0.00     0.032 C 
ENDROOT
BRANCH   1   2
ATOM      2  C   UNL     1       3.084   4.013 105.636  1.00  0.00    -0.028 C 
ATOM      3  C   UNL     1       4.213   4.686 105.315  1.00  0.00    -0.077 C 
ATOM      4  C   UNL     1       4.240   5.452 104.017  1.00  0.00     0.039 C 
BRANCH   3   5
ATOM      5  C   UNL     1       5.464   4.682 106.176  1.00  0.00     0.034 C 
BRANCH   5   6
ATOM      6  C   UNL     1       6.709   4.280 105.373  1.00  0.00     0.032 C 
BRANCH   6   7
ATOM      7  C   UNL     1       7.173   2.889 105.734  1.00  0.00    -0.028 C 
ATOM      8  C   UNL     1       5.879   1.774 103.902  1.00  0.00     0.039 C 
ATOM      9  C   UNL     1       6.789   1.756 105.105  1.00  0.00    -0.080 C 
ATOM     10  C   UNL     1       7.295   0.438 105.634  1.00  0.00     0.039 C 
ENDBRANCH   6   7
ENDBRANCH   5   6
ENDBRANCH   3   5
ENDBRANCH   1   2
BRANCH   1  11
ATOM     11  C   UNL     1       3.208   1.773 106.783  1.00  0.00     0.034 C 
BRANCH  11  12
ATOM     12  C   UNL     1       4.225   1.338 107.819  1.00  0.00    -0.077 C 
ATOM     13  C   UNL     1       4.798   2.266 108.615  1.00  0.00    -0.028 C 
ATOM     14  C   UNL     1       4.577  -0.126 107.939  1.00  0.00     0.039 C 
BRANCH  13  15
ATOM     15  C   UNL     1       5.825   1.928 109.671  1.00  0.00     0.035 C 
BRANCH  15  16
ATOM     16  C   UNL     1       7.218   2.462 109.312  1.00  0.00     0.079 C 
BRANCH  16  17
ATOM     17  C   UNL     1       8.195   1.344 109.052  1.00  0.00     0.130 C 
ATOM     18  O   UNL     1       7.871   0.192 109.301  1.00  0.00    -0.300 OA
ATOM     19  C   UNL     1       9.556   1.611 108.481  1.00  0.00     0.087 C 
ENDBRANCH  16  17
ENDBRANCH  15  16
ENDBRANCH  13  15
ENDBRANCH  11  12
ENDBRANCH   1  11
TORSDOF 9
ENDMDL
MODEL 7
REMARK VINA RESULT:    -4.520      1.455      3.695
REMARK INTER + INTRA:          -9.849
REMARK INTER:                  -7.607
REMARK INTRA:                  -2.242
REMARK UNBOUND:                -2.950
REMARK SMILES CC(=O)CCC=C(C)CCC=C(C)CCC=C(C)C
REMARK SMILES IDX 10 1 11 2 12 3 13 4 14 5 15 6 16 7 18 8 17 9 19 10 9 11 7 12
REMARK SMILES IDX 6 13 8 14 5 15 4 16 2 17 3 18 1 19
REMARK H PARENT
REMARK Flexibility Score: inf
ROOT
ATOM      1  C   UNL     1       2.960   3.367 106.466  1.00  0.00     0.032 C 
ENDROOT
BRANCH   1   2
ATOM      2  C   UNL     1       2.702   4.807 106.837  1.00  0.00    -0.028 C 
ATOM      3  C   UNL     1       3.558   5.606 107.515  1.00  0.00    -0.077 C 
ATOM      4  C   UNL     1       3.100   6.997 107.872  1.00  0.00     0.039 C 
BRANCH   3   5
ATOM      5  C   UNL     1       4.965   5.187 107.904  1.00  0.00     0.034 C 
BRANCH   5   6
ATOM      6  C   UNL     1       4.969   4.274 109.138  1.00  0.00     0.032 C 
BRANCH   6   7
ATOM      7  C   UNL     1       6.188   3.382 109.161  1.00  0.00    -0.028 C 
ATOM      8  C   UNL     1       4.908   1.293 108.642  1.00  0.00     0.039 C 
ATOM      9  C   UNL     1       6.174   2.045 108.970  1.00  0.00    -0.080 C 
ATOM     10  C   UNL     1       7.474   1.292 109.093  1.00  0.00     0.039 C 
ENDBRANCH   6   7
ENDBRANCH   5   6
ENDBRANCH   3   5
ENDBRANCH   1   2
BRANCH   1  11
ATOM     11  C   UNL     1       3.329   3.222 104.982  1.00  0.00     0.034 C 
BRANCH  11  12
ATOM     12  C   UNL     1       4.769   3.617 104.719  1.00  0.00    -0.077 C 
ATOM     13  C   UNL     1       5.764   2.913 105.299  1.00  0.00    -0.028 C 
ATOM     14  C   UNL     1       5.059   4.791 103.815  1.00  0.00     0.039 C 
BRANCH  13  15
ATOM     15  C   UNL     1       7.228   3.236 105.101  1.00  0.00     0.035 C 
BRANCH  15  16
ATOM     16  C   UNL     1       8.139   2.098 105.579  1.00  0.00     0.079 C 
BRANCH  16  17
ATOM     17  C   UNL     1       9.585   2.521 105.620  1.00  0.00     0.130 C 
ATOM     18  O   UNL     1       9.891   3.654 105.281  1.00  0.00    -0.300 OA
ATOM     19  C   UNL     1      10.662   1.582 106.079  1.00  0.00     0.087 C 
ENDBRANCH  16  17
ENDBRANCH  15  16
ENDBRANCH  13  15
ENDBRANCH  11  12
ENDBRANCH   1  11
TORSDOF 9
ENDMDL
MODEL 8
REMARK VINA RESULT:    -4.482      2.016      3.347
REMARK INTER + INTRA:          -9.790
REMARK INTER:                  -7.005
REMARK INTRA:                  -2.785
REMARK UNBOUND:                -2.950
REMARK SMILES CC(=O)CCC=C(C)CCC=C(C)CCC=C(C)C
REMARK SMILES IDX 10 1 11 2 12 3 13 4 14 5 15 6 16 7 18 8 17 9 19 10 9 11 7 12
REMARK SMILES IDX 6 13 8 14 5 15 4 16 2 17 3 18 1 19
REMARK H PARENT
REMARK Flexibility Score: inf
ROOT
ATOM      1  C   UNL     1       5.312   4.835 108.189  1.00  0.00     0.032 C 
ENDROOT
BRANCH   1   2
ATOM      2  C   UNL     1       4.047   5.403 107.593  1.00  0.00    -0.028 C 
ATOM      3  C   UNL     1       3.083   4.684 106.972  1.00  0.00    -0.077 C 
ATOM      4  C   UNL     1       1.923   5.429 106.362  1.00  0.00     0.039 C 
BRANCH   3   5
ATOM      5  C   UNL     1       3.092   3.168 106.888  1.00  0.00     0.034 C 
BRANCH   5   6
ATOM      6  C   UNL     1       3.626   2.673 105.536  1.00  0.00     0.032 C 
BRANCH   6   7
ATOM      7  C   UNL     1       5.109   2.394 105.597  1.00  0.00    -0.028 C 
ATOM      8  C   UNL     1       5.749   4.482 104.372  1.00  0.00     0.039 C 
ATOM      9  C   UNL     1       6.069   3.176 105.057  1.00  0.00    -0.080 C 
ATOM     10  C   UNL     1       7.502   2.718 105.149  1.00  0.00     0.039 C 
ENDBRANCH   6   7
ENDBRANCH   5   6
ENDBRANCH   3   5
ENDBRANCH   1   2
BRANCH   1  11
ATOM     11  C   UNL     1       5.065   4.243 109.584  1.00  0.00     0.034 C 
BRANCH  11  12
ATOM     12  C   UNL     1       5.761   2.908 109.761  1.00  0.00    -0.077 C 
ATOM     13  C   UNL     1       6.785   2.582 108.943  1.00  0.00    -0.028 C 
ATOM     14  C   UNL     1       5.292   1.968 110.846  1.00  0.00     0.039 C 
BRANCH  13  15
ATOM     15  C   UNL     1       7.534   1.273 109.038  1.00  0.00     0.035 C 
BRANCH  15  16
ATOM     16  C   UNL     1       7.079   0.270 107.970  1.00  0.00     0.079 C 
BRANCH  16  17
ATOM     17  C   UNL     1       5.956  -0.604 108.467  1.00  0.00     0.130 C 
ATOM     18  O   UNL     1       6.179  -1.437 109.333  1.00  0.00    -0.300 OA
ATOM     19  C   UNL     1       4.562  -0.467 107.930  1.00  0.00     0.087 C 
ENDBRANCH  16  17
ENDBRANCH  15  16
ENDBRANCH  13  15
ENDBRANCH  11  12
ENDBRANCH   1  11
TORSDOF 9
ENDMDL
MODEL 9
REMARK VINA RESULT:    -4.418      1.406      2.468
REMARK INTER + INTRA:          -9.692
REMARK INTER:                  -7.288
REMARK INTRA:                  -2.404
REMARK UNBOUND:                -2.950
REMARK SMILES CC(=O)CCC=C(C)CCC=C(C)CCC=C(C)C
REMARK SMILES IDX 10 1 11 2 12 3 13 4 14 5 15 6 16 7 18 8 17 9 19 10 9 11 7 12
REMARK SMILES IDX 6 13 8 14 5 15 4 16 2 17 3 18 1 19
REMARK H PARENT
REMARK Flexibility Score: inf
ROOT
ATOM      1  C   UNL     1       5.347   4.723 108.185  1.00  0.00     0.032 C 
ENDROOT
BRANCH   1   2
ATOM      2  C   UNL     1       4.098   5.370 107.636  1.00  0.00    -0.028 C 
ATOM      3  C   UNL     1       3.085   4.718 107.021  1.00  0.00    -0.077 C 
ATOM      4  C   UNL     1       1.949   5.536 106.461  1.00  0.00     0.039 C 
BRANCH   3   5
ATOM      5  C   UNL     1       3.015   3.206 106.896  1.00  0.00     0.034 C 
BRANCH   5   6
ATOM      6  C   UNL     1       3.423   2.729 105.495  1.00  0.00     0.032 C 
BRANCH   6   7
ATOM      7  C   UNL     1       4.888   2.368 105.439  1.00  0.00    -0.028 C 
ATOM      8  C   UNL     1       5.564   4.486 104.287  1.00  0.00     0.039 C 
ATOM      9  C   UNL     1       5.853   3.128 104.877  1.00  0.00    -0.080 C 
ATOM     10  C   UNL     1       7.261   2.590 104.846  1.00  0.00     0.039 C 
ENDBRANCH   6   7
ENDBRANCH   5   6
ENDBRANCH   3   5
ENDBRANCH   1   2
BRANCH   1  11
ATOM     11  C   UNL     1       5.108   4.119 109.577  1.00  0.00     0.034 C 
BRANCH  11  12
ATOM     12  C   UNL     1       5.599   2.688 109.661  1.00  0.00    -0.077 C 
ATOM     13  C   UNL     1       6.351   2.187 108.658  1.00  0.00    -0.028 C 
ATOM     14  C   UNL     1       5.234   1.852 110.864  1.00  0.00     0.039 C 
BRANCH  13  15
ATOM     15  C   UNL     1       6.880   0.771 108.651  1.00  0.00     0.035 C 
BRANCH  15  16
ATOM     16  C   UNL     1       8.367   0.709 109.024  1.00  0.00     0.079 C 
BRANCH  16  17
ATOM     17  C   UNL     1       9.253   0.940 107.827  1.00  0.00     0.130 C 
ATOM     18  O   UNL     1       9.144   0.215 106.849  1.00  0.00    -0.300 OA
ATOM     19  C   UNL     1      10.261   2.051 107.802  1.00  0.00     0.087 C 
ENDBRANCH  16  17
ENDBRANCH  15  16
ENDBRANCH  13  15
ENDBRANCH  11  12
ENDBRANCH   1  11
TORSDOF 9
ENDMDL
