MODEL 1
REMARK VINA RESULT:    -3.272      0.000      0.000
REMARK INTER + INTRA:          -4.177
REMARK INTER:                  -4.037
REMARK INTRA:                  -0.140
REMARK UNBOUND:                -0.140
REMARK SMILES CCCCCC(=O)[O-]
REMARK SMILES IDX 4 1 5 2 6 3 7 4 8 5 3 6 2 7 1 8
REMARK H PARENT
REMARK Flexibility Score: inf
ROOT
ATOM      1  C   UNL     1      27.375  29.959 -13.379  1.00  0.00     0.006 C 
ENDROOT
BRANCH   1   2
ATOM      2  C   UNL     1      26.701  30.830 -14.453  1.00  0.00     0.053 C 
BRANCH   2   3
ATOM      3  C   UNL     1      25.573  31.637 -13.890  1.00  0.00     0.041 C 
ATOM      4  O   UNL     1      25.156  31.416 -12.722  1.00  0.00    -0.550 OA
ATOM      5  O   UNL     1      25.004  32.657 -14.643  1.00  0.00    -0.550 OA
ENDBRANCH   2   3
ENDBRANCH   1   2
BRANCH   1   6
ATOM      6  C   UNL     1      28.815  30.383 -13.024  1.00  0.00     0.000 C 
BRANCH   6   7
ATOM      7  C   UNL     1      29.242  30.079 -11.577  1.00  0.00    -0.003 C 
ATOM      8  C   UNL     1      28.241  30.587 -10.539  1.00  0.00     0.004 C 
ENDBRANCH   6   7
ENDBRANCH   1   6
TORSDOF 4
ENDMDL
MODEL 2
REMARK VINA RESULT:    -3.228      1.489      1.959
REMARK INTER + INTRA:          -4.123
REMARK INTER:                  -4.044
REMARK INTRA:                  -0.078
REMARK UNBOUND:                -0.140
REMARK SMILES CCCCCC(=O)[O-]
REMARK SMILES IDX 4 1 5 2 6 3 7 4 8 5 3 6 2 7 1 8
REMARK H PARENT
REMARK Flexibility Score: inf
ROOT
ATOM      1  C   UNL     1      28.655  30.138 -12.789  1.00  0.00     0.006 C 
ENDROOT
BRANCH   1   2
ATOM      2  C   UNL     1      27.157  30.463 -12.908  1.00  0.00     0.053 C 
BRANCH   2   3
ATOM      3  C   UNL     1      26.756  30.740 -14.324  1.00  0.00     0.041 C 
ATOM      4  O   UNL     1      27.257  30.072 -15.267  1.00  0.00    -0.550 OA
ATOM      5  O   UNL     1      25.802  31.712 -14.600  1.00  0.00    -0.550 OA
ENDBRANCH   2   3
ENDBRANCH   1   2
BRANCH   1   6
ATOM      6  C   UNL     1      29.180  30.066 -11.341  1.00  0.00     0.000 C 
BRANCH   6   7
ATOM      7  C   UNL     1      28.163  30.476 -10.261  1.00  0.00    -0.003 C 
ATOM      8  C   UNL     1      27.575  29.283  -9.509  1.00  0.00     0.004 C 
ENDBRANCH   6   7
ENDBRANCH   1   6
TORSDOF 4
ENDMDL
MODEL 3
REMARK VINA RESULT:    -3.215      0.441      1.220
REMARK INTER + INTRA:          -4.106
REMARK INTER:                  -3.937
REMARK INTRA:                  -0.169
REMARK UNBOUND:                -0.140
REMARK SMILES CCCCCC(=O)[O-]
REMARK SMILES IDX 4 1 5 2 6 3 7 4 8 5 3 6 2 7 1 8
REMARK H PARENT
REMARK Flexibility Score: inf
ROOT
ATOM      1  C   UNL     1      27.659  29.704 -13.170  1.00  0.00     0.006 C 
ENDROOT
BRANCH   1   2
ATOM      2  C   UNL     1      26.999  30.493 -14.313  1.00  0.00     0.053 C 
BRANCH   2   3
ATOM      3  C   UNL     1      25.859  31.333 -13.826  1.00  0.00     0.041 C 
ATOM      4  O   UNL     1      25.272  32.123 -14.612  1.00  0.00    -0.550 OA
ATOM      5  O   UNL     1      25.422  31.219 -12.512  1.00  0.00    -0.550 OA
ENDBRANCH   2   3
ENDBRANCH   1   2
BRANCH   1   6
ATOM      6  C   UNL     1      29.066  30.200 -12.780  1.00  0.00     0.000 C 
BRANCH   6   7
ATOM      7  C   UNL     1      29.338  30.254 -11.266  1.00  0.00    -0.003 C 
ATOM      8  C   UNL     1      28.061  30.241 -10.428  1.00  0.00     0.004 C 
ENDBRANCH   6   7
ENDBRANCH   1   6
TORSDOF 4
ENDMDL
MODEL 4
REMARK VINA RESULT:    -3.151      2.523      4.231
REMARK INTER + INTRA:          -4.027
REMARK INTER:                  -3.952
REMARK INTRA:                  -0.075
REMARK UNBOUND:                -0.140
REMARK SMILES CCCCCC(=O)[O-]
REMARK SMILES IDX 4 1 5 2 6 3 7 4 8 5 3 6 2 7 1 8
REMARK H PARENT
REMARK Flexibility Score: inf
ROOT
ATOM      1  C   UNL     1      27.885  30.500 -13.681  1.00  0.00     0.006 C 
ENDROOT
BRANCH   1   2
ATOM      2  C   UNL     1      27.680  29.725 -12.369  1.00  0.00     0.053 C 
BRANCH   2   3
ATOM      3  C   UNL     1      28.603  30.200 -11.289  1.00  0.00     0.041 C 
ATOM      4  O   UNL     1      29.840  29.983 -11.373  1.00  0.00    -0.550 OA
ATOM      5  O   UNL     1      28.099  30.911 -10.207  1.00  0.00    -0.550 OA
ENDBRANCH   2   3
ENDBRANCH   1   2
BRANCH   1   6
ATOM      6  C   UNL     1      26.594  30.740 -14.490  1.00  0.00     0.000 C 
BRANCH   6   7
ATOM      7  C   UNL     1      25.490  31.504 -13.738  1.00  0.00    -0.003 C 
ATOM      8  C   UNL     1      24.843  32.603 -14.580  1.00  0.00     0.004 C 
ENDBRANCH   6   7
ENDBRANCH   1   6
TORSDOF 4
ENDMDL
MODEL 5
REMARK VINA RESULT:    -3.128      2.134      3.956
REMARK INTER + INTRA:          -3.999
REMARK INTER:                  -3.837
REMARK INTRA:                  -0.162
REMARK UNBOUND:                -0.140
REMARK SMILES CCCCCC(=O)[O-]
REMARK SMILES IDX 4 1 5 2 6 3 7 4 8 5 3 6 2 7 1 8
REMARK H PARENT
REMARK Flexibility Score: inf
ROOT
ATOM      1  C   UNL     1      25.760  30.646 -14.337  1.00  0.00     0.006 C 
ENDROOT
BRANCH   1   2
ATOM      2  C   UNL     1      27.283  30.501 -14.485  1.00  0.00     0.053 C 
BRANCH   2   3
ATOM      3  C   UNL     1      27.970  30.432 -13.156  1.00  0.00     0.041 C 
ATOM      4  O   UNL     1      29.227  30.395 -13.094  1.00  0.00    -0.550 OA
ATOM      5  O   UNL     1      27.222  30.443 -11.986  1.00  0.00    -0.550 OA
ENDBRANCH   2   3
ENDBRANCH   1   2
BRANCH   1   6
ATOM      6  C   UNL     1      25.225  32.070 -14.593  1.00  0.00     0.000 C 
BRANCH   6   7
ATOM      7  C   UNL     1      24.005  32.467 -13.743  1.00  0.00    -0.003 C 
ATOM      8  C   UNL     1      24.332  32.615 -12.258  1.00  0.00     0.004 C 
ENDBRANCH   6   7
ENDBRANCH   1   6
TORSDOF 4
ENDMDL
MODEL 6
REMARK VINA RESULT:    -3.093      2.665      4.007
REMARK INTER + INTRA:          -3.956
REMARK INTER:                  -3.835
REMARK INTRA:                  -0.121
REMARK UNBOUND:                -0.140
REMARK SMILES CCCCCC(=O)[O-]
REMARK SMILES IDX 4 1 5 2 6 3 7 4 8 5 3 6 2 7 1 8
REMARK H PARENT
REMARK Flexibility Score: inf
ROOT
ATOM      1  C   UNL     1      28.380  30.442 -13.218  1.00  0.00     0.006 C 
ENDROOT
BRANCH   1   2
ATOM      2  C   UNL     1      28.198  29.280 -12.228  1.00  0.00     0.053 C 
BRANCH   2   3
ATOM      3  C   UNL     1      28.187  29.753 -10.807  1.00  0.00     0.041 C 
ATOM      4  O   UNL     1      27.730  29.014  -9.896  1.00  0.00    -0.550 OA
ATOM      5  O   UNL     1      28.714  30.997 -10.485  1.00  0.00    -0.550 OA
ENDBRANCH   2   3
ENDBRANCH   1   2
BRANCH   1   6
ATOM      6  C   UNL     1      27.382  30.442 -14.394  1.00  0.00     0.000 C 
BRANCH   6   7
ATOM      7  C   UNL     1      26.105  31.269 -14.160  1.00  0.00    -0.003 C 
ATOM      8  C   UNL     1      24.900  30.413 -13.775  1.00  0.00     0.004 C 
ENDBRANCH   6   7
ENDBRANCH   1   6
TORSDOF 4
ENDMDL
MODEL 7
REMARK VINA RESULT:    -3.055      2.347      4.083
REMARK INTER + INTRA:          -3.910
REMARK INTER:                  -3.741
REMARK INTRA:                  -0.169
REMARK UNBOUND:                -0.140
REMARK SMILES CCCCCC(=O)[O-]
REMARK SMILES IDX 4 1 5 2 6 3 7 4 8 5 3 6 2 7 1 8
REMARK H PARENT
REMARK Flexibility Score: inf
ROOT
ATOM      1  C   UNL     1      25.678  30.505 -12.422  1.00  0.00     0.006 C 
ENDROOT
BRANCH   1   2
ATOM      2  C   UNL     1      27.150  30.478 -11.981  1.00  0.00     0.053 C 
BRANCH   2   3
ATOM      3  C   UNL     1      28.083  30.429 -13.151  1.00  0.00     0.041 C 
ATOM      4  O   UNL     1      29.318  30.259 -12.970  1.00  0.00    -0.550 OA
ATOM      5  O   UNL     1      27.585  30.539 -14.443  1.00  0.00    -0.550 OA
ENDBRANCH   2   3
ENDBRANCH   1   2
BRANCH   1   6
ATOM      6  C   UNL     1      24.913  31.783 -12.021  1.00  0.00     0.000 C 
BRANCH   6   7
ATOM      7  C   UNL     1      24.013  32.372 -13.121  1.00  0.00    -0.003 C 
ATOM      8  C   UNL     1      24.758  32.627 -14.431  1.00  0.00     0.004 C 
ENDBRANCH   6   7
ENDBRANCH   1   6
TORSDOF 4
ENDMDL
MODEL 8
REMARK VINA RESULT:    -3.037      1.353      1.970
REMARK INTER + INTRA:          -3.887
REMARK INTER:                  -3.735
REMARK INTRA:                  -0.152
REMARK UNBOUND:                -0.140
REMARK SMILES CCCCCC(=O)[O-]
REMARK SMILES IDX 4 1 5 2 6 3 7 4 8 5 3 6 2 7 1 8
REMARK H PARENT
REMARK Flexibility Score: inf
ROOT
ATOM      1  C   UNL     1      26.580  30.076 -11.677  1.00  0.00     0.006 C 
ENDROOT
BRANCH   1   2
ATOM      2  C   UNL     1      25.526  31.189 -11.788  1.00  0.00     0.053 C 
BRANCH   2   3
ATOM      3  C   UNL     1      25.214  31.524 -13.214  1.00  0.00     0.041 C 
ATOM      4  O   UNL     1      24.108  32.046 -13.515  1.00  0.00    -0.550 OA
ATOM      5  O   UNL     1      26.157  31.289 -14.206  1.00  0.00    -0.550 OA
ENDBRANCH   2   3
ENDBRANCH   1   2
BRANCH   1   6
ATOM      6  C   UNL     1      27.763  30.405 -10.744  1.00  0.00     0.000 C 
BRANCH   6   7
ATOM      7  C   UNL     1      29.156  30.154 -11.349  1.00  0.00    -0.003 C 
ATOM      8  C   UNL     1      29.175  30.265 -12.873  1.00  0.00     0.004 C 
ENDBRANCH   6   7
ENDBRANCH   1   6
TORSDOF 4
ENDMDL
MODEL 9
REMARK VINA RESULT:    -2.808      2.750      4.431
REMARK INTER + INTRA:          -3.604
REMARK INTER:                  -3.393
REMARK INTRA:                  -0.211
REMARK UNBOUND:                -0.140
REMARK SMILES CCCCCC(=O)[O-]
REMARK SMILES IDX 4 1 5 2 6 3 7 4 8 5 3 6 2 7 1 8
REMARK H PARENT
REMARK Flexibility Score: inf
ROOT
ATOM      1  C   UNL     1      25.599  31.190 -12.891  1.00  0.00     0.006 C 
ENDROOT
BRANCH   1   2
ATOM      2  C   UNL     1      26.634  30.816 -13.965  1.00  0.00     0.053 C 
BRANCH   2   3
ATOM      3  C   UNL     1      26.360  29.471 -14.562  1.00  0.00     0.041 C 
ATOM      4  O   UNL     1      25.997  29.372 -15.764  1.00  0.00    -0.550 OA
ATOM      5  O   UNL     1      26.536  28.323 -13.800  1.00  0.00    -0.550 OA
ENDBRANCH   2   3
ENDBRANCH   1   2
BRANCH   1   6
ATOM      6  C   UNL     1      24.552  32.227 -13.346  1.00  0.00     0.000 C 
BRANCH   6   7
ATOM      7  C   UNL     1      24.719  32.725 -14.793  1.00  0.00    -0.003 C 
ATOM      8  C   UNL     1      23.648  32.185 -15.739  1.00  0.00     0.004 C 
ENDBRANCH   6   7
ENDBRANCH   1   6
TORSDOF 4
ENDMDL
