MODEL 1
REMARK VINA RESULT:    -3.338      0.000      0.000
REMARK INTER + INTRA:          -5.420
REMARK INTER:                  -5.094
REMARK INTRA:                  -0.326
REMARK UNBOUND:                -0.326
REMARK SMILES CC1=CCC[C@H](C)C(=O)C[C@H](C(C)C)C(=O)C1
REMARK SMILES IDX 8 1 9 2 6 3 7 4 5 5 4 6 3 7 2 8 1 9 10 11 11 12 15 13 16 14
REMARK SMILES IDX 17 15 12 17 13 18 14 19
REMARK H PARENT
REMARK Flexibility Score: 70.00
ROOT
ATOM      1  C   UNL     1      -6.044 -38.970 214.984  1.00  0.00     0.136 C 
ATOM      2  O   UNL     1      -6.684 -38.052 214.492  1.00  0.00    -0.299 OA
ENDROOT
BRANCH   1   3
ATOM      3  C   UNL     1      -6.570 -40.385 214.796  1.00  0.00     0.053 C 
ATOM      4  C   UNL     1      -8.033 -40.564 215.232  1.00  0.00     0.016 C 
BRANCH   3   5
ATOM      5  C   UNL     1      -6.277 -40.932 213.380  1.00  0.00     0.015 C 
BRANCH   5   6
ATOM      6  C   UNL     1      -5.130 -41.958 213.322  1.00  0.00     0.028 C 
BRANCH   6   7
ATOM      7  C   UNL     1      -4.004 -41.527 212.414  1.00  0.00    -0.028 C 
ATOM      8  C   UNL     1      -2.782 -41.106 212.826  1.00  0.00    -0.070 CG0
ATOM      9  C   UNL     1      -1.813 -40.632 211.771  1.00  0.00     0.039 C 
ATOM     10  G   UNL     1      -2.329 -41.123 214.281  1.00  0.00     0.000 G0
ENDBRANCH   6   7
ENDBRANCH   5   6
ENDBRANCH   3   5
ENDBRANCH   1   3
BRANCH   1  11
ATOM     11  C   UNL     1      -4.763 -38.633 215.725  1.00  0.00     0.087 C 
BRANCH  11  12
ATOM     12  C   UNL     1      -3.879 -39.884 215.973  1.00  0.00     0.066 C 
BRANCH  12  13
ATOM     13  C   UNL     1      -2.667 -39.888 215.054  1.00  0.00     0.140 C 
ATOM     14  O   UNL     1      -1.957 -38.898 214.957  1.00  0.00    -0.299 OA
BRANCH  13  15
ATOM     15  C   UNL     1      -2.324 -41.130 214.268  1.00  0.00     0.106 CG0
ATOM     16  G   UNL     1      -2.793 -41.087 212.819  1.00  0.00     0.000 G0
ENDBRANCH  13  15
ENDBRANCH  12  13
BRANCH  12  17
ATOM     17  C   UNL     1      -3.533 -40.077 217.483  1.00  0.00    -0.006 C 
ATOM     18  C   UNL     1      -3.356 -41.544 217.917  1.00  0.00     0.008 C 
ATOM     19  C   UNL     1      -4.548 -39.369 218.394  1.00  0.00     0.008 C 
ENDBRANCH  12  17
ENDBRANCH  11  12
ENDBRANCH   1  11
TORSDOF 1
ENDMDL
MODEL 2
REMARK VINA RESULT:    -3.320      2.306      5.052
REMARK INTER + INTRA:          -5.394
REMARK INTER:                  -5.140
REMARK INTRA:                  -0.254
REMARK UNBOUND:                -0.326
REMARK SMILES CC1=CCC[C@H](C)C(=O)C[C@H](C(C)C)C(=O)C1
REMARK SMILES IDX 8 1 9 2 6 3 7 4 5 5 4 6 3 7 2 8 1 9 10 11 11 12 15 13 16 14
REMARK SMILES IDX 17 15 12 17 13 18 14 19
REMARK H PARENT
REMARK Flexibility Score: 70.00
ROOT
ATOM      1  C   UNL     1      -3.635 -38.721 215.098  1.00  0.00     0.136 C 
ATOM      2  O   UNL     1      -2.941 -37.731 215.276  1.00  0.00    -0.299 OA
ENDROOT
BRANCH   1   3
ATOM      3  C   UNL     1      -2.955 -39.987 214.600  1.00  0.00     0.053 C 
ATOM      4  C   UNL     1      -2.116 -39.779 213.328  1.00  0.00     0.016 C 
BRANCH   3   5
ATOM      5  C   UNL     1      -2.194 -40.722 215.727  1.00  0.00     0.015 C 
BRANCH   5   6
ATOM      6  C   UNL     1      -2.426 -40.137 217.133  1.00  0.00     0.028 C 
BRANCH   6   7
ATOM      7  C   UNL     1      -3.099 -41.111 218.069  1.00  0.00    -0.028 C 
ATOM      8  C   UNL     1      -4.367 -40.999 218.538  1.00  0.00    -0.070 CG0
ATOM      9  C   UNL     1      -4.837 -42.028 219.537  1.00  0.00     0.039 C 
ATOM     10  G   UNL     1      -5.343 -39.920 218.084  1.00  0.00     0.000 G0
ENDBRANCH   6   7
ENDBRANCH   5   6
ENDBRANCH   3   5
ENDBRANCH   1   3
BRANCH   1  11
ATOM     11  C   UNL     1      -5.118 -38.621 215.408  1.00  0.00     0.087 C 
BRANCH  11  12
ATOM     12  C   UNL     1      -5.798 -40.013 215.494  1.00  0.00     0.066 C 
BRANCH  12  13
ATOM     13  C   UNL     1      -6.239 -40.319 216.918  1.00  0.00     0.140 C 
ATOM     14  O   UNL     1      -7.290 -40.906 217.131  1.00  0.00    -0.299 OA
BRANCH  13  15
ATOM     15  C   UNL     1      -5.365 -39.914 218.080  1.00  0.00     0.106 CG0
ATOM     16  G   UNL     1      -4.392 -41.000 218.522  1.00  0.00     0.000 G0
ENDBRANCH  13  15
ENDBRANCH  12  13
BRANCH  12  17
ATOM     17  C   UNL     1      -6.923 -40.193 214.427  1.00  0.00    -0.006 C 
ATOM     18  C   UNL     1      -6.544 -41.104 213.245  1.00  0.00     0.008 C 
ATOM     19  C   UNL     1      -7.442 -38.841 213.915  1.00  0.00     0.008 C 
ENDBRANCH  12  17
ENDBRANCH  11  12
ENDBRANCH   1  11
TORSDOF 1
ENDMDL
MODEL 3
REMARK VINA RESULT:    -3.291     12.878     15.261
REMARK INTER + INTRA:          -5.348
REMARK INTER:                  -5.619
REMARK INTRA:                   0.271
REMARK UNBOUND:                -0.326
REMARK SMILES CC1=CCC[C@H](C)C(=O)C[C@H](C(C)C)C(=O)C1
REMARK SMILES IDX 8 1 9 2 6 3 7 4 5 5 4 6 3 7 2 8 1 9 10 11 11 12 15 13 16 14
REMARK SMILES IDX 17 15 12 17 13 18 14 19
REMARK H PARENT
REMARK Flexibility Score: 70.00
ROOT
ATOM      1  C   UNL     1     -16.301 -37.866 210.878  1.00  0.00     0.136 C 
ATOM      2  O   UNL     1     -15.244 -38.241 210.392  1.00  0.00    -0.299 OA
ENDROOT
BRANCH   1   3
ATOM      3  C   UNL     1     -16.455 -37.940 212.389  1.00  0.00     0.053 C 
ATOM      4  C   UNL     1     -17.705 -37.218 212.920  1.00  0.00     0.016 C 
BRANCH   3   5
ATOM      5  C   UNL     1     -16.306 -39.384 212.921  1.00  0.00     0.015 C 
BRANCH   5   6
ATOM      6  C   UNL     1     -16.525 -40.475 211.856  1.00  0.00     0.028 C 
BRANCH   6   7
ATOM      7  C   UNL     1     -17.833 -41.210 212.031  1.00  0.00    -0.028 C 
ATOM      8  C   UNL     1     -18.816 -41.293 211.100  1.00  0.00    -0.070 CG0
ATOM      9  C   UNL     1     -20.090 -42.000 211.490  1.00  0.00     0.039 C 
ATOM     10  G   UNL     1     -18.685 -40.747 209.683  1.00  0.00     0.000 G0
ENDBRANCH   6   7
ENDBRANCH   5   6
ENDBRANCH   3   5
ENDBRANCH   1   3
BRANCH   1  11
ATOM     11  C   UNL     1     -17.372 -37.336 209.942  1.00  0.00     0.087 C 
BRANCH  11  12
ATOM     12  C   UNL     1     -17.849 -38.407 208.926  1.00  0.00     0.066 C 
BRANCH  12  13
ATOM     13  C   UNL     1     -18.936 -39.286 209.528  1.00  0.00     0.140 C 
ATOM     14  O   UNL     1     -19.998 -38.801 209.889  1.00  0.00    -0.299 OA
BRANCH  13  15
ATOM     15  C   UNL     1     -18.712 -40.772 209.663  1.00  0.00     0.106 CG0
ATOM     16  G   UNL     1     -18.821 -41.280 211.096  1.00  0.00     0.000 G0
ENDBRANCH  13  15
ENDBRANCH  12  13
BRANCH  12  17
ATOM     17  C   UNL     1     -18.225 -37.789 207.542  1.00  0.00    -0.006 C 
ATOM     18  C   UNL     1     -18.742 -36.341 207.606  1.00  0.00     0.008 C 
ATOM     19  C   UNL     1     -19.215 -38.678 206.773  1.00  0.00     0.008 C 
ENDBRANCH  12  17
ENDBRANCH  11  12
ENDBRANCH   1  11
TORSDOF 1
ENDMDL
MODEL 4
REMARK VINA RESULT:    -3.207     12.356     14.817
REMARK INTER + INTRA:          -5.220
REMARK INTER:                  -4.843
REMARK INTRA:                  -0.378
REMARK UNBOUND:                -0.326
REMARK SMILES CC1=CCC[C@H](C)C(=O)C[C@H](C(C)C)C(=O)C1
REMARK SMILES IDX 8 1 9 2 6 3 7 4 5 5 4 6 3 7 2 8 1 9 10 11 11 12 15 13 16 14
REMARK SMILES IDX 17 15 12 17 13 18 14 19
REMARK H PARENT
REMARK Flexibility Score: 70.00
ROOT
ATOM      1  C   UNL     1     -16.233 -38.379 210.504  1.00  0.00     0.136 C 
ATOM      2  O   UNL     1     -15.628 -37.416 210.954  1.00  0.00    -0.299 OA
ENDROOT
BRANCH   1   3
ATOM      3  C   UNL     1     -17.159 -39.139 211.441  1.00  0.00     0.053 C 
ATOM      4  C   UNL     1     -16.710 -39.111 212.911  1.00  0.00     0.016 C 
BRANCH   3   5
ATOM      5  C   UNL     1     -18.641 -38.746 211.242  1.00  0.00     0.015 C 
BRANCH   5   6
ATOM      6  C   UNL     1     -19.421 -39.678 210.297  1.00  0.00     0.028 C 
BRANCH   6   7
ATOM      7  C   UNL     1     -19.802 -39.010 208.998  1.00  0.00    -0.028 C 
ATOM      8  C   UNL     1     -19.398 -39.407 207.765  1.00  0.00    -0.070 CG0
ATOM      9  C   UNL     1     -19.812 -38.560 206.587  1.00  0.00     0.039 C 
ATOM     10  G   UNL     1     -18.590 -40.673 207.508  1.00  0.00     0.000 G0
ENDBRANCH   6   7
ENDBRANCH   5   6
ENDBRANCH   3   5
ENDBRANCH   1   3
BRANCH   1  11
ATOM     11  C   UNL     1     -16.032 -38.732 209.041  1.00  0.00     0.087 C 
BRANCH  11  12
ATOM     12  C   UNL     1     -16.304 -40.232 208.754  1.00  0.00     0.066 C 
BRANCH  12  13
ATOM     13  C   UNL     1     -17.084 -40.408 207.459  1.00  0.00     0.140 C 
ATOM     14  O   UNL     1     -16.513 -40.365 206.379  1.00  0.00    -0.299 OA
BRANCH  13  15
ATOM     15  C   UNL     1     -18.571 -40.657 207.504  1.00  0.00     0.106 CG0
ATOM     16  G   UNL     1     -19.395 -39.402 207.765  1.00  0.00     0.000 G0
ENDBRANCH  13  15
ENDBRANCH  12  13
BRANCH  12  17
ATOM     17  C   UNL     1     -15.008 -41.098 208.839  1.00  0.00    -0.006 C 
ATOM     18  C   UNL     1     -14.873 -41.924 210.132  1.00  0.00     0.008 C 
ATOM     19  C   UNL     1     -13.745 -40.255 208.608  1.00  0.00     0.008 C 
ENDBRANCH  12  17
ENDBRANCH  11  12
ENDBRANCH   1  11
TORSDOF 1
ENDMDL
MODEL 5
REMARK VINA RESULT:    -3.161     12.901     15.006
REMARK INTER + INTRA:          -5.151
REMARK INTER:                  -5.220
REMARK INTRA:                   0.069
REMARK UNBOUND:                -0.326
REMARK SMILES CC1=CCC[C@H](C)C(=O)C[C@H](C(C)C)C(=O)C1
REMARK SMILES IDX 8 1 9 2 6 3 7 4 5 5 4 6 3 7 2 8 1 9 10 11 11 12 15 13 16 14
REMARK SMILES IDX 17 15 12 17 13 18 14 19
REMARK H PARENT
REMARK Flexibility Score: 70.00
ROOT
ATOM      1  C   UNL     1     -18.464 -38.600 210.731  1.00  0.00     0.136 C 
ATOM      2  O   UNL     1     -18.740 -39.528 211.478  1.00  0.00    -0.299 OA
ENDROOT
BRANCH   1   3
ATOM      3  C   UNL     1     -17.355 -37.649 211.157  1.00  0.00     0.053 C 
ATOM      4  C   UNL     1     -17.148 -37.583 212.679  1.00  0.00     0.016 C 
BRANCH   3   5
ATOM      5  C   UNL     1     -16.047 -37.888 210.367  1.00  0.00     0.015 C 
BRANCH   5   6
ATOM      6  C   UNL     1     -15.563 -39.350 210.372  1.00  0.00     0.028 C 
BRANCH   6   7
ATOM      7  C   UNL     1     -15.149 -39.834 209.003  1.00  0.00    -0.028 C 
ATOM      8  C   UNL     1     -15.850 -40.706 208.235  1.00  0.00    -0.070 CG0
ATOM      9  C   UNL     1     -15.231 -41.141 206.929  1.00  0.00     0.039 C 
ATOM     10  G   UNL     1     -17.231 -41.234 208.603  1.00  0.00     0.000 G0
ENDBRANCH   6   7
ENDBRANCH   5   6
ENDBRANCH   3   5
ENDBRANCH   1   3
BRANCH   1  11
ATOM     11  C   UNL     1     -19.230 -38.477 209.427  1.00  0.00     0.087 C 
BRANCH  11  12
ATOM     12  C   UNL     1     -18.378 -38.896 208.200  1.00  0.00     0.066 C 
BRANCH  12  13
ATOM     13  C   UNL     1     -18.382 -40.407 208.022  1.00  0.00     0.140 C 
ATOM     14  O   UNL     1     -19.290 -40.959 207.418  1.00  0.00    -0.299 OA
BRANCH  13  15
ATOM     15  C   UNL     1     -17.247 -41.233 208.576  1.00  0.00     0.106 CG0
ATOM     16  G   UNL     1     -15.866 -40.694 208.219  1.00  0.00     0.000 G0
ENDBRANCH  13  15
ENDBRANCH  12  13
BRANCH  12  17
ATOM     17  C   UNL     1     -18.760 -38.102 206.911  1.00  0.00    -0.006 C 
ATOM     18  C   UNL     1     -17.590 -37.856 205.940  1.00  0.00     0.008 C 
ATOM     19  C   UNL     1     -19.464 -36.779 207.248  1.00  0.00     0.008 C 
ENDBRANCH  12  17
ENDBRANCH  11  12
ENDBRANCH   1  11
TORSDOF 1
ENDMDL
MODEL 6
REMARK VINA RESULT:    -3.015      2.432      4.543
REMARK INTER + INTRA:          -4.928
REMARK INTER:                  -4.866
REMARK INTRA:                  -0.062
REMARK UNBOUND:                -0.326
REMARK SMILES CC1=CCC[C@H](C)C(=O)C[C@H](C(C)C)C(=O)C1
REMARK SMILES IDX 8 1 9 2 6 3 7 4 5 5 4 6 3 7 2 8 1 9 10 11 11 12 15 13 16 14
REMARK SMILES IDX 17 15 12 17 13 18 14 19
REMARK H PARENT
REMARK Flexibility Score: 70.00
ROOT
ATOM      1  C   UNL     1      -4.647 -38.832 217.907  1.00  0.00     0.136 C 
ATOM      2  O   UNL     1      -5.264 -38.057 218.624  1.00  0.00    -0.299 OA
ENDROOT
BRANCH   1   3
ATOM      3  C   UNL     1      -4.113 -40.110 218.535  1.00  0.00     0.053 C 
ATOM      4  C   UNL     1      -3.508 -39.907 219.933  1.00  0.00     0.016 C 
BRANCH   3   5
ATOM      5  C   UNL     1      -5.141 -41.264 218.470  1.00  0.00     0.015 C 
BRANCH   5   6
ATOM      6  C   UNL     1      -6.582 -40.811 218.170  1.00  0.00     0.028 C 
BRANCH   6   7
ATOM      7  C   UNL     1      -7.230 -41.612 217.066  1.00  0.00    -0.028 C 
ATOM      8  C   UNL     1      -7.323 -41.227 215.769  1.00  0.00    -0.070 CG0
ATOM      9  C   UNL     1      -8.085 -42.125 214.826  1.00  0.00     0.039 C 
ATOM     10  G   UNL     1      -6.672 -39.966 215.214  1.00  0.00     0.000 G0
ENDBRANCH   6   7
ENDBRANCH   5   6
ENDBRANCH   3   5
ENDBRANCH   1   3
BRANCH   1  11
ATOM     11  C   UNL     1      -4.478 -38.472 216.442  1.00  0.00     0.087 C 
BRANCH  11  12
ATOM     12  C   UNL     1      -4.070 -39.695 215.578  1.00  0.00     0.066 C 
BRANCH  12  13
ATOM     13  C   UNL     1      -5.236 -40.178 214.729  1.00  0.00     0.140 C 
ATOM     14  O   UNL     1      -5.037 -40.763 213.675  1.00  0.00    -0.299 OA
BRANCH  13  15
ATOM     15  C   UNL     1      -6.652 -39.952 215.198  1.00  0.00     0.106 CG0
ATOM     16  G   UNL     1      -7.320 -41.202 215.757  1.00  0.00     0.000 G0
ENDBRANCH  13  15
ENDBRANCH  12  13
BRANCH  12  17
ATOM     17  C   UNL     1      -2.757 -39.442 214.772  1.00  0.00    -0.006 C 
ATOM     18  C   UNL     1      -1.677 -40.525 214.950  1.00  0.00     0.008 C 
ATOM     19  C   UNL     1      -2.172 -38.051 215.061  1.00  0.00     0.008 C 
ENDBRANCH  12  17
ENDBRANCH  11  12
ENDBRANCH   1  11
TORSDOF 1
ENDMDL
MODEL 7
REMARK VINA RESULT:    -3.001      2.022      4.315
REMARK INTER + INTRA:          -4.906
REMARK INTER:                  -4.900
REMARK INTRA:                  -0.005
REMARK UNBOUND:                -0.326
REMARK SMILES CC1=CCC[C@H](C)C(=O)C[C@H](C(C)C)C(=O)C1
REMARK SMILES IDX 8 1 9 2 6 3 7 4 5 5 4 6 3 7 2 8 1 9 10 11 11 12 15 13 16 14
REMARK SMILES IDX 17 15 12 17 13 18 14 19
REMARK H PARENT
REMARK Flexibility Score: 70.00
ROOT
ATOM      1  C   UNL     1      -5.926 -40.010 217.991  1.00  0.00     0.136 C 
ATOM      2  O   UNL     1      -6.958 -40.217 218.613  1.00  0.00    -0.299 OA
ENDROOT
BRANCH   1   3
ATOM      3  C   UNL     1      -4.895 -39.080 218.612  1.00  0.00     0.053 C 
ATOM      4  C   UNL     1      -5.500 -37.804 219.220  1.00  0.00     0.016 C 
BRANCH   3   5
ATOM      5  C   UNL     1      -3.940 -39.827 219.571  1.00  0.00     0.015 C 
BRANCH   5   6
ATOM      6  C   UNL     1      -3.401 -41.159 219.018  1.00  0.00     0.028 C 
BRANCH   6   7
ATOM      7  C   UNL     1      -2.097 -41.001 218.274  1.00  0.00    -0.028 C 
ATOM      8  C   UNL     1      -1.929 -41.180 216.940  1.00  0.00    -0.070 CG0
ATOM      9  C   UNL     1      -0.529 -41.062 216.390  1.00  0.00     0.039 C 
ATOM     10  G   UNL     1      -3.074 -41.455 215.974  1.00  0.00     0.000 G0
ENDBRANCH   6   7
ENDBRANCH   5   6
ENDBRANCH   3   5
ENDBRANCH   1   3
BRANCH   1  11
ATOM     11  C   UNL     1      -5.740 -40.712 216.658  1.00  0.00     0.087 C 
BRANCH  11  12
ATOM     12  C   UNL     1      -5.081 -39.794 215.595  1.00  0.00     0.066 C 
BRANCH  12  13
ATOM     13  C   UNL     1      -3.650 -40.226 215.311  1.00  0.00     0.140 C 
ATOM     14  O   UNL     1      -2.942 -39.574 214.558  1.00  0.00    -0.299 OA
BRANCH  13  15
ATOM     15  C   UNL     1      -3.090 -41.458 215.978  1.00  0.00     0.106 CG0
ATOM     16  G   UNL     1      -1.934 -41.168 216.927  1.00  0.00     0.000 G0
ENDBRANCH  13  15
ENDBRANCH  12  13
BRANCH  12  17
ATOM     17  C   UNL     1      -5.964 -39.635 214.317  1.00  0.00    -0.006 C 
ATOM     18  C   UNL     1      -7.473 -39.502 214.592  1.00  0.00     0.008 C 
ATOM     19  C   UNL     1      -5.702 -40.760 213.303  1.00  0.00     0.008 C 
ENDBRANCH  12  17
ENDBRANCH  11  12
ENDBRANCH   1  11
TORSDOF 1
ENDMDL
MODEL 8
REMARK VINA RESULT:    -2.904     12.490     14.374
REMARK INTER + INTRA:          -4.758
REMARK INTER:                  -4.719
REMARK INTRA:                  -0.040
REMARK UNBOUND:                -0.326
REMARK SMILES CC1=CCC[C@H](C)C(=O)C[C@H](C(C)C)C(=O)C1
REMARK SMILES IDX 8 1 9 2 6 3 7 4 5 5 4 6 3 7 2 8 1 9 10 11 11 12 15 13 16 14
REMARK SMILES IDX 17 15 12 17 13 18 14 19
REMARK H PARENT
REMARK Flexibility Score: 70.00
ROOT
ATOM      1  C   UNL     1     -14.909 -39.796 209.500  1.00  0.00     0.136 C 
ATOM      2  O   UNL     1     -14.462 -38.749 209.944  1.00  0.00    -0.299 OA
ENDROOT
BRANCH   1   3
ATOM      3  C   UNL     1     -14.199 -40.427 208.312  1.00  0.00     0.053 C 
ATOM      4  C   UNL     1     -14.103 -41.959 208.391  1.00  0.00     0.016 C 
BRANCH   3   5
ATOM      5  C   UNL     1     -14.752 -39.913 206.962  1.00  0.00     0.015 C 
BRANCH   5   6
ATOM      6  C   UNL     1     -15.979 -38.992 207.091  1.00  0.00     0.028 C 
BRANCH   6   7
ATOM      7  C   UNL     1     -17.275 -39.693 206.758  1.00  0.00    -0.028 C 
ATOM      8  C   UNL     1     -18.419 -39.609 207.481  1.00  0.00    -0.070 CG0
ATOM      9  C   UNL     1     -19.590 -40.452 207.038  1.00  0.00     0.039 C 
ATOM     10  G   UNL     1     -18.594 -38.688 208.682  1.00  0.00     0.000 G0
ENDBRANCH   6   7
ENDBRANCH   5   6
ENDBRANCH   3   5
ENDBRANCH   1   3
BRANCH   1  11
ATOM     11  C   UNL     1     -16.126 -40.400 210.178  1.00  0.00     0.087 C 
BRANCH  11  12
ATOM     12  C   UNL     1     -17.086 -39.318 210.738  1.00  0.00     0.066 C 
BRANCH  12  13
ATOM     13  C   UNL     1     -18.432 -39.362 210.029  1.00  0.00     0.140 C 
ATOM     14  O   UNL     1     -19.386 -39.930 210.540  1.00  0.00    -0.299 OA
BRANCH  13  15
ATOM     15  C   UNL     1     -18.601 -38.681 208.693  1.00  0.00     0.106 CG0
ATOM     16  G   UNL     1     -18.413 -39.613 207.503  1.00  0.00     0.000 G0
ENDBRANCH  13  15
ENDBRANCH  12  13
BRANCH  12  17
ATOM     17  C   UNL     1     -17.186 -39.360 212.296  1.00  0.00    -0.006 C 
ATOM     18  C   UNL     1     -16.725 -38.071 213.002  1.00  0.00     0.008 C 
ATOM     19  C   UNL     1     -16.456 -40.580 212.879  1.00  0.00     0.008 C 
ENDBRANCH  12  17
ENDBRANCH  11  12
ENDBRANCH   1  11
TORSDOF 1
ENDMDL
MODEL 9
REMARK VINA RESULT:    -2.815      2.944      5.448
REMARK INTER + INTRA:          -4.622
REMARK INTER:                  -4.121
REMARK INTRA:                  -0.501
REMARK UNBOUND:                -0.326
REMARK SMILES CC1=CCC[C@H](C)C(=O)C[C@H](C(C)C)C(=O)C1
REMARK SMILES IDX 8 1 9 2 6 3 7 4 5 5 4 6 3 7 2 8 1 9 10 11 11 12 15 13 16 14
REMARK SMILES IDX 17 15 12 17 13 18 14 19
REMARK H PARENT
REMARK Flexibility Score: 70.00
ROOT
ATOM      1  C   UNL     1      -5.850 -40.018 218.603  1.00  0.00     0.136 C 
ATOM      2  O   UNL     1      -7.063 -40.144 218.686  1.00  0.00    -0.299 OA
ENDROOT
BRANCH   1   3
ATOM      3  C   UNL     1      -5.171 -39.033 219.543  1.00  0.00     0.053 C 
ATOM      4  C   UNL     1      -5.735 -37.606 219.457  1.00  0.00     0.016 C 
BRANCH   3   5
ATOM      5  C   UNL     1      -5.081 -39.575 220.988  1.00  0.00     0.015 C 
BRANCH   5   6
ATOM      6  C   UNL     1      -4.212 -40.837 221.138  1.00  0.00     0.028 C 
BRANCH   6   7
ATOM      7  C   UNL     1      -2.741 -40.564 220.938  1.00  0.00    -0.028 C 
ATOM      8  C   UNL     1      -1.985 -41.049 219.921  1.00  0.00    -0.070 CG0
ATOM      9  C   UNL     1      -0.509 -40.736 219.937  1.00  0.00     0.039 C 
ATOM     10  G   UNL     1      -2.551 -41.853 218.757  1.00  0.00     0.000 G0
ENDBRANCH   6   7
ENDBRANCH   5   6
ENDBRANCH   3   5
ENDBRANCH   1   3
BRANCH   1  11
ATOM     11  C   UNL     1      -5.110 -40.867 217.586  1.00  0.00     0.087 C 
BRANCH  11  12
ATOM     12  C   UNL     1      -3.782 -40.211 217.125  1.00  0.00     0.066 C 
BRANCH  12  13
ATOM     13  C   UNL     1      -2.592 -41.107 217.437  1.00  0.00     0.140 C 
ATOM     14  O   UNL     1      -1.665 -41.208 216.647  1.00  0.00    -0.299 OA
BRANCH  13  15
ATOM     15  C   UNL     1      -2.543 -41.864 218.742  1.00  0.00     0.106 CG0
ATOM     16  G   UNL     1      -2.005 -41.042 219.907  1.00  0.00     0.000 G0
ENDBRANCH  13  15
ENDBRANCH  12  13
BRANCH  12  17
ATOM     17  C   UNL     1      -3.841 -39.726 215.642  1.00  0.00    -0.006 C 
ATOM     18  C   UNL     1      -3.451 -38.251 215.434  1.00  0.00     0.008 C 
ATOM     19  C   UNL     1      -5.210 -40.013 215.006  1.00  0.00     0.008 C 
ENDBRANCH  12  17
ENDBRANCH  11  12
ENDBRANCH   1  11
TORSDOF 1
ENDMDL
