MODEL 1
REMARK VINA RESULT:    -4.348      0.000      0.000
REMARK INTER + INTRA:          -9.309
REMARK INTER:                  -7.906
REMARK INTRA:                  -1.403
REMARK UNBOUND:                -1.403
REMARK SMILES CCCCCC=CCC=CCCCCCCCC(=O)[O-]
REMARK SMILES IDX 11 1 12 2 13 3 14 4 15 5 16 6 17 7 18 8 19 9 20 10 10 11
REMARK SMILES IDX 9 12 8 13 7 14 6 15 5 16 4 17 3 18 2 19 1 20
REMARK H PARENT
REMARK Flexibility Score: inf
ROOT
ATOM      1  C   UNL     1      -2.888  12.054  -4.759  1.00  0.00     0.027 C 
ENDROOT
BRANCH   1   2
ATOM      2  C   UNL     1      -2.648  13.186  -5.775  1.00  0.00     0.004 C 
BRANCH   2   3
ATOM      3  C   UNL     1      -3.270  14.537  -5.372  1.00  0.00     0.000 C 
BRANCH   3   4
ATOM      4  C   UNL     1      -2.531  15.759  -5.955  1.00  0.00     0.000 C 
BRANCH   4   5
ATOM      5  C   UNL     1      -1.665  16.474  -4.902  1.00  0.00     0.000 C 
BRANCH   5   6
ATOM      6  C   UNL     1      -1.664  15.756  -3.543  1.00  0.00     0.006 C 
BRANCH   6   7
ATOM      7  C   UNL     1      -0.321  15.866  -2.813  1.00  0.00     0.053 C 
BRANCH   7   8
ATOM      8  C   UNL     1      -0.531  15.895  -1.333  1.00  0.00     0.041 C 
ATOM      9  O   UNL     1      -1.676  16.120  -0.860  1.00  0.00    -0.550 OA
ATOM     10  O   UNL     1       0.546  15.719  -0.474  1.00  0.00    -0.550 OA
ENDBRANCH   7   8
ENDBRANCH   6   7
ENDBRANCH   5   6
ENDBRANCH   4   5
ENDBRANCH   3   4
ENDBRANCH   2   3
ENDBRANCH   1   2
BRANCH   1  11
ATOM     11  C   UNL     1      -1.607  11.462  -4.232  1.00  0.00    -0.031 C 
ATOM     12  C   UNL     1      -0.502  12.205  -4.060  1.00  0.00    -0.027 C 
BRANCH  12  13
ATOM     13  C   UNL     1       0.771  11.597  -3.540  1.00  0.00     0.054 C 
BRANCH  13  14
ATOM     14  C   UNL     1       0.573  11.055  -2.146  1.00  0.00    -0.027 C 
ATOM     15  C   UNL     1       1.388  10.147  -1.586  1.00  0.00    -0.031 C 
BRANCH  15  16
ATOM     16  C   UNL     1       2.593   9.572  -2.291  1.00  0.00     0.027 C 
BRANCH  16  17
ATOM     17  C   UNL     1       3.210   8.401  -1.511  1.00  0.00     0.004 C 
BRANCH  17  18
ATOM     18  C   UNL     1       3.611   8.811  -0.084  1.00  0.00     0.000 C 
BRANCH  18  19
ATOM     19  C   UNL     1       3.073   7.842   0.981  1.00  0.00    -0.003 C 
ATOM     20  C   UNL     1       1.669   7.332   0.658  1.00  0.00     0.004 C 
ENDBRANCH  18  19
ENDBRANCH  17  18
ENDBRANCH  16  17
ENDBRANCH  15  16
ENDBRANCH  13  14
ENDBRANCH  12  13
ENDBRANCH   1  11
TORSDOF 14
ENDMDL
MODEL 2
REMARK VINA RESULT:    -3.992      1.822      2.164
REMARK INTER + INTRA:          -8.662
REMARK INTER:                  -7.200
REMARK INTRA:                  -1.462
REMARK UNBOUND:                -1.403
REMARK SMILES CCCCCC=CCC=CCCCCCCCC(=O)[O-]
REMARK SMILES IDX 11 1 12 2 13 3 14 4 15 5 16 6 17 7 18 8 19 9 20 10 10 11
REMARK SMILES IDX 9 12 8 13 7 14 6 15 5 16 4 17 3 18 2 19 1 20
REMARK H PARENT
REMARK Flexibility Score: inf
ROOT
ATOM      1  C   UNL     1      -2.978  11.775  -4.680  1.00  0.00     0.027 C 
ENDROOT
BRANCH   1   2
ATOM      2  C   UNL     1      -2.857  12.904  -5.721  1.00  0.00     0.004 C 
BRANCH   2   3
ATOM      3  C   UNL     1      -3.388  14.267  -5.236  1.00  0.00     0.000 C 
BRANCH   3   4
ATOM      4  C   UNL     1      -2.346  15.402  -5.313  1.00  0.00     0.000 C 
BRANCH   4   5
ATOM      5  C   UNL     1      -1.714  15.707  -3.943  1.00  0.00     0.000 C 
BRANCH   5   6
ATOM      6  C   UNL     1      -0.178  15.653  -3.968  1.00  0.00     0.006 C 
BRANCH   6   7
ATOM      7  C   UNL     1       0.422  16.354  -5.192  1.00  0.00     0.053 C 
BRANCH   7   8
ATOM      8  C   UNL     1       0.509  17.828  -4.960  1.00  0.00     0.041 C 
ATOM      9  O   UNL     1       1.537  18.327  -4.432  1.00  0.00    -0.550 OA
ATOM     10  O   UNL     1      -0.565  18.648  -5.283  1.00  0.00    -0.550 OA
ENDBRANCH   7   8
ENDBRANCH   6   7
ENDBRANCH   5   6
ENDBRANCH   4   5
ENDBRANCH   3   4
ENDBRANCH   2   3
ENDBRANCH   1   2
BRANCH   1  11
ATOM     11  C   UNL     1      -1.639  11.245  -4.236  1.00  0.00    -0.031 C 
ATOM     12  C   UNL     1      -0.614  12.063  -3.948  1.00  0.00    -0.027 C 
BRANCH  12  13
ATOM     13  C   UNL     1       0.718  11.517  -3.513  1.00  0.00     0.054 C 
BRANCH  13  14
ATOM     14  C   UNL     1       0.642  10.989  -2.102  1.00  0.00    -0.027 C 
ATOM     15  C   UNL     1       1.520  10.106  -1.599  1.00  0.00    -0.031 C 
BRANCH  15  16
ATOM     16  C   UNL     1       2.678   9.548  -2.391  1.00  0.00     0.027 C 
BRANCH  16  17
ATOM     17  C   UNL     1       3.794   9.016  -1.479  1.00  0.00     0.004 C 
BRANCH  17  18
ATOM     18  C   UNL     1       3.490   7.597  -0.969  1.00  0.00     0.000 C 
BRANCH  18  19
ATOM     19  C   UNL     1       3.257   7.554   0.550  1.00  0.00    -0.003 C 
ATOM     20  C   UNL     1       1.787   7.353   0.914  1.00  0.00     0.004 C 
ENDBRANCH  18  19
ENDBRANCH  17  18
ENDBRANCH  16  17
ENDBRANCH  15  16
ENDBRANCH  13  14
ENDBRANCH  12  13
ENDBRANCH   1  11
TORSDOF 14
ENDMDL
MODEL 3
REMARK VINA RESULT:    -3.819      1.187      2.362
REMARK INTER + INTRA:          -8.347
REMARK INTER:                  -7.241
REMARK INTRA:                  -1.105
REMARK UNBOUND:                -1.403
REMARK SMILES CCCCCC=CCC=CCCCCCCCC(=O)[O-]
REMARK SMILES IDX 11 1 12 2 13 3 14 4 15 5 16 6 17 7 18 8 19 9 20 10 10 11
REMARK SMILES IDX 9 12 8 13 7 14 6 15 5 16 4 17 3 18 2 19 1 20
REMARK H PARENT
REMARK Flexibility Score: inf
ROOT
ATOM      1  C   UNL     1      -0.266  12.581  -4.112  1.00  0.00     0.027 C 
ENDROOT
BRANCH   1   2
ATOM      2  C   UNL     1      -1.493  11.747  -4.525  1.00  0.00     0.004 C 
BRANCH   2   3
ATOM      3  C   UNL     1      -2.811  12.544  -4.569  1.00  0.00     0.000 C 
BRANCH   3   4
ATOM      4  C   UNL     1      -3.198  13.025  -5.983  1.00  0.00     0.000 C 
BRANCH   4   5
ATOM      5  C   UNL     1      -3.248  14.561  -6.082  1.00  0.00     0.000 C 
BRANCH   5   6
ATOM      6  C   UNL     1      -1.859  15.211  -5.992  1.00  0.00     0.006 C 
BRANCH   6   7
ATOM      7  C   UNL     1      -1.838  16.446  -5.085  1.00  0.00     0.053 C 
BRANCH   7   8
ATOM      8  C   UNL     1      -1.397  16.075  -3.706  1.00  0.00     0.041 C 
ATOM      9  O   UNL     1      -2.226  15.612  -2.878  1.00  0.00    -0.550 OA
ATOM     10  O   UNL     1      -0.079  16.281  -3.317  1.00  0.00    -0.550 OA
ENDBRANCH   7   8
ENDBRANCH   6   7
ENDBRANCH   5   6
ENDBRANCH   4   5
ENDBRANCH   3   4
ENDBRANCH   2   3
ENDBRANCH   1   2
BRANCH   1  11
ATOM     11  C   UNL     1       0.821  11.748  -3.484  1.00  0.00    -0.031 C 
ATOM     12  C   UNL     1       0.549  10.797  -2.576  1.00  0.00    -0.027 C 
BRANCH  12  13
ATOM     13  C   UNL     1       1.646   9.980  -1.953  1.00  0.00     0.054 C 
BRANCH  13  14
ATOM     14  C   UNL     1       2.887  10.010  -2.811  1.00  0.00    -0.027 C 
ATOM     15  C   UNL     1       3.825   9.050  -2.783  1.00  0.00    -0.031 C 
BRANCH  15  16
ATOM     16  C   UNL     1       3.739   7.835  -1.891  1.00  0.00     0.027 C 
BRANCH  16  17
ATOM     17  C   UNL     1       3.897   8.200  -0.407  1.00  0.00     0.004 C 
BRANCH  17  18
ATOM     18  C   UNL     1       3.954   6.949   0.487  1.00  0.00     0.000 C 
BRANCH  18  19
ATOM     19  C   UNL     1       2.762   6.861   1.454  1.00  0.00    -0.003 C 
ATOM     20  C   UNL     1       1.506   7.534   0.903  1.00  0.00     0.004 C 
ENDBRANCH  18  19
ENDBRANCH  17  18
ENDBRANCH  16  17
ENDBRANCH  15  16
ENDBRANCH  13  14
ENDBRANCH  12  13
ENDBRANCH   1  11
TORSDOF 14
ENDMDL
MODEL 4
REMARK VINA RESULT:    -3.806      2.665      7.827
REMARK INTER + INTRA:          -8.323
REMARK INTER:                  -6.999
REMARK INTRA:                  -1.324
REMARK UNBOUND:                -1.403
REMARK SMILES CCCCCC=CCC=CCCCCCCCC(=O)[O-]
REMARK SMILES IDX 11 1 12 2 13 3 14 4 15 5 16 6 17 7 18 8 19 9 20 10 10 11
REMARK SMILES IDX 9 12 8 13 7 14 6 15 5 16 4 17 3 18 2 19 1 20
REMARK H PARENT
REMARK Flexibility Score: inf
ROOT
ATOM      1  C   UNL     1       0.936  11.204  -3.229  1.00  0.00     0.027 C 
ENDROOT
BRANCH   1   2
ATOM      2  C   UNL     1       2.420  11.108  -3.629  1.00  0.00     0.004 C 
BRANCH   2   3
ATOM      3  C   UNL     1       3.031   9.705  -3.451  1.00  0.00     0.000 C 
BRANCH   3   4
ATOM      4  C   UNL     1       3.875   9.555  -2.168  1.00  0.00     0.000 C 
BRANCH   4   5
ATOM      5  C   UNL     1       4.117   8.079  -1.799  1.00  0.00     0.000 C 
BRANCH   5   6
ATOM      6  C   UNL     1       3.802   7.774  -0.326  1.00  0.00     0.006 C 
BRANCH   6   7
ATOM      7  C   UNL     1       2.896   8.828   0.320  1.00  0.00     0.053 C 
BRANCH   7   8
ATOM      8  C   UNL     1       1.471   8.374   0.302  1.00  0.00     0.041 C 
ATOM      9  O   UNL     1       1.198   7.145   0.305  1.00  0.00    -0.550 OA
ATOM     10  O   UNL     1       0.445   9.307   0.235  1.00  0.00    -0.550 OA
ENDBRANCH   7   8
ENDBRANCH   6   7
ENDBRANCH   5   6
ENDBRANCH   4   5
ENDBRANCH   3   4
ENDBRANCH   2   3
ENDBRANCH   1   2
BRANCH   1  11
ATOM     11  C   UNL     1       0.307  12.513  -3.631  1.00  0.00    -0.031 C 
ATOM     12  C   UNL     1       0.904  13.350  -4.494  1.00  0.00    -0.027 C 
BRANCH  12  13
ATOM     13  C   UNL     1       0.265  14.655  -4.880  1.00  0.00     0.054 C 
BRANCH  13  14
ATOM     14  C   UNL     1      -0.632  15.157  -3.775  1.00  0.00    -0.027 C 
ATOM     15  C   UNL     1      -1.768  15.835  -4.001  1.00  0.00    -0.031 C 
BRANCH  15  16
ATOM     16  C   UNL     1      -2.272  16.167  -5.385  1.00  0.00     0.027 C 
BRANCH  16  17
ATOM     17  C   UNL     1      -2.926  14.954  -6.064  1.00  0.00     0.004 C 
BRANCH  17  18
ATOM     18  C   UNL     1      -3.356  13.888  -5.042  1.00  0.00     0.000 C 
BRANCH  18  19
ATOM     19  C   UNL     1      -3.004  12.462  -5.495  1.00  0.00    -0.003 C 
ATOM     20  C   UNL     1      -2.996  11.462  -4.339  1.00  0.00     0.004 C 
ENDBRANCH  18  19
ENDBRANCH  17  18
ENDBRANCH  16  17
ENDBRANCH  15  16
ENDBRANCH  13  14
ENDBRANCH  12  13
ENDBRANCH   1  11
TORSDOF 14
ENDMDL
MODEL 5
REMARK VINA RESULT:    -3.755      2.953      7.596
REMARK INTER + INTRA:          -8.231
REMARK INTER:                  -6.987
REMARK INTRA:                  -1.244
REMARK UNBOUND:                -1.403
REMARK SMILES CCCCCC=CCC=CCCCCCCCC(=O)[O-]
REMARK SMILES IDX 11 1 12 2 13 3 14 4 15 5 16 6 17 7 18 8 19 9 20 10 10 11
REMARK SMILES IDX 9 12 8 13 7 14 6 15 5 16 4 17 3 18 2 19 1 20
REMARK H PARENT
REMARK Flexibility Score: inf
ROOT
ATOM      1  C   UNL     1      -0.874  11.376  -3.529  1.00  0.00     0.027 C 
ENDROOT
BRANCH   1   2
ATOM      2  C   UNL     1       0.589  11.762  -3.246  1.00  0.00     0.004 C 
BRANCH   2   3
ATOM      3  C   UNL     1       1.577  10.580  -3.313  1.00  0.00     0.000 C 
BRANCH   3   4
ATOM      4  C   UNL     1       1.996  10.043  -1.929  1.00  0.00     0.000 C 
BRANCH   4   5
ATOM      5  C   UNL     1       0.870  10.175  -0.887  1.00  0.00     0.000 C 
BRANCH   5   6
ATOM      6  C   UNL     1       0.687   8.905  -0.041  1.00  0.00     0.006 C 
BRANCH   6   7
ATOM      7  C   UNL     1       1.750   7.839  -0.330  1.00  0.00     0.053 C 
BRANCH   7   8
ATOM      8  C   UNL     1       2.660   7.677   0.845  1.00  0.00     0.041 C 
ATOM      9  O   UNL     1       2.468   6.748   1.672  1.00  0.00    -0.550 OA
ATOM     10  O   UNL     1       3.695   8.580   1.054  1.00  0.00    -0.550 OA
ENDBRANCH   7   8
ENDBRANCH   6   7
ENDBRANCH   5   6
ENDBRANCH   4   5
ENDBRANCH   3   4
ENDBRANCH   2   3
ENDBRANCH   1   2
BRANCH   1  11
ATOM     11  C   UNL     1      -1.449  12.101  -4.719  1.00  0.00    -0.031 C 
ATOM     12  C   UNL     1      -1.693  13.421  -4.693  1.00  0.00    -0.027 C 
BRANCH  12  13
ATOM     13  C   UNL     1      -2.273  14.128  -5.886  1.00  0.00     0.054 C 
BRANCH  13  14
ATOM     14  C   UNL     1      -2.960  15.405  -5.468  1.00  0.00    -0.027 C 
ATOM     15  C   UNL     1      -2.324  16.583  -5.365  1.00  0.00    -0.031 C 
BRANCH  15  16
ATOM     16  C   UNL     1      -0.853  16.758  -5.658  1.00  0.00     0.027 C 
BRANCH  16  17
ATOM     17  C   UNL     1      -0.092  17.333  -4.454  1.00  0.00     0.004 C 
BRANCH  17  18
ATOM     18  C   UNL     1       0.333  16.234  -3.466  1.00  0.00     0.000 C 
BRANCH  18  19
ATOM     19  C   UNL     1      -0.657  16.074  -2.300  1.00  0.00    -0.003 C 
ATOM     20  C   UNL     1       0.039  15.765  -0.975  1.00  0.00     0.004 C 
ENDBRANCH  18  19
ENDBRANCH  17  18
ENDBRANCH  16  17
ENDBRANCH  15  16
ENDBRANCH  13  14
ENDBRANCH  12  13
ENDBRANCH   1  11
TORSDOF 14
ENDMDL
MODEL 6
REMARK VINA RESULT:    -3.628      1.467      3.850
REMARK INTER + INTRA:          -8.000
REMARK INTER:                  -6.278
REMARK INTRA:                  -1.722
REMARK UNBOUND:                -1.403
REMARK SMILES CCCCCC=CCC=CCCCCCCCC(=O)[O-]
REMARK SMILES IDX 11 1 12 2 13 3 14 4 15 5 16 6 17 7 18 8 19 9 20 10 10 11
REMARK SMILES IDX 9 12 8 13 7 14 6 15 5 16 4 17 3 18 2 19 1 20
REMARK H PARENT
REMARK Flexibility Score: inf
ROOT
ATOM      1  C   UNL     1      -2.555  17.196  -5.227  1.00  0.00     0.027 C 
ENDROOT
BRANCH   1   2
ATOM      2  C   UNL     1      -1.742  18.230  -6.029  1.00  0.00     0.004 C 
BRANCH   2   3
ATOM      3  C   UNL     1      -0.331  18.494  -5.466  1.00  0.00     0.000 C 
BRANCH   3   4
ATOM      4  C   UNL     1       0.744  17.530  -6.009  1.00  0.00     0.000 C 
BRANCH   4   5
ATOM      5  C   UNL     1       0.949  16.310  -5.094  1.00  0.00     0.000 C 
BRANCH   5   6
ATOM      6  C   UNL     1       0.604  16.601  -3.625  1.00  0.00     0.006 C 
BRANCH   6   7
ATOM      7  C   UNL     1      -0.052  15.408  -2.920  1.00  0.00     0.053 C 
BRANCH   7   8
ATOM      8  C   UNL     1      -0.512  15.798  -1.552  1.00  0.00     0.041 C 
ATOM      9  O   UNL     1       0.298  15.800  -0.587  1.00  0.00    -0.550 OA
ATOM     10  O   UNL     1      -1.846  16.115  -1.331  1.00  0.00    -0.550 OA
ENDBRANCH   7   8
ENDBRANCH   6   7
ENDBRANCH   5   6
ENDBRANCH   4   5
ENDBRANCH   3   4
ENDBRANCH   2   3
ENDBRANCH   1   2
BRANCH   1  11
ATOM     11  C   UNL     1      -2.622  15.853  -5.906  1.00  0.00    -0.031 C 
ATOM     12  C   UNL     1      -2.532  14.706  -5.214  1.00  0.00    -0.027 C 
BRANCH  12  13
ATOM     13  C   UNL     1      -2.593  13.373  -5.908  1.00  0.00     0.054 C 
BRANCH  13  14
ATOM     14  C   UNL     1      -2.961  12.281  -4.934  1.00  0.00    -0.027 C 
ATOM     15  C   UNL     1      -2.058  11.628  -4.185  1.00  0.00    -0.031 C 
BRANCH  15  16
ATOM     16  C   UNL     1      -0.577  11.918  -4.235  1.00  0.00     0.027 C 
BRANCH  16  17
ATOM     17  C   UNL     1       0.135  11.494  -2.942  1.00  0.00     0.004 C 
BRANCH  17  18
ATOM     18  C   UNL     1       1.549  10.952  -3.217  1.00  0.00     0.000 C 
BRANCH  18  19
ATOM     19  C   UNL     1       2.027   9.975  -2.131  1.00  0.00    -0.003 C 
ATOM     20  C   UNL     1       1.092   9.933  -0.923  1.00  0.00     0.004 C 
ENDBRANCH  18  19
ENDBRANCH  17  18
ENDBRANCH  16  17
ENDBRANCH  15  16
ENDBRANCH  13  14
ENDBRANCH  12  13
ENDBRANCH   1  11
TORSDOF 14
ENDMDL
MODEL 7
REMARK VINA RESULT:    -3.475      2.145      3.747
REMARK INTER + INTRA:          -7.722
REMARK INTER:                  -6.664
REMARK INTRA:                  -1.058
REMARK UNBOUND:                -1.403
REMARK SMILES CCCCCC=CCC=CCCCCCCCC(=O)[O-]
REMARK SMILES IDX 11 1 12 2 13 3 14 4 15 5 16 6 17 7 18 8 19 9 20 10 10 11
REMARK SMILES IDX 9 12 8 13 7 14 6 15 5 16 4 17 3 18 2 19 1 20
REMARK H PARENT
REMARK Flexibility Score: inf
ROOT
ATOM      1  C   UNL     1       0.402  11.301  -3.055  1.00  0.00     0.027 C 
ENDROOT
BRANCH   1   2
ATOM      2  C   UNL     1       0.561  12.333  -4.186  1.00  0.00     0.004 C 
BRANCH   2   3
ATOM      3  C   UNL     1       0.198  13.775  -3.780  1.00  0.00     0.000 C 
BRANCH   3   4
ATOM      4  C   UNL     1       0.043  14.736  -4.976  1.00  0.00     0.000 C 
BRANCH   4   5
ATOM      5  C   UNL     1      -0.788  15.982  -4.619  1.00  0.00     0.000 C 
BRANCH   5   6
ATOM      6  C   UNL     1      -2.200  15.951  -5.225  1.00  0.00     0.006 C 
BRANCH   6   7
ATOM      7  C   UNL     1      -2.470  14.682  -6.041  1.00  0.00     0.053 C 
BRANCH   7   8
ATOM      8  C   UNL     1      -3.095  13.631  -5.181  1.00  0.00     0.041 C 
ATOM      9  O   UNL     1      -2.902  12.412  -5.430  1.00  0.00    -0.550 OA
ATOM     10  O   UNL     1      -3.928  13.996  -4.132  1.00  0.00    -0.550 OA
ENDBRANCH   7   8
ENDBRANCH   6   7
ENDBRANCH   5   6
ENDBRANCH   4   5
ENDBRANCH   3   4
ENDBRANCH   2   3
ENDBRANCH   1   2
BRANCH   1  11
ATOM     11  C   UNL     1       1.722  10.822  -2.511  1.00  0.00    -0.031 C 
ATOM     12  C   UNL     1       2.627  10.206  -3.289  1.00  0.00    -0.027 C 
BRANCH  12  13
ATOM     13  C   UNL     1       3.938   9.728  -2.729  1.00  0.00     0.054 C 
BRANCH  13  14
ATOM     14  C   UNL     1       3.984   8.220  -2.692  1.00  0.00    -0.027 C 
ATOM     15  C   UNL     1       3.904   7.510  -1.555  1.00  0.00    -0.031 C 
BRANCH  15  16
ATOM     16  C   UNL     1       3.757   8.142  -0.192  1.00  0.00     0.027 C 
BRANCH  16  17
ATOM     17  C   UNL     1       3.251   7.140   0.855  1.00  0.00     0.004 C 
BRANCH  17  18
ATOM     18  C   UNL     1       1.743   7.296   1.116  1.00  0.00     0.000 C 
BRANCH  18  19
ATOM     19  C   UNL     1       1.005   7.949  -0.064  1.00  0.00    -0.003 C 
ATOM     20  C   UNL     1       0.371   9.289   0.307  1.00  0.00     0.004 C 
ENDBRANCH  18  19
ENDBRANCH  17  18
ENDBRANCH  16  17
ENDBRANCH  15  16
ENDBRANCH  13  14
ENDBRANCH  12  13
ENDBRANCH   1  11
TORSDOF 14
ENDMDL
MODEL 8
REMARK VINA RESULT:    -3.420      1.974      3.670
REMARK INTER + INTRA:          -7.622
REMARK INTER:                  -6.763
REMARK INTRA:                  -0.859
REMARK UNBOUND:                -1.403
REMARK SMILES CCCCCC=CCC=CCCCCCCCC(=O)[O-]
REMARK SMILES IDX 11 1 12 2 13 3 14 4 15 5 16 6 17 7 18 8 19 9 20 10 10 11
REMARK SMILES IDX 9 12 8 13 7 14 6 15 5 16 4 17 3 18 2 19 1 20
REMARK H PARENT
REMARK Flexibility Score: inf
ROOT
ATOM      1  C   UNL     1       0.735  11.459  -3.352  1.00  0.00     0.027 C 
ENDROOT
BRANCH   1   2
ATOM      2  C   UNL     1       0.492  12.608  -4.348  1.00  0.00     0.004 C 
BRANCH   2   3
ATOM      3  C   UNL     1      -0.814  13.389  -4.103  1.00  0.00     0.000 C 
BRANCH   3   4
ATOM      4  C   UNL     1      -2.055  12.740  -4.749  1.00  0.00     0.000 C 
BRANCH   4   5
ATOM      5  C   UNL     1      -2.591  13.562  -5.936  1.00  0.00     0.000 C 
BRANCH   5   6
ATOM      6  C   UNL     1      -1.908  14.932  -6.070  1.00  0.00     0.006 C 
BRANCH   6   7
ATOM      7  C   UNL     1      -2.860  16.101  -5.795  1.00  0.00     0.053 C 
BRANCH   7   8
ATOM      8  C   UNL     1      -2.099  17.286  -5.291  1.00  0.00     0.041 C 
ATOM      9  O   UNL     1      -2.401  18.445  -5.680  1.00  0.00    -0.550 OA
ATOM     10  O   UNL     1      -1.027  17.108  -4.427  1.00  0.00    -0.550 OA
ENDBRANCH   7   8
ENDBRANCH   6   7
ENDBRANCH   5   6
ENDBRANCH   4   5
ENDBRANCH   3   4
ENDBRANCH   2   3
ENDBRANCH   1   2
BRANCH   1  11
ATOM     11  C   UNL     1       2.169  10.999  -3.329  1.00  0.00    -0.031 C 
ATOM     12  C   UNL     1       2.532   9.838  -2.761  1.00  0.00    -0.027 C 
BRANCH  12  13
ATOM     13  C   UNL     1       3.969   9.398  -2.741  1.00  0.00     0.054 C 
BRANCH  13  14
ATOM     14  C   UNL     1       4.066   7.897  -2.616  1.00  0.00    -0.027 C 
ATOM     15  C   UNL     1       4.057   7.254  -1.437  1.00  0.00    -0.031 C 
BRANCH  15  16
ATOM     16  C   UNL     1       3.947   7.964  -0.109  1.00  0.00     0.027 C 
BRANCH  16  17
ATOM     17  C   UNL     1       3.288   7.081   0.961  1.00  0.00     0.004 C 
BRANCH  17  18
ATOM     18  C   UNL     1       1.769   7.312   1.040  1.00  0.00     0.000 C 
BRANCH  18  19
ATOM     19  C   UNL     1       1.237   8.138  -0.142  1.00  0.00    -0.003 C 
ATOM     20  C   UNL     1       0.304   9.265   0.300  1.00  0.00     0.004 C 
ENDBRANCH  18  19
ENDBRANCH  17  18
ENDBRANCH  16  17
ENDBRANCH  15  16
ENDBRANCH  13  14
ENDBRANCH  12  13
ENDBRANCH   1  11
TORSDOF 14
ENDMDL
