MODEL 1
REMARK VINA RESULT:    -5.146      0.000      0.000
REMARK INTER + INTRA:         -16.220
REMARK INTER:                 -12.967
REMARK INTRA:                  -3.253
REMARK UNBOUND:                -3.253
REMARK SMILES CCCCCCCCCCCCCCCCCCCCCCCCCCCC(=O)[O-]
REMARK SMILES IDX 15 1 16 2 17 3 18 4 19 5 20 6 21 7 22 8 23 9 24 10 25 11
REMARK SMILES IDX 26 12 27 13 28 14 29 15 30 16 14 17 13 18 12 19 11 20 10 21
REMARK SMILES IDX 9 22 8 23 7 24 6 25 5 26 4 27 3 28 2 29 1 30
REMARK H PARENT
REMARK Flexibility Score: inf
ROOT
ATOM      1  C   UNL     1      22.304 120.287 299.472  1.00  0.00     0.000 C 
ENDROOT
BRANCH   1   2
ATOM      2  C   UNL     1      21.723 121.115 300.631  1.00  0.00     0.000 C 
BRANCH   2   3
ATOM      3  C   UNL     1      21.363 120.248 301.848  1.00  0.00     0.000 C 
BRANCH   3   4
ATOM      4  C   UNL     1      22.090 120.698 303.128  1.00  0.00     0.000 C 
BRANCH   4   5
ATOM      5  C   UNL     1      23.348 121.538 302.821  1.00  0.00     0.000 C 
BRANCH   5   6
ATOM      6  C   UNL     1      24.572 121.146 303.666  1.00  0.00     0.000 C 
BRANCH   6   7
ATOM      7  C   UNL     1      25.568 120.267 302.895  1.00  0.00     0.000 C 
BRANCH   7   8
ATOM      8  C   UNL     1      26.046 120.918 301.585  1.00  0.00     0.000 C 
BRANCH   8   9
ATOM      9  C   UNL     1      26.404 119.923 300.463  1.00  0.00     0.000 C 
BRANCH   9  10
ATOM     10  C   UNL     1      25.921 120.322 299.053  1.00  0.00     0.000 C 
BRANCH  10  11
ATOM     11  C   UNL     1      26.443 119.433 297.911  1.00  0.00     0.000 C 
BRANCH  11  12
ATOM     12  C   UNL     1      25.965 119.896 296.525  1.00  0.00     0.006 C 
BRANCH  12  13
ATOM     13  C   UNL     1      25.726 121.411 296.472  1.00  0.00     0.053 C 
BRANCH  13  14
ATOM     14  C   UNL     1      25.551 121.892 295.063  1.00  0.00     0.041 C 
ATOM     15  O   UNL     1      25.194 123.079 294.837  1.00  0.00    -0.550 OA
ATOM     16  O   UNL     1      25.817 121.040 293.999  1.00  0.00    -0.550 OA
ENDBRANCH  13  14
ENDBRANCH  12  13
ENDBRANCH  11  12
ENDBRANCH  10  11
ENDBRANCH   9  10
ENDBRANCH   8   9
ENDBRANCH   7   8
ENDBRANCH   6   7
ENDBRANCH   5   6
ENDBRANCH   4   5
ENDBRANCH   3   4
ENDBRANCH   2   3
ENDBRANCH   1   2
BRANCH   1  17
ATOM     17  C   UNL     1      22.513 118.808 299.843  1.00  0.00     0.000 C 
BRANCH  17  18
ATOM     18  C   UNL     1      23.145 117.947 298.733  1.00  0.00     0.000 C 
BRANCH  18  19
ATOM     19  C   UNL     1      22.557 118.244 297.341  1.00  0.00     0.000 C 
BRANCH  19  20
ATOM     20  C   UNL     1      21.877 117.016 296.714  1.00  0.00     0.000 C 
BRANCH  20  21
ATOM     21  C   UNL     1      20.563 116.647 297.426  1.00  0.00     0.000 C 
BRANCH  21  22
ATOM     22  C   UNL     1      19.318 116.994 296.595  1.00  0.00    -0.000 C 
BRANCH  22  23
ATOM     23  C   UNL     1      18.981 118.493 296.628  1.00  0.00    -0.000 C 
BRANCH  23  24
ATOM     24  C   UNL     1      18.987 119.085 295.210  1.00  0.00    -0.000 C 
BRANCH  24  25
ATOM     25  C   UNL     1      18.917 118.012 294.109  1.00  0.00    -0.000 C 
BRANCH  25  26
ATOM     26  C   UNL     1      17.511 117.746 293.528  1.00  0.00    -0.000 C 
BRANCH  26  27
ATOM     27  C   UNL     1      17.389 116.495 292.634  1.00  0.00    -0.000 C 
BRANCH  27  28
ATOM     28  C   UNL     1      18.536 116.336 291.611  1.00  0.00    -0.000 C 
BRANCH  28  29
ATOM     29  C   UNL     1      18.258 115.270 290.537  1.00  0.00    -0.003 C 
ATOM     30  C   UNL     1      16.977 114.483 290.800  1.00  0.00     0.004 C 
ENDBRANCH  28  29
ENDBRANCH  27  28
ENDBRANCH  26  27
ENDBRANCH  25  26
ENDBRANCH  24  25
ENDBRANCH  23  24
ENDBRANCH  22  23
ENDBRANCH  21  22
ENDBRANCH  20  21
ENDBRANCH  19  20
ENDBRANCH  18  19
ENDBRANCH  17  18
ENDBRANCH   1  17
TORSDOF 26
ENDMDL
MODEL 2
REMARK VINA RESULT:    -5.135      4.468      6.774
REMARK INTER + INTRA:         -16.192
REMARK INTER:                 -12.893
REMARK INTRA:                  -3.299
REMARK UNBOUND:                -3.253
REMARK SMILES CCCCCCCCCCCCCCCCCCCCCCCCCCCC(=O)[O-]
REMARK SMILES IDX 15 1 16 2 17 3 18 4 19 5 20 6 21 7 22 8 23 9 24 10 25 11
REMARK SMILES IDX 26 12 27 13 28 14 29 15 30 16 14 17 13 18 12 19 11 20 10 21
REMARK SMILES IDX 9 22 8 23 7 24 6 25 5 26 4 27 3 28 2 29 1 30
REMARK H PARENT
REMARK Flexibility Score: inf
ROOT
ATOM      1  C   UNL     1      19.694 121.757 294.188  1.00  0.00     0.000 C 
ENDROOT
BRANCH   1   2
ATOM      2  C   UNL     1      20.308 120.706 295.129  1.00  0.00     0.000 C 
BRANCH   2   3
ATOM      3  C   UNL     1      20.057 119.269 294.647  1.00  0.00     0.000 C 
BRANCH   3   4
ATOM      4  C   UNL     1      20.155 118.239 295.787  1.00  0.00     0.000 C 
BRANCH   4   5
ATOM      5  C   UNL     1      21.467 118.377 296.588  1.00  0.00     0.000 C 
BRANCH   5   6
ATOM      6  C   UNL     1      22.425 117.186 296.410  1.00  0.00     0.000 C 
BRANCH   6   7
ATOM      7  C   UNL     1      23.271 117.292 295.132  1.00  0.00     0.000 C 
BRANCH   7   8
ATOM      8  C   UNL     1      23.971 118.655 294.993  1.00  0.00     0.000 C 
BRANCH   8   9
ATOM      9  C   UNL     1      23.955 119.246 293.569  1.00  0.00     0.000 C 
BRANCH   9  10
ATOM     10  C   UNL     1      24.084 118.215 292.428  1.00  0.00     0.000 C 
BRANCH  10  11
ATOM     11  C   UNL     1      25.346 118.359 291.561  1.00  0.00     0.000 C 
BRANCH  11  12
ATOM     12  C   UNL     1      25.030 118.706 290.096  1.00  0.00     0.006 C 
BRANCH  12  13
ATOM     13  C   UNL     1      24.086 117.684 289.450  1.00  0.00     0.053 C 
BRANCH  13  14
ATOM     14  C   UNL     1      23.386 118.259 288.256  1.00  0.00     0.041 C 
ATOM     15  O   UNL     1      22.877 117.498 287.390  1.00  0.00    -0.550 OA
ATOM     16  O   UNL     1      23.264 119.636 288.118  1.00  0.00    -0.550 OA
ENDBRANCH  13  14
ENDBRANCH  12  13
ENDBRANCH  11  12
ENDBRANCH  10  11
ENDBRANCH   9  10
ENDBRANCH   8   9
ENDBRANCH   7   8
ENDBRANCH   6   7
ENDBRANCH   5   6
ENDBRANCH   4   5
ENDBRANCH   3   4
ENDBRANCH   2   3
ENDBRANCH   1   2
BRANCH   1  17
ATOM     17  C   UNL     1      18.774 122.748 294.921  1.00  0.00     0.000 C 
BRANCH  17  18
ATOM     18  C   UNL     1      18.436 124.024 294.128  1.00  0.00     0.000 C 
BRANCH  18  19
ATOM     19  C   UNL     1      18.170 123.746 292.637  1.00  0.00     0.000 C 
BRANCH  19  20
ATOM     20  C   UNL     1      16.673 123.780 292.288  1.00  0.00     0.000 C 
BRANCH  20  21
ATOM     21  C   UNL     1      16.010 122.397 292.419  1.00  0.00     0.000 C 
BRANCH  21  22
ATOM     22  C   UNL     1      15.098 122.290 293.651  1.00  0.00    -0.000 C 
BRANCH  22  23
ATOM     23  C   UNL     1      15.356 121.017 294.472  1.00  0.00    -0.000 C 
BRANCH  23  24
ATOM     24  C   UNL     1      16.457 120.164 293.825  1.00  0.00    -0.000 C 
BRANCH  24  25
ATOM     25  C   UNL     1      16.004 118.724 293.523  1.00  0.00    -0.000 C 
BRANCH  25  26
ATOM     26  C   UNL     1      16.706 117.620 294.342  1.00  0.00    -0.000 C 
BRANCH  26  27
ATOM     27  C   UNL     1      17.470 116.565 293.516  1.00  0.00    -0.000 C 
BRANCH  27  28
ATOM     28  C   UNL     1      17.334 116.743 291.986  1.00  0.00    -0.000 C 
BRANCH  28  29
ATOM     29  C   UNL     1      18.115 115.696 291.174  1.00  0.00    -0.003 C 
ATOM     30  C   UNL     1      17.205 114.717 290.436  1.00  0.00     0.004 C 
ENDBRANCH  28  29
ENDBRANCH  27  28
ENDBRANCH  26  27
ENDBRANCH  25  26
ENDBRANCH  24  25
ENDBRANCH  23  24
ENDBRANCH  22  23
ENDBRANCH  21  22
ENDBRANCH  20  21
ENDBRANCH  19  20
ENDBRANCH  18  19
ENDBRANCH  17  18
ENDBRANCH   1  17
TORSDOF 26
ENDMDL
MODEL 3
REMARK VINA RESULT:    -4.944      1.470      2.077
REMARK INTER + INTRA:         -15.711
REMARK INTER:                 -12.734
REMARK INTRA:                  -2.978
REMARK UNBOUND:                -3.253
REMARK SMILES CCCCCCCCCCCCCCCCCCCCCCCCCCCC(=O)[O-]
REMARK SMILES IDX 15 1 16 2 17 3 18 4 19 5 20 6 21 7 22 8 23 9 24 10 25 11
REMARK SMILES IDX 26 12 27 13 28 14 29 15 30 16 14 17 13 18 12 19 11 20 10 21
REMARK SMILES IDX 9 22 8 23 7 24 6 25 5 26 4 27 3 28 2 29 1 30
REMARK H PARENT
REMARK Flexibility Score: inf
ROOT
ATOM      1  C   UNL     1      22.423 120.618 299.459  1.00  0.00     0.000 C 
ENDROOT
BRANCH   1   2
ATOM      2  C   UNL     1      22.777 121.656 300.538  1.00  0.00     0.000 C 
BRANCH   2   3
ATOM      3  C   UNL     1      22.678 121.081 301.960  1.00  0.00     0.000 C 
BRANCH   3   4
ATOM      4  C   UNL     1      24.059 120.798 302.578  1.00  0.00     0.000 C 
BRANCH   4   5
ATOM      5  C   UNL     1      25.197 121.515 301.821  1.00  0.00     0.000 C 
BRANCH   5   6
ATOM      6  C   UNL     1      26.529 120.746 301.841  1.00  0.00     0.000 C 
BRANCH   6   7
ATOM      7  C   UNL     1      27.125 120.554 300.437  1.00  0.00     0.000 C 
BRANCH   7   8
ATOM      8  C   UNL     1      26.174 119.808 299.485  1.00  0.00     0.000 C 
BRANCH   8   9
ATOM      9  C   UNL     1      26.487 119.992 297.986  1.00  0.00     0.000 C 
BRANCH   9  10
ATOM     10  C   UNL     1      25.379 120.682 297.164  1.00  0.00     0.000 C 
BRANCH  10  11
ATOM     11  C   UNL     1      25.880 121.706 296.131  1.00  0.00     0.000 C 
BRANCH  11  12
ATOM     12  C   UNL     1      27.284 121.380 295.595  1.00  0.00     0.006 C 
BRANCH  12  13
ATOM     13  C   UNL     1      27.235 120.694 294.223  1.00  0.00     0.053 C 
BRANCH  13  14
ATOM     14  C   UNL     1      27.902 119.352 294.254  1.00  0.00     0.041 C 
ATOM     15  O   UNL     1      28.493 118.961 295.296  1.00  0.00    -0.550 OA
ATOM     16  O   UNL     1      27.838 118.519 293.145  1.00  0.00    -0.550 OA
ENDBRANCH  13  14
ENDBRANCH  12  13
ENDBRANCH  11  12
ENDBRANCH  10  11
ENDBRANCH   9  10
ENDBRANCH   8   9
ENDBRANCH   7   8
ENDBRANCH   6   7
ENDBRANCH   5   6
ENDBRANCH   4   5
ENDBRANCH   3   4
ENDBRANCH   2   3
ENDBRANCH   1   2
BRANCH   1  17
ATOM     17  C   UNL     1      21.572 119.458 300.005  1.00  0.00     0.000 C 
BRANCH  17  18
ATOM     18  C   UNL     1      21.900 118.077 299.406  1.00  0.00     0.000 C 
BRANCH  18  19
ATOM     19  C   UNL     1      22.787 118.169 298.151  1.00  0.00     0.000 C 
BRANCH  19  20
ATOM     20  C   UNL     1      22.392 117.147 297.073  1.00  0.00     0.000 C 
BRANCH  20  21
ATOM     21  C   UNL     1      20.889 116.817 297.101  1.00  0.00     0.000 C 
BRANCH  21  22
ATOM     22  C   UNL     1      20.095 117.569 296.022  1.00  0.00    -0.000 C 
BRANCH  22  23
ATOM     23  C   UNL     1      19.253 118.719 296.596  1.00  0.00    -0.000 C 
BRANCH  23  24
ATOM     24  C   UNL     1      17.829 118.693 296.021  1.00  0.00    -0.000 C 
BRANCH  24  25
ATOM     25  C   UNL     1      17.527 117.417 295.216  1.00  0.00    -0.000 C 
BRANCH  25  26
ATOM     26  C   UNL     1      17.246 117.630 293.713  1.00  0.00    -0.000 C 
BRANCH  26  27
ATOM     27  C   UNL     1      17.377 116.373 292.828  1.00  0.00    -0.000 C 
BRANCH  27  28
ATOM     28  C   UNL     1      18.453 116.488 291.724  1.00  0.00    -0.000 C 
BRANCH  28  29
ATOM     29  C   UNL     1      18.306 115.438 290.611  1.00  0.00    -0.003 C 
ATOM     30  C   UNL     1      17.064 114.565 290.778  1.00  0.00     0.004 C 
ENDBRANCH  28  29
ENDBRANCH  27  28
ENDBRANCH  26  27
ENDBRANCH  25  26
ENDBRANCH  24  25
ENDBRANCH  23  24
ENDBRANCH  22  23
ENDBRANCH  21  22
ENDBRANCH  20  21
ENDBRANCH  19  20
ENDBRANCH  18  19
ENDBRANCH  17  18
ENDBRANCH   1  17
TORSDOF 26
ENDMDL
MODEL 4
REMARK VINA RESULT:    -4.934      1.482      2.267
REMARK INTER + INTRA:         -15.686
REMARK INTER:                 -12.051
REMARK INTRA:                  -3.634
REMARK UNBOUND:                -3.253
REMARK SMILES CCCCCCCCCCCCCCCCCCCCCCCCCCCC(=O)[O-]
REMARK SMILES IDX 15 1 16 2 17 3 18 4 19 5 20 6 21 7 22 8 23 9 24 10 25 11
REMARK SMILES IDX 26 12 27 13 28 14 29 15 30 16 14 17 13 18 12 19 11 20 10 21
REMARK SMILES IDX 9 22 8 23 7 24 6 25 5 26 4 27 3 28 2 29 1 30
REMARK H PARENT
REMARK Flexibility Score: inf
ROOT
ATOM      1  C   UNL     1      21.409 118.744 298.428  1.00  0.00     0.000 C 
ENDROOT
BRANCH   1   2
ATOM      2  C   UNL     1      21.539 118.599 299.954  1.00  0.00     0.000 C 
BRANCH   2   3
ATOM      3  C   UNL     1      22.619 119.521 300.541  1.00  0.00     0.000 C 
BRANCH   3   4
ATOM      4  C   UNL     1      22.174 120.187 301.855  1.00  0.00     0.000 C 
BRANCH   4   5
ATOM      5  C   UNL     1      23.252 121.135 302.424  1.00  0.00     0.000 C 
BRANCH   5   6
ATOM      6  C   UNL     1      24.198 121.705 301.353  1.00  0.00     0.000 C 
BRANCH   6   7
ATOM      7  C   UNL     1      25.680 121.543 301.724  1.00  0.00     0.000 C 
BRANCH   7   8
ATOM      8  C   UNL     1      25.952 120.270 302.545  1.00  0.00     0.000 C 
BRANCH   8   9
ATOM      9  C   UNL     1      26.889 119.252 301.866  1.00  0.00     0.000 C 
BRANCH   9  10
ATOM     10  C   UNL     1      27.092 119.456 300.350  1.00  0.00     0.000 C 
BRANCH  10  11
ATOM     11  C   UNL     1      26.361 118.442 299.453  1.00  0.00     0.000 C 
BRANCH  11  12
ATOM     12  C   UNL     1      25.455 119.112 298.407  1.00  0.00     0.006 C 
BRANCH  12  13
ATOM     13  C   UNL     1      25.824 120.584 298.179  1.00  0.00     0.053 C 
BRANCH  13  14
ATOM     14  C   UNL     1      26.487 120.786 296.850  1.00  0.00     0.041 C 
ATOM     15  O   UNL     1      27.650 120.346 296.646  1.00  0.00    -0.550 OA
ATOM     16  O   UNL     1      25.805 121.427 295.823  1.00  0.00    -0.550 OA
ENDBRANCH  13  14
ENDBRANCH  12  13
ENDBRANCH  11  12
ENDBRANCH  10  11
ENDBRANCH   9  10
ENDBRANCH   8   9
ENDBRANCH   7   8
ENDBRANCH   6   7
ENDBRANCH   5   6
ENDBRANCH   4   5
ENDBRANCH   3   4
ENDBRANCH   2   3
ENDBRANCH   1   2
BRANCH   1  17
ATOM     17  C   UNL     1      21.118 117.407 297.725  1.00  0.00     0.000 C 
BRANCH  17  18
ATOM     18  C   UNL     1      22.283 116.852 296.884  1.00  0.00     0.000 C 
BRANCH  18  19
ATOM     19  C   UNL     1      22.469 117.605 295.554  1.00  0.00     0.000 C 
BRANCH  19  20
ATOM     20  C   UNL     1      23.266 118.909 295.721  1.00  0.00     0.000 C 
BRANCH  20  21
ATOM     21  C   UNL     1      22.740 120.037 294.816  1.00  0.00     0.000 C 
BRANCH  21  22
ATOM     22  C   UNL     1      21.372 120.573 295.270  1.00  0.00    -0.000 C 
BRANCH  22  23
ATOM     23  C   UNL     1      20.257 120.294 294.251  1.00  0.00    -0.000 C 
BRANCH  23  24
ATOM     24  C   UNL     1      19.033 119.671 294.938  1.00  0.00    -0.000 C 
BRANCH  24  25
ATOM     25  C   UNL     1      18.995 118.137 294.828  1.00  0.00    -0.000 C 
BRANCH  25  26
ATOM     26  C   UNL     1      17.608 117.525 294.531  1.00  0.00    -0.000 C 
BRANCH  26  27
ATOM     27  C   UNL     1      17.233 117.427 293.038  1.00  0.00    -0.000 C 
BRANCH  27  28
ATOM     28  C   UNL     1      17.323 115.997 292.458  1.00  0.00    -0.000 C 
BRANCH  28  29
ATOM     29  C   UNL     1      18.203 115.899 291.200  1.00  0.00    -0.003 C 
ATOM     30  C   UNL     1      17.596 115.009 290.119  1.00  0.00     0.004 C 
ENDBRANCH  28  29
ENDBRANCH  27  28
ENDBRANCH  26  27
ENDBRANCH  25  26
ENDBRANCH  24  25
ENDBRANCH  23  24
ENDBRANCH  22  23
ENDBRANCH  21  22
ENDBRANCH  20  21
ENDBRANCH  19  20
ENDBRANCH  18  19
ENDBRANCH  17  18
ENDBRANCH   1  17
TORSDOF 26
ENDMDL
MODEL 5
REMARK VINA RESULT:    -4.930      1.630      3.227
REMARK INTER + INTRA:         -15.677
REMARK INTER:                 -12.135
REMARK INTRA:                  -3.542
REMARK UNBOUND:                -3.253
REMARK SMILES CCCCCCCCCCCCCCCCCCCCCCCCCCCC(=O)[O-]
REMARK SMILES IDX 15 1 16 2 17 3 18 4 19 5 20 6 21 7 22 8 23 9 24 10 25 11
REMARK SMILES IDX 26 12 27 13 28 14 29 15 30 16 14 17 13 18 12 19 11 20 10 21
REMARK SMILES IDX 9 22 8 23 7 24 6 25 5 26 4 27 3 28 2 29 1 30
REMARK H PARENT
REMARK Flexibility Score: inf
ROOT
ATOM      1  C   UNL     1      23.959 121.840 301.190  1.00  0.00     0.000 C 
ENDROOT
BRANCH   1   2
ATOM      2  C   UNL     1      23.911 121.347 302.647  1.00  0.00     0.000 C 
BRANCH   2   3
ATOM      3  C   UNL     1      25.310 121.087 303.225  1.00  0.00     0.000 C 
BRANCH   3   4
ATOM      4  C   UNL     1      26.327 120.675 302.146  1.00  0.00     0.000 C 
BRANCH   4   5
ATOM      5  C   UNL     1      26.273 119.164 301.839  1.00  0.00     0.000 C 
BRANCH   5   6
ATOM      6  C   UNL     1      27.185 118.739 300.675  1.00  0.00     0.000 C 
BRANCH   6   7
ATOM      7  C   UNL     1      26.397 118.332 299.421  1.00  0.00     0.000 C 
BRANCH   7   8
ATOM      8  C   UNL     1      26.735 119.203 298.198  1.00  0.00     0.000 C 
BRANCH   8   9
ATOM      9  C   UNL     1      25.731 120.340 297.919  1.00  0.00     0.000 C 
BRANCH   9  10
ATOM     10  C   UNL     1      25.679 120.826 296.456  1.00  0.00     0.000 C 
BRANCH  10  11
ATOM     11  C   UNL     1      24.318 120.650 295.761  1.00  0.00     0.000 C 
BRANCH  11  12
ATOM     12  C   UNL     1      24.297 119.471 294.774  1.00  0.00     0.006 C 
BRANCH  12  13
ATOM     13  C   UNL     1      25.705 118.931 294.488  1.00  0.00     0.053 C 
BRANCH  13  14
ATOM     14  C   UNL     1      25.818 118.402 293.090  1.00  0.00     0.041 C 
ATOM     15  O   UNL     1      26.947 118.126 292.605  1.00  0.00    -0.550 OA
ATOM     16  O   UNL     1      24.673 118.181 292.336  1.00  0.00    -0.550 OA
ENDBRANCH  13  14
ENDBRANCH  12  13
ENDBRANCH  11  12
ENDBRANCH  10  11
ENDBRANCH   9  10
ENDBRANCH   8   9
ENDBRANCH   7   8
ENDBRANCH   6   7
ENDBRANCH   5   6
ENDBRANCH   4   5
ENDBRANCH   3   4
ENDBRANCH   2   3
ENDBRANCH   1   2
BRANCH   1  17
ATOM     17  C   UNL     1      22.887 121.181 300.303  1.00  0.00     0.000 C 
BRANCH  17  18
ATOM     18  C   UNL     1      22.265 119.899 300.886  1.00  0.00     0.000 C 
BRANCH  18  19
ATOM     19  C   UNL     1      22.809 118.619 300.224  1.00  0.00     0.000 C 
BRANCH  19  20
ATOM     20  C   UNL     1      22.004 118.211 298.979  1.00  0.00     0.000 C 
BRANCH  20  21
ATOM     21  C   UNL     1      22.911 117.818 297.799  1.00  0.00     0.000 C 
BRANCH  21  22
ATOM     22  C   UNL     1      22.149 117.086 296.683  1.00  0.00    -0.000 C 
BRANCH  22  23
ATOM     23  C   UNL     1      20.717 117.611 296.498  1.00  0.00    -0.000 C 
BRANCH  23  24
ATOM     24  C   UNL     1      19.688 116.542 296.896  1.00  0.00    -0.000 C 
BRANCH  24  25
ATOM     25  C   UNL     1      18.256 116.891 296.452  1.00  0.00    -0.000 C 
BRANCH  25  26
ATOM     26  C   UNL     1      18.112 118.190 295.631  1.00  0.00    -0.000 C 
BRANCH  26  27
ATOM     27  C   UNL     1      17.361 118.048 294.291  1.00  0.00    -0.000 C 
BRANCH  27  28
ATOM     28  C   UNL     1      18.185 117.364 293.176  1.00  0.00    -0.000 C 
BRANCH  28  29
ATOM     29  C   UNL     1      17.449 116.196 292.498  1.00  0.00    -0.003 C 
ATOM     30  C   UNL     1      18.067 115.804 291.158  1.00  0.00     0.004 C 
ENDBRANCH  28  29
ENDBRANCH  27  28
ENDBRANCH  26  27
ENDBRANCH  25  26
ENDBRANCH  24  25
ENDBRANCH  23  24
ENDBRANCH  22  23
ENDBRANCH  21  22
ENDBRANCH  20  21
ENDBRANCH  19  20
ENDBRANCH  18  19
ENDBRANCH  17  18
ENDBRANCH   1  17
TORSDOF 26
ENDMDL
MODEL 6
REMARK VINA RESULT:    -4.897      2.680      4.572
REMARK INTER + INTRA:         -15.592
REMARK INTER:                 -11.713
REMARK INTRA:                  -3.879
REMARK UNBOUND:                -3.253
REMARK SMILES CCCCCCCCCCCCCCCCCCCCCCCCCCCC(=O)[O-]
REMARK SMILES IDX 15 1 16 2 17 3 18 4 19 5 20 6 21 7 22 8 23 9 24 10 25 11
REMARK SMILES IDX 26 12 27 13 28 14 29 15 30 16 14 17 13 18 12 19 11 20 10 21
REMARK SMILES IDX 9 22 8 23 7 24 6 25 5 26 4 27 3 28 2 29 1 30
REMARK H PARENT
REMARK Flexibility Score: inf
ROOT
ATOM      1  C   UNL     1      21.167 117.044 297.124  1.00  0.00     0.000 C 
ENDROOT
BRANCH   1   2
ATOM      2  C   UNL     1      21.607 117.880 298.338  1.00  0.00     0.000 C 
BRANCH   2   3
ATOM      3  C   UNL     1      23.135 117.982 298.459  1.00  0.00     0.000 C 
BRANCH   3   4
ATOM      4  C   UNL     1      23.734 119.027 297.502  1.00  0.00     0.000 C 
BRANCH   4   5
ATOM      5  C   UNL     1      25.074 119.593 298.019  1.00  0.00     0.000 C 
BRANCH   5   6
ATOM      6  C   UNL     1      25.652 118.813 299.213  1.00  0.00     0.000 C 
BRANCH   6   7
ATOM      7  C   UNL     1      26.618 119.655 300.061  1.00  0.00     0.000 C 
BRANCH   7   8
ATOM      8  C   UNL     1      26.018 121.009 300.478  1.00  0.00     0.000 C 
BRANCH   8   9
ATOM      9  C   UNL     1      25.633 121.112 301.967  1.00  0.00     0.000 C 
BRANCH   9  10
ATOM     10  C   UNL     1      24.117 121.101 302.257  1.00  0.00     0.000 C 
BRANCH  10  11
ATOM     11  C   UNL     1      23.232 120.682 301.070  1.00  0.00     0.000 C 
BRANCH  11  12
ATOM     12  C   UNL     1      22.232 121.774 300.655  1.00  0.00     0.006 C 
BRANCH  12  13
ATOM     13  C   UNL     1      21.048 121.204 299.864  1.00  0.00     0.053 C 
BRANCH  13  14
ATOM     14  C   UNL     1      19.772 121.921 300.190  1.00  0.00     0.041 C 
ATOM     15  O   UNL     1      18.668 121.468 299.785  1.00  0.00    -0.550 OA
ATOM     16  O   UNL     1      19.799 123.069 300.971  1.00  0.00    -0.550 OA
ENDBRANCH  13  14
ENDBRANCH  12  13
ENDBRANCH  11  12
ENDBRANCH  10  11
ENDBRANCH   9  10
ENDBRANCH   8   9
ENDBRANCH   7   8
ENDBRANCH   6   7
ENDBRANCH   5   6
ENDBRANCH   4   5
ENDBRANCH   3   4
ENDBRANCH   2   3
ENDBRANCH   1   2
BRANCH   1  17
ATOM     17  C   UNL     1      20.180 117.792 296.211  1.00  0.00     0.000 C 
BRANCH  17  18
ATOM     18  C   UNL     1      20.787 118.321 294.899  1.00  0.00     0.000 C 
BRANCH  18  19
ATOM     19  C   UNL     1      20.617 119.843 294.735  1.00  0.00     0.000 C 
BRANCH  19  20
ATOM     20  C   UNL     1      20.592 120.582 296.083  1.00  0.00     0.000 C 
BRANCH  20  21
ATOM     21  C   UNL     1      19.301 121.396 296.281  1.00  0.00     0.000 C 
BRANCH  21  22
ATOM     22  C   UNL     1      18.176 120.965 295.328  1.00  0.00    -0.000 C 
BRANCH  22  23
ATOM     23  C   UNL     1      17.154 120.034 295.997  1.00  0.00    -0.000 C 
BRANCH  23  24
ATOM     24  C   UNL     1      15.866 119.946 295.164  1.00  0.00    -0.000 C 
BRANCH  24  25
ATOM     25  C   UNL     1      15.943 118.890 294.047  1.00  0.00    -0.000 C 
BRANCH  25  26
ATOM     26  C   UNL     1      16.908 117.714 294.308  1.00  0.00    -0.000 C 
BRANCH  26  27
ATOM     27  C   UNL     1      17.805 117.315 293.118  1.00  0.00    -0.000 C 
BRANCH  27  28
ATOM     28  C   UNL     1      17.336 116.045 292.373  1.00  0.00    -0.000 C 
BRANCH  28  29
ATOM     29  C   UNL     1      18.168 115.726 291.119  1.00  0.00    -0.003 C 
ATOM     30  C   UNL     1      17.493 114.711 290.201  1.00  0.00     0.004 C 
ENDBRANCH  28  29
ENDBRANCH  27  28
ENDBRANCH  26  27
ENDBRANCH  25  26
ENDBRANCH  24  25
ENDBRANCH  23  24
ENDBRANCH  22  23
ENDBRANCH  21  22
ENDBRANCH  20  21
ENDBRANCH  19  20
ENDBRANCH  18  19
ENDBRANCH  17  18
ENDBRANCH   1  17
TORSDOF 26
ENDMDL
MODEL 7
REMARK VINA RESULT:    -4.866      1.769      3.426
REMARK INTER + INTRA:         -15.515
REMARK INTER:                 -12.248
REMARK INTRA:                  -3.266
REMARK UNBOUND:                -3.253
REMARK SMILES CCCCCCCCCCCCCCCCCCCCCCCCCCCC(=O)[O-]
REMARK SMILES IDX 15 1 16 2 17 3 18 4 19 5 20 6 21 7 22 8 23 9 24 10 25 11
REMARK SMILES IDX 26 12 27 13 28 14 29 15 30 16 14 17 13 18 12 19 11 20 10 21
REMARK SMILES IDX 9 22 8 23 7 24 6 25 5 26 4 27 3 28 2 29 1 30
REMARK H PARENT
REMARK Flexibility Score: inf
ROOT
ATOM      1  C   UNL     1      21.496 121.955 300.913  1.00  0.00     0.000 C 
ENDROOT
BRANCH   1   2
ATOM      2  C   UNL     1      22.739 121.318 301.556  1.00  0.00     0.000 C 
BRANCH   2   3
ATOM      3  C   UNL     1      24.049 121.917 301.020  1.00  0.00     0.000 C 
BRANCH   3   4
ATOM      4  C   UNL     1      25.295 121.218 301.593  1.00  0.00     0.000 C 
BRANCH   4   5
ATOM      5  C   UNL     1      26.165 120.579 300.490  1.00  0.00     0.000 C 
BRANCH   5   6
ATOM      6  C   UNL     1      25.706 119.168 300.083  1.00  0.00     0.000 C 
BRANCH   6   7
ATOM      7  C   UNL     1      25.473 119.033 298.571  1.00  0.00     0.000 C 
BRANCH   7   8
ATOM      8  C   UNL     1      24.282 119.872 298.075  1.00  0.00     0.000 C 
BRANCH   8   9
ATOM      9  C   UNL     1      22.899 119.235 298.317  1.00  0.00     0.000 C 
BRANCH   9  10
ATOM     10  C   UNL     1      22.749 117.781 297.823  1.00  0.00     0.000 C 
BRANCH  10  11
ATOM     11  C   UNL     1      22.026 117.625 296.474  1.00  0.00     0.000 C 
BRANCH  11  12
ATOM     12  C   UNL     1      22.985 117.673 295.272  1.00  0.00     0.006 C 
BRANCH  12  13
ATOM     13  C   UNL     1      23.054 119.070 294.643  1.00  0.00     0.053 C 
BRANCH  13  14
ATOM     14  C   UNL     1      24.096 119.138 293.567  1.00  0.00     0.041 C 
ATOM     15  O   UNL     1      25.035 119.975 293.645  1.00  0.00    -0.550 OA
ATOM     16  O   UNL     1      24.051 118.253 292.498  1.00  0.00    -0.550 OA
ENDBRANCH  13  14
ENDBRANCH  12  13
ENDBRANCH  11  12
ENDBRANCH  10  11
ENDBRANCH   9  10
ENDBRANCH   8   9
ENDBRANCH   7   8
ENDBRANCH   6   7
ENDBRANCH   5   6
ENDBRANCH   4   5
ENDBRANCH   3   4
ENDBRANCH   2   3
ENDBRANCH   1   2
BRANCH   1  17
ATOM     17  C   UNL     1      20.221 121.750 301.751  1.00  0.00     0.000 C 
BRANCH  17  18
ATOM     18  C   UNL     1      19.191 120.784 301.136  1.00  0.00     0.000 C 
BRANCH  18  19
ATOM     19  C   UNL     1      19.766 119.971 299.961  1.00  0.00     0.000 C 
BRANCH  19  20
ATOM     20  C   UNL     1      18.881 120.043 298.705  1.00  0.00     0.000 C 
BRANCH  20  21
ATOM     21  C   UNL     1      19.592 120.732 297.527  1.00  0.00     0.000 C 
BRANCH  21  22
ATOM     22  C   UNL     1      19.261 120.084 296.173  1.00  0.00    -0.000 C 
BRANCH  22  23
ATOM     23  C   UNL     1      18.170 119.008 296.280  1.00  0.00    -0.000 C 
BRANCH  23  24
ATOM     24  C   UNL     1      17.005 119.314 295.328  1.00  0.00    -0.000 C 
BRANCH  24  25
ATOM     25  C   UNL     1      17.276 118.866 293.880  1.00  0.00    -0.000 C 
BRANCH  25  26
ATOM     26  C   UNL     1      18.021 117.522 293.729  1.00  0.00    -0.000 C 
BRANCH  26  27
ATOM     27  C   UNL     1      17.400 116.530 292.723  1.00  0.00    -0.000 C 
BRANCH  27  28
ATOM     28  C   UNL     1      18.328 116.169 291.540  1.00  0.00    -0.000 C 
BRANCH  28  29
ATOM     29  C   UNL     1      17.569 115.798 290.255  1.00  0.00    -0.003 C 
ATOM     30  C   UNL     1      17.209 114.316 290.184  1.00  0.00     0.004 C 
ENDBRANCH  28  29
ENDBRANCH  27  28
ENDBRANCH  26  27
ENDBRANCH  25  26
ENDBRANCH  24  25
ENDBRANCH  23  24
ENDBRANCH  22  23
ENDBRANCH  21  22
ENDBRANCH  20  21
ENDBRANCH  19  20
ENDBRANCH  18  19
ENDBRANCH  17  18
ENDBRANCH   1  17
TORSDOF 26
ENDMDL
MODEL 8
REMARK VINA RESULT:    -4.850      2.834      5.346
REMARK INTER + INTRA:         -15.474
REMARK INTER:                 -10.471
REMARK INTRA:                  -5.003
REMARK UNBOUND:                -3.253
REMARK SMILES CCCCCCCCCCCCCCCCCCCCCCCCCCCC(=O)[O-]
REMARK SMILES IDX 15 1 16 2 17 3 18 4 19 5 20 6 21 7 22 8 23 9 24 10 25 11
REMARK SMILES IDX 26 12 27 13 28 14 29 15 30 16 14 17 13 18 12 19 11 20 10 21
REMARK SMILES IDX 9 22 8 23 7 24 6 25 5 26 4 27 3 28 2 29 1 30
REMARK H PARENT
REMARK Flexibility Score: inf
ROOT
ATOM      1  C   UNL     1      18.281 120.655 297.406  1.00  0.00     0.000 C 
ENDROOT
BRANCH   1   2
ATOM      2  C   UNL     1      18.925 120.099 298.687  1.00  0.00     0.000 C 
BRANCH   2   3
ATOM      3  C   UNL     1      20.457 120.023 298.588  1.00  0.00     0.000 C 
BRANCH   3   4
ATOM      4  C   UNL     1      21.003 118.633 298.959  1.00  0.00     0.000 C 
BRANCH   4   5
ATOM      5  C   UNL     1      20.724 117.583 297.863  1.00  0.00     0.000 C 
BRANCH   5   6
ATOM      6  C   UNL     1      21.939 117.292 296.965  1.00  0.00     0.000 C 
BRANCH   6   7
ATOM      7  C   UNL     1      21.934 118.123 295.672  1.00  0.00     0.000 C 
BRANCH   7   8
ATOM      8  C   UNL     1      22.748 119.423 295.798  1.00  0.00     0.000 C 
BRANCH   8   9
ATOM      9  C   UNL     1      24.273 119.221 295.908  1.00  0.00     0.000 C 
BRANCH   9  10
ATOM     10  C   UNL     1      24.979 120.109 296.954  1.00  0.00     0.000 C 
BRANCH  10  11
ATOM     11  C   UNL     1      25.302 119.412 298.286  1.00  0.00     0.000 C 
BRANCH  11  12
ATOM     12  C   UNL     1      25.162 120.346 299.500  1.00  0.00     0.006 C 
BRANCH  12  13
ATOM     13  C   UNL     1      23.910 120.033 300.330  1.00  0.00     0.053 C 
BRANCH  13  14
ATOM     14  C   UNL     1      23.440 121.235 301.093  1.00  0.00     0.041 C 
ATOM     15  O   UNL     1      24.203 122.224 301.253  1.00  0.00    -0.550 OA
ATOM     16  O   UNL     1      22.145 121.277 301.595  1.00  0.00    -0.550 OA
ENDBRANCH  13  14
ENDBRANCH  12  13
ENDBRANCH  11  12
ENDBRANCH  10  11
ENDBRANCH   9  10
ENDBRANCH   8   9
ENDBRANCH   7   8
ENDBRANCH   6   7
ENDBRANCH   5   6
ENDBRANCH   4   5
ENDBRANCH   3   4
ENDBRANCH   2   3
ENDBRANCH   1   2
BRANCH   1  17
ATOM     17  C   UNL     1      19.298 120.866 296.271  1.00  0.00     0.000 C 
BRANCH  17  18
ATOM     18  C   UNL     1      18.686 121.306 294.928  1.00  0.00     0.000 C 
BRANCH  18  19
ATOM     19  C   UNL     1      17.608 122.394 295.093  1.00  0.00     0.000 C 
BRANCH  19  20
ATOM     20  C   UNL     1      16.360 122.122 294.238  1.00  0.00     0.000 C 
BRANCH  20  21
ATOM     21  C   UNL     1      16.430 120.765 293.514  1.00  0.00     0.000 C 
BRANCH  21  22
ATOM     22  C   UNL     1      15.288 119.818 293.915  1.00  0.00    -0.000 C 
BRANCH  22  23
ATOM     23  C   UNL     1      15.133 119.687 295.438  1.00  0.00    -0.000 C 
BRANCH  23  24
ATOM     24  C   UNL     1      15.070 118.210 295.855  1.00  0.00    -0.000 C 
BRANCH  24  25
ATOM     25  C   UNL     1      16.361 117.722 296.538  1.00  0.00    -0.000 C 
BRANCH  25  26
ATOM     26  C   UNL     1      17.273 116.827 295.671  1.00  0.00    -0.000 C 
BRANCH  26  27
ATOM     27  C   UNL     1      18.500 117.531 295.055  1.00  0.00    -0.000 C 
BRANCH  27  28
ATOM     28  C   UNL     1      18.413 117.721 293.523  1.00  0.00    -0.000 C 
BRANCH  28  29
ATOM     29  C   UNL     1      17.342 116.844 292.855  1.00  0.00    -0.003 C 
ATOM     30  C   UNL     1      17.862 116.104 291.625  1.00  0.00     0.004 C 
ENDBRANCH  28  29
ENDBRANCH  27  28
ENDBRANCH  26  27
ENDBRANCH  25  26
ENDBRANCH  24  25
ENDBRANCH  23  24
ENDBRANCH  22  23
ENDBRANCH  21  22
ENDBRANCH  20  21
ENDBRANCH  19  20
ENDBRANCH  18  19
ENDBRANCH  17  18
ENDBRANCH   1  17
TORSDOF 26
ENDMDL
MODEL 9
REMARK VINA RESULT:    -4.814      3.726      8.239
REMARK INTER + INTRA:         -15.383
REMARK INTER:                 -10.824
REMARK INTRA:                  -4.559
REMARK UNBOUND:                -3.253
REMARK SMILES CCCCCCCCCCCCCCCCCCCCCCCCCCCC(=O)[O-]
REMARK SMILES IDX 15 1 16 2 17 3 18 4 19 5 20 6 21 7 22 8 23 9 24 10 25 11
REMARK SMILES IDX 26 12 27 13 28 14 29 15 30 16 14 17 13 18 12 19 11 20 10 21
REMARK SMILES IDX 9 22 8 23 7 24 6 25 5 26 4 27 3 28 2 29 1 30
REMARK H PARENT
REMARK Flexibility Score: inf
ROOT
ATOM      1  C   UNL     1      22.002 118.534 294.937  1.00  0.00     0.000 C 
ENDROOT
BRANCH   1   2
ATOM      2  C   UNL     1      22.753 119.852 294.688  1.00  0.00     0.000 C 
BRANCH   2   3
ATOM      3  C   UNL     1      24.041 119.960 295.519  1.00  0.00     0.000 C 
BRANCH   3   4
ATOM      4  C   UNL     1      24.729 121.328 295.368  1.00  0.00     0.000 C 
BRANCH   4   5
ATOM      5  C   UNL     1      26.172 121.321 295.914  1.00  0.00     0.000 C 
BRANCH   5   6
ATOM      6  C   UNL     1      27.234 121.656 294.853  1.00  0.00     0.000 C 
BRANCH   6   7
ATOM      7  C   UNL     1      27.107 120.789 293.591  1.00  0.00     0.000 C 
BRANCH   7   8
ATOM      8  C   UNL     1      27.587 119.344 293.812  1.00  0.00     0.000 C 
BRANCH   8   9
ATOM      9  C   UNL     1      27.080 118.329 292.767  1.00  0.00     0.000 C 
BRANCH   9  10
ATOM     10  C   UNL     1      25.621 117.864 292.957  1.00  0.00     0.000 C 
BRANCH  10  11
ATOM     11  C   UNL     1      24.611 118.472 291.969  1.00  0.00     0.000 C 
BRANCH  11  12
ATOM     12  C   UNL     1      25.002 118.246 290.499  1.00  0.00     0.006 C 
BRANCH  12  13
ATOM     13  C   UNL     1      23.872 117.591 289.693  1.00  0.00     0.053 C 
BRANCH  13  14
ATOM     14  C   UNL     1      23.496 118.417 288.500  1.00  0.00     0.041 C 
ATOM     15  O   UNL     1      22.449 118.153 287.850  1.00  0.00    -0.550 OA
ATOM     16  O   UNL     1      24.281 119.501 288.130  1.00  0.00    -0.550 OA
ENDBRANCH  13  14
ENDBRANCH  12  13
ENDBRANCH  11  12
ENDBRANCH  10  11
ENDBRANCH   9  10
ENDBRANCH   8   9
ENDBRANCH   7   8
ENDBRANCH   6   7
ENDBRANCH   5   6
ENDBRANCH   4   5
ENDBRANCH   3   4
ENDBRANCH   2   3
ENDBRANCH   1   2
BRANCH   1  17
ATOM     17  C   UNL     1      22.848 117.501 295.702  1.00  0.00     0.000 C 
BRANCH  17  18
ATOM     18  C   UNL     1      22.130 116.827 296.886  1.00  0.00     0.000 C 
BRANCH  18  19
ATOM     19  C   UNL     1      20.819 117.538 297.271  1.00  0.00     0.000 C 
BRANCH  19  20
ATOM     20  C   UNL     1      20.842 118.080 298.709  1.00  0.00     0.000 C 
BRANCH  20  21
ATOM     21  C   UNL     1      22.269 118.390 299.196  1.00  0.00     0.000 C 
BRANCH  21  22
ATOM     22  C   UNL     1      22.665 119.859 298.978  1.00  0.00    -0.000 C 
BRANCH  22  23
ATOM     23  C   UNL     1      24.161 120.112 299.219  1.00  0.00    -0.000 C 
BRANCH  23  24
ATOM     24  C   UNL     1      24.937 118.788 299.281  1.00  0.00    -0.000 C 
BRANCH  24  25
ATOM     25  C   UNL     1      26.177 118.773 298.370  1.00  0.00    -0.000 C 
BRANCH  25  26
ATOM     26  C   UNL     1      27.537 118.728 299.100  1.00  0.00    -0.000 C 
BRANCH  26  27
ATOM     27  C   UNL     1      28.762 118.455 298.203  1.00  0.00    -0.000 C 
BRANCH  27  28
ATOM     28  C   UNL     1      29.082 119.594 297.208  1.00  0.00    -0.000 C 
BRANCH  28  29
ATOM     29  C   UNL     1      30.451 119.445 296.523  1.00  0.00    -0.003 C 
ATOM     30  C   UNL     1      30.876 120.702 295.767  1.00  0.00     0.004 C 
ENDBRANCH  28  29
ENDBRANCH  27  28
ENDBRANCH  26  27
ENDBRANCH  25  26
ENDBRANCH  24  25
ENDBRANCH  23  24
ENDBRANCH  22  23
ENDBRANCH  21  22
ENDBRANCH  20  21
ENDBRANCH  19  20
ENDBRANCH  18  19
ENDBRANCH  17  18
ENDBRANCH   1  17
TORSDOF 26
ENDMDL
