MODEL 1
REMARK VINA RESULT:    -4.594      0.000      0.000
REMARK INTER + INTRA:          -5.559
REMARK INTER:                  -5.400
REMARK INTRA:                  -0.158
REMARK UNBOUND:                -0.158
REMARK SMILES O=c1c(O)c(-c2ccc(O)c(O)c2)oc2cc(O)ccc12
REMARK SMILES IDX 5 1 3 2 2 3 1 4 21 5 15 6 14 7 16 8 17 9 19 10 20 11 6 12
REMARK SMILES IDX 7 13 8 14 9 15 13 16 11 17 10 18 12 20 4 22 18 24
REMARK H PARENT 10 19 12 21 4 23 18 25
REMARK Flexibility Score: inf
ROOT
ATOM      1  C   UNL     1       2.603  23.699   3.837  1.00  0.00     0.180 A 
ATOM      2  C   UNL     1       3.542  24.446   3.094  1.00  0.00     0.208 A 
ATOM      3  C   UNL     1       4.834  24.619   3.616  1.00  0.00     0.235 A 
ATOM      4  O   UNL     1       5.694  25.273   2.966  1.00  0.00    -0.285 OA
ATOM      5  C   UNL     1       5.152  24.066   4.867  1.00  0.00     0.069 A 
ATOM      6  C   UNL     1       4.150  23.354   5.559  1.00  0.00     0.142 A 
ATOM      7  O   UNL     1       2.942  23.205   5.027  1.00  0.00    -0.452 OA
ATOM      8  C   UNL     1       4.426  22.797   6.813  1.00  0.00     0.094 A 
ATOM      9  C   UNL     1       5.697  22.943   7.385  1.00  0.00     0.119 A 
ATOM     10  C   UNL     1       6.693  23.647   6.700  1.00  0.00     0.047 A 
ATOM     11  C   UNL     1       6.427  24.208   5.448  1.00  0.00     0.020 A 
ENDROOT
BRANCH   1  12
ATOM     12  C   UNL     1       1.227  23.457   3.347  1.00  0.00     0.025 A 
ATOM     13  C   UNL     1       0.838  22.155   2.996  1.00  0.00     0.016 A 
ATOM     14  C   UNL     1      -0.448  21.907   2.512  1.00  0.00     0.051 A 
ATOM     15  C   UNL     1      -1.359  22.960   2.356  1.00  0.00     0.157 A 
ATOM     16  C   UNL     1       0.317  24.515   3.170  1.00  0.00     0.062 A 
ATOM     17  C   UNL     1      -0.975  24.267   2.681  1.00  0.00     0.158 A 
BRANCH  15  18
ATOM     18  O   UNL     1      -2.644  22.717   1.875  1.00  0.00    -0.504 OA
ATOM     19  H   UNL     1      -2.972  23.125   1.007  1.00  0.00     0.293 HD
ENDBRANCH  15  18
BRANCH  17  20
ATOM     20  O   UNL     1      -1.878  25.314   2.512  1.00  0.00    -0.504 OA
ATOM     21  H   UNL     1      -2.348  25.472   1.628  1.00  0.00     0.293 HD
ENDBRANCH  17  20
ENDBRANCH   1  12
BRANCH   2  22
ATOM     22  O   UNL     1       3.181  25.024   1.875  1.00  0.00    -0.502 OA
ATOM     23  H   UNL     1       3.429  24.609   0.985  1.00  0.00     0.293 HD
ENDBRANCH   2  22
BRANCH   9  24
ATOM     24  O   UNL     1       5.981  22.391   8.632  1.00  0.00    -0.508 OA
ATOM     25  H   UNL     1       5.358  21.721   9.069  1.00  0.00     0.293 HD
ENDBRANCH   9  24
TORSDOF 5
ENDMDL
MODEL 2
REMARK VINA RESULT:    -4.435      2.435      4.008
REMARK INTER + INTRA:          -5.371
REMARK INTER:                  -5.269
REMARK INTRA:                  -0.102
REMARK UNBOUND:                -0.158
REMARK SMILES O=c1c(O)c(-c2ccc(O)c(O)c2)oc2cc(O)ccc12
REMARK SMILES IDX 5 1 3 2 2 3 1 4 21 5 15 6 14 7 16 8 17 9 19 10 20 11 6 12
REMARK SMILES IDX 7 13 8 14 9 15 13 16 11 17 10 18 12 20 4 22 18 24
REMARK H PARENT 10 19 12 21 4 23 18 25
REMARK Flexibility Score: inf
ROOT
ATOM      1  C   UNL     1       2.866  22.609   5.542  1.00  0.00     0.180 A 
ATOM      2  C   UNL     1       3.835  22.186   6.477  1.00  0.00     0.208 A 
ATOM      3  C   UNL     1       5.144  22.679   6.365  1.00  0.00     0.235 A 
ATOM      4  O   UNL     1       6.025  22.324   7.195  1.00  0.00    -0.285 OA
ATOM      5  C   UNL     1       5.463  23.558   5.318  1.00  0.00     0.069 A 
ATOM      6  C   UNL     1       4.443  23.914   4.409  1.00  0.00     0.142 A 
ATOM      7  O   UNL     1       3.214  23.433   4.555  1.00  0.00    -0.452 OA
ATOM      8  C   UNL     1       4.724  24.780   3.346  1.00  0.00     0.094 A 
ATOM      9  C   UNL     1       6.016  25.299   3.181  1.00  0.00     0.119 A 
ATOM     10  C   UNL     1       7.027  24.949   4.083  1.00  0.00     0.047 A 
ATOM     11  C   UNL     1       6.757  24.084   5.146  1.00  0.00     0.020 A 
ENDROOT
BRANCH   1  12
ATOM     12  C   UNL     1       1.460  22.149   5.604  1.00  0.00     0.025 A 
ATOM     13  C   UNL     1       0.878  21.554   4.475  1.00  0.00     0.016 A 
ATOM     14  C   UNL     1      -0.453  21.131   4.503  1.00  0.00     0.051 A 
ATOM     15  C   UNL     1      -1.226  21.313   5.658  1.00  0.00     0.157 A 
ATOM     16  C   UNL     1       0.675  22.350   6.754  1.00  0.00     0.062 A 
ATOM     17  C   UNL     1      -0.663  21.928   6.783  1.00  0.00     0.158 A 
BRANCH  15  18
ATOM     18  O   UNL     1      -2.554  20.892   5.692  1.00  0.00    -0.504 OA
ATOM     19  H   UNL     1      -2.809  19.926   5.521  1.00  0.00     0.293 HD
ENDBRANCH  15  18
BRANCH  17  20
ATOM     20  O   UNL     1      -1.438  22.121   7.924  1.00  0.00    -0.504 OA
ATOM     21  H   UNL     1      -2.405  22.417   7.865  1.00  0.00     0.293 HD
ENDBRANCH  17  20
ENDBRANCH   1  12
BRANCH   2  22
ATOM     22  O   UNL     1       3.499  21.272   7.479  1.00  0.00    -0.502 OA
ATOM     23  H   UNL     1       2.720  21.423   8.110  1.00  0.00     0.293 HD
ENDBRANCH   2  22
BRANCH   9  24
ATOM     24  O   UNL     1       6.305  26.163   2.127  1.00  0.00    -0.508 OA
ATOM     25  H   UNL     1       5.569  26.604   1.588  1.00  0.00     0.293 HD
ENDBRANCH   9  24
TORSDOF 5
ENDMDL
MODEL 3
REMARK VINA RESULT:    -4.178      2.844      5.804
REMARK INTER + INTRA:          -5.069
REMARK INTER:                  -4.884
REMARK INTRA:                  -0.185
REMARK UNBOUND:                -0.158
REMARK SMILES O=c1c(O)c(-c2ccc(O)c(O)c2)oc2cc(O)ccc12
REMARK SMILES IDX 5 1 3 2 2 3 1 4 21 5 15 6 14 7 16 8 17 9 19 10 20 11 6 12
REMARK SMILES IDX 7 13 8 14 9 15 13 16 11 17 10 18 12 20 4 22 18 24
REMARK H PARENT 10 19 12 21 4 23 18 25
REMARK Flexibility Score: inf
ROOT
ATOM      1  C   UNL     1       2.243  22.811   4.414  1.00  0.00     0.180 A 
ATOM      2  C   UNL     1       1.389  22.144   3.510  1.00  0.00     0.208 A 
ATOM      3  C   UNL     1       0.246  21.501   4.009  1.00  0.00     0.235 A 
ATOM      4  O   UNL     1      -0.539  20.907   3.220  1.00  0.00    -0.285 OA
ATOM      5  C   UNL     1      -0.008  21.518   5.390  1.00  0.00     0.069 A 
ATOM      6  C   UNL     1       0.908  22.186   6.231  1.00  0.00     0.142 A 
ATOM      7  O   UNL     1       1.973  22.790   5.718  1.00  0.00    -0.452 OA
ATOM      8  C   UNL     1       0.695  22.217   7.614  1.00  0.00     0.094 A 
ATOM      9  C   UNL     1      -0.428  21.587   8.169  1.00  0.00     0.119 A 
ATOM     10  C   UNL     1      -1.338  20.926   7.337  1.00  0.00     0.047 A 
ATOM     11  C   UNL     1      -1.133  20.888   5.955  1.00  0.00     0.020 A 
ENDROOT
BRANCH   1  12
ATOM     12  C   UNL     1       3.458  23.527   3.964  1.00  0.00     0.025 A 
ATOM     13  C   UNL     1       4.717  23.105   4.418  1.00  0.00     0.016 A 
ATOM     14  C   UNL     1       5.875  23.778   4.023  1.00  0.00     0.051 A 
ATOM     15  C   UNL     1       5.789  24.896   3.181  1.00  0.00     0.157 A 
ATOM     16  C   UNL     1       3.374  24.662   3.136  1.00  0.00     0.062 A 
ATOM     17  C   UNL     1       4.537  25.341   2.741  1.00  0.00     0.158 A 
BRANCH  15  18
ATOM     18  O   UNL     1       6.942  25.570   2.783  1.00  0.00    -0.504 OA
ATOM     19  H   UNL     1       7.315  26.346   3.319  1.00  0.00     0.293 HD
ENDBRANCH  15  18
BRANCH  17  20
ATOM     20  O   UNL     1       4.453  26.460   1.916  1.00  0.00    -0.504 OA
ATOM     21  H   UNL     1       3.736  27.163   2.047  1.00  0.00     0.293 HD
ENDBRANCH  17  20
ENDBRANCH   1  12
BRANCH   2  22
ATOM     22  O   UNL     1       1.694  22.102   2.147  1.00  0.00    -0.502 OA
ATOM     23  H   UNL     1       2.613  21.846   1.806  1.00  0.00     0.293 HD
ENDBRANCH   2  22
BRANCH   9  24
ATOM     24  O   UNL     1      -0.648  21.613   9.544  1.00  0.00    -0.508 OA
ATOM     25  H   UNL     1      -0.956  22.456  10.015  1.00  0.00     0.293 HD
ENDBRANCH   9  24
TORSDOF 5
ENDMDL
MODEL 4
REMARK VINA RESULT:    -4.133      1.362      2.916
REMARK INTER + INTRA:          -5.016
REMARK INTER:                  -5.109
REMARK INTRA:                   0.093
REMARK UNBOUND:                -0.158
REMARK SMILES O=c1c(O)c(-c2ccc(O)c(O)c2)oc2cc(O)ccc12
REMARK SMILES IDX 5 1 3 2 2 3 1 4 21 5 15 6 14 7 16 8 17 9 19 10 20 11 6 12
REMARK SMILES IDX 7 13 8 14 9 15 13 16 11 17 10 18 12 20 4 22 18 24
REMARK H PARENT 10 19 12 21 4 23 18 25
REMARK Flexibility Score: inf
ROOT
ATOM      1  C   UNL     1       1.845  22.887   4.568  1.00  0.00     0.180 A 
ATOM      2  C   UNL     1       2.133  22.164   5.745  1.00  0.00     0.208 A 
ATOM      3  C   UNL     1       3.393  22.319   6.343  1.00  0.00     0.235 A 
ATOM      4  O   UNL     1       3.671  21.692   7.401  1.00  0.00    -0.285 OA
ATOM      5  C   UNL     1       4.340  23.168   5.747  1.00  0.00     0.069 A 
ATOM      6  C   UNL     1       3.984  23.837   4.557  1.00  0.00     0.142 A 
ATOM      7  O   UNL     1       2.777  23.671   4.028  1.00  0.00    -0.452 OA
ATOM      8  C   UNL     1       4.903  24.685   3.928  1.00  0.00     0.094 A 
ATOM      9  C   UNL     1       6.179  24.873   4.477  1.00  0.00     0.119 A 
ATOM     10  C   UNL     1       6.533  24.212   5.658  1.00  0.00     0.047 A 
ATOM     11  C   UNL     1       5.623  23.363   6.293  1.00  0.00     0.020 A 
ENDROOT
BRANCH   1  12
ATOM     12  C   UNL     1       0.534  22.792   3.888  1.00  0.00     0.025 A 
ATOM     13  C   UNL     1      -0.034  21.530   3.655  1.00  0.00     0.016 A 
ATOM     14  C   UNL     1      -1.260  21.414   2.997  1.00  0.00     0.051 A 
ATOM     15  C   UNL     1      -1.930  22.561   2.547  1.00  0.00     0.157 A 
ATOM     16  C   UNL     1      -0.131  23.939   3.416  1.00  0.00     0.062 A 
ATOM     17  C   UNL     1      -1.362  23.825   2.752  1.00  0.00     0.158 A 
BRANCH  15  18
ATOM     18  O   UNL     1      -3.155  22.451   1.891  1.00  0.00    -0.504 OA
ATOM     19  H   UNL     1      -4.025  22.362   2.404  1.00  0.00     0.293 HD
ENDBRANCH  15  18
BRANCH  17  20
ATOM     20  O   UNL     1      -2.023  24.961   2.291  1.00  0.00    -0.504 OA
ATOM     21  H   UNL     1      -1.535  25.690   1.785  1.00  0.00     0.293 HD
ENDBRANCH  17  20
ENDBRANCH   1  12
BRANCH   2  22
ATOM     22  O   UNL     1       1.188  21.289   6.287  1.00  0.00    -0.502 OA
ATOM     23  H   UNL     1       1.054  21.189   7.286  1.00  0.00     0.293 HD
ENDBRANCH   2  22
BRANCH   9  24
ATOM     24  O   UNL     1       7.100  25.715   3.859  1.00  0.00    -0.508 OA
ATOM     25  H   UNL     1       7.147  25.799   2.850  1.00  0.00     0.293 HD
ENDBRANCH   9  24
TORSDOF 5
ENDMDL
MODEL 5
REMARK VINA RESULT:    -4.106      2.253      2.511
REMARK INTER + INTRA:          -4.985
REMARK INTER:                  -5.368
REMARK INTRA:                   0.384
REMARK UNBOUND:                -0.158
REMARK SMILES O=c1c(O)c(-c2ccc(O)c(O)c2)oc2cc(O)ccc12
REMARK SMILES IDX 5 1 3 2 2 3 1 4 21 5 15 6 14 7 16 8 17 9 19 10 20 11 6 12
REMARK SMILES IDX 7 13 8 14 9 15 13 16 11 17 10 18 12 20 4 22 18 24
REMARK H PARENT 10 19 12 21 4 23 18 25
REMARK Flexibility Score: inf
ROOT
ATOM      1  C   UNL     1       2.365  22.843   5.303  1.00  0.00     0.180 A 
ATOM      2  C   UNL     1       2.894  23.634   4.261  1.00  0.00     0.208 A 
ATOM      3  C   UNL     1       4.218  24.088   4.363  1.00  0.00     0.235 A 
ATOM      4  O   UNL     1       4.717  24.787   3.440  1.00  0.00    -0.285 OA
ATOM      5  C   UNL     1       4.973  23.765   5.502  1.00  0.00     0.069 A 
ATOM      6  C   UNL     1       4.363  22.990   6.512  1.00  0.00     0.142 A 
ATOM      7  O   UNL     1       3.110  22.572   6.373  1.00  0.00    -0.452 OA
ATOM      8  C   UNL     1       5.080  22.656   7.666  1.00  0.00     0.094 A 
ATOM      9  C   UNL     1       6.404  23.087   7.824  1.00  0.00     0.119 A 
ATOM     10  C   UNL     1       7.011  23.853   6.824  1.00  0.00     0.047 A 
ATOM     11  C   UNL     1       6.303  24.194   5.668  1.00  0.00     0.020 A 
ENDROOT
BRANCH   1  12
ATOM     12  C   UNL     1       0.984  22.310   5.262  1.00  0.00     0.025 A 
ATOM     13  C   UNL     1       0.344  22.145   4.024  1.00  0.00     0.016 A 
ATOM     14  C   UNL     1      -0.966  21.664   3.962  1.00  0.00     0.051 A 
ATOM     15  C   UNL     1      -1.661  21.357   5.140  1.00  0.00     0.157 A 
ATOM     16  C   UNL     1       0.275  22.021   6.443  1.00  0.00     0.062 A 
ATOM     17  C   UNL     1      -1.042  21.540   6.382  1.00  0.00     0.158 A 
BRANCH  15  18
ATOM     18  O   UNL     1      -2.968  20.875   5.083  1.00  0.00    -0.504 OA
ATOM     19  H   UNL     1      -3.754  21.492   4.909  1.00  0.00     0.293 HD
ENDBRANCH  15  18
BRANCH  17  20
ATOM     20  O   UNL     1      -1.740  21.247   7.551  1.00  0.00    -0.504 OA
ATOM     21  H   UNL     1      -2.062  20.309   7.756  1.00  0.00     0.293 HD
ENDBRANCH  17  20
ENDBRANCH   1  12
BRANCH   2  22
ATOM     22  O   UNL     1       2.102  23.979   3.163  1.00  0.00    -0.502 OA
ATOM     23  H   UNL     1       2.130  24.902   2.745  1.00  0.00     0.293 HD
ENDBRANCH   2  22
BRANCH   9  24
ATOM     24  O   UNL     1       7.125  22.758   8.970  1.00  0.00    -0.508 OA
ATOM     25  H   UNL     1       7.875  23.348   9.311  1.00  0.00     0.293 HD
ENDBRANCH   9  24
TORSDOF 5
ENDMDL
MODEL 6
REMARK VINA RESULT:    -4.023      1.946      6.787
REMARK INTER + INTRA:          -4.887
REMARK INTER:                  -4.820
REMARK INTRA:                  -0.067
REMARK UNBOUND:                -0.158
REMARK SMILES O=c1c(O)c(-c2ccc(O)c(O)c2)oc2cc(O)ccc12
REMARK SMILES IDX 5 1 3 2 2 3 1 4 21 5 15 6 14 7 16 8 17 9 19 10 20 11 6 12
REMARK SMILES IDX 7 13 8 14 9 15 13 16 11 17 10 18 12 20 4 22 18 24
REMARK H PARENT 10 19 12 21 4 23 18 25
REMARK Flexibility Score: inf
ROOT
ATOM      1  C   UNL     1       2.310  22.391   5.146  1.00  0.00     0.180 A 
ATOM      2  C   UNL     1       2.481  22.984   3.877  1.00  0.00     0.208 A 
ATOM      3  C   UNL     1       1.380  23.060   3.012  1.00  0.00     0.235 A 
ATOM      4  O   UNL     1       1.505  23.595   1.876  1.00  0.00    -0.285 OA
ATOM      5  C   UNL     1       0.145  22.527   3.417  1.00  0.00     0.069 A 
ATOM      6  C   UNL     1       0.061  21.929   4.692  1.00  0.00     0.142 A 
ATOM      7  O   UNL     1       1.126  21.885   5.486  1.00  0.00    -0.452 OA
ATOM      8  C   UNL     1      -1.149  21.378   5.129  1.00  0.00     0.094 A 
ATOM      9  C   UNL     1      -2.281  21.420   4.304  1.00  0.00     0.119 A 
ATOM     10  C   UNL     1      -2.201  22.015   3.041  1.00  0.00     0.047 A 
ATOM     11  C   UNL     1      -0.997  22.566   2.595  1.00  0.00     0.020 A 
ENDROOT
BRANCH   1  12
ATOM     12  C   UNL     1       3.418  22.290   6.122  1.00  0.00     0.025 A 
ATOM     13  C   UNL     1       3.716  21.047   6.703  1.00  0.00     0.016 A 
ATOM     14  C   UNL     1       4.743  20.932   7.642  1.00  0.00     0.051 A 
ATOM     15  C   UNL     1       5.478  22.062   8.027  1.00  0.00     0.157 A 
ATOM     16  C   UNL     1       4.143  23.426   6.527  1.00  0.00     0.062 A 
ATOM     17  C   UNL     1       5.174  23.312   7.472  1.00  0.00     0.158 A 
BRANCH  15  18
ATOM     18  O   UNL     1       6.505  21.952   8.962  1.00  0.00    -0.504 OA
ATOM     19  H   UNL     1       7.279  21.310   8.827  1.00  0.00     0.293 HD
ENDBRANCH  15  18
BRANCH  17  20
ATOM     20  O   UNL     1       5.896  24.435   7.867  1.00  0.00    -0.504 OA
ATOM     21  H   UNL     1       5.837  25.310   7.358  1.00  0.00     0.293 HD
ENDBRANCH  17  20
ENDBRANCH   1  12
BRANCH   2  22
ATOM     22  O   UNL     1       3.734  23.461   3.483  1.00  0.00    -0.502 OA
ATOM     23  H   UNL     1       4.102  23.309   2.551  1.00  0.00     0.293 HD
ENDBRANCH   2  22
BRANCH   9  24
ATOM     24  O   UNL     1      -3.490  20.875   4.731  1.00  0.00    -0.508 OA
ATOM     25  H   UNL     1      -3.747  19.920   4.512  1.00  0.00     0.293 HD
ENDBRANCH   9  24
TORSDOF 5
ENDMDL
MODEL 7
REMARK VINA RESULT:    -3.953     23.048     24.855
REMARK INTER + INTRA:          -4.805
REMARK INTER:                  -5.242
REMARK INTRA:                   0.437
REMARK UNBOUND:                -0.158
REMARK SMILES O=c1c(O)c(-c2ccc(O)c(O)c2)oc2cc(O)ccc12
REMARK SMILES IDX 5 1 3 2 2 3 1 4 21 5 15 6 14 7 16 8 17 9 19 10 20 11 6 12
REMARK SMILES IDX 7 13 8 14 9 15 13 16 11 17 10 18 12 20 4 22 18 24
REMARK H PARENT 10 19 12 21 4 23 18 25
REMARK Flexibility Score: inf
ROOT
ATOM      1  C   UNL     1      -6.579  40.850  18.009  1.00  0.00     0.180 A 
ATOM      2  C   UNL     1      -7.354  40.877  19.189  1.00  0.00     0.208 A 
ATOM      3  C   UNL     1      -8.750  40.781  19.083  1.00  0.00     0.235 A 
ATOM      4  O   UNL     1      -9.464  40.791  20.123  1.00  0.00    -0.285 OA
ATOM      5  C   UNL     1      -9.341  40.683  17.813  1.00  0.00     0.069 A 
ATOM      6  C   UNL     1      -8.498  40.688  16.680  1.00  0.00     0.142 A 
ATOM      7  O   UNL     1      -7.181  40.771  16.824  1.00  0.00    -0.452 OA
ATOM      8  C   UNL     1      -9.050  40.602  15.397  1.00  0.00     0.094 A 
ATOM      9  C   UNL     1     -10.439  40.510  15.231  1.00  0.00     0.119 A 
ATOM     10  C   UNL     1     -11.275  40.503  16.352  1.00  0.00     0.047 A 
ATOM     11  C   UNL     1     -10.735  40.589  17.637  1.00  0.00     0.020 A 
ENDROOT
BRANCH   1  12
ATOM     12  C   UNL     1      -5.101  40.928  18.039  1.00  0.00     0.025 A 
ATOM     13  C   UNL     1      -4.393  41.070  16.835  1.00  0.00     0.016 A 
ATOM     14  C   UNL     1      -2.998  41.125  16.836  1.00  0.00     0.051 A 
ATOM     15  C   UNL     1      -2.289  41.022  18.041  1.00  0.00     0.157 A 
ATOM     16  C   UNL     1      -4.385  40.804  19.244  1.00  0.00     0.062 A 
ATOM     17  C   UNL     1      -2.983  40.857  19.246  1.00  0.00     0.158 A 
BRANCH  15  18
ATOM     18  O   UNL     1      -0.896  41.078  18.048  1.00  0.00    -0.504 OA
ATOM     19  H   UNL     1      -0.382  41.399  18.861  1.00  0.00     0.293 HD
ENDBRANCH  15  18
BRANCH  17  20
ATOM     20  O   UNL     1      -2.275  40.741  20.440  1.00  0.00    -0.504 OA
ATOM     21  H   UNL     1      -2.725  40.439  21.296  1.00  0.00     0.293 HD
ENDBRANCH  17  20
ENDBRANCH   1  12
BRANCH   2  22
ATOM     22  O   UNL     1      -6.741  41.024  20.435  1.00  0.00    -0.502 OA
ATOM     23  H   UNL     1      -5.747  40.878  20.570  1.00  0.00     0.293 HD
ENDBRANCH   2  22
BRANCH   9  24
ATOM     24  O   UNL     1     -10.996  40.423  13.957  1.00  0.00    -0.508 OA
ATOM     25  H   UNL     1     -11.797  40.984  13.690  1.00  0.00     0.293 HD
ENDBRANCH   9  24
TORSDOF 5
ENDMDL
MODEL 8
REMARK VINA RESULT:    -3.447      1.809      2.457
REMARK INTER + INTRA:          -4.210
REMARK INTER:                  -4.259
REMARK INTRA:                   0.049
REMARK UNBOUND:                -0.158
REMARK SMILES O=c1c(O)c(-c2ccc(O)c(O)c2)oc2cc(O)ccc12
REMARK SMILES IDX 5 1 3 2 2 3 1 4 21 5 15 6 14 7 16 8 17 9 19 10 20 11 6 12
REMARK SMILES IDX 7 13 8 14 9 15 13 16 11 17 10 18 12 20 4 22 18 24
REMARK H PARENT 10 19 12 21 4 23 18 25
REMARK Flexibility Score: inf
ROOT
ATOM      1  C   UNL     1       1.564  23.354   3.245  1.00  0.00     0.180 A 
ATOM      2  C   UNL     1       1.786  24.575   2.573  1.00  0.00     0.208 A 
ATOM      3  C   UNL     1       3.071  25.137   2.599  1.00  0.00     0.235 A 
ATOM      4  O   UNL     1       3.297  26.223   1.997  1.00  0.00    -0.285 OA
ATOM      5  C   UNL     1       4.095  24.487   3.306  1.00  0.00     0.069 A 
ATOM      6  C   UNL     1       3.787  23.282   3.972  1.00  0.00     0.142 A 
ATOM      7  O   UNL     1       2.559  22.778   3.917  1.00  0.00    -0.452 OA
ATOM      8  C   UNL     1       4.778  22.609   4.696  1.00  0.00     0.094 A 
ATOM      9  C   UNL     1       6.079  23.127   4.760  1.00  0.00     0.119 A 
ATOM     10  C   UNL     1       6.387  24.320   4.099  1.00  0.00     0.047 A 
ATOM     11  C   UNL     1       5.404  25.000   3.375  1.00  0.00     0.020 A 
ENDROOT
BRANCH   1  12
ATOM     12  C   UNL     1       0.242  22.689   3.250  1.00  0.00     0.025 A 
ATOM     13  C   UNL     1      -0.454  22.525   2.042  1.00  0.00     0.016 A 
ATOM     14  C   UNL     1      -1.712  21.919   2.025  1.00  0.00     0.051 A 
ATOM     15  C   UNL     1      -2.301  21.482   3.220  1.00  0.00     0.157 A 
ATOM     16  C   UNL     1      -0.362  22.268   4.450  1.00  0.00     0.062 A 
ATOM     17  C   UNL     1      -1.627  21.661   4.435  1.00  0.00     0.158 A 
BRANCH  15  18
ATOM     18  O   UNL     1      -3.555  20.875   3.208  1.00  0.00    -0.504 OA
ATOM     19  H   UNL     1      -4.332  21.273   2.692  1.00  0.00     0.293 HD
ENDBRANCH  15  18
BRANCH  17  20
ATOM     20  O   UNL     1      -2.221  21.239   5.622  1.00  0.00    -0.504 OA
ATOM     21  H   UNL     1      -1.731  20.641   6.276  1.00  0.00     0.293 HD
ENDBRANCH  17  20
ENDBRANCH   1  12
BRANCH   2  22
ATOM     22  O   UNL     1       0.735  25.224   1.919  1.00  0.00    -0.502 OA
ATOM     23  H   UNL     1       0.051  25.782   2.416  1.00  0.00     0.293 HD
ENDBRANCH   2  22
BRANCH   9  24
ATOM     24  O   UNL     1       7.072  22.463   5.478  1.00  0.00    -0.508 OA
ATOM     25  H   UNL     1       6.927  22.172   6.437  1.00  0.00     0.293 HD
ENDBRANCH   9  24
TORSDOF 5
ENDMDL
MODEL 9
REMARK VINA RESULT:    -2.675      2.266      6.588
REMARK INTER + INTRA:          -3.302
REMARK INTER:                  -3.134
REMARK INTRA:                  -0.169
REMARK UNBOUND:                -0.158
REMARK SMILES O=c1c(O)c(-c2ccc(O)c(O)c2)oc2cc(O)ccc12
REMARK SMILES IDX 5 1 3 2 2 3 1 4 21 5 15 6 14 7 16 8 17 9 19 10 20 11 6 12
REMARK SMILES IDX 7 13 8 14 9 15 13 16 11 17 10 18 12 20 4 22 18 24
REMARK H PARENT 10 19 12 21 4 23 18 25
REMARK Flexibility Score: inf
ROOT
ATOM      1  C   UNL     1       2.175  23.075   4.170  1.00  0.00     0.180 A 
ATOM      2  C   UNL     1       1.907  22.954   5.551  1.00  0.00     0.208 A 
ATOM      3  C   UNL     1       0.683  22.401   5.956  1.00  0.00     0.235 A 
ATOM      4  O   UNL     1       0.424  22.273   7.184  1.00  0.00    -0.285 OA
ATOM      5  C   UNL     1      -0.250  22.003   4.985  1.00  0.00     0.069 A 
ATOM      6  C   UNL     1       0.083  22.180   3.625  1.00  0.00     0.142 A 
ATOM      7  O   UNL     1       1.256  22.699   3.283  1.00  0.00    -0.452 OA
ATOM      8  C   UNL     1      -0.824  21.804   2.628  1.00  0.00     0.094 A 
ATOM      9  C   UNL     1      -2.065  21.252   2.974  1.00  0.00     0.119 A 
ATOM     10  C   UNL     1      -2.396  21.074   4.322  1.00  0.00     0.047 A 
ATOM     11  C   UNL     1      -1.498  21.447   5.325  1.00  0.00     0.020 A 
ENDROOT
BRANCH   1  12
ATOM     12  C   UNL     1       3.450  23.630   3.663  1.00  0.00     0.025 A 
ATOM     13  C   UNL     1       4.648  22.941   3.903  1.00  0.00     0.016 A 
ATOM     14  C   UNL     1       5.865  23.456   3.452  1.00  0.00     0.051 A 
ATOM     15  C   UNL     1       5.903  24.679   2.768  1.00  0.00     0.157 A 
ATOM     16  C   UNL     1       3.494  24.868   2.995  1.00  0.00     0.062 A 
ATOM     17  C   UNL     1       4.716  25.388   2.543  1.00  0.00     0.158 A 
BRANCH  15  18
ATOM     18  O   UNL     1       7.115  25.197   2.315  1.00  0.00    -0.504 OA
ATOM     19  H   UNL     1       7.350  26.176   2.431  1.00  0.00     0.293 HD
ENDBRANCH  15  18
BRANCH  17  20
ATOM     20  O   UNL     1       4.759  26.610   1.875  1.00  0.00    -0.504 OA
ATOM     21  H   UNL     1       4.663  26.668   0.869  1.00  0.00     0.293 HD
ENDBRANCH  17  20
ENDBRANCH   1  12
BRANCH   2  22
ATOM     22  O   UNL     1       2.835  23.404   6.494  1.00  0.00    -0.502 OA
ATOM     23  H   UNL     1       2.587  24.057   7.227  1.00  0.00     0.293 HD
ENDBRANCH   2  22
BRANCH   9  24
ATOM     24  O   UNL     1      -2.974  20.875   1.988  1.00  0.00    -0.508 OA
ATOM     25  H   UNL     1      -3.023  21.360   1.100  1.00  0.00     0.293 HD
ENDBRANCH   9  24
TORSDOF 5
ENDMDL
