MODEL 1
REMARK VINA RESULT:    -4.381      0.000      0.000
REMARK INTER + INTRA:         -12.132
REMARK INTER:                  -9.503
REMARK INTRA:                  -2.629
REMARK UNBOUND:                -2.629
REMARK SMILES CCCCCCCCCCCCCCCCCCCCCC(=O)[O-]
REMARK SMILES IDX 12 1 11 2 10 3 9 4 8 5 7 6 6 7 5 8 4 9 3 10 2 11 1 12 13 13
REMARK SMILES IDX 14 14 15 15 16 16 17 17 18 18 19 19 20 20 21 21 22 22 23 23
REMARK SMILES IDX 24 24
REMARK H PARENT
REMARK Flexibility Score: inf
ROOT
ATOM      1  C   UNL     1      15.072  -0.666  40.991  1.00  0.00     0.000 C 
ENDROOT
BRANCH   1   2
ATOM      2  C   UNL     1      15.131   0.870  40.941  1.00  0.00     0.000 C 
BRANCH   2   3
ATOM      3  C   UNL     1      16.537   1.398  40.608  1.00  0.00     0.000 C 
BRANCH   3   4
ATOM      4  C   UNL     1      16.884   2.700  41.355  1.00  0.00    -0.000 C 
BRANCH   4   5
ATOM      5  C   UNL     1      16.615   4.003  40.577  1.00  0.00    -0.000 C 
BRANCH   5   6
ATOM      6  C   UNL     1      16.243   5.184  41.490  1.00  0.00    -0.000 C 
BRANCH   6   7
ATOM      7  C   UNL     1      14.785   5.130  41.980  1.00  0.00    -0.000 C 
BRANCH   7   8
ATOM      8  C   UNL     1      13.756   5.820  41.066  1.00  0.00    -0.000 C 
BRANCH   8   9
ATOM      9  C   UNL     1      12.592   4.898  40.666  1.00  0.00    -0.000 C 
BRANCH   9  10
ATOM     10  C   UNL     1      12.631   3.543  41.405  1.00  0.00    -0.000 C 
BRANCH  10  11
ATOM     11  C   UNL     1      11.432   3.311  42.341  1.00  0.00    -0.003 C 
ATOM     12  C   UNL     1      11.490   4.148  43.616  1.00  0.00     0.004 C 
ENDBRANCH  10  11
ENDBRANCH   9  10
ENDBRANCH   8   9
ENDBRANCH   7   8
ENDBRANCH   6   7
ENDBRANCH   5   6
ENDBRANCH   4   5
ENDBRANCH   3   4
ENDBRANCH   2   3
ENDBRANCH   1   2
BRANCH   1  13
ATOM     13  C   UNL     1      13.673  -1.198  41.348  1.00  0.00     0.000 C 
BRANCH  13  14
ATOM     14  C   UNL     1      12.659  -0.067  41.588  1.00  0.00     0.000 C 
BRANCH  14  15
ATOM     15  C   UNL     1      11.203  -0.539  41.448  1.00  0.00     0.000 C 
BRANCH  15  16
ATOM     16  C   UNL     1      10.782  -0.602  39.972  1.00  0.00     0.000 C 
BRANCH  16  17
ATOM     17  C   UNL     1      11.301   0.593  39.150  1.00  0.00     0.000 C 
BRANCH  17  18
ATOM     18  C   UNL     1      10.286   1.737  38.967  1.00  0.00     0.000 C 
BRANCH  18  19
ATOM     19  C   UNL     1       9.447   1.586  37.686  1.00  0.00     0.000 C 
BRANCH  19  20
ATOM     20  C   UNL     1      10.319   1.390  36.436  1.00  0.00     0.006 C 
BRANCH  20  21
ATOM     21  C   UNL     1      10.848   2.718  35.878  1.00  0.00     0.053 C 
BRANCH  21  22
ATOM     22  C   UNL     1       9.748   3.727  35.788  1.00  0.00     0.041 C 
ATOM     23  O   UNL     1       9.711   4.696  36.593  1.00  0.00    -0.550 OA
ATOM     24  O   UNL     1       8.743   3.581  34.839  1.00  0.00    -0.550 OA
ENDBRANCH  21  22
ENDBRANCH  20  21
ENDBRANCH  19  20
ENDBRANCH  18  19
ENDBRANCH  17  18
ENDBRANCH  16  17
ENDBRANCH  15  16
ENDBRANCH  14  15
ENDBRANCH  13  14
ENDBRANCH   1  13
TORSDOF 20
ENDMDL
MODEL 2
REMARK VINA RESULT:    -4.359      3.965      8.215
REMARK INTER + INTRA:         -12.085
REMARK INTER:                  -9.172
REMARK INTRA:                  -2.914
REMARK UNBOUND:                -2.629
REMARK SMILES CCCCCCCCCCCCCCCCCCCCCC(=O)[O-]
REMARK SMILES IDX 12 1 11 2 10 3 9 4 8 5 7 6 6 7 5 8 4 9 3 10 2 11 1 12 13 13
REMARK SMILES IDX 14 14 15 15 16 16 17 17 18 18 19 19 20 20 21 21 22 22 23 23
REMARK SMILES IDX 24 24
REMARK H PARENT
REMARK Flexibility Score: inf
ROOT
ATOM      1  C   UNL     1      14.251   9.286  42.810  1.00  0.00     0.000 C 
ENDROOT
BRANCH   1   2
ATOM      2  C   UNL     1      13.463   7.998  43.105  1.00  0.00     0.000 C 
BRANCH   2   3
ATOM      3  C   UNL     1      13.229   7.146  41.845  1.00  0.00     0.000 C 
BRANCH   3   4
ATOM      4  C   UNL     1      12.770   5.711  42.166  1.00  0.00    -0.000 C 
BRANCH   4   5
ATOM      5  C   UNL     1      12.969   4.683  41.035  1.00  0.00    -0.000 C 
BRANCH   5   6
ATOM      6  C   UNL     1      12.770   3.230  41.500  1.00  0.00    -0.000 C 
BRANCH   6   7
ATOM      7  C   UNL     1      11.415   2.640  41.067  1.00  0.00    -0.000 C 
BRANCH   7   8
ATOM      8  C   UNL     1      11.073   1.264  41.667  1.00  0.00    -0.000 C 
BRANCH   8   9
ATOM      9  C   UNL     1      12.242   0.266  41.590  1.00  0.00    -0.000 C 
BRANCH   9  10
ATOM     10  C   UNL     1      12.503  -0.226  40.150  1.00  0.00    -0.000 C 
BRANCH  10  11
ATOM     11  C   UNL     1      13.958  -0.656  39.894  1.00  0.00    -0.003 C 
ATOM     12  C   UNL     1      14.943  -0.086  40.912  1.00  0.00     0.004 C 
ENDBRANCH  10  11
ENDBRANCH   9  10
ENDBRANCH   8   9
ENDBRANCH   7   8
ENDBRANCH   6   7
ENDBRANCH   5   6
ENDBRANCH   4   5
ENDBRANCH   3   4
ENDBRANCH   2   3
ENDBRANCH   1   2
BRANCH   1  13
ATOM     13  C   UNL     1      15.159   9.160  41.575  1.00  0.00     0.000 C 
BRANCH  13  14
ATOM     14  C   UNL     1      16.560   9.747  41.815  1.00  0.00     0.000 C 
BRANCH  14  15
ATOM     15  C   UNL     1      17.372   8.940  42.840  1.00  0.00     0.000 C 
BRANCH  15  16
ATOM     16  C   UNL     1      17.609   7.504  42.349  1.00  0.00     0.000 C 
BRANCH  16  17
ATOM     17  C   UNL     1      17.045   6.442  43.311  1.00  0.00     0.000 C 
BRANCH  17  18
ATOM     18  C   UNL     1      16.426   5.212  42.621  1.00  0.00     0.000 C 
BRANCH  18  19
ATOM     19  C   UNL     1      16.758   5.145  41.120  1.00  0.00     0.000 C 
BRANCH  19  20
ATOM     20  C   UNL     1      16.661   3.716  40.564  1.00  0.00     0.006 C 
BRANCH  20  21
ATOM     21  C   UNL     1      17.503   2.717  41.368  1.00  0.00     0.053 C 
BRANCH  21  22
ATOM     22  C   UNL     1      18.910   2.688  40.864  1.00  0.00     0.041 C 
ATOM     23  O   UNL     1      19.808   3.348  41.454  1.00  0.00    -0.550 OA
ATOM     24  O   UNL     1      19.228   1.962  39.722  1.00  0.00    -0.550 OA
ENDBRANCH  21  22
ENDBRANCH  20  21
ENDBRANCH  19  20
ENDBRANCH  18  19
ENDBRANCH  17  18
ENDBRANCH  16  17
ENDBRANCH  15  16
ENDBRANCH  14  15
ENDBRANCH  13  14
ENDBRANCH   1  13
TORSDOF 20
ENDMDL
MODEL 3
REMARK VINA RESULT:    -4.348      3.690      5.598
REMARK INTER + INTRA:         -12.061
REMARK INTER:                  -9.941
REMARK INTRA:                  -2.120
REMARK UNBOUND:                -2.629
REMARK SMILES CCCCCCCCCCCCCCCCCCCCCC(=O)[O-]
REMARK SMILES IDX 12 1 11 2 10 3 9 4 8 5 7 6 6 7 5 8 4 9 3 10 2 11 1 12 13 13
REMARK SMILES IDX 14 14 15 15 16 16 17 17 18 18 19 19 20 20 21 21 22 22 23 23
REMARK SMILES IDX 24 24
REMARK H PARENT
REMARK Flexibility Score: inf
ROOT
ATOM      1  C   UNL     1      11.620   0.858  40.569  1.00  0.00     0.000 C 
ENDROOT
BRANCH   1   2
ATOM      2  C   UNL     1      12.152  -0.114  41.636  1.00  0.00     0.000 C 
BRANCH   2   3
ATOM      3  C   UNL     1      13.087  -1.185  41.047  1.00  0.00     0.000 C 
BRANCH   3   4
ATOM      4  C   UNL     1      14.230  -0.589  40.203  1.00  0.00    -0.000 C 
BRANCH   4   5
ATOM      5  C   UNL     1      15.496  -0.191  40.988  1.00  0.00    -0.000 C 
BRANCH   5   6
ATOM      6  C   UNL     1      15.747   1.327  40.996  1.00  0.00    -0.000 C 
BRANCH   6   7
ATOM      7  C   UNL     1      17.171   1.703  40.547  1.00  0.00    -0.000 C 
BRANCH   7   8
ATOM      8  C   UNL     1      17.897   2.722  41.445  1.00  0.00    -0.000 C 
BRANCH   8   9
ATOM      9  C   UNL     1      16.937   3.698  42.147  1.00  0.00    -0.000 C 
BRANCH   9  10
ATOM     10  C   UNL     1      17.241   5.173  41.805  1.00  0.00    -0.000 C 
BRANCH  10  11
ATOM     11  C   UNL     1      16.320   5.762  40.723  1.00  0.00    -0.003 C 
ATOM     12  C   UNL     1      14.835   5.619  41.050  1.00  0.00     0.004 C 
ENDBRANCH  10  11
ENDBRANCH   9  10
ENDBRANCH   8   9
ENDBRANCH   7   8
ENDBRANCH   6   7
ENDBRANCH   5   6
ENDBRANCH   4   5
ENDBRANCH   3   4
ENDBRANCH   2   3
ENDBRANCH   1   2
BRANCH   1  13
ATOM     13  C   UNL     1      10.282   1.504  40.966  1.00  0.00     0.000 C 
BRANCH  13  14
ATOM     14  C   UNL     1       9.194   1.307  39.897  1.00  0.00     0.000 C 
BRANCH  14  15
ATOM     15  C   UNL     1       8.055   0.393  40.375  1.00  0.00     0.000 C 
BRANCH  15  16
ATOM     16  C   UNL     1       8.401  -0.262  41.721  1.00  0.00     0.000 C 
BRANCH  16  17
ATOM     17  C   UNL     1       8.752  -1.755  41.588  1.00  0.00     0.000 C 
BRANCH  17  18
ATOM     18  C   UNL     1       8.712  -2.299  40.148  1.00  0.00     0.000 C 
BRANCH  18  19
ATOM     19  C   UNL     1      10.115  -2.546  39.567  1.00  0.00     0.000 C 
BRANCH  19  20
ATOM     20  C   UNL     1      10.383  -4.035  39.300  1.00  0.00     0.006 C 
BRANCH  20  21
ATOM     21  C   UNL     1       9.713  -4.529  38.011  1.00  0.00     0.053 C 
BRANCH  21  22
ATOM     22  C   UNL     1      10.612  -5.471  37.277  1.00  0.00     0.041 C 
ATOM     23  O   UNL     1      11.741  -5.769  37.754  1.00  0.00    -0.550 OA
ATOM     24  O   UNL     1      10.223  -5.995  36.050  1.00  0.00    -0.550 OA
ENDBRANCH  21  22
ENDBRANCH  20  21
ENDBRANCH  19  20
ENDBRANCH  18  19
ENDBRANCH  17  18
ENDBRANCH  16  17
ENDBRANCH  15  16
ENDBRANCH  14  15
ENDBRANCH  13  14
ENDBRANCH   1  13
TORSDOF 20
ENDMDL
MODEL 4
REMARK VINA RESULT:    -4.328      4.242      7.279
REMARK INTER + INTRA:         -12.017
REMARK INTER:                  -9.269
REMARK INTRA:                  -2.748
REMARK UNBOUND:                -2.629
REMARK SMILES CCCCCCCCCCCCCCCCCCCCCC(=O)[O-]
REMARK SMILES IDX 12 1 11 2 10 3 9 4 8 5 7 6 6 7 5 8 4 9 3 10 2 11 1 12 13 13
REMARK SMILES IDX 14 14 15 15 16 16 17 17 18 18 19 19 20 20 21 21 22 22 23 23
REMARK SMILES IDX 24 24
REMARK H PARENT
REMARK Flexibility Score: inf
ROOT
ATOM      1  C   UNL     1      15.131   0.030  41.386  1.00  0.00     0.000 C 
ENDROOT
BRANCH   1   2
ATOM      2  C   UNL     1      14.489  -1.100  40.564  1.00  0.00     0.000 C 
BRANCH   2   3
ATOM      3  C   UNL     1      13.484  -0.578  39.523  1.00  0.00     0.000 C 
BRANCH   3   4
ATOM      4  C   UNL     1      12.027  -0.611  40.023  1.00  0.00    -0.000 C 
BRANCH   4   5
ATOM      5  C   UNL     1      11.834  -0.310  41.522  1.00  0.00    -0.000 C 
BRANCH   5   6
ATOM      6  C   UNL     1      10.848   0.843  41.783  1.00  0.00    -0.000 C 
BRANCH   6   7
ATOM      7  C   UNL     1      11.143   2.091  40.930  1.00  0.00    -0.000 C 
BRANCH   7   8
ATOM      8  C   UNL     1      12.325   2.952  41.409  1.00  0.00    -0.000 C 
BRANCH   8   9
ATOM      9  C   UNL     1      11.882   4.230  42.142  1.00  0.00    -0.000 C 
BRANCH   9  10
ATOM     10  C   UNL     1      12.387   5.513  41.447  1.00  0.00    -0.000 C 
BRANCH  10  11
ATOM     11  C   UNL     1      12.299   5.465  39.913  1.00  0.00    -0.003 C 
ATOM     12  C   UNL     1      10.913   5.817  39.376  1.00  0.00     0.004 C 
ENDBRANCH  10  11
ENDBRANCH   9  10
ENDBRANCH   8   9
ENDBRANCH   7   8
ENDBRANCH   6   7
ENDBRANCH   5   6
ENDBRANCH   4   5
ENDBRANCH   3   4
ENDBRANCH   2   3
ENDBRANCH   1   2
BRANCH   1  13
ATOM     13  C   UNL     1      15.532   1.240  40.525  1.00  0.00     0.000 C 
BRANCH  13  14
ATOM     14  C   UNL     1      17.031   1.568  40.634  1.00  0.00     0.000 C 
BRANCH  14  15
ATOM     15  C   UNL     1      17.295   3.070  40.820  1.00  0.00     0.000 C 
BRANCH  15  16
ATOM     16  C   UNL     1      15.986   3.873  40.758  1.00  0.00     0.000 C 
BRANCH  16  17
ATOM     17  C   UNL     1      16.066   5.207  41.522  1.00  0.00     0.000 C 
BRANCH  17  18
ATOM     18  C   UNL     1      16.055   5.073  43.056  1.00  0.00     0.000 C 
BRANCH  18  19
ATOM     19  C   UNL     1      15.320   6.234  43.748  1.00  0.00     0.000 C 
BRANCH  19  20
ATOM     20  C   UNL     1      14.184   5.746  44.660  1.00  0.00     0.006 C 
BRANCH  20  21
ATOM     21  C   UNL     1      14.450   6.051  46.140  1.00  0.00     0.053 C 
BRANCH  21  22
ATOM     22  C   UNL     1      14.844   4.808  46.871  1.00  0.00     0.041 C 
ATOM     23  O   UNL     1      14.066   4.302  47.725  1.00  0.00    -0.550 OA
ATOM     24  O   UNL     1      16.084   4.225  46.639  1.00  0.00    -0.550 OA
ENDBRANCH  21  22
ENDBRANCH  20  21
ENDBRANCH  19  20
ENDBRANCH  18  19
ENDBRANCH  17  18
ENDBRANCH  16  17
ENDBRANCH  15  16
ENDBRANCH  14  15
ENDBRANCH  13  14
ENDBRANCH   1  13
TORSDOF 20
ENDMDL
MODEL 5
REMARK VINA RESULT:    -4.303      4.101      7.775
REMARK INTER + INTRA:         -11.963
REMARK INTER:                  -9.901
REMARK INTRA:                  -2.062
REMARK UNBOUND:                -2.629
REMARK SMILES CCCCCCCCCCCCCCCCCCCCCC(=O)[O-]
REMARK SMILES IDX 12 1 11 2 10 3 9 4 8 5 7 6 6 7 5 8 4 9 3 10 2 11 1 12 13 13
REMARK SMILES IDX 14 14 15 15 16 16 17 17 18 18 19 19 20 20 21 21 22 22 23 23
REMARK SMILES IDX 24 24
REMARK H PARENT
REMARK Flexibility Score: inf
ROOT
ATOM      1  C   UNL     1      15.556   1.267  41.063  1.00  0.00     0.000 C 
ENDROOT
BRANCH   1   2
ATOM      2  C   UNL     1      15.391  -0.235  40.772  1.00  0.00     0.000 C 
BRANCH   2   3
ATOM      3  C   UNL     1      14.114  -0.822  41.399  1.00  0.00     0.000 C 
BRANCH   3   4
ATOM      4  C   UNL     1      13.044  -1.189  40.353  1.00  0.00    -0.000 C 
BRANCH   4   5
ATOM      5  C   UNL     1      11.658  -0.553  40.572  1.00  0.00    -0.000 C 
BRANCH   5   6
ATOM      6  C   UNL     1      11.644   0.483  41.710  1.00  0.00    -0.000 C 
BRANCH   6   7
ATOM      7  C   UNL     1      11.730   1.935  41.203  1.00  0.00    -0.000 C 
BRANCH   7   8
ATOM      8  C   UNL     1      10.388   2.576  40.809  1.00  0.00    -0.000 C 
BRANCH   8   9
ATOM      9  C   UNL     1      10.352   3.047  39.344  1.00  0.00    -0.000 C 
BRANCH   9  10
ATOM     10  C   UNL     1       9.694   2.011  38.408  1.00  0.00    -0.000 C 
BRANCH  10  11
ATOM     11  C   UNL     1      10.693   1.260  37.511  1.00  0.00    -0.003 C 
ATOM     12  C   UNL     1      10.788   1.835  36.100  1.00  0.00     0.004 C 
ENDBRANCH  10  11
ENDBRANCH   9  10
ENDBRANCH   8   9
ENDBRANCH   7   8
ENDBRANCH   6   7
ENDBRANCH   5   6
ENDBRANCH   4   5
ENDBRANCH   3   4
ENDBRANCH   2   3
ENDBRANCH   1   2
BRANCH   1  13
ATOM     13  C   UNL     1      16.904   1.824  40.574  1.00  0.00     0.000 C 
BRANCH  13  14
ATOM     14  C   UNL     1      17.713   2.480  41.706  1.00  0.00     0.000 C 
BRANCH  14  15
ATOM     15  C   UNL     1      17.837   4.002  41.536  1.00  0.00     0.000 C 
BRANCH  15  16
ATOM     16  C   UNL     1      16.557   4.715  41.998  1.00  0.00     0.000 C 
BRANCH  16  17
ATOM     17  C   UNL     1      15.815   5.419  40.847  1.00  0.00     0.000 C 
BRANCH  17  18
ATOM     18  C   UNL     1      16.368   6.809  40.480  1.00  0.00     0.000 C 
BRANCH  18  19
ATOM     19  C   UNL     1      16.016   7.882  41.524  1.00  0.00     0.000 C 
BRANCH  19  20
ATOM     20  C   UNL     1      17.257   8.409  42.261  1.00  0.00     0.006 C 
BRANCH  20  21
ATOM     21  C   UNL     1      18.560   7.819  41.709  1.00  0.00     0.053 C 
BRANCH  21  22
ATOM     22  C   UNL     1      19.368   7.206  42.808  1.00  0.00     0.041 C 
ATOM     23  O   UNL     1      18.972   7.282  44.002  1.00  0.00    -0.550 OA
ATOM     24  O   UNL     1      20.577   6.582  42.522  1.00  0.00    -0.550 OA
ENDBRANCH  21  22
ENDBRANCH  20  21
ENDBRANCH  19  20
ENDBRANCH  18  19
ENDBRANCH  17  18
ENDBRANCH  16  17
ENDBRANCH  15  16
ENDBRANCH  14  15
ENDBRANCH  13  14
ENDBRANCH   1  13
TORSDOF 20
ENDMDL
MODEL 6
REMARK VINA RESULT:    -4.295      4.865      8.147
REMARK INTER + INTRA:         -11.945
REMARK INTER:                  -8.893
REMARK INTRA:                  -3.053
REMARK UNBOUND:                -2.629
REMARK SMILES CCCCCCCCCCCCCCCCCCCCCC(=O)[O-]
REMARK SMILES IDX 12 1 11 2 10 3 9 4 8 5 7 6 6 7 5 8 4 9 3 10 2 11 1 12 13 13
REMARK SMILES IDX 14 14 15 15 16 16 17 17 18 18 19 19 20 20 21 21 22 22 23 23
REMARK SMILES IDX 24 24
REMARK H PARENT
REMARK Flexibility Score: inf
ROOT
ATOM      1  C   UNL     1      15.146   7.629  44.008  1.00  0.00     0.000 C 
ENDROOT
BRANCH   1   2
ATOM      2  C   UNL     1      16.244   6.819  44.718  1.00  0.00     0.000 C 
BRANCH   2   3
ATOM      3  C   UNL     1      15.967   5.306  44.704  1.00  0.00     0.000 C 
BRANCH   3   4
ATOM      4  C   UNL     1      15.717   4.726  46.109  1.00  0.00    -0.000 C 
BRANCH   4   5
ATOM      5  C   UNL     1      14.931   5.637  47.072  1.00  0.00    -0.000 C 
BRANCH   5   6
ATOM      6  C   UNL     1      13.518   5.111  47.380  1.00  0.00    -0.000 C 
BRANCH   6   7
ATOM      7  C   UNL     1      12.409   5.925  46.687  1.00  0.00    -0.000 C 
BRANCH   7   8
ATOM      8  C   UNL     1      11.321   5.093  45.986  1.00  0.00    -0.000 C 
BRANCH   8   9
ATOM      9  C   UNL     1      11.783   4.506  44.641  1.00  0.00    -0.000 C 
BRANCH   9  10
ATOM     10  C   UNL     1      12.208   5.599  43.636  1.00  0.00    -0.000 C 
BRANCH  10  11
ATOM     11  C   UNL     1      13.008   5.063  42.437  1.00  0.00    -0.003 C 
ATOM     12  C   UNL     1      12.286   3.954  41.675  1.00  0.00     0.004 C 
ENDBRANCH  10  11
ENDBRANCH   9  10
ENDBRANCH   8   9
ENDBRANCH   7   8
ENDBRANCH   6   7
ENDBRANCH   5   6
ENDBRANCH   4   5
ENDBRANCH   3   4
ENDBRANCH   2   3
ENDBRANCH   1   2
BRANCH   1  13
ATOM     13  C   UNL     1      15.652   8.982  43.479  1.00  0.00     0.000 C 
BRANCH  13  14
ATOM     14  C   UNL     1      15.375   9.166  41.977  1.00  0.00     0.000 C 
BRANCH  14  15
ATOM     15  C   UNL     1      16.633   9.566  41.190  1.00  0.00     0.000 C 
BRANCH  15  16
ATOM     16  C   UNL     1      17.484   8.335  40.843  1.00  0.00     0.000 C 
BRANCH  16  17
ATOM     17  C   UNL     1      16.635   7.117  40.433  1.00  0.00     0.000 C 
BRANCH  17  18
ATOM     18  C   UNL     1      16.964   5.819  41.192  1.00  0.00     0.000 C 
BRANCH  18  19
ATOM     19  C   UNL     1      16.065   4.643  40.773  1.00  0.00     0.000 C 
BRANCH  19  20
ATOM     20  C   UNL     1      16.865   3.354  40.527  1.00  0.00     0.006 C 
BRANCH  20  21
ATOM     21  C   UNL     1      17.959   3.135  41.580  1.00  0.00     0.053 C 
BRANCH  21  22
ATOM     22  C   UNL     1      19.270   2.840  40.924  1.00  0.00     0.041 C 
ATOM     23  O   UNL     1      19.308   2.149  39.870  1.00  0.00    -0.550 OA
ATOM     24  O   UNL     1      20.454   3.296  41.492  1.00  0.00    -0.550 OA
ENDBRANCH  21  22
ENDBRANCH  20  21
ENDBRANCH  19  20
ENDBRANCH  18  19
ENDBRANCH  17  18
ENDBRANCH  16  17
ENDBRANCH  15  16
ENDBRANCH  14  15
ENDBRANCH  13  14
ENDBRANCH   1  13
TORSDOF 20
ENDMDL
MODEL 7
REMARK VINA RESULT:    -4.287      4.158      6.934
REMARK INTER + INTRA:         -11.928
REMARK INTER:                  -9.646
REMARK INTRA:                  -2.283
REMARK UNBOUND:                -2.629
REMARK SMILES CCCCCCCCCCCCCCCCCCCCCC(=O)[O-]
REMARK SMILES IDX 12 1 11 2 10 3 9 4 8 5 7 6 6 7 5 8 4 9 3 10 2 11 1 12 13 13
REMARK SMILES IDX 14 14 15 15 16 16 17 17 18 18 19 19 20 20 21 21 22 22 23 23
REMARK SMILES IDX 24 24
REMARK H PARENT
REMARK Flexibility Score: inf
ROOT
ATOM      1  C   UNL     1      13.086  -0.615  39.949  1.00  0.00     0.000 C 
ENDROOT
BRANCH   1   2
ATOM      2  C   UNL     1      11.622  -0.179  40.133  1.00  0.00     0.000 C 
BRANCH   2   3
ATOM      3  C   UNL     1      11.273   0.122  41.601  1.00  0.00     0.000 C 
BRANCH   3   4
ATOM      4  C   UNL     1      10.815   1.576  41.825  1.00  0.00    -0.000 C 
BRANCH   4   5
ATOM      5  C   UNL     1      11.853   2.660  41.472  1.00  0.00    -0.000 C 
BRANCH   5   6
ATOM      6  C   UNL     1      11.886   3.816  42.487  1.00  0.00    -0.000 C 
BRANCH   6   7
ATOM      7  C   UNL     1      13.110   4.733  42.314  1.00  0.00    -0.000 C 
BRANCH   7   8
ATOM      8  C   UNL     1      13.542   5.501  43.577  1.00  0.00    -0.000 C 
BRANCH   8   9
ATOM      9  C   UNL     1      12.601   5.271  44.773  1.00  0.00    -0.000 C 
BRANCH   9  10
ATOM     10  C   UNL     1      13.368   5.111  46.104  1.00  0.00    -0.000 C 
BRANCH  10  11
ATOM     11  C   UNL     1      14.789   5.700  46.077  1.00  0.00    -0.003 C 
ATOM     12  C   UNL     1      15.884   4.642  46.181  1.00  0.00     0.004 C 
ENDBRANCH  10  11
ENDBRANCH   9  10
ENDBRANCH   8   9
ENDBRANCH   7   8
ENDBRANCH   6   7
ENDBRANCH   5   6
ENDBRANCH   4   5
ENDBRANCH   3   4
ENDBRANCH   2   3
ENDBRANCH   1   2
BRANCH   1  13
ATOM     13  C   UNL     1      13.911  -0.491  41.242  1.00  0.00     0.000 C 
BRANCH  13  14
ATOM     14  C   UNL     1      15.385  -0.151  40.966  1.00  0.00     0.000 C 
BRANCH  14  15
ATOM     15  C   UNL     1      15.612   1.352  40.739  1.00  0.00     0.000 C 
BRANCH  15  16
ATOM     16  C   UNL     1      17.112   1.686  40.709  1.00  0.00     0.000 C 
BRANCH  16  17
ATOM     17  C   UNL     1      17.402   3.167  41.014  1.00  0.00     0.000 C 
BRANCH  17  18
ATOM     18  C   UNL     1      16.299   4.144  40.565  1.00  0.00     0.000 C 
BRANCH  18  19
ATOM     19  C   UNL     1      16.587   5.596  40.983  1.00  0.00     0.000 C 
BRANCH  19  20
ATOM     20  C   UNL     1      17.154   5.693  42.408  1.00  0.00     0.006 C 
BRANCH  20  21
ATOM     21  C   UNL     1      18.310   6.697  42.511  1.00  0.00     0.053 C 
BRANCH  21  22
ATOM     22  C   UNL     1      17.849   7.964  43.159  1.00  0.00     0.041 C 
ATOM     23  O   UNL     1      17.835   9.041  42.502  1.00  0.00    -0.550 OA
ATOM     24  O   UNL     1      17.469   7.967  44.495  1.00  0.00    -0.550 OA
ENDBRANCH  21  22
ENDBRANCH  20  21
ENDBRANCH  19  20
ENDBRANCH  18  19
ENDBRANCH  17  18
ENDBRANCH  16  17
ENDBRANCH  15  16
ENDBRANCH  14  15
ENDBRANCH  13  14
ENDBRANCH   1  13
TORSDOF 20
ENDMDL
MODEL 8
REMARK VINA RESULT:    -4.263      3.444      7.410
REMARK INTER + INTRA:         -11.875
REMARK INTER:                  -9.187
REMARK INTRA:                  -2.688
REMARK UNBOUND:                -2.629
REMARK SMILES CCCCCCCCCCCCCCCCCCCCCC(=O)[O-]
REMARK SMILES IDX 12 1 11 2 10 3 9 4 8 5 7 6 6 7 5 8 4 9 3 10 2 11 1 12 13 13
REMARK SMILES IDX 14 14 15 15 16 16 17 17 18 18 19 19 20 20 21 21 22 22 23 23
REMARK SMILES IDX 24 24
REMARK H PARENT
REMARK Flexibility Score: inf
ROOT
ATOM      1  C   UNL     1       9.749   2.650  38.223  1.00  0.00     0.000 C 
ENDROOT
BRANCH   1   2
ATOM      2  C   UNL     1      10.374   1.307  37.811  1.00  0.00     0.000 C 
BRANCH   2   3
ATOM      3  C   UNL     1       9.566   0.098  38.315  1.00  0.00     0.000 C 
BRANCH   3   4
ATOM      4  C   UNL     1       9.271   0.159  39.826  1.00  0.00    -0.000 C 
BRANCH   4   5
ATOM      5  C   UNL     1       9.763  -1.049  40.646  1.00  0.00    -0.000 C 
BRANCH   5   6
ATOM      6  C   UNL     1      10.790  -0.666  41.726  1.00  0.00    -0.000 C 
BRANCH   6   7
ATOM      7  C   UNL     1      11.367   0.748  41.532  1.00  0.00    -0.000 C 
BRANCH   7   8
ATOM      8  C   UNL     1      12.864   0.806  41.179  1.00  0.00    -0.000 C 
BRANCH   8   9
ATOM      9  C   UNL     1      13.347  -0.428  40.396  1.00  0.00    -0.000 C 
BRANCH   9  10
ATOM     10  C   UNL     1      14.623  -1.050  41.004  1.00  0.00    -0.000 C 
BRANCH  10  11
ATOM     11  C   UNL     1      14.599  -2.587  41.061  1.00  0.00    -0.003 C 
ATOM     12  C   UNL     1      13.767  -3.220  39.947  1.00  0.00     0.004 C 
ENDBRANCH  10  11
ENDBRANCH   9  10
ENDBRANCH   8   9
ENDBRANCH   7   8
ENDBRANCH   6   7
ENDBRANCH   5   6
ENDBRANCH   4   5
ENDBRANCH   3   4
ENDBRANCH   2   3
ENDBRANCH   1   2
BRANCH   1  13
ATOM     13  C   UNL     1      10.684   3.499  39.100  1.00  0.00     0.000 C 
BRANCH  13  14
ATOM     14  C   UNL     1       9.998   3.991  40.385  1.00  0.00     0.000 C 
BRANCH  14  15
ATOM     15  C   UNL     1      11.002   4.472  41.445  1.00  0.00     0.000 C 
BRANCH  15  16
ATOM     16  C   UNL     1      12.447   4.317  40.946  1.00  0.00     0.000 C 
BRANCH  16  17
ATOM     17  C   UNL     1      13.209   5.653  40.895  1.00  0.00     0.000 C 
BRANCH  17  18
ATOM     18  C   UNL     1      14.743   5.522  40.942  1.00  0.00     0.000 C 
BRANCH  18  19
ATOM     19  C   UNL     1      15.205   4.179  41.534  1.00  0.00     0.000 C 
BRANCH  19  20
ATOM     20  C   UNL     1      16.734   4.032  41.527  1.00  0.00     0.006 C 
BRANCH  20  21
ATOM     21  C   UNL     1      17.189   2.680  40.962  1.00  0.00     0.053 C 
BRANCH  21  22
ATOM     22  C   UNL     1      18.654   2.700  40.663  1.00  0.00     0.041 C 
ATOM     23  O   UNL     1      19.124   1.966  39.753  1.00  0.00    -0.550 OA
ATOM     24  O   UNL     1      19.508   3.502  41.411  1.00  0.00    -0.550 OA
ENDBRANCH  21  22
ENDBRANCH  20  21
ENDBRANCH  19  20
ENDBRANCH  18  19
ENDBRANCH  17  18
ENDBRANCH  16  17
ENDBRANCH  15  16
ENDBRANCH  14  15
ENDBRANCH  13  14
ENDBRANCH   1  13
TORSDOF 20
ENDMDL
MODEL 9
REMARK VINA RESULT:    -4.248      3.960      6.511
REMARK INTER + INTRA:         -11.845
REMARK INTER:                  -9.265
REMARK INTRA:                  -2.579
REMARK UNBOUND:                -2.629
REMARK SMILES CCCCCCCCCCCCCCCCCCCCCC(=O)[O-]
REMARK SMILES IDX 12 1 11 2 10 3 9 4 8 5 7 6 6 7 5 8 4 9 3 10 2 11 1 12 13 13
REMARK SMILES IDX 14 14 15 15 16 16 17 17 18 18 19 19 20 20 21 21 22 22 23 23
REMARK SMILES IDX 24 24
REMARK H PARENT
REMARK Flexibility Score: inf
ROOT
ATOM      1  C   UNL     1      10.434   1.549  40.780  1.00  0.00     0.000 C 
ENDROOT
BRANCH   1   2
ATOM      2  C   UNL     1      11.515   2.435  41.421  1.00  0.00     0.000 C 
BRANCH   2   3
ATOM      3  C   UNL     1      11.064   3.045  42.760  1.00  0.00     0.000 C 
BRANCH   3   4
ATOM      4  C   UNL     1      11.738   4.397  43.063  1.00  0.00    -0.000 C 
BRANCH   4   5
ATOM      5  C   UNL     1      12.007   5.292  41.838  1.00  0.00    -0.000 C 
BRANCH   5   6
ATOM      6  C   UNL     1      13.316   6.093  41.954  1.00  0.00    -0.000 C 
BRANCH   6   7
ATOM      7  C   UNL     1      14.573   5.217  41.797  1.00  0.00    -0.000 C 
BRANCH   7   8
ATOM      8  C   UNL     1      15.585   5.304  42.953  1.00  0.00    -0.000 C 
BRANCH   8   9
ATOM      9  C   UNL     1      16.668   6.373  42.728  1.00  0.00    -0.000 C 
BRANCH   9  10
ATOM     10  C   UNL     1      16.881   6.691  41.232  1.00  0.00    -0.000 C 
BRANCH  10  11
ATOM     11  C   UNL     1      17.012   8.193  40.928  1.00  0.00    -0.003 C 
ATOM     12  C   UNL     1      15.980   9.050  41.658  1.00  0.00     0.004 C 
ENDBRANCH  10  11
ENDBRANCH   9  10
ENDBRANCH   8   9
ENDBRANCH   7   8
ENDBRANCH   6   7
ENDBRANCH   5   6
ENDBRANCH   4   5
ENDBRANCH   3   4
ENDBRANCH   2   3
ENDBRANCH   1   2
BRANCH   1  13
ATOM     13  C   UNL     1      10.487   0.093  41.274  1.00  0.00     0.000 C 
BRANCH  13  14
ATOM     14  C   UNL     1      11.927  -0.397  41.501  1.00  0.00     0.000 C 
BRANCH  14  15
ATOM     15  C   UNL     1      12.466  -1.214  40.317  1.00  0.00     0.000 C 
BRANCH  15  16
ATOM     16  C   UNL     1      13.887  -0.767  39.939  1.00  0.00     0.000 C 
BRANCH  16  17
ATOM     17  C   UNL     1      14.491   0.226  40.949  1.00  0.00     0.000 C 
BRANCH  17  18
ATOM     18  C   UNL     1      15.890   0.750  40.578  1.00  0.00     0.000 C 
BRANCH  18  19
ATOM     19  C   UNL     1      16.265   2.032  41.341  1.00  0.00     0.000 C 
BRANCH  19  20
ATOM     20  C   UNL     1      17.220   2.931  40.540  1.00  0.00     0.006 C 
BRANCH  20  21
ATOM     21  C   UNL     1      18.427   3.387  41.370  1.00  0.00     0.053 C 
BRANCH  21  22
ATOM     22  C   UNL     1      19.688   2.780  40.844  1.00  0.00     0.041 C 
ATOM     23  O   UNL     1      20.806   3.152  41.294  1.00  0.00    -0.550 OA
ATOM     24  O   UNL     1      19.635   1.829  39.832  1.00  0.00    -0.550 OA
ENDBRANCH  21  22
ENDBRANCH  20  21
ENDBRANCH  19  20
ENDBRANCH  18  19
ENDBRANCH  17  18
ENDBRANCH  16  17
ENDBRANCH  15  16
ENDBRANCH  14  15
ENDBRANCH  13  14
ENDBRANCH   1  13
TORSDOF 20
ENDMDL
