MODEL 1
REMARK VINA RESULT:    -3.825      0.000      0.000
REMARK INTER + INTRA:          -9.416
REMARK INTER:                  -6.956
REMARK INTRA:                  -2.460
REMARK UNBOUND:                -2.460
REMARK SMILES CCCCCCCCCCCCCCCC(=O)[O-]
REMARK SMILES IDX 9 1 10 2 11 3 12 4 13 5 14 6 15 7 16 8 17 9 18 10 8 11 7 12
REMARK SMILES IDX 6 13 5 14 4 15 3 16 2 17 1 18
REMARK H PARENT
REMARK Flexibility Score: inf
ROOT
ATOM      1  C   UNL     1      17.678  22.080 -10.998  1.00  0.00     0.000 C 
ENDROOT
BRANCH   1   2
ATOM      2  C   UNL     1      16.225  21.599 -11.145  1.00  0.00     0.000 C 
BRANCH   2   3
ATOM      3  C   UNL     1      15.911  20.382 -10.262  1.00  0.00     0.000 C 
BRANCH   3   4
ATOM      4  C   UNL     1      15.166  20.807  -8.988  1.00  0.00     0.000 C 
BRANCH   4   5
ATOM      5  C   UNL     1      14.588  22.229  -9.085  1.00  0.00     0.000 C 
BRANCH   5   6
ATOM      6  C   UNL     1      14.021  22.730  -7.748  1.00  0.00     0.006 C 
BRANCH   6   7
ATOM      7  C   UNL     1      14.612  21.944  -6.575  1.00  0.00     0.053 C 
BRANCH   7   8
ATOM      8  C   UNL     1      15.207  22.876  -5.566  1.00  0.00     0.041 C 
ATOM      9  O   UNL     1      15.756  22.420  -4.528  1.00  0.00    -0.550 OA
ATOM     10  O   UNL     1      15.198  24.246  -5.796  1.00  0.00    -0.550 OA
ENDBRANCH   7   8
ENDBRANCH   6   7
ENDBRANCH   5   6
ENDBRANCH   4   5
ENDBRANCH   3   4
ENDBRANCH   2   3
ENDBRANCH   1   2
BRANCH   1  11
ATOM     11  C   UNL     1      17.780  23.604 -10.816  1.00  0.00     0.000 C 
BRANCH  11  12
ATOM     12  C   UNL     1      18.445  24.001  -9.485  1.00  0.00    -0.000 C 
BRANCH  12  13
ATOM     13  C   UNL     1      17.884  23.293  -8.236  1.00  0.00    -0.000 C 
BRANCH  13  14
ATOM     14  C   UNL     1      18.926  22.543  -7.382  1.00  0.00    -0.000 C 
BRANCH  14  15
ATOM     15  C   UNL     1      18.382  21.319  -6.623  1.00  0.00    -0.000 C 
BRANCH  15  16
ATOM     16  C   UNL     1      19.204  20.046  -6.880  1.00  0.00    -0.000 C 
BRANCH  16  17
ATOM     17  C   UNL     1      18.623  19.245  -8.050  1.00  0.00    -0.003 C 
ATOM     18  C   UNL     1      19.431  19.466  -9.325  1.00  0.00     0.004 C 
ENDBRANCH  16  17
ENDBRANCH  15  16
ENDBRANCH  14  15
ENDBRANCH  13  14
ENDBRANCH  12  13
ENDBRANCH  11  12
ENDBRANCH   1  11
TORSDOF 14
ENDMDL
MODEL 2
REMARK VINA RESULT:    -3.769      1.811      2.559
REMARK INTER + INTRA:          -9.313
REMARK INTER:                  -6.858
REMARK INTRA:                  -2.455
REMARK UNBOUND:                -2.460
REMARK SMILES CCCCCCCCCCCCCCCC(=O)[O-]
REMARK SMILES IDX 9 1 10 2 11 3 12 4 13 5 14 6 15 7 16 8 17 9 18 10 8 11 7 12
REMARK SMILES IDX 6 13 5 14 4 15 3 16 2 17 1 18
REMARK H PARENT
REMARK Flexibility Score: inf
ROOT
ATOM      1  C   UNL     1      16.132  21.107 -11.039  1.00  0.00     0.000 C 
ENDROOT
BRANCH   1   2
ATOM      2  C   UNL     1      15.059  20.292 -10.300  1.00  0.00     0.000 C 
BRANCH   2   3
ATOM      3  C   UNL     1      15.659  19.199  -9.402  1.00  0.00     0.000 C 
BRANCH   3   4
ATOM      4  C   UNL     1      15.361  19.481  -7.922  1.00  0.00     0.000 C 
BRANCH   4   5
ATOM      5  C   UNL     1      14.088  20.321  -7.722  1.00  0.00     0.000 C 
BRANCH   5   6
ATOM      6  C   UNL     1      14.327  21.559  -6.844  1.00  0.00     0.006 C 
BRANCH   6   7
ATOM      7  C   UNL     1      14.386  22.830  -7.697  1.00  0.00     0.053 C 
BRANCH   7   8
ATOM      8  C   UNL     1      13.028  23.167  -8.228  1.00  0.00     0.041 C 
ATOM      9  O   UNL     1      12.879  23.465  -9.443  1.00  0.00    -0.550 OA
ATOM     10  O   UNL     1      11.919  23.105  -7.393  1.00  0.00    -0.550 OA
ENDBRANCH   7   8
ENDBRANCH   6   7
ENDBRANCH   5   6
ENDBRANCH   4   5
ENDBRANCH   3   4
ENDBRANCH   2   3
ENDBRANCH   1   2
BRANCH   1  11
ATOM     11  C   UNL     1      15.873  22.622 -10.973  1.00  0.00     0.000 C 
BRANCH  11  12
ATOM     12  C   UNL     1      17.087  23.455 -11.423  1.00  0.00    -0.000 C 
BRANCH  12  13
ATOM     13  C   UNL     1      18.348  23.297 -10.551  1.00  0.00    -0.000 C 
BRANCH  13  14
ATOM     14  C   UNL     1      18.305  24.029  -9.194  1.00  0.00    -0.000 C 
BRANCH  14  15
ATOM     15  C   UNL     1      18.650  23.155  -7.975  1.00  0.00    -0.000 C 
BRANCH  15  16
ATOM     16  C   UNL     1      18.129  21.716  -8.106  1.00  0.00    -0.000 C 
BRANCH  16  17
ATOM     17  C   UNL     1      19.286  20.711  -8.101  1.00  0.00    -0.003 C 
ATOM     18  C   UNL     1      19.258  19.831  -9.347  1.00  0.00     0.004 C 
ENDBRANCH  16  17
ENDBRANCH  15  16
ENDBRANCH  14  15
ENDBRANCH  13  14
ENDBRANCH  12  13
ENDBRANCH  11  12
ENDBRANCH   1  11
TORSDOF 14
ENDMDL
MODEL 3
REMARK VINA RESULT:    -3.758      1.825      3.086
REMARK INTER + INTRA:          -9.293
REMARK INTER:                  -7.163
REMARK INTRA:                  -2.129
REMARK UNBOUND:                -2.460
REMARK SMILES CCCCCCCCCCCCCCCC(=O)[O-]
REMARK SMILES IDX 9 1 10 2 11 3 12 4 13 5 14 6 15 7 16 8 17 9 18 10 8 11 7 12
REMARK SMILES IDX 6 13 5 14 4 15 3 16 2 17 1 18
REMARK H PARENT
REMARK Flexibility Score: inf
ROOT
ATOM      1  C   UNL     1      17.909  24.076  -9.592  1.00  0.00     0.000 C 
ENDROOT
BRANCH   1   2
ATOM      2  C   UNL     1      18.635  23.635 -10.874  1.00  0.00     0.000 C 
BRANCH   2   3
ATOM      3  C   UNL     1      18.220  22.230 -11.337  1.00  0.00     0.000 C 
BRANCH   3   4
ATOM      4  C   UNL     1      16.691  22.077 -11.317  1.00  0.00     0.000 C 
BRANCH   4   5
ATOM      5  C   UNL     1      16.228  20.857 -10.503  1.00  0.00     0.000 C 
BRANCH   5   6
ATOM      6  C   UNL     1      14.891  21.098  -9.785  1.00  0.00     0.006 C 
BRANCH   6   7
ATOM      7  C   UNL     1      13.957  21.956 -10.643  1.00  0.00     0.053 C 
BRANCH   7   8
ATOM      8  C   UNL     1      13.365  23.062  -9.827  1.00  0.00     0.041 C 
ATOM      9  O   UNL     1      12.650  23.942 -10.376  1.00  0.00    -0.550 OA
ATOM     10  O   UNL     1      13.562  23.094  -8.452  1.00  0.00    -0.550 OA
ENDBRANCH   7   8
ENDBRANCH   6   7
ENDBRANCH   5   6
ENDBRANCH   4   5
ENDBRANCH   3   4
ENDBRANCH   2   3
ENDBRANCH   1   2
BRANCH   1  11
ATOM     11  C   UNL     1      18.345  23.267  -8.359  1.00  0.00     0.000 C 
BRANCH  11  12
ATOM     12  C   UNL     1      17.162  22.876  -7.454  1.00  0.00    -0.000 C 
BRANCH  12  13
ATOM     13  C   UNL     1      17.480  21.813  -6.384  1.00  0.00    -0.000 C 
BRANCH  13  14
ATOM     14  C   UNL     1      18.980  21.548  -6.147  1.00  0.00    -0.000 C 
BRANCH  14  15
ATOM     15  C   UNL     1      19.487  20.188  -6.659  1.00  0.00    -0.000 C 
BRANCH  15  16
ATOM     16  C   UNL     1      18.350  19.193  -6.938  1.00  0.00    -0.000 C 
BRANCH  16  17
ATOM     17  C   UNL     1      18.317  18.799  -8.419  1.00  0.00    -0.003 C 
ATOM     18  C   UNL     1      19.370  19.562  -9.216  1.00  0.00     0.004 C 
ENDBRANCH  16  17
ENDBRANCH  15  16
ENDBRANCH  14  15
ENDBRANCH  13  14
ENDBRANCH  12  13
ENDBRANCH  11  12
ENDBRANCH   1  11
TORSDOF 14
ENDMDL
MODEL 4
REMARK VINA RESULT:    -3.748      2.634      3.091
REMARK INTER + INTRA:          -9.275
REMARK INTER:                  -7.227
REMARK INTRA:                  -2.048
REMARK UNBOUND:                -2.460
REMARK SMILES CCCCCCCCCCCCCCCC(=O)[O-]
REMARK SMILES IDX 9 1 10 2 11 3 12 4 13 5 14 6 15 7 16 8 17 9 18 10 8 11 7 12
REMARK SMILES IDX 6 13 5 14 4 15 3 16 2 17 1 18
REMARK H PARENT
REMARK Flexibility Score: inf
ROOT
ATOM      1  C   UNL     1      17.809  21.801 -10.652  1.00  0.00     0.000 C 
ENDROOT
BRANCH   1   2
ATOM      2  C   UNL     1      16.373  21.418 -11.047  1.00  0.00     0.000 C 
BRANCH   2   3
ATOM      3  C   UNL     1      15.815  20.262 -10.203  1.00  0.00     0.000 C 
BRANCH   3   4
ATOM      4  C   UNL     1      15.162  20.789  -8.916  1.00  0.00     0.000 C 
BRANCH   4   5
ATOM      5  C   UNL     1      13.745  21.339  -9.151  1.00  0.00     0.000 C 
BRANCH   5   6
ATOM      6  C   UNL     1      13.694  22.874  -9.124  1.00  0.00     0.006 C 
BRANCH   6   7
ATOM      7  C   UNL     1      12.710  23.407 -10.170  1.00  0.00     0.053 C 
BRANCH   7   8
ATOM      8  C   UNL     1      13.362  23.476 -11.515  1.00  0.00     0.041 C 
ATOM      9  O   UNL     1      13.091  22.616 -12.395  1.00  0.00    -0.550 OA
ATOM     10  O   UNL     1      14.232  24.518 -11.814  1.00  0.00    -0.550 OA
ENDBRANCH   7   8
ENDBRANCH   6   7
ENDBRANCH   5   6
ENDBRANCH   4   5
ENDBRANCH   3   4
ENDBRANCH   2   3
ENDBRANCH   1   2
BRANCH   1  11
ATOM     11  C   UNL     1      18.057  23.317 -10.726  1.00  0.00     0.000 C 
BRANCH  11  12
ATOM     12  C   UNL     1      18.310  23.948  -9.344  1.00  0.00    -0.000 C 
BRANCH  12  13
ATOM     13  C   UNL     1      17.910  23.070  -8.141  1.00  0.00    -0.000 C 
BRANCH  13  14
ATOM     14  C   UNL     1      19.038  22.791  -7.127  1.00  0.00    -0.000 C 
BRANCH  14  15
ATOM     15  C   UNL     1      19.756  21.442  -7.309  1.00  0.00    -0.000 C 
BRANCH  15  16
ATOM     16  C   UNL     1      19.089  20.301  -6.525  1.00  0.00    -0.000 C 
BRANCH  16  17
ATOM     17  C   UNL     1      18.316  19.369  -7.465  1.00  0.00    -0.003 C 
ATOM     18  C   UNL     1      19.117  19.070  -8.728  1.00  0.00     0.004 C 
ENDBRANCH  16  17
ENDBRANCH  15  16
ENDBRANCH  14  15
ENDBRANCH  13  14
ENDBRANCH  12  13
ENDBRANCH  11  12
ENDBRANCH   1  11
TORSDOF 14
ENDMDL
MODEL 5
REMARK VINA RESULT:    -3.733      1.248      2.057
REMARK INTER + INTRA:          -9.249
REMARK INTER:                  -6.977
REMARK INTRA:                  -2.272
REMARK UNBOUND:                -2.460
REMARK SMILES CCCCCCCCCCCCCCCC(=O)[O-]
REMARK SMILES IDX 9 1 10 2 11 3 12 4 13 5 14 6 15 7 16 8 17 9 18 10 8 11 7 12
REMARK SMILES IDX 6 13 5 14 4 15 3 16 2 17 1 18
REMARK H PARENT
REMARK Flexibility Score: inf
ROOT
ATOM      1  C   UNL     1      16.314  21.527 -11.046  1.00  0.00     0.000 C 
ENDROOT
BRANCH   1   2
ATOM      2  C   UNL     1      16.270  20.384 -10.019  1.00  0.00     0.000 C 
BRANCH   2   3
ATOM      3  C   UNL     1      15.068  20.487  -9.068  1.00  0.00     0.000 C 
BRANCH   3   4
ATOM      4  C   UNL     1      15.530  20.768  -7.630  1.00  0.00     0.000 C 
BRANCH   4   5
ATOM      5  C   UNL     1      14.706  21.872  -6.946  1.00  0.00     0.000 C 
BRANCH   5   6
ATOM      6  C   UNL     1      15.449  22.521  -5.768  1.00  0.00     0.006 C 
BRANCH   6   7
ATOM      7  C   UNL     1      15.280  24.043  -5.789  1.00  0.00     0.053 C 
BRANCH   7   8
ATOM      8  C   UNL     1      14.088  24.449  -4.980  1.00  0.00     0.041 C 
ATOM      9  O   UNL     1      14.169  24.521  -3.725  1.00  0.00    -0.550 OA
ATOM     10  O   UNL     1      12.902  24.795  -5.616  1.00  0.00    -0.550 OA
ENDBRANCH   7   8
ENDBRANCH   6   7
ENDBRANCH   5   6
ENDBRANCH   4   5
ENDBRANCH   3   4
ENDBRANCH   2   3
ENDBRANCH   1   2
BRANCH   1  11
ATOM     11  C   UNL     1      17.719  22.136 -11.191  1.00  0.00     0.000 C 
BRANCH  11  12
ATOM     12  C   UNL     1      17.756  23.638 -10.852  1.00  0.00    -0.000 C 
BRANCH  12  13
ATOM     13  C   UNL     1      18.501  23.998  -9.552  1.00  0.00    -0.000 C 
BRANCH  13  14
ATOM     14  C   UNL     1      17.892  23.413  -8.262  1.00  0.00    -0.000 C 
BRANCH  14  15
ATOM     15  C   UNL     1      18.878  22.630  -7.377  1.00  0.00    -0.000 C 
BRANCH  15  16
ATOM     16  C   UNL     1      19.277  21.276  -7.983  1.00  0.00    -0.000 C 
BRANCH  16  17
ATOM     17  C   UNL     1      19.171  20.156  -6.942  1.00  0.00    -0.003 C 
ATOM     18  C   UNL     1      18.818  20.713  -5.567  1.00  0.00     0.004 C 
ENDBRANCH  16  17
ENDBRANCH  15  16
ENDBRANCH  14  15
ENDBRANCH  13  14
ENDBRANCH  12  13
ENDBRANCH  11  12
ENDBRANCH   1  11
TORSDOF 14
ENDMDL
MODEL 6
REMARK VINA RESULT:    -3.713      2.677      4.920
REMARK INTER + INTRA:          -9.211
REMARK INTER:                  -6.798
REMARK INTRA:                  -2.414
REMARK UNBOUND:                -2.460
REMARK SMILES CCCCCCCCCCCCCCCC(=O)[O-]
REMARK SMILES IDX 9 1 10 2 11 3 12 4 13 5 14 6 15 7 16 8 17 9 18 10 8 11 7 12
REMARK SMILES IDX 6 13 5 14 4 15 3 16 2 17 1 18
REMARK H PARENT
REMARK Flexibility Score: inf
ROOT
ATOM      1  C   UNL     1      17.872  21.527  -6.122  1.00  0.00     0.000 C 
ENDROOT
BRANCH   1   2
ATOM      2  C   UNL     1      17.448  22.569  -7.171  1.00  0.00     0.000 C 
BRANCH   2   3
ATOM      3  C   UNL     1      18.634  23.099  -7.992  1.00  0.00     0.000 C 
BRANCH   3   4
ATOM      4  C   UNL     1      18.143  23.907  -9.202  1.00  0.00     0.000 C 
BRANCH   4   5
ATOM      5  C   UNL     1      18.426  23.204 -10.540  1.00  0.00     0.000 C 
BRANCH   5   6
ATOM      6  C   UNL     1      17.180  23.102 -11.432  1.00  0.00     0.006 C 
BRANCH   6   7
ATOM      7  C   UNL     1      15.921  22.880 -10.588  1.00  0.00     0.053 C 
BRANCH   7   8
ATOM      8  C   UNL     1      14.692  23.134 -11.403  1.00  0.00     0.041 C 
ATOM      9  O   UNL     1      14.413  24.303 -11.780  1.00  0.00    -0.550 OA
ATOM     10  O   UNL     1      13.881  22.074 -11.787  1.00  0.00    -0.550 OA
ENDBRANCH   7   8
ENDBRANCH   6   7
ENDBRANCH   5   6
ENDBRANCH   4   5
ENDBRANCH   3   4
ENDBRANCH   2   3
ENDBRANCH   1   2
BRANCH   1  11
ATOM     11  C   UNL     1      19.256  20.924  -6.416  1.00  0.00     0.000 C 
BRANCH  11  12
ATOM     12  C   UNL     1      19.283  19.392  -6.264  1.00  0.00    -0.000 C 
BRANCH  12  13
ATOM     13  C   UNL     1      18.997  18.601  -7.556  1.00  0.00    -0.000 C 
BRANCH  13  14
ATOM     14  C   UNL     1      19.057  19.425  -8.858  1.00  0.00    -0.000 C 
BRANCH  14  15
ATOM     15  C   UNL     1      17.690  19.747  -9.486  1.00  0.00    -0.000 C 
BRANCH  15  16
ATOM     16  C   UNL     1      16.519  19.100  -8.730  1.00  0.00    -0.000 C 
BRANCH  16  17
ATOM     17  C   UNL     1      15.238  19.925  -8.894  1.00  0.00    -0.003 C 
ATOM     18  C   UNL     1      14.462  20.005  -7.583  1.00  0.00     0.004 C 
ENDBRANCH  16  17
ENDBRANCH  15  16
ENDBRANCH  14  15
ENDBRANCH  13  14
ENDBRANCH  12  13
ENDBRANCH  11  12
ENDBRANCH   1  11
TORSDOF 14
ENDMDL
MODEL 7
REMARK VINA RESULT:    -3.702      3.083      5.528
REMARK INTER + INTRA:          -9.191
REMARK INTER:                  -6.883
REMARK INTRA:                  -2.308
REMARK UNBOUND:                -2.460
REMARK SMILES CCCCCCCCCCCCCCCC(=O)[O-]
REMARK SMILES IDX 9 1 10 2 11 3 12 4 13 5 14 6 15 7 16 8 17 9 18 10 8 11 7 12
REMARK SMILES IDX 6 13 5 14 4 15 3 16 2 17 1 18
REMARK H PARENT
REMARK Flexibility Score: inf
ROOT
ATOM      1  C   UNL     1      18.611  22.404  -7.264  1.00  0.00     0.000 C 
ENDROOT
BRANCH   1   2
ATOM      2  C   UNL     1      19.622  21.304  -7.628  1.00  0.00     0.000 C 
BRANCH   2   3
ATOM      3  C   UNL     1      19.258  20.570  -8.927  1.00  0.00     0.000 C 
BRANCH   3   4
ATOM      4  C   UNL     1      19.297  19.048  -8.725  1.00  0.00     0.000 C 
BRANCH   4   5
ATOM      5  C   UNL     1      17.948  18.475  -8.259  1.00  0.00     0.000 C 
BRANCH   5   6
ATOM      6  C   UNL     1      17.930  18.148  -6.758  1.00  0.00     0.006 C 
BRANCH   6   7
ATOM      7  C   UNL     1      19.341  17.843  -6.249  1.00  0.00     0.053 C 
BRANCH   7   8
ATOM      8  C   UNL     1      19.585  16.366  -6.235  1.00  0.00     0.041 C 
ATOM      9  O   UNL     1      18.933  15.624  -5.454  1.00  0.00    -0.550 OA
ATOM     10  O   UNL     1      20.499  15.804  -7.117  1.00  0.00    -0.550 OA
ENDBRANCH   7   8
ENDBRANCH   6   7
ENDBRANCH   5   6
ENDBRANCH   4   5
ENDBRANCH   3   4
ENDBRANCH   2   3
ENDBRANCH   1   2
BRANCH   1  11
ATOM     11  C   UNL     1      17.194  21.851  -7.035  1.00  0.00     0.000 C 
BRANCH  11  12
ATOM     12  C   UNL     1      16.093  22.847  -7.444  1.00  0.00    -0.000 C 
BRANCH  12  13
ATOM     13  C   UNL     1      15.259  22.432  -8.672  1.00  0.00    -0.000 C 
BRANCH  13  14
ATOM     14  C   UNL     1      15.861  21.295  -9.522  1.00  0.00    -0.000 C 
BRANCH  14  15
ATOM     15  C   UNL     1      16.382  21.726 -10.904  1.00  0.00    -0.000 C 
BRANCH  15  16
ATOM     16  C   UNL     1      16.573  23.246 -11.024  1.00  0.00    -0.000 C 
BRANCH  16  17
ATOM     17  C   UNL     1      18.046  23.629 -10.846  1.00  0.00    -0.003 C 
ATOM     18  C   UNL     1      18.926  22.931 -11.877  1.00  0.00     0.004 C 
ENDBRANCH  16  17
ENDBRANCH  15  16
ENDBRANCH  14  15
ENDBRANCH  13  14
ENDBRANCH  12  13
ENDBRANCH  11  12
ENDBRANCH   1  11
TORSDOF 14
ENDMDL
MODEL 8
REMARK VINA RESULT:    -3.698      2.789      4.432
REMARK INTER + INTRA:          -9.184
REMARK INTER:                  -6.757
REMARK INTRA:                  -2.427
REMARK UNBOUND:                -2.460
REMARK SMILES CCCCCCCCCCCCCCCC(=O)[O-]
REMARK SMILES IDX 9 1 10 2 11 3 12 4 13 5 14 6 15 7 16 8 17 9 18 10 8 11 7 12
REMARK SMILES IDX 6 13 5 14 4 15 3 16 2 17 1 18
REMARK H PARENT
REMARK Flexibility Score: inf
ROOT
ATOM      1  C   UNL     1      19.041  21.492  -8.185  1.00  0.00     0.000 C 
ENDROOT
BRANCH   1   2
ATOM      2  C   UNL     1      19.059  20.229  -9.062  1.00  0.00     0.000 C 
BRANCH   2   3
ATOM      3  C   UNL     1      17.658  19.820  -9.541  1.00  0.00     0.000 C 
BRANCH   3   4
ATOM      4  C   UNL     1      16.571  20.569  -8.756  1.00  0.00     0.000 C 
BRANCH   4   5
ATOM      5  C   UNL     1      15.507  21.201  -9.669  1.00  0.00     0.000 C 
BRANCH   5   6
ATOM      6  C   UNL     1      16.056  21.555 -11.060  1.00  0.00     0.006 C 
BRANCH   6   7
ATOM      7  C   UNL     1      16.303  23.061 -11.182  1.00  0.00     0.053 C 
BRANCH   7   8
ATOM      8  C   UNL     1      17.766  23.362 -11.079  1.00  0.00     0.041 C 
ATOM      9  O   UNL     1      18.176  24.248 -10.283  1.00  0.00    -0.550 OA
ATOM     10  O   UNL     1      18.680  22.631 -11.827  1.00  0.00    -0.550 OA
ENDBRANCH   7   8
ENDBRANCH   6   7
ENDBRANCH   5   6
ENDBRANCH   4   5
ENDBRANCH   3   4
ENDBRANCH   2   3
ENDBRANCH   1   2
BRANCH   1  11
ATOM     11  C   UNL     1      19.744  21.282  -6.832  1.00  0.00     0.000 C 
BRANCH  11  12
ATOM     12  C   UNL     1      18.755  21.182  -5.656  1.00  0.00    -0.000 C 
BRANCH  12  13
ATOM     13  C   UNL     1      18.384  19.748  -5.233  1.00  0.00    -0.000 C 
BRANCH  13  14
ATOM     14  C   UNL     1      19.277  18.637  -5.821  1.00  0.00    -0.000 C 
BRANCH  14  15
ATOM     15  C   UNL     1      18.544  17.326  -6.159  1.00  0.00    -0.000 C 
BRANCH  15  16
ATOM     16  C   UNL     1      17.072  17.548  -6.542  1.00  0.00    -0.000 C 
BRANCH  16  17
ATOM     17  C   UNL     1      16.708  16.752  -7.801  1.00  0.00    -0.003 C 
ATOM     18  C   UNL     1      15.285  17.060  -8.255  1.00  0.00     0.004 C 
ENDBRANCH  16  17
ENDBRANCH  15  16
ENDBRANCH  14  15
ENDBRANCH  13  14
ENDBRANCH  12  13
ENDBRANCH  11  12
ENDBRANCH   1  11
TORSDOF 14
ENDMDL
MODEL 9
REMARK VINA RESULT:    -3.682      2.946      5.071
REMARK INTER + INTRA:          -9.155
REMARK INTER:                  -6.789
REMARK INTRA:                  -2.366
REMARK UNBOUND:                -2.460
REMARK SMILES CCCCCCCCCCCCCCCC(=O)[O-]
REMARK SMILES IDX 9 1 10 2 11 3 12 4 13 5 14 6 15 7 16 8 17 9 18 10 8 11 7 12
REMARK SMILES IDX 6 13 5 14 4 15 3 16 2 17 1 18
REMARK H PARENT
REMARK Flexibility Score: inf
ROOT
ATOM      1  C   UNL     1      18.849  18.359  -7.998  1.00  0.00     0.000 C 
ENDROOT
BRANCH   1   2
ATOM      2  C   UNL     1      18.778  19.356  -9.166  1.00  0.00     0.000 C 
BRANCH   2   3
ATOM      3  C   UNL     1      19.584  20.637  -8.903  1.00  0.00     0.000 C 
BRANCH   3   4
ATOM      4  C   UNL     1      19.284  21.195  -7.504  1.00  0.00     0.000 C 
BRANCH   4   5
ATOM      5  C   UNL     1      18.740  22.633  -7.541  1.00  0.00     0.000 C 
BRANCH   5   6
ATOM      6  C   UNL     1      17.767  22.868  -8.707  1.00  0.00     0.006 C 
BRANCH   6   7
ATOM      7  C   UNL     1      18.309  23.935  -9.663  1.00  0.00     0.053 C 
BRANCH   7   8
ATOM      8  C   UNL     1      17.983  23.582 -11.080  1.00  0.00     0.041 C 
ATOM      9  O   UNL     1      16.800  23.296 -11.406  1.00  0.00    -0.550 OA
ATOM     10  O   UNL     1      18.976  23.616 -12.051  1.00  0.00    -0.550 OA
ENDBRANCH   7   8
ENDBRANCH   6   7
ENDBRANCH   5   6
ENDBRANCH   4   5
ENDBRANCH   3   4
ENDBRANCH   2   3
ENDBRANCH   1   2
BRANCH   1  11
ATOM     11  C   UNL     1      17.462  17.837  -7.582  1.00  0.00     0.000 C 
BRANCH  11  12
ATOM     12  C   UNL     1      16.321  18.785  -7.994  1.00  0.00    -0.000 C 
BRANCH  12  13
ATOM     13  C   UNL     1      15.405  19.245  -6.843  1.00  0.00    -0.000 C 
BRANCH  13  14
ATOM     14  C   UNL     1      15.793  20.586  -6.189  1.00  0.00    -0.000 C 
BRANCH  14  15
ATOM     15  C   UNL     1      16.727  20.468  -4.971  1.00  0.00    -0.000 C 
BRANCH  15  16
ATOM     16  C   UNL     1      16.407  19.250  -4.091  1.00  0.00    -0.000 C 
BRANCH  16  17
ATOM     17  C   UNL     1      17.686  18.492  -3.717  1.00  0.00    -0.003 C 
ATOM     18  C   UNL     1      18.914  19.134  -4.355  1.00  0.00     0.004 C 
ENDBRANCH  16  17
ENDBRANCH  15  16
ENDBRANCH  14  15
ENDBRANCH  13  14
ENDBRANCH  12  13
ENDBRANCH  11  12
ENDBRANCH   1  11
TORSDOF 14
ENDMDL
