MODEL 1
REMARK VINA RESULT:    -5.243      0.000      0.000
REMARK INTER + INTRA:          -5.769
REMARK INTER:                  -5.703
REMARK INTRA:                  -0.066
REMARK UNBOUND:                -0.066
REMARK SMILES CC1(C)[C@@H]2CC=C(CO)[C@H]1C2
REMARK SMILES IDX 8 1 7 2 1 3 2 4 4 5 3 6 10 7 5 8 11 9 6 10 9 11
REMARK H PARENT 9 12
REMARK Flexibility Score: inf
ROOT
ATOM      1  C   UNL     1     -13.286  24.061 -15.055  1.00  0.00     0.187 C 
ENDROOT
BRANCH   1   2
ATOM      2  C   UNL     1     -13.463  23.208 -13.830  1.00  0.00    -0.045 C 
ATOM      3  C   UNL     1     -13.540  24.161 -10.047  1.00  0.00     0.012 C 
ATOM      4  C   UNL     1     -13.181  23.371 -11.331  1.00  0.00    -0.026 C 
ATOM      5  C   UNL     1     -13.909  22.000 -11.398  1.00  0.00    -0.000 C 
ATOM      6  C   UNL     1     -11.637  23.405 -11.510  1.00  0.00     0.012 C 
ATOM      7  C   UNL     1     -14.071  23.772 -12.537  1.00  0.00     0.023 C 
ATOM      8  C   UNL     1     -13.263  21.094 -12.503  1.00  0.00     0.031 C 
ATOM      9  C   UNL     1     -15.094  22.712 -12.082  1.00  0.00     0.013 C 
ATOM     10  C   UNL     1     -13.091  21.894 -13.809  1.00  0.00    -0.025 C 
ENDBRANCH   1   2
BRANCH   1  11
ATOM     11  O   UNL     1     -12.452  25.152 -14.769  1.00  0.00    -0.392 OA
ATOM     12  H   UNL     1     -12.025  24.964 -13.893  1.00  0.00     0.211 HD
ENDBRANCH   1  11
TORSDOF 2
ENDMDL
MODEL 2
REMARK VINA RESULT:    -4.977     15.114     16.747
REMARK INTER + INTRA:          -5.479
REMARK INTER:                  -5.445
REMARK INTRA:                  -0.035
REMARK UNBOUND:                -0.066
REMARK SMILES CC1(C)[C@@H]2CC=C(CO)[C@H]1C2
REMARK SMILES IDX 8 1 7 2 1 3 2 4 4 5 3 6 10 7 5 8 11 9 6 10 9 11
REMARK H PARENT 9 12
REMARK Flexibility Score: inf
ROOT
ATOM      1  C   UNL     1     -12.393   9.058 -24.516  1.00  0.00     0.187 C 
ENDROOT
BRANCH   1   2
ATOM      2  C   UNL     1     -11.496  10.241 -24.276  1.00  0.00    -0.045 C 
ATOM      3  C   UNL     1     -11.744  13.145 -21.682  1.00  0.00     0.012 C 
ATOM      4  C   UNL     1     -11.521  12.438 -23.043  1.00  0.00    -0.026 C 
ATOM      5  C   UNL     1     -10.022  12.413 -23.451  1.00  0.00    -0.000 C 
ATOM      6  C   UNL     1     -12.560  12.993 -24.057  1.00  0.00     0.012 C 
ATOM      7  C   UNL     1     -11.387  10.900 -22.892  1.00  0.00     0.023 C 
ATOM      8  C   UNL     1      -9.875  12.021 -24.963  1.00  0.00     0.031 C 
ATOM      9  C   UNL     1      -9.875  11.096 -22.663  1.00  0.00     0.013 C 
ATOM     10  C   UNL     1     -10.738  10.783 -25.274  1.00  0.00    -0.025 C 
ENDBRANCH   1   2
BRANCH   1  11
ATOM     11  O   UNL     1     -11.750   7.875 -24.125  1.00  0.00    -0.392 OA
ATOM     12  H   UNL     1     -12.343   7.125 -24.392  1.00  0.00     0.211 HD
ENDBRANCH   1  11
TORSDOF 2
ENDMDL
MODEL 3
REMARK VINA RESULT:    -4.932      2.138      3.208
REMARK INTER + INTRA:          -5.430
REMARK INTER:                  -5.401
REMARK INTRA:                  -0.029
REMARK UNBOUND:                -0.066
REMARK SMILES CC1(C)[C@@H]2CC=C(CO)[C@H]1C2
REMARK SMILES IDX 8 1 7 2 1 3 2 4 4 5 3 6 10 7 5 8 11 9 6 10 9 11
REMARK H PARENT 9 12
REMARK Flexibility Score: inf
ROOT
ATOM      1  C   UNL     1     -12.971  20.620 -13.284  1.00  0.00     0.187 C 
ENDROOT
BRANCH   1   2
ATOM      2  C   UNL     1     -13.073  21.809 -12.370  1.00  0.00    -0.045 C 
ATOM      3  C   UNL     1     -12.124  22.224  -8.609  1.00  0.00     0.012 C 
ATOM      4  C   UNL     1     -12.956  22.344  -9.911  1.00  0.00    -0.026 C 
ATOM      5  C   UNL     1     -12.965  23.795 -10.468  1.00  0.00    -0.000 C 
ATOM      6  C   UNL     1     -14.313  21.621  -9.691  1.00  0.00     0.012 C 
ATOM      7  C   UNL     1     -12.127  21.988 -11.173  1.00  0.00     0.023 C 
ATOM      8  C   UNL     1     -14.082  23.952 -11.558  1.00  0.00     0.031 C 
ATOM      9  C   UNL     1     -11.673  23.459 -11.240  1.00  0.00     0.013 C 
ATOM     10  C   UNL     1     -14.010  22.785 -12.561  1.00  0.00    -0.025 C 
ENDBRANCH   1   2
BRANCH   1  11
ATOM     11  O   UNL     1     -14.251  20.151 -13.613  1.00  0.00    -0.392 OA
ATOM     12  H   UNL     1     -14.866  20.473 -12.904  1.00  0.00     0.211 HD
ENDBRANCH   1  11
TORSDOF 2
ENDMDL
MODEL 4
REMARK VINA RESULT:    -4.860     13.176     14.997
REMARK INTER + INTRA:          -5.352
REMARK INTER:                  -5.322
REMARK INTRA:                  -0.029
REMARK UNBOUND:                -0.066
REMARK SMILES CC1(C)[C@@H]2CC=C(CO)[C@H]1C2
REMARK SMILES IDX 8 1 7 2 1 3 2 4 4 5 3 6 10 7 5 8 11 9 6 10 9 11
REMARK H PARENT 9 12
REMARK Flexibility Score: inf
ROOT
ATOM      1  C   UNL     1     -10.645  13.590 -19.905  1.00  0.00     0.187 C 
ENDROOT
BRANCH   1   2
ATOM      2  C   UNL     1     -10.817  12.799 -21.172  1.00  0.00    -0.045 C 
ATOM      3  C   UNL     1      -9.239  13.271 -24.708  1.00  0.00     0.012 C 
ATOM      4  C   UNL     1     -10.323  13.004 -23.634  1.00  0.00    -0.026 C 
ATOM      5  C   UNL     1     -10.764  11.514 -23.604  1.00  0.00    -0.000 C 
ATOM      6  C   UNL     1     -11.415  14.102 -23.760  1.00  0.00     0.012 C 
ATOM      7  C   UNL     1      -9.711  12.730 -22.235  1.00  0.00     0.023 C 
ATOM      8  C   UNL     1     -12.085  11.353 -22.776  1.00  0.00     0.031 C 
ATOM      9  C   UNL     1      -9.614  11.240 -22.614  1.00  0.00     0.013 C 
ATOM     10  C   UNL     1     -11.964  12.106 -21.437  1.00  0.00    -0.025 C 
ENDBRANCH   1   2
BRANCH   1  11
ATOM     11  O   UNL     1     -10.296  12.739 -18.847  1.00  0.00    -0.392 OA
ATOM     12  H   UNL     1      -9.593  13.206 -18.323  1.00  0.00     0.211 HD
ENDBRANCH   1  11
TORSDOF 2
ENDMDL
MODEL 5
REMARK VINA RESULT:    -4.832     13.998     15.314
REMARK INTER + INTRA:          -5.322
REMARK INTER:                  -5.261
REMARK INTRA:                  -0.061
REMARK UNBOUND:                -0.066
REMARK SMILES CC1(C)[C@@H]2CC=C(CO)[C@H]1C2
REMARK SMILES IDX 8 1 7 2 1 3 2 4 4 5 3 6 10 7 5 8 11 9 6 10 9 11
REMARK H PARENT 9 12
REMARK Flexibility Score: inf
ROOT
ATOM      1  C   UNL     1      -8.250  14.565 -25.288  1.00  0.00     0.187 C 
ENDROOT
BRANCH   1   2
ATOM      2  C   UNL     1      -8.961  13.954 -24.113  1.00  0.00    -0.045 C 
ATOM      3  C   UNL     1     -12.418  12.163 -23.875  1.00  0.00     0.012 C 
ATOM      4  C   UNL     1     -11.254  13.112 -23.495  1.00  0.00    -0.026 C 
ATOM      5  C   UNL     1     -10.474  12.612 -22.247  1.00  0.00    -0.000 C 
ATOM      6  C   UNL     1     -11.790  14.570 -23.504  1.00  0.00     0.012 C 
ATOM      7  C   UNL     1      -9.957  12.798 -24.287  1.00  0.00     0.023 C 
ATOM      8  C   UNL     1      -9.553  13.751 -21.688  1.00  0.00     0.031 C 
ATOM      9  C   UNL     1      -9.583  11.781 -23.192  1.00  0.00     0.013 C 
ATOM     10  C   UNL     1      -8.756  14.398 -22.837  1.00  0.00    -0.025 C 
ENDBRANCH   1   2
BRANCH   1  11
ATOM     11  O   UNL     1      -9.101  14.607 -26.401  1.00  0.00    -0.392 OA
ATOM     12  H   UNL     1     -10.026  14.692 -26.052  1.00  0.00     0.211 HD
ENDBRANCH   1  11
TORSDOF 2
ENDMDL
MODEL 6
REMARK VINA RESULT:    -4.732     13.418     15.231
REMARK INTER + INTRA:          -5.212
REMARK INTER:                  -5.167
REMARK INTRA:                  -0.045
REMARK UNBOUND:                -0.066
REMARK SMILES CC1(C)[C@@H]2CC=C(CO)[C@H]1C2
REMARK SMILES IDX 8 1 7 2 1 3 2 4 4 5 3 6 10 7 5 8 11 9 6 10 9 11
REMARK H PARENT 9 12
REMARK Flexibility Score: inf
ROOT
ATOM      1  C   UNL     1      -9.172  14.940 -21.870  1.00  0.00     0.187 C 
ENDROOT
BRANCH   1   2
ATOM      2  C   UNL     1      -9.923  13.658 -22.100  1.00  0.00    -0.045 C 
ATOM      3  C   UNL     1     -10.360  11.503 -25.323  1.00  0.00     0.012 C 
ATOM      4  C   UNL     1     -10.744  12.243 -24.017  1.00  0.00    -0.026 C 
ATOM      5  C   UNL     1     -11.042  11.259 -22.852  1.00  0.00    -0.000 C 
ATOM      6  C   UNL     1     -11.800  13.330 -24.364  1.00  0.00     0.012 C 
ATOM      7  C   UNL     1      -9.499  12.662 -23.191  1.00  0.00     0.023 C 
ATOM      8  C   UNL     1     -11.759  12.009 -21.676  1.00  0.00     0.031 C 
ATOM      9  C   UNL     1      -9.539  11.281 -22.507  1.00  0.00     0.013 C 
ATOM     10  C   UNL     1     -11.015  13.319 -21.353  1.00  0.00    -0.025 C 
ENDBRANCH   1   2
BRANCH   1  11
ATOM     11  O   UNL     1      -8.012  14.970 -22.656  1.00  0.00    -0.392 OA
ATOM     12  H   UNL     1      -8.163  14.346 -23.414  1.00  0.00     0.211 HD
ENDBRANCH   1  11
TORSDOF 2
ENDMDL
MODEL 7
REMARK VINA RESULT:    -4.722     14.389     15.915
REMARK INTER + INTRA:          -5.201
REMARK INTER:                  -5.177
REMARK INTRA:                  -0.024
REMARK UNBOUND:                -0.066
REMARK SMILES CC1(C)[C@@H]2CC=C(CO)[C@H]1C2
REMARK SMILES IDX 8 1 7 2 1 3 2 4 4 5 3 6 10 7 5 8 11 9 6 10 9 11
REMARK H PARENT 9 12
REMARK Flexibility Score: inf
ROOT
ATOM      1  C   UNL     1      -8.415  14.543 -25.070  1.00  0.00     0.187 C 
ENDROOT
BRANCH   1   2
ATOM      2  C   UNL     1      -9.490  13.509 -24.882  1.00  0.00    -0.045 C 
ATOM      3  C   UNL     1     -11.596  12.563 -21.737  1.00  0.00     0.012 C 
ATOM      4  C   UNL     1     -10.738  12.369 -23.013  1.00  0.00    -0.026 C 
ATOM      5  C   UNL     1     -11.580  11.849 -24.211  1.00  0.00    -0.000 C 
ATOM      6  C   UNL     1      -9.446  11.601 -22.620  1.00  0.00     0.012 C 
ATOM      7  C   UNL     1     -10.597  13.680 -23.831  1.00  0.00     0.023 C 
ATOM      8  C   UNL     1     -10.639  11.334 -25.355  1.00  0.00     0.031 C 
ATOM      9  C   UNL     1     -11.903  13.315 -24.564  1.00  0.00     0.013 C 
ATOM     10  C   UNL     1      -9.532  12.369 -25.635  1.00  0.00    -0.025 C 
ENDBRANCH   1   2
BRANCH   1  11
ATOM     11  O   UNL     1      -8.414  15.004 -26.395  1.00  0.00    -0.392 OA
ATOM     12  H   UNL     1      -7.464  15.141 -26.649  1.00  0.00     0.211 HD
ENDBRANCH   1  11
TORSDOF 2
ENDMDL
MODEL 8
REMARK VINA RESULT:    -4.706      3.674      4.803
REMARK INTER + INTRA:          -5.185
REMARK INTER:                  -5.162
REMARK INTRA:                  -0.023
REMARK UNBOUND:                -0.066
REMARK SMILES CC1(C)[C@@H]2CC=C(CO)[C@H]1C2
REMARK SMILES IDX 8 1 7 2 1 3 2 4 4 5 3 6 10 7 5 8 11 9 6 10 9 11
REMARK H PARENT 9 12
REMARK Flexibility Score: inf
ROOT
ATOM      1  C   UNL     1     -15.116  19.393 -17.735  1.00  0.00     0.187 C 
ENDROOT
BRANCH   1   2
ATOM      2  C   UNL     1     -14.109  19.527 -16.627  1.00  0.00    -0.045 C 
ATOM      3  C   UNL     1     -14.299  21.428 -13.225  1.00  0.00     0.012 C 
ATOM      4  C   UNL     1     -13.710  20.922 -14.566  1.00  0.00    -0.026 C 
ATOM      5  C   UNL     1     -12.595  19.861 -14.354  1.00  0.00    -0.000 C 
ATOM      6  C   UNL     1     -13.407  22.155 -15.462  1.00  0.00     0.012 C 
ATOM      7  C   UNL     1     -14.541  19.758 -15.171  1.00  0.00     0.023 C 
ATOM      8  C   UNL     1     -11.793  19.641 -15.683  1.00  0.00     0.031 C 
ATOM      9  C   UNL     1     -13.690  18.775 -14.342  1.00  0.00     0.013 C 
ATOM     10  C   UNL     1     -12.766  19.451 -16.863  1.00  0.00    -0.025 C 
ENDBRANCH   1   2
BRANCH   1  11
ATOM     11  O   UNL     1     -14.482  19.501 -18.981  1.00  0.00    -0.392 OA
ATOM     12  H   UNL     1     -14.895  18.819 -19.573  1.00  0.00     0.211 HD
ENDBRANCH   1  11
TORSDOF 2
ENDMDL
MODEL 9
REMARK VINA RESULT:    -4.675     13.129     14.862
REMARK INTER + INTRA:          -5.151
REMARK INTER:                  -5.099
REMARK INTRA:                  -0.052
REMARK UNBOUND:                -0.066
REMARK SMILES CC1(C)[C@@H]2CC=C(CO)[C@H]1C2
REMARK SMILES IDX 8 1 7 2 1 3 2 4 4 5 3 6 10 7 5 8 11 9 6 10 9 11
REMARK H PARENT 9 12
REMARK Flexibility Score: inf
ROOT
ATOM      1  C   UNL     1     -12.699  13.292 -21.167  1.00  0.00     0.187 C 
ENDROOT
BRANCH   1   2
ATOM      2  C   UNL     1     -11.418  13.596 -21.894  1.00  0.00    -0.045 C 
ATOM      3  C   UNL     1      -9.850  11.981 -25.080  1.00  0.00     0.012 C 
ATOM      4  C   UNL     1      -9.929  12.572 -23.650  1.00  0.00    -0.026 C 
ATOM      5  C   UNL     1      -9.257  13.970 -23.556  1.00  0.00    -0.000 C 
ATOM      6  C   UNL     1      -9.502  11.469 -22.642  1.00  0.00     0.012 C 
ATOM      7  C   UNL     1     -11.263  13.324 -23.398  1.00  0.00     0.023 C 
ATOM      8  C   UNL     1      -9.043  14.371 -22.055  1.00  0.00     0.031 C 
ATOM      9  C   UNL     1     -10.605  14.597 -23.966  1.00  0.00     0.013 C 
ATOM     10  C   UNL     1     -10.335  14.126 -21.252  1.00  0.00    -0.025 C 
ENDBRANCH   1   2
BRANCH   1  11
ATOM     11  O   UNL     1     -12.576  12.092 -20.451  1.00  0.00    -0.392 OA
ATOM     12  H   UNL     1     -12.872  12.280 -19.522  1.00  0.00     0.211 HD
ENDBRANCH   1  11
TORSDOF 2
ENDMDL
