MODEL 1
REMARK VINA RESULT:    -3.913      0.000      0.000
REMARK INTER + INTRA:          -4.269
REMARK INTER:                  -4.256
REMARK INTRA:                  -0.013
REMARK UNBOUND:                -0.013
REMARK SMILES OCc1ccccc1
REMARK SMILES IDX 2 1 3 2 6 3 5 4 7 5 4 6 8 7 1 8
REMARK H PARENT 1 9
REMARK Flexibility Score: inf
ROOT
ATOM      1  C   UNL     1      23.766  44.809 142.525  1.00  0.00     0.191 C 
ENDROOT
BRANCH   1   2
ATOM      2  C   UNL     1      25.244  44.560 142.649  1.00  0.00    -0.023 A 
ATOM      3  C   UNL     1      28.006  44.153 142.935  1.00  0.00     0.000 A 
ATOM      4  C   UNL     1      27.528  45.056 141.981  1.00  0.00     0.000 A 
ATOM      5  C   UNL     1      27.109  43.460 143.754  1.00  0.00     0.000 A 
ATOM      6  C   UNL     1      26.152  45.264 141.841  1.00  0.00     0.006 A 
ATOM      7  C   UNL     1      25.733  43.666 143.616  1.00  0.00     0.006 A 
ENDBRANCH   1   2
BRANCH   1   8
ATOM      8  O   UNL     1      23.239  45.200 143.764  1.00  0.00    -0.392 OA
ATOM      9  H   UNL     1      22.988  46.157 143.675  1.00  0.00     0.211 HD
ENDBRANCH   1   8
TORSDOF 2
ENDMDL
MODEL 2
REMARK VINA RESULT:    -3.873      2.046      3.553
REMARK INTER + INTRA:          -4.226
REMARK INTER:                  -4.216
REMARK INTRA:                  -0.010
REMARK UNBOUND:                -0.013
REMARK SMILES OCc1ccccc1
REMARK SMILES IDX 2 1 3 2 6 3 5 4 7 5 4 6 8 7 1 8
REMARK H PARENT 1 9
REMARK Flexibility Score: inf
ROOT
ATOM      1  C   UNL     1      28.183  43.541 144.126  1.00  0.00     0.191 C 
ENDROOT
BRANCH   1   2
ATOM      2  C   UNL     1      26.990  43.999 143.333  1.00  0.00    -0.023 A 
ATOM      3  C   UNL     1      24.759  44.917 141.900  1.00  0.00     0.000 A 
ATOM      4  C   UNL     1      24.583  44.078 143.004  1.00  0.00     0.000 A 
ATOM      5  C   UNL     1      26.045  45.308 141.515  1.00  0.00     0.000 A 
ATOM      6  C   UNL     1      25.694  43.623 143.722  1.00  0.00     0.006 A 
ATOM      7  C   UNL     1      27.158  44.855 142.232  1.00  0.00     0.006 A 
ENDBRANCH   1   2
BRANCH   1   8
ATOM      8  O   UNL     1      28.377  44.382 145.230  1.00  0.00    -0.392 OA
ATOM      9  H   UNL     1      27.609  44.230 145.840  1.00  0.00     0.211 HD
ENDBRANCH   1   8
TORSDOF 2
ENDMDL
MODEL 3
REMARK VINA RESULT:    -3.833     14.181     14.789
REMARK INTER + INTRA:          -4.182
REMARK INTER:                  -4.163
REMARK INTRA:                  -0.019
REMARK UNBOUND:                -0.013
REMARK SMILES OCc1ccccc1
REMARK SMILES IDX 2 1 3 2 6 3 5 4 7 5 4 6 8 7 1 8
REMARK H PARENT 1 9
REMARK Flexibility Score: inf
ROOT
ATOM      1  C   UNL     1      29.217  30.580 140.458  1.00  0.00     0.191 C 
ENDROOT
BRANCH   1   2
ATOM      2  C   UNL     1      29.072  30.912 138.998  1.00  0.00    -0.023 A 
ATOM      3  C   UNL     1      28.750  31.589 136.294  1.00  0.00     0.000 A 
ATOM      4  C   UNL     1      27.909  30.639 136.882  1.00  0.00     0.000 A 
ATOM      5  C   UNL     1      29.745  32.209 137.055  1.00  0.00     0.000 A 
ATOM      6  C   UNL     1      28.064  30.304 138.230  1.00  0.00     0.006 A 
ATOM      7  C   UNL     1      29.903  31.876 138.405  1.00  0.00     0.006 A 
ENDBRANCH   1   2
BRANCH   1   8
ATOM      8  O   UNL     1      30.445  31.055 140.938  1.00  0.00    -0.392 OA
ATOM      9  H   UNL     1      30.378  32.046 140.955  1.00  0.00     0.211 HD
ENDBRANCH   1   8
TORSDOF 2
ENDMDL
MODEL 4
REMARK VINA RESULT:    -3.823      1.605      2.553
REMARK INTER + INTRA:          -4.171
REMARK INTER:                  -4.162
REMARK INTRA:                  -0.010
REMARK UNBOUND:                -0.013
REMARK SMILES OCc1ccccc1
REMARK SMILES IDX 2 1 3 2 6 3 5 4 7 5 4 6 8 7 1 8
REMARK H PARENT 1 9
REMARK Flexibility Score: inf
ROOT
ATOM      1  C   UNL     1      25.189  43.677 142.971  1.00  0.00     0.191 C 
ENDROOT
BRANCH   1   2
ATOM      2  C   UNL     1      26.555  43.264 143.447  1.00  0.00    -0.023 A 
ATOM      3  C   UNL     1      29.132  42.512 144.264  1.00  0.00     0.000 A 
ATOM      4  C   UNL     1      28.284  41.571 143.673  1.00  0.00     0.000 A 
ATOM      5  C   UNL     1      28.701  43.831 144.438  1.00  0.00     0.000 A 
ATOM      6  C   UNL     1      27.001  41.945 143.261  1.00  0.00     0.006 A 
ATOM      7  C   UNL     1      27.418  44.208 144.027  1.00  0.00     0.006 A 
ENDBRANCH   1   2
BRANCH   1   8
ATOM      8  O   UNL     1      24.329  43.843 144.064  1.00  0.00    -0.392 OA
ATOM      9  H   UNL     1      23.626  43.147 143.979  1.00  0.00     0.211 HD
ENDBRANCH   1   8
TORSDOF 2
ENDMDL
MODEL 5
REMARK VINA RESULT:    -3.817     14.503     15.192
REMARK INTER + INTRA:          -4.165
REMARK INTER:                  -4.153
REMARK INTRA:                  -0.012
REMARK UNBOUND:                -0.013
REMARK SMILES OCc1ccccc1
REMARK SMILES IDX 2 1 3 2 6 3 5 4 7 5 4 6 8 7 1 8
REMARK H PARENT 1 9
REMARK Flexibility Score: inf
ROOT
ATOM      1  C   UNL     1      29.287  29.539 140.782  1.00  0.00     0.191 C 
ENDROOT
BRANCH   1   2
ATOM      2  C   UNL     1      28.947  30.273 139.514  1.00  0.00    -0.023 A 
ATOM      3  C   UNL     1      28.357  31.592 137.109  1.00  0.00     0.000 A 
ATOM      4  C   UNL     1      29.468  31.979 137.864  1.00  0.00     0.000 A 
ATOM      5  C   UNL     1      27.545  30.541 137.547  1.00  0.00     0.000 A 
ATOM      6  C   UNL     1      29.767  31.320 139.060  1.00  0.00     0.006 A 
ATOM      7  C   UNL     1      27.841  29.880 138.743  1.00  0.00     0.006 A 
ENDBRANCH   1   2
BRANCH   1   8
ATOM      8  O   UNL     1      30.512  28.873 140.638  1.00  0.00    -0.392 OA
ATOM      9  H   UNL     1      30.972  29.292 139.864  1.00  0.00     0.211 HD
ENDBRANCH   1   8
TORSDOF 2
ENDMDL
MODEL 6
REMARK VINA RESULT:    -3.811      1.603      2.291
REMARK INTER + INTRA:          -4.158
REMARK INTER:                  -4.148
REMARK INTRA:                  -0.010
REMARK UNBOUND:                -0.013
REMARK SMILES OCc1ccccc1
REMARK SMILES IDX 2 1 3 2 6 3 5 4 7 5 4 6 8 7 1 8
REMARK H PARENT 1 9
REMARK Flexibility Score: inf
ROOT
ATOM      1  C   UNL     1      25.192  43.792 142.971  1.00  0.00     0.191 C 
ENDROOT
BRANCH   1   2
ATOM      2  C   UNL     1      26.559  43.327 143.392  1.00  0.00    -0.023 A 
ATOM      3  C   UNL     1      29.079  42.440 144.248  1.00  0.00     0.000 A 
ATOM      4  C   UNL     1      28.704  43.772 144.443  1.00  0.00     0.000 A 
ATOM      5  C   UNL     1      28.195  41.546 143.637  1.00  0.00     0.000 A 
ATOM      6  C   UNL     1      27.447  44.215 144.021  1.00  0.00     0.006 A 
ATOM      7  C   UNL     1      26.936  41.986 143.214  1.00  0.00     0.006 A 
ENDBRANCH   1   2
BRANCH   1   8
ATOM      8  O   UNL     1      24.328  43.807 144.074  1.00  0.00    -0.392 OA
ATOM      9  H   UNL     1      23.473  43.405 143.769  1.00  0.00     0.211 HD
ENDBRANCH   1   8
TORSDOF 2
ENDMDL
MODEL 7
REMARK VINA RESULT:    -3.807     14.514     15.251
REMARK INTER + INTRA:          -4.154
REMARK INTER:                  -4.143
REMARK INTRA:                  -0.011
REMARK UNBOUND:                -0.013
REMARK SMILES OCc1ccccc1
REMARK SMILES IDX 2 1 3 2 6 3 5 4 7 5 4 6 8 7 1 8
REMARK H PARENT 1 9
REMARK Flexibility Score: inf
ROOT
ATOM      1  C   UNL     1      29.338  29.522 140.795  1.00  0.00     0.191 C 
ENDROOT
BRANCH   1   2
ATOM      2  C   UNL     1      28.991  30.225 139.512  1.00  0.00    -0.023 A 
ATOM      3  C   UNL     1      28.297  31.589 137.159  1.00  0.00     0.000 A 
ATOM      4  C   UNL     1      27.524  30.509 137.595  1.00  0.00     0.000 A 
ATOM      5  C   UNL     1      29.410  31.997 137.901  1.00  0.00     0.000 A 
ATOM      6  C   UNL     1      27.865  29.831 138.770  1.00  0.00     0.006 A 
ATOM      7  C   UNL     1      29.754  31.321 139.076  1.00  0.00     0.006 A 
ENDBRANCH   1   2
BRANCH   1   8
ATOM      8  O   UNL     1      30.558  28.846 140.657  1.00  0.00    -0.392 OA
ATOM      9  H   UNL     1      30.431  28.176 139.936  1.00  0.00     0.211 HD
ENDBRANCH   1   8
TORSDOF 2
ENDMDL
MODEL 8
REMARK VINA RESULT:    -3.630     14.873     15.427
REMARK INTER + INTRA:          -3.961
REMARK INTER:                  -3.952
REMARK INTRA:                  -0.009
REMARK UNBOUND:                -0.013
REMARK SMILES OCc1ccccc1
REMARK SMILES IDX 2 1 3 2 6 3 5 4 7 5 4 6 8 7 1 8
REMARK H PARENT 1 9
REMARK Flexibility Score: inf
ROOT
ATOM      1  C   UNL     1      28.043  31.314 136.833  1.00  0.00     0.191 C 
ENDROOT
BRANCH   1   2
ATOM      2  C   UNL     1      27.223  30.609 137.878  1.00  0.00    -0.023 A 
ATOM      3  C   UNL     1      25.705  29.356 139.878  1.00  0.00     0.000 A 
ATOM      4  C   UNL     1      27.084  29.139 139.808  1.00  0.00     0.000 A 
ATOM      5  C   UNL     1      25.083  30.205 138.958  1.00  0.00     0.000 A 
ATOM      6  C   UNL     1      27.844  29.767 138.816  1.00  0.00     0.006 A 
ATOM      7  C   UNL     1      25.839  30.835 137.964  1.00  0.00     0.006 A 
ENDBRANCH   1   2
BRANCH   1   8
ATOM      8  O   UNL     1      28.237  30.475 135.727  1.00  0.00    -0.392 OA
ATOM      9  H   UNL     1      27.448  30.597 135.137  1.00  0.00     0.211 HD
ENDBRANCH   1   8
TORSDOF 2
ENDMDL
MODEL 9
REMARK VINA RESULT:    -3.604      2.421      3.677
REMARK INTER + INTRA:          -3.933
REMARK INTER:                  -3.922
REMARK INTRA:                  -0.011
REMARK UNBOUND:                -0.013
REMARK SMILES OCc1ccccc1
REMARK SMILES IDX 2 1 3 2 6 3 5 4 7 5 4 6 8 7 1 8
REMARK H PARENT 1 9
REMARK Flexibility Score: inf
ROOT
ATOM      1  C   UNL     1      28.284  43.884 143.898  1.00  0.00     0.191 C 
ENDROOT
BRANCH   1   2
ATOM      2  C   UNL     1      27.004  43.127 143.670  1.00  0.00    -0.023 A 
ATOM      3  C   UNL     1      24.624  41.728 143.168  1.00  0.00     0.000 A 
ATOM      4  C   UNL     1      24.588  43.105 143.409  1.00  0.00     0.000 A 
ATOM      5  C   UNL     1      25.847  41.050 143.167  1.00  0.00     0.000 A 
ATOM      6  C   UNL     1      25.774  43.805 143.655  1.00  0.00     0.006 A 
ATOM      7  C   UNL     1      27.034  41.747 143.412  1.00  0.00     0.006 A 
ENDBRANCH   1   2
BRANCH   1   8
ATOM      8  O   UNL     1      28.300  44.423 145.192  1.00  0.00    -0.392 OA
ATOM      9  H   UNL     1      28.368  45.408 145.087  1.00  0.00     0.211 HD
ENDBRANCH   1   8
TORSDOF 2
ENDMDL
