MODEL 1
REMARK VINA RESULT:    -2.958      0.000      0.000
REMARK INTER + INTRA:          -2.958
REMARK INTER:                  -2.958
REMARK INTRA:                   0.000
REMARK UNBOUND:                 0.000
REMARK SMILES CC(=O)[O-]
REMARK SMILES IDX 1 1 2 2 3 3 4 4
REMARK H PARENT
REMARK Flexibility Score: inf
ROOT
ATOM      1  C   UNL     1      27.343  -9.247  35.332  1.00  0.00     0.063 C 
ATOM      2  C   UNL     1      28.757  -9.107  34.881  1.00  0.00     0.038 C 
ATOM      3  O   UNL     1      29.200  -7.981  34.530  1.00  0.00    -0.550 OA
ATOM      4  O   UNL     1      29.604 -10.207  34.894  1.00  0.00    -0.550 OA
ENDROOT
TORSDOF 0
ENDMDL
MODEL 2
REMARK VINA RESULT:    -2.751      1.334      1.966
REMARK INTER + INTRA:          -2.751
REMARK INTER:                  -2.751
REMARK INTRA:                   0.000
REMARK UNBOUND:                 0.000
REMARK SMILES CC(=O)[O-]
REMARK SMILES IDX 1 1 2 2 3 3 4 4
REMARK H PARENT
REMARK Flexibility Score: inf
ROOT
ATOM      1  C   UNL     1      29.227 -10.415  35.026  1.00  0.00     0.063 C 
ATOM      2  C   UNL     1      28.535  -9.097  34.949  1.00  0.00     0.038 C 
ATOM      3  O   UNL     1      27.344  -8.985  35.341  1.00  0.00    -0.550 OA
ATOM      4  O   UNL     1      29.218  -7.978  34.492  1.00  0.00    -0.550 OA
ENDROOT
TORSDOF 0
ENDMDL
MODEL 3
REMARK VINA RESULT:    -2.692      3.169      3.652
REMARK INTER + INTRA:          -2.692
REMARK INTER:                  -2.692
REMARK INTRA:                   0.000
REMARK UNBOUND:                 0.000
REMARK SMILES CC(=O)[O-]
REMARK SMILES IDX 1 1 2 2 3 3 4 4
REMARK H PARENT
REMARK Flexibility Score: inf
ROOT
ATOM      1  C   UNL     1      29.032  -4.868  33.987  1.00  0.00     0.063 C 
ATOM      2  C   UNL     1      29.969  -6.028  34.022  1.00  0.00     0.038 C 
ATOM      3  O   UNL     1      31.203  -5.849  33.841  1.00  0.00    -0.550 OA
ATOM      4  O   UNL     1      29.492  -7.301  34.304  1.00  0.00    -0.550 OA
ENDROOT
TORSDOF 0
ENDMDL
MODEL 4
REMARK VINA RESULT:    -2.526      4.479      4.834
REMARK INTER + INTRA:          -2.526
REMARK INTER:                  -2.526
REMARK INTRA:                   0.000
REMARK UNBOUND:                 0.000
REMARK SMILES CC(=O)[O-]
REMARK SMILES IDX 1 1 2 2 3 3 4 4
REMARK H PARENT
REMARK Flexibility Score: inf
ROOT
ATOM      1  C   UNL     1      29.489  -6.050  34.261  1.00  0.00     0.063 C 
ATOM      2  C   UNL     1      28.960  -4.687  33.967  1.00  0.00     0.038 C 
ATOM      3  O   UNL     1      29.669  -3.857  33.338  1.00  0.00    -0.550 OA
ATOM      4  O   UNL     1      27.667  -4.347  34.339  1.00  0.00    -0.550 OA
ENDROOT
TORSDOF 0
ENDMDL
MODEL 5
REMARK VINA RESULT:    -2.522     13.825     14.320
REMARK INTER + INTRA:          -2.522
REMARK INTER:                  -2.522
REMARK INTRA:                   0.000
REMARK UNBOUND:                 0.000
REMARK SMILES CC(=O)[O-]
REMARK SMILES IDX 1 1 2 2 3 3 4 4
REMARK H PARENT
REMARK Flexibility Score: inf
ROOT
ATOM      1  C   UNL     1      24.744   3.262  42.385  1.00  0.00     0.063 C 
ATOM      2  C   UNL     1      24.604   1.877  42.921  1.00  0.00     0.038 C 
ATOM      3  O   UNL     1      23.638   1.586  43.675  1.00  0.00    -0.550 OA
ATOM      4  O   UNL     1      25.509   0.892  42.550  1.00  0.00    -0.550 OA
ENDROOT
TORSDOF 0
ENDMDL
MODEL 6
REMARK VINA RESULT:    -2.521      1.492      1.948
REMARK INTER + INTRA:          -2.521
REMARK INTER:                  -2.521
REMARK INTRA:                   0.000
REMARK UNBOUND:                 0.000
REMARK SMILES CC(=O)[O-]
REMARK SMILES IDX 1 1 2 2 3 3 4 4
REMARK H PARENT
REMARK Flexibility Score: inf
ROOT
ATOM      1  C   UNL     1      27.803  -9.438  35.395  1.00  0.00     0.063 C 
ATOM      2  C   UNL     1      28.917 -10.369  35.738  1.00  0.00     0.038 C 
ATOM      3  O   UNL     1      29.863 -10.548  34.925  1.00  0.00    -0.550 OA
ATOM      4  O   UNL     1      28.941 -11.001  36.974  1.00  0.00    -0.550 OA
ENDROOT
TORSDOF 0
ENDMDL
MODEL 7
REMARK VINA RESULT:    -2.511      1.499      2.051
REMARK INTER + INTRA:          -2.511
REMARK INTER:                  -2.511
REMARK INTRA:                   0.000
REMARK UNBOUND:                 0.000
REMARK SMILES CC(=O)[O-]
REMARK SMILES IDX 1 1 2 2 3 3 4 4
REMARK H PARENT
REMARK Flexibility Score: inf
ROOT
ATOM      1  C   UNL     1      28.969  -7.465  34.715  1.00  0.00     0.063 C 
ATOM      2  C   UNL     1      28.538  -8.869  34.975  1.00  0.00     0.038 C 
ATOM      3  O   UNL     1      29.372  -9.810  34.900  1.00  0.00    -0.550 OA
ATOM      4  O   UNL     1      27.228  -9.137  35.350  1.00  0.00    -0.550 OA
ENDROOT
TORSDOF 0
ENDMDL
MODEL 8
REMARK VINA RESULT:    -2.340      7.040      7.721
REMARK INTER + INTRA:          -2.340
REMARK INTER:                  -2.340
REMARK INTRA:                   0.000
REMARK UNBOUND:                 0.000
REMARK SMILES CC(=O)[O-]
REMARK SMILES IDX 1 1 2 2 3 3 4 4
REMARK H PARENT
REMARK Flexibility Score: inf
ROOT
ATOM      1  C   UNL     1      24.123  -2.502  34.155  1.00  0.00     0.063 C 
ATOM      2  C   UNL     1      25.570  -2.395  33.810  1.00  0.00     0.038 C 
ATOM      3  O   UNL     1      26.386  -3.254  34.237  1.00  0.00    -0.550 OA
ATOM      4  O   UNL     1      26.014  -1.378  32.975  1.00  0.00    -0.550 OA
ENDROOT
TORSDOF 0
ENDMDL
MODEL 9
REMARK VINA RESULT:    -2.328      4.446      4.784
REMARK INTER + INTRA:          -2.328
REMARK INTER:                  -2.328
REMARK INTRA:                   0.000
REMARK UNBOUND:                 0.000
REMARK SMILES CC(=O)[O-]
REMARK SMILES IDX 1 1 2 2 3 3 4 4
REMARK H PARENT
REMARK Flexibility Score: inf
ROOT
ATOM      1  C   UNL     1      29.639  -6.128  34.313  1.00  0.00     0.063 C 
ATOM      2  C   UNL     1      29.837  -4.681  34.615  1.00  0.00     0.038 C 
ATOM      3  O   UNL     1      29.627  -3.816  33.725  1.00  0.00    -0.550 OA
ATOM      4  O   UNL     1      30.203  -4.280  35.893  1.00  0.00    -0.550 OA
ENDROOT
TORSDOF 0
ENDMDL
