MODEL 1
REMARK VINA RESULT:    -4.756      0.000      0.000
REMARK INTER + INTRA:          -6.582
REMARK INTER:                  -6.146
REMARK INTRA:                  -0.437
REMARK UNBOUND:                -0.437
REMARK SMILES CCO[C@@H]1O[C@H](CO)[C@@H](O)[C@H](O)[C@H]1O
REMARK SMILES IDX 4 1 13 2 11 3 9 4 6 5 5 6 3 7 2 8 1 9 14 10 12 12 7 14 8 15
REMARK SMILES IDX 10 17
REMARK H PARENT 14 11 12 13 8 16 10 18
REMARK Flexibility Score: inf
ROOT
ATOM      1  C   UNL     1       5.150   6.790  11.604  1.00  0.00     0.281 C 
ATOM      2  C   UNL     1       3.805   7.459  11.272  1.00  0.00     0.202 C 
ATOM      3  C   UNL     1       4.013   8.886  10.739  1.00  0.00     0.179 C 
ATOM      4  C   UNL     1       5.029   8.878   9.587  1.00  0.00     0.177 C 
ATOM      5  C   UNL     1       6.313   8.093   9.953  1.00  0.00     0.178 C 
ATOM      6  O   UNL     1       6.064   6.804  10.512  1.00  0.00    -0.341 OA
ENDROOT
BRANCH   1   7
ATOM      7  O   UNL     1       5.718   7.387  12.759  1.00  0.00    -0.350 OA
BRANCH   7   8
ATOM      8  C   UNL     1       5.883   6.429  13.784  1.00  0.00     0.160 C 
ATOM      9  C   UNL     1       7.315   6.483  14.292  1.00  0.00     0.035 C 
ENDBRANCH   7   8
ENDBRANCH   1   7
BRANCH   2  10
ATOM     10  O   UNL     1       3.124   6.679  10.322  1.00  0.00    -0.385 OA
ATOM     11  H   UNL     1       3.484   5.758  10.393  1.00  0.00     0.211 HD
ENDBRANCH   2  10
BRANCH   3  12
ATOM     12  O   UNL     1       4.462   9.736  11.764  1.00  0.00    -0.387 OA
ATOM     13  H   UNL     1       3.890   9.562  12.556  1.00  0.00     0.211 HD
ENDBRANCH   3  12
BRANCH   5  14
ATOM     14  C   UNL     1       7.334   8.919  10.764  1.00  0.00     0.191 C 
BRANCH  14  15
ATOM     15  O   UNL     1       8.337   8.087  11.282  1.00  0.00    -0.394 OA
ATOM     16  H   UNL     1       9.018   8.680  11.689  1.00  0.00     0.210 HD
ENDBRANCH  14  15
ENDBRANCH   5  14
BRANCH   4  17
ATOM     17  O   UNL     1       4.450   8.295   8.446  1.00  0.00    -0.387 OA
ATOM     18  H   UNL     1       4.070   9.033   7.902  1.00  0.00     0.211 HD
ENDBRANCH   4  17
TORSDOF 7
ENDMDL
MODEL 2
REMARK VINA RESULT:    -4.545      1.242      3.227
REMARK INTER + INTRA:          -6.310
REMARK INTER:                  -6.122
REMARK INTRA:                  -0.188
REMARK UNBOUND:                -0.437
REMARK SMILES CCO[C@@H]1O[C@H](CO)[C@@H](O)[C@H](O)[C@H]1O
REMARK SMILES IDX 4 1 13 2 11 3 9 4 6 5 5 6 3 7 2 8 1 9 14 10 12 12 7 14 8 15
REMARK SMILES IDX 10 17
REMARK H PARENT 14 11 12 13 8 16 10 18
REMARK Flexibility Score: inf
ROOT
ATOM      1  C   UNL     1       5.238   8.588  12.076  1.00  0.00     0.281 C 
ATOM      2  C   UNL     1       6.323   8.733  10.996  1.00  0.00     0.202 C 
ATOM      3  C   UNL     1       6.034   7.819   9.794  1.00  0.00     0.179 C 
ATOM      4  C   UNL     1       4.597   8.037   9.296  1.00  0.00     0.177 C 
ATOM      5  C   UNL     1       3.569   7.987  10.454  1.00  0.00     0.178 C 
ATOM      6  O   UNL     1       3.921   8.796  11.575  1.00  0.00    -0.341 OA
ENDROOT
BRANCH   1   7
ATOM      7  O   UNL     1       5.353   7.326  12.714  1.00  0.00    -0.350 OA
BRANCH   7   8
ATOM      8  C   UNL     1       5.889   7.472  14.013  1.00  0.00     0.160 C 
ATOM      9  C   UNL     1       7.211   6.725  14.093  1.00  0.00     0.035 C 
ENDBRANCH   7   8
ENDBRANCH   1   7
BRANCH   2  10
ATOM     10  O   UNL     1       6.386  10.075  10.582  1.00  0.00    -0.385 OA
ATOM     11  H   UNL     1       6.498  10.625  11.401  1.00  0.00     0.211 HD
ENDBRANCH   2  10
BRANCH   3  12
ATOM     12  O   UNL     1       6.217   6.470  10.143  1.00  0.00    -0.387 OA
ATOM     13  H   UNL     1       6.171   5.945   9.302  1.00  0.00     0.211 HD
ENDBRANCH   3  12
BRANCH   5  14
ATOM     14  C   UNL     1       3.149   6.555  10.847  1.00  0.00     0.191 C 
BRANCH  14  15
ATOM     15  O   UNL     1       1.933   6.217  10.238  1.00  0.00    -0.394 OA
ATOM     16  H   UNL     1       1.746   6.917   9.562  1.00  0.00     0.210 HD
ENDBRANCH  14  15
ENDBRANCH   5  14
BRANCH   4  17
ATOM     17  O   UNL     1       4.499   9.286   8.657  1.00  0.00    -0.387 OA
ATOM     18  H   UNL     1       5.094   9.254   7.862  1.00  0.00     0.211 HD
ENDBRANCH   4  17
TORSDOF 7
ENDMDL
MODEL 3
REMARK VINA RESULT:    -4.521      1.445      3.018
REMARK INTER + INTRA:          -6.279
REMARK INTER:                  -5.813
REMARK INTRA:                  -0.466
REMARK UNBOUND:                -0.437
REMARK SMILES CCO[C@@H]1O[C@H](CO)[C@@H](O)[C@H](O)[C@H]1O
REMARK SMILES IDX 4 1 13 2 11 3 9 4 6 5 5 6 3 7 2 8 1 9 14 10 12 12 7 14 8 15
REMARK SMILES IDX 10 17
REMARK H PARENT 14 11 12 13 8 16 10 18
REMARK Flexibility Score: inf
ROOT
ATOM      1  C   UNL     1       4.784   7.526   9.597  1.00  0.00     0.281 C 
ATOM      2  C   UNL     1       4.681   9.060   9.547  1.00  0.00     0.202 C 
ATOM      3  C   UNL     1       5.471   9.706  10.697  1.00  0.00     0.179 C 
ATOM      4  C   UNL     1       6.906   9.159  10.728  1.00  0.00     0.177 C 
ATOM      5  C   UNL     1       6.936   7.612  10.664  1.00  0.00     0.178 C 
ATOM      6  O   UNL     1       6.129   7.059   9.626  1.00  0.00    -0.341 OA
ENDROOT
BRANCH   1   7
ATOM      7  O   UNL     1       4.041   7.025  10.697  1.00  0.00    -0.350 OA
BRANCH   7   8
ATOM      8  C   UNL     1       2.656   7.066  10.422  1.00  0.00     0.160 C 
ATOM      9  C   UNL     1       1.914   7.515  11.670  1.00  0.00     0.035 C 
ENDBRANCH   7   8
ENDBRANCH   1   7
BRANCH   2  10
ATOM     10  O   UNL     1       5.166   9.515   8.308  1.00  0.00    -0.385 OA
ATOM     11  H   UNL     1       4.992   8.795   7.648  1.00  0.00     0.211 HD
ENDBRANCH   2  10
BRANCH   3  12
ATOM     12  O   UNL     1       4.841   9.460  11.929  1.00  0.00    -0.387 OA
ATOM     13  H   UNL     1       4.677  10.343  12.351  1.00  0.00     0.211 HD
ENDBRANCH   3  12
BRANCH   5  14
ATOM     14  C   UNL     1       6.714   6.932  12.032  1.00  0.00     0.191 C 
BRANCH  14  15
ATOM     15  O   UNL     1       7.247   7.720  13.063  1.00  0.00    -0.394 OA
ATOM     16  H   UNL     1       7.636   7.097  13.727  1.00  0.00     0.210 HD
ENDBRANCH  14  15
ENDBRANCH   5  14
BRANCH   4  17
ATOM     17  O   UNL     1       7.634   9.672   9.639  1.00  0.00    -0.387 OA
ATOM     18  H   UNL     1       8.577   9.763   9.937  1.00  0.00     0.211 HD
ENDBRANCH   4  17
TORSDOF 7
ENDMDL
MODEL 4
REMARK VINA RESULT:    -4.353      1.511      2.509
REMARK INTER + INTRA:          -6.063
REMARK INTER:                  -5.637
REMARK INTRA:                  -0.426
REMARK UNBOUND:                -0.437
REMARK SMILES CCO[C@@H]1O[C@H](CO)[C@@H](O)[C@H](O)[C@H]1O
REMARK SMILES IDX 4 1 13 2 11 3 9 4 6 5 5 6 3 7 2 8 1 9 14 10 12 12 7 14 8 15
REMARK SMILES IDX 10 17
REMARK H PARENT 14 11 12 13 8 16 10 18
REMARK Flexibility Score: inf
ROOT
ATOM      1  C   UNL     1       5.196   7.322  12.821  1.00  0.00     0.281 C 
ATOM      2  C   UNL     1       4.266   8.489  13.192  1.00  0.00     0.202 C 
ATOM      3  C   UNL     1       3.770   9.223  11.935  1.00  0.00     0.179 C 
ATOM      4  C   UNL     1       3.177   8.220  10.935  1.00  0.00     0.177 C 
ATOM      5  C   UNL     1       4.121   7.015  10.694  1.00  0.00     0.178 C 
ATOM      6  O   UNL     1       4.611   6.416  11.892  1.00  0.00    -0.341 OA
ENDROOT
BRANCH   1   7
ATOM      7  O   UNL     1       6.435   7.821  12.343  1.00  0.00    -0.350 OA
BRANCH   7   8
ATOM      8  C   UNL     1       7.491   6.951  12.696  1.00  0.00     0.160 C 
ATOM      9  C   UNL     1       7.380   6.604  14.172  1.00  0.00     0.035 C 
ENDBRANCH   7   8
ENDBRANCH   1   7
BRANCH   2  10
ATOM     10  O   UNL     1       3.175   7.994  13.927  1.00  0.00    -0.385 OA
ATOM     11  H   UNL     1       3.282   7.009  13.975  1.00  0.00     0.211 HD
ENDBRANCH   2  10
BRANCH   3  12
ATOM     12  O   UNL     1       4.822   9.933  11.330  1.00  0.00    -0.387 OA
ATOM     13  H   UNL     1       4.822  10.842  11.726  1.00  0.00     0.211 HD
ENDBRANCH   3  12
BRANCH   5  14
ATOM     14  C   UNL     1       5.230   7.296   9.659  1.00  0.00     0.191 C 
BRANCH  14  15
ATOM     15  O   UNL     1       4.758   8.155   8.656  1.00  0.00    -0.394 OA
ATOM     16  H   UNL     1       4.382   7.582   7.941  1.00  0.00     0.210 HD
ENDBRANCH  14  15
ENDBRANCH   5  14
BRANCH   4  17
ATOM     17  O   UNL     1       1.945   7.741  11.415  1.00  0.00    -0.387 OA
ATOM     18  H   UNL     1       2.008   6.750  11.442  1.00  0.00     0.211 HD
ENDBRANCH   4  17
TORSDOF 7
ENDMDL
MODEL 5
REMARK VINA RESULT:    -4.201      1.696      3.262
REMARK INTER + INTRA:          -5.865
REMARK INTER:                  -5.379
REMARK INTRA:                  -0.486
REMARK UNBOUND:                -0.437
REMARK SMILES CCO[C@@H]1O[C@H](CO)[C@@H](O)[C@H](O)[C@H]1O
REMARK SMILES IDX 4 1 13 2 11 3 9 4 6 5 5 6 3 7 2 8 1 9 14 10 12 12 7 14 8 15
REMARK SMILES IDX 10 17
REMARK H PARENT 14 11 12 13 8 16 10 18
REMARK Flexibility Score: inf
ROOT
ATOM      1  C   UNL     1       5.654   9.042  10.443  1.00  0.00     0.281 C 
ATOM      2  C   UNL     1       5.134   7.807   9.689  1.00  0.00     0.202 C 
ATOM      3  C   UNL     1       4.201   6.967  10.577  1.00  0.00     0.179 C 
ATOM      4  C   UNL     1       3.107   7.857  11.185  1.00  0.00     0.177 C 
ATOM      5  C   UNL     1       3.693   9.137  11.830  1.00  0.00     0.178 C 
ATOM      6  O   UNL     1       4.610   9.839  10.993  1.00  0.00    -0.341 OA
ENDROOT
BRANCH   1   7
ATOM      7  O   UNL     1       6.580   8.647  11.442  1.00  0.00    -0.350 OA
BRANCH   7   8
ATOM      8  C   UNL     1       7.872   8.491  10.890  1.00  0.00     0.160 C 
ATOM      9  C   UNL     1       8.414   7.123  11.270  1.00  0.00     0.035 C 
ENDBRANCH   7   8
ENDBRANCH   1   7
BRANCH   2  10
ATOM     10  O   UNL     1       4.457   8.225   8.530  1.00  0.00    -0.385 OA
ATOM     11  H   UNL     1       3.597   7.730   8.505  1.00  0.00     0.211 HD
ENDBRANCH   2  10
BRANCH   3  12
ATOM     12  O   UNL     1       4.928   6.338  11.602  1.00  0.00    -0.387 OA
ATOM     13  H   UNL     1       5.327   7.058  12.156  1.00  0.00     0.211 HD
ENDBRANCH   3  12
BRANCH   5  14
ATOM     14  C   UNL     1       4.225   8.919  13.263  1.00  0.00     0.191 C 
BRANCH  14  15
ATOM     15  O   UNL     1       3.593   7.818  13.858  1.00  0.00    -0.394 OA
ATOM     16  H   UNL     1       3.995   7.709  14.757  1.00  0.00     0.210 HD
ENDBRANCH  14  15
ENDBRANCH   5  14
BRANCH   4  17
ATOM     17  O   UNL     1       2.189   8.232  10.188  1.00  0.00    -0.387 OA
ATOM     18  H   UNL     1       1.944   7.407   9.693  1.00  0.00     0.211 HD
ENDBRANCH   4  17
TORSDOF 7
ENDMDL
MODEL 6
REMARK VINA RESULT:    -4.159      1.521      3.389
REMARK INTER + INTRA:          -5.811
REMARK INTER:                  -5.385
REMARK INTRA:                  -0.426
REMARK UNBOUND:                -0.437
REMARK SMILES CCO[C@@H]1O[C@H](CO)[C@@H](O)[C@H](O)[C@H]1O
REMARK SMILES IDX 4 1 13 2 11 3 9 4 6 5 5 6 3 7 2 8 1 9 14 10 12 12 7 14 8 15
REMARK SMILES IDX 10 17
REMARK H PARENT 14 11 12 13 8 16 10 18
REMARK Flexibility Score: inf
ROOT
ATOM      1  C   UNL     1       5.294   8.833  12.027  1.00  0.00     0.281 C 
ATOM      2  C   UNL     1       5.093   7.311  12.110  1.00  0.00     0.202 C 
ATOM      3  C   UNL     1       4.839   6.708  10.718  1.00  0.00     0.179 C 
ATOM      4  C   UNL     1       5.932   7.160   9.738  1.00  0.00     0.177 C 
ATOM      5  C   UNL     1       6.158   8.692   9.788  1.00  0.00     0.178 C 
ATOM      6  O   UNL     1       6.315   9.211  11.108  1.00  0.00    -0.341 OA
ENDROOT
BRANCH   1   7
ATOM      7  O   UNL     1       4.064   9.470  11.722  1.00  0.00    -0.350 OA
BRANCH   7   8
ATOM      8  C   UNL     1       3.302   9.669  12.895  1.00  0.00     0.160 C 
ATOM      9  C   UNL     1       1.880   9.190  12.652  1.00  0.00     0.035 C 
ENDBRANCH   7   8
ENDBRANCH   1   7
BRANCH   2  10
ATOM     10  O   UNL     1       6.231   6.726  12.693  1.00  0.00    -0.385 OA
ATOM     11  H   UNL     1       6.697   7.442  13.197  1.00  0.00     0.211 HD
ENDBRANCH   2  10
BRANCH   3  12
ATOM     12  O   UNL     1       3.577   7.095  10.235  1.00  0.00    -0.387 OA
ATOM     13  H   UNL     1       3.735   7.656   9.432  1.00  0.00     0.211 HD
ENDBRANCH   3  12
BRANCH   5  14
ATOM     14  C   UNL     1       5.150   9.493   8.937  1.00  0.00     0.191 C 
BRANCH  14  15
ATOM     15  O   UNL     1       4.438   8.636   8.085  1.00  0.00    -0.394 OA
ATOM     16  H   UNL     1       3.626   9.127   7.799  1.00  0.00     0.210 HD
ENDBRANCH  14  15
ENDBRANCH   5  14
BRANCH   4  17
ATOM     17  O   UNL     1       7.143   6.514  10.045  1.00  0.00    -0.387 OA
ATOM     18  H   UNL     1       7.875   7.143   9.813  1.00  0.00     0.211 HD
ENDBRANCH   4  17
TORSDOF 7
ENDMDL
MODEL 7
REMARK VINA RESULT:    -4.139      1.929      3.533
REMARK INTER + INTRA:          -5.786
REMARK INTER:                  -5.400
REMARK INTRA:                  -0.386
REMARK UNBOUND:                -0.437
REMARK SMILES CCO[C@@H]1O[C@H](CO)[C@@H](O)[C@H](O)[C@H]1O
REMARK SMILES IDX 4 1 13 2 11 3 9 4 6 5 5 6 3 7 2 8 1 9 14 10 12 12 7 14 8 15
REMARK SMILES IDX 10 17
REMARK H PARENT 14 11 12 13 8 16 10 18
REMARK Flexibility Score: inf
ROOT
ATOM      1  C   UNL     1       7.704   8.004  11.132  1.00  0.00     0.281 C 
ATOM      2  C   UNL     1       7.075   8.734   9.933  1.00  0.00     0.202 C 
ATOM      3  C   UNL     1       5.566   8.453   9.843  1.00  0.00     0.179 C 
ATOM      4  C   UNL     1       4.893   8.738  11.194  1.00  0.00     0.177 C 
ATOM      5  C   UNL     1       5.644   8.062  12.369  1.00  0.00     0.178 C 
ATOM      6  O   UNL     1       7.052   8.293  12.364  1.00  0.00    -0.341 OA
ENDROOT
BRANCH   1   7
ATOM      7  O   UNL     1       7.743   6.608  10.885  1.00  0.00    -0.350 OA
BRANCH   7   8
ATOM      8  C   UNL     1       9.036   6.095  11.133  1.00  0.00     0.160 C 
ATOM      9  C   UNL     1       9.630   5.588   9.829  1.00  0.00     0.035 C 
ENDBRANCH   7   8
ENDBRANCH   1   7
BRANCH   2  10
ATOM     10  O   UNL     1       7.306  10.114  10.059  1.00  0.00    -0.385 OA
ATOM     11  H   UNL     1       6.681  10.449  10.753  1.00  0.00     0.211 HD
ENDBRANCH   2  10
BRANCH   3  12
ATOM     12  O   UNL     1       5.332   7.120   9.467  1.00  0.00    -0.387 OA
ATOM     13  H   UNL     1       4.864   7.144   8.592  1.00  0.00     0.211 HD
ENDBRANCH   3  12
BRANCH   5  14
ATOM     14  C   UNL     1       5.273   6.577  12.567  1.00  0.00     0.191 C 
BRANCH  14  15
ATOM     15  O   UNL     1       6.089   5.995  13.547  1.00  0.00    -0.394 OA
ATOM     16  H   UNL     1       5.490   5.506  14.166  1.00  0.00     0.210 HD
ENDBRANCH  14  15
ENDBRANCH   5  14
BRANCH   4  17
ATOM     17  O   UNL     1       4.851  10.125  11.422  1.00  0.00    -0.387 OA
ATOM     18  H   UNL     1       3.897  10.399  11.373  1.00  0.00     0.211 HD
ENDBRANCH   4  17
TORSDOF 7
ENDMDL
MODEL 8
REMARK VINA RESULT:    -4.110      1.278      2.526
REMARK INTER + INTRA:          -5.748
REMARK INTER:                  -5.345
REMARK INTRA:                  -0.403
REMARK UNBOUND:                -0.437
REMARK SMILES CCO[C@@H]1O[C@H](CO)[C@@H](O)[C@H](O)[C@H]1O
REMARK SMILES IDX 4 1 13 2 11 3 9 4 6 5 5 6 3 7 2 8 1 9 14 10 12 12 7 14 8 15
REMARK SMILES IDX 10 17
REMARK H PARENT 14 11 12 13 8 16 10 18
REMARK Flexibility Score: inf
ROOT
ATOM      1  C   UNL     1       6.534   7.858  11.217  1.00  0.00     0.281 C 
ATOM      2  C   UNL     1       5.778   6.746  10.471  1.00  0.00     0.202 C 
ATOM      3  C   UNL     1       4.274   7.059  10.387  1.00  0.00     0.179 C 
ATOM      4  C   UNL     1       4.058   8.472   9.825  1.00  0.00     0.177 C 
ATOM      5  C   UNL     1       4.935   9.524  10.550  1.00  0.00     0.178 C 
ATOM      6  O   UNL     1       6.307   9.152  10.666  1.00  0.00    -0.341 OA
ENDROOT
BRANCH   1   7
ATOM      7  O   UNL     1       6.214   7.822  12.598  1.00  0.00    -0.350 OA
BRANCH   7   8
ATOM      8  C   UNL     1       6.993   6.850  13.264  1.00  0.00     0.160 C 
ATOM      9  C   UNL     1       6.091   6.017  14.161  1.00  0.00     0.035 C 
ENDBRANCH   7   8
ENDBRANCH   1   7
BRANCH   2  10
ATOM     10  O   UNL     1       6.318   6.605   9.181  1.00  0.00    -0.385 OA
ATOM     11  H   UNL     1       6.787   7.453   8.970  1.00  0.00     0.211 HD
ENDBRANCH   2  10
BRANCH   3  12
ATOM     12  O   UNL     1       3.676   6.954  11.654  1.00  0.00    -0.387 OA
ATOM     13  H   UNL     1       2.698   7.059  11.520  1.00  0.00     0.211 HD
ENDBRANCH   3  12
BRANCH   5  14
ATOM     14  C   UNL     1       4.327  10.026  11.877  1.00  0.00     0.191 C 
BRANCH  14  15
ATOM     15  O   UNL     1       3.004   9.582  12.009  1.00  0.00    -0.394 OA
ATOM     16  H   UNL     1       2.508   9.922  11.221  1.00  0.00     0.210 HD
ENDBRANCH  14  15
ENDBRANCH   5  14
BRANCH   4  17
ATOM     17  O   UNL     1       4.369   8.492   8.453  1.00  0.00    -0.387 OA
ATOM     18  H   UNL     1       5.262   8.070   8.351  1.00  0.00     0.211 HD
ENDBRANCH   4  17
TORSDOF 7
ENDMDL
MODEL 9
REMARK VINA RESULT:    -4.069      1.543      2.892
REMARK INTER + INTRA:          -5.695
REMARK INTER:                  -5.231
REMARK INTRA:                  -0.464
REMARK UNBOUND:                -0.437
REMARK SMILES CCO[C@@H]1O[C@H](CO)[C@@H](O)[C@H](O)[C@H]1O
REMARK SMILES IDX 4 1 13 2 11 3 9 4 6 5 5 6 3 7 2 8 1 9 14 10 12 12 7 14 8 15
REMARK SMILES IDX 10 17
REMARK H PARENT 14 11 12 13 8 16 10 18
REMARK Flexibility Score: inf
ROOT
ATOM      1  C   UNL     1       4.147   8.658  10.871  1.00  0.00     0.281 C 
ATOM      2  C   UNL     1       4.954   9.026   9.615  1.00  0.00     0.202 C 
ATOM      3  C   UNL     1       6.454   8.753   9.821  1.00  0.00     0.179 C 
ATOM      4  C   UNL     1       6.666   7.317  10.323  1.00  0.00     0.177 C 
ATOM      5  C   UNL     1       5.741   6.979  11.519  1.00  0.00     0.178 C 
ATOM      6  O   UNL     1       4.372   7.320  11.306  1.00  0.00    -0.341 OA
ENDROOT
BRANCH   1   7
ATOM      7  O   UNL     1       4.410   9.587  11.909  1.00  0.00    -0.350 OA
BRANCH   7   8
ATOM      8  C   UNL     1       3.232   9.867  12.638  1.00  0.00     0.160 C 
ATOM      9  C   UNL     1       3.411   9.397  14.073  1.00  0.00     0.035 C 
ENDBRANCH   7   8
ENDBRANCH   1   7
BRANCH   2  10
ATOM     10  O   UNL     1       4.471   8.288   8.522  1.00  0.00    -0.385 OA
ATOM     11  H   UNL     1       4.024   8.932   7.913  1.00  0.00     0.211 HD
ENDBRANCH   2  10
BRANCH   3  12
ATOM     12  O   UNL     1       7.001   9.665  10.739  1.00  0.00    -0.387 OA
ATOM     13  H   UNL     1       7.984   9.525  10.734  1.00  0.00     0.211 HD
ENDBRANCH   3  12
BRANCH   5  14
ATOM     14  C   UNL     1       6.284   7.469  12.878  1.00  0.00     0.191 C 
BRANCH  14  15
ATOM     15  O   UNL     1       7.682   7.559  12.844  1.00  0.00    -0.394 OA
ATOM     16  H   UNL     1       7.912   8.149  12.082  1.00  0.00     0.210 HD
ENDBRANCH  14  15
ENDBRANCH   5  14
BRANCH   4  17
ATOM     17  O   UNL     1       6.412   6.406   9.282  1.00  0.00    -0.387 OA
ATOM     18  H   UNL     1       6.698   5.511   9.603  1.00  0.00     0.211 HD
ENDBRANCH   4  17
TORSDOF 7
ENDMDL
