MODEL 1
REMARK VINA RESULT:    -3.694      0.000      0.000
REMARK INTER + INTRA:          -4.333
REMARK INTER:                  -4.234
REMARK INTRA:                  -0.099
REMARK UNBOUND:                -0.099
REMARK SMILES C=Cc1ccc(O)c(OC)c1
REMARK SMILES IDX 8 1 6 2 5 3 4 4 3 5 11 6 9 7 10 8 7 9 2 11 1 12
REMARK H PARENT 7 10
REMARK Flexibility Score: inf
ROOT
ATOM      1  C   UNL     1      29.022  27.951  26.168  1.00  0.00     0.161 A 
ATOM      2  C   UNL     1      29.076  28.816  27.267  1.00  0.00     0.157 A 
ATOM      3  C   UNL     1      29.125  30.201  27.071  1.00  0.00     0.051 A 
ATOM      4  C   UNL     1      29.125  30.730  25.778  1.00  0.00     0.012 A 
ATOM      5  C   UNL     1      29.084  29.878  24.658  1.00  0.00    -0.022 A 
ATOM      6  C   UNL     1      29.021  28.488  24.865  1.00  0.00     0.058 A 
ENDROOT
BRANCH   1   7
ATOM      7  O   UNL     1      28.968  26.568  26.406  1.00  0.00    -0.493 OA
ATOM      8  C   UNL     1      28.105  25.664  25.724  1.00  0.00     0.278 C 
ENDBRANCH   1   7
BRANCH   2   9
ATOM      9  O   UNL     1      29.077  28.289  28.558  1.00  0.00    -0.504 OA
ATOM     10  H   UNL     1      29.208  27.298  28.726  1.00  0.00     0.293 HD
ENDBRANCH   2   9
BRANCH   5  11
ATOM     11  C   UNL     1      29.073  30.389  23.265  1.00  0.00     0.000 C 
ATOM     12  C   UNL     1      29.005  31.680  22.940  1.00  0.00     0.009 C 
ENDBRANCH   5  11
TORSDOF 3
ENDMDL
MODEL 2
REMARK VINA RESULT:    -3.634      1.610      3.009
REMARK INTER + INTRA:          -4.264
REMARK INTER:                  -4.171
REMARK INTRA:                  -0.093
REMARK UNBOUND:                -0.099
REMARK SMILES C=Cc1ccc(O)c(OC)c1
REMARK SMILES IDX 8 1 6 2 5 3 4 4 3 5 11 6 9 7 10 8 7 9 2 11 1 12
REMARK H PARENT 7 10
REMARK Flexibility Score: inf
ROOT
ATOM      1  C   UNL     1      29.121  29.674  25.679  1.00  0.00     0.161 A 
ATOM      2  C   UNL     1      29.122  28.837  24.556  1.00  0.00     0.157 A 
ATOM      3  C   UNL     1      29.125  29.387  23.270  1.00  0.00     0.051 A 
ATOM      4  C   UNL     1      29.123  30.773  23.095  1.00  0.00     0.012 A 
ATOM      5  C   UNL     1      29.108  31.632  24.209  1.00  0.00    -0.022 A 
ATOM      6  C   UNL     1      29.119  31.072  25.499  1.00  0.00     0.058 A 
ENDROOT
BRANCH   1   7
ATOM      7  O   UNL     1      29.123  29.084  26.953  1.00  0.00    -0.493 OA
ATOM      8  C   UNL     1      28.520  29.657  28.109  1.00  0.00     0.278 C 
ENDBRANCH   1   7
BRANCH   2   9
ATOM      9  O   UNL     1      29.123  27.453  24.729  1.00  0.00    -0.504 OA
ATOM     10  H   UNL     1      29.027  26.821  23.943  1.00  0.00     0.293 HD
ENDBRANCH   2   9
BRANCH   5  11
ATOM     11  C   UNL     1      29.115  33.111  24.079  1.00  0.00     0.000 C 
ATOM     12  C   UNL     1      28.727  33.769  22.987  1.00  0.00     0.009 C 
ENDBRANCH   5  11
TORSDOF 3
ENDMDL
MODEL 3
REMARK VINA RESULT:    -3.503      2.911      4.271
REMARK INTER + INTRA:          -4.113
REMARK INTER:                  -4.062
REMARK INTRA:                  -0.051
REMARK UNBOUND:                -0.099
REMARK SMILES C=Cc1ccc(O)c(OC)c1
REMARK SMILES IDX 8 1 6 2 5 3 4 4 3 5 11 6 9 7 10 8 7 9 2 11 1 12
REMARK H PARENT 7 10
REMARK Flexibility Score: inf
ROOT
ATOM      1  C   UNL     1      26.809  24.907  26.133  1.00  0.00     0.161 A 
ATOM      2  C   UNL     1      28.008  24.267  25.797  1.00  0.00     0.157 A 
ATOM      3  C   UNL     1      29.125  25.021  25.418  1.00  0.00     0.051 A 
ATOM      4  C   UNL     1      29.051  26.414  25.367  1.00  0.00     0.012 A 
ATOM      5  C   UNL     1      27.852  27.077  25.688  1.00  0.00    -0.022 A 
ATOM      6  C   UNL     1      26.738  26.314  26.081  1.00  0.00     0.058 A 
ENDROOT
BRANCH   1   7
ATOM      7  O   UNL     1      25.713  24.117  26.513  1.00  0.00    -0.493 OA
ATOM      8  C   UNL     1      25.464  23.666  27.841  1.00  0.00     0.278 C 
ENDBRANCH   1   7
BRANCH   2   9
ATOM      9  O   UNL     1      28.083  22.876  25.846  1.00  0.00    -0.504 OA
ATOM     10  H   UNL     1      27.278  22.294  25.647  1.00  0.00     0.293 HD
ENDBRANCH   2   9
BRANCH   5  11
ATOM     11  C   UNL     1      27.723  28.556  25.659  1.00  0.00     0.000 C 
ATOM     12  C   UNL     1      27.286  29.251  24.609  1.00  0.00     0.009 C 
ENDBRANCH   5  11
TORSDOF 3
ENDMDL
MODEL 4
REMARK VINA RESULT:    -3.124      1.909      4.149
REMARK INTER + INTRA:          -3.680
REMARK INTER:                  -3.667
REMARK INTRA:                  -0.012
REMARK UNBOUND:                -0.099
REMARK SMILES C=Cc1ccc(O)c(OC)c1
REMARK SMILES IDX 8 1 6 2 5 3 4 4 3 5 11 6 9 7 10 8 7 9 2 11 1 12
REMARK H PARENT 7 10
REMARK Flexibility Score: inf
ROOT
ATOM      1  C   UNL     1      28.007  29.247  25.260  1.00  0.00     0.161 A 
ATOM      2  C   UNL     1      28.753  29.447  26.429  1.00  0.00     0.157 A 
ATOM      3  C   UNL     1      29.125  28.354  27.220  1.00  0.00     0.051 A 
ATOM      4  C   UNL     1      28.752  27.059  26.855  1.00  0.00     0.012 A 
ATOM      5  C   UNL     1      27.992  26.837  25.691  1.00  0.00    -0.022 A 
ATOM      6  C   UNL     1      27.634  27.939  24.894  1.00  0.00     0.058 A 
ENDROOT
BRANCH   1   7
ATOM      7  O   UNL     1      27.658  30.368  24.490  1.00  0.00    -0.493 OA
ATOM      8  C   UNL     1      28.533  31.026  23.580  1.00  0.00     0.278 C 
ENDBRANCH   1   7
BRANCH   2   9
ATOM      9  O   UNL     1      29.125  30.739  26.796  1.00  0.00    -0.504 OA
ATOM     10  H   UNL     1      28.650  31.236  27.541  1.00  0.00     0.293 HD
ENDBRANCH   2   9
BRANCH   5  11
ATOM     11  C   UNL     1      27.578  25.480  25.253  1.00  0.00     0.000 C 
ATOM     12  C   UNL     1      28.312  24.381  25.423  1.00  0.00     0.009 C 
ENDBRANCH   5  11
TORSDOF 3
ENDMDL
MODEL 5
REMARK VINA RESULT:    -2.969      3.289      6.861
REMARK INTER + INTRA:          -3.502
REMARK INTER:                  -3.390
REMARK INTRA:                  -0.112
REMARK UNBOUND:                -0.099
REMARK SMILES C=Cc1ccc(O)c(OC)c1
REMARK SMILES IDX 8 1 6 2 5 3 4 4 3 5 11 6 9 7 10 8 7 9 2 11 1 12
REMARK H PARENT 7 10
REMARK Flexibility Score: inf
ROOT
ATOM      1  C   UNL     1      27.733  24.597  25.976  1.00  0.00     0.161 A 
ATOM      2  C   UNL     1      27.851  23.734  24.879  1.00  0.00     0.157 A 
ATOM      3  C   UNL     1      26.796  22.879  24.540  1.00  0.00     0.051 A 
ATOM      4  C   UNL     1      25.621  22.876  25.294  1.00  0.00     0.012 A 
ATOM      5  C   UNL     1      25.485  23.726  26.408  1.00  0.00    -0.022 A 
ATOM      6  C   UNL     1      26.545  24.592  26.734  1.00  0.00     0.058 A 
ENDROOT
BRANCH   1   7
ATOM      7  O   UNL     1      28.810  25.443  26.281  1.00  0.00    -0.493 OA
ATOM      8  C   UNL     1      28.826  26.848  26.046  1.00  0.00     0.278 C 
ENDBRANCH   1   7
BRANCH   2   9
ATOM      9  O   UNL     1      29.025  23.735  24.127  1.00  0.00    -0.504 OA
ATOM     10  H   UNL     1      29.622  24.553  24.077  1.00  0.00     0.293 HD
ENDBRANCH   2   9
BRANCH   5  11
ATOM     11  C   UNL     1      24.254  23.768  27.236  1.00  0.00     0.000 C 
ATOM     12  C   UNL     1      23.218  22.944  27.083  1.00  0.00     0.009 C 
ENDBRANCH   5  11
TORSDOF 3
ENDMDL
MODEL 6
REMARK VINA RESULT:    -2.625      4.212      6.376
REMARK INTER + INTRA:          -3.108
REMARK INTER:                  -3.017
REMARK INTRA:                  -0.091
REMARK UNBOUND:                -0.099
REMARK SMILES C=Cc1ccc(O)c(OC)c1
REMARK SMILES IDX 8 1 6 2 5 3 4 4 3 5 11 6 9 7 10 8 7 9 2 11 1 12
REMARK H PARENT 7 10
REMARK Flexibility Score: inf
ROOT
ATOM      1  C   UNL     1      25.374  24.023  26.532  1.00  0.00     0.161 A 
ATOM      2  C   UNL     1      24.902  23.414  25.363  1.00  0.00     0.157 A 
ATOM      3  C   UNL     1      25.717  23.343  24.228  1.00  0.00     0.051 A 
ATOM      4  C   UNL     1      27.005  23.883  24.250  1.00  0.00     0.012 A 
ATOM      5  C   UNL     1      27.495  24.512  25.410  1.00  0.00    -0.022 A 
ATOM      6  C   UNL     1      26.674  24.566  26.551  1.00  0.00     0.058 A 
ENDROOT
BRANCH   1   7
ATOM      7  O   UNL     1      24.528  24.069  27.651  1.00  0.00    -0.493 OA
ATOM      8  C   UNL     1      23.749  25.200  28.028  1.00  0.00     0.278 C 
ENDBRANCH   1   7
BRANCH   2   9
ATOM      9  O   UNL     1      23.616  22.875  25.339  1.00  0.00    -0.504 OA
ATOM     10  H   UNL     1      22.793  23.467  25.340  1.00  0.00     0.293 HD
ENDBRANCH   2   9
BRANCH   5  11
ATOM     11  C   UNL     1      28.859  25.093  25.489  1.00  0.00     0.000 C 
ATOM     12  C   UNL     1      29.124  26.329  25.913  1.00  0.00     0.009 C 
ENDBRANCH   5  11
TORSDOF 3
ENDMDL
MODEL 7
REMARK VINA RESULT:    -2.103      6.452      8.106
REMARK INTER + INTRA:          -2.510
REMARK INTER:                  -2.425
REMARK INTRA:                  -0.085
REMARK UNBOUND:                -0.099
REMARK SMILES C=Cc1ccc(O)c(OC)c1
REMARK SMILES IDX 8 1 6 2 5 3 4 4 3 5 11 6 9 7 10 8 7 9 2 11 1 12
REMARK H PARENT 7 10
REMARK Flexibility Score: inf
ROOT
ATOM      1  C   UNL     1      22.928  25.884  28.052  1.00  0.00     0.161 A 
ATOM      2  C   UNL     1      21.875  25.005  27.769  1.00  0.00     0.157 A 
ATOM      3  C   UNL     1      22.144  23.686  27.384  1.00  0.00     0.051 A 
ATOM      4  C   UNL     1      23.462  23.239  27.275  1.00  0.00     0.012 A 
ATOM      5  C   UNL     1      24.536  24.109  27.541  1.00  0.00    -0.022 A 
ATOM      6  C   UNL     1      24.257  25.428  27.941  1.00  0.00     0.058 A 
ENDROOT
BRANCH   1   7
ATOM      7  O   UNL     1      22.617  27.197  28.440  1.00  0.00    -0.493 OA
ATOM      8  C   UNL     1      23.525  28.292  28.380  1.00  0.00     0.278 C 
ENDBRANCH   1   7
BRANCH   2   9
ATOM      9  O   UNL     1      20.558  25.450  27.877  1.00  0.00    -0.504 OA
ATOM     10  H   UNL     1      19.776  24.867  27.602  1.00  0.00     0.293 HD
ENDBRANCH   2   9
BRANCH   5  11
ATOM     11  C   UNL     1      25.954  23.681  27.449  1.00  0.00     0.000 C 
ATOM     12  C   UNL     1      26.484  23.064  26.393  1.00  0.00     0.009 C 
ENDBRANCH   5  11
TORSDOF 3
ENDMDL
MODEL 8
REMARK VINA RESULT:    -1.727     12.679     14.018
REMARK INTER + INTRA:          -2.079
REMARK INTER:                  -1.978
REMARK INTRA:                  -0.101
REMARK UNBOUND:                -0.099
REMARK SMILES C=Cc1ccc(O)c(OC)c1
REMARK SMILES IDX 8 1 6 2 5 3 4 4 3 5 11 6 9 7 10 8 7 9 2 11 1 12
REMARK H PARENT 7 10
REMARK Flexibility Score: inf
ROOT
ATOM      1  C   UNL     1      27.210  42.651  23.925  1.00  0.00     0.161 A 
ATOM      2  C   UNL     1      28.231  41.694  24.000  1.00  0.00     0.157 A 
ATOM      3  C   UNL     1      28.819  41.201  22.830  1.00  0.00     0.051 A 
ATOM      4  C   UNL     1      28.391  41.653  21.580  1.00  0.00     0.012 A 
ATOM      5  C   UNL     1      27.358  42.604  21.481  1.00  0.00    -0.022 A 
ATOM      6  C   UNL     1      26.781  43.105  22.662  1.00  0.00     0.058 A 
ENDROOT
BRANCH   1   7
ATOM      7  O   UNL     1      26.649  43.125  25.121  1.00  0.00    -0.493 OA
ATOM      8  C   UNL     1      25.255  43.123  25.415  1.00  0.00     0.278 C 
ENDBRANCH   1   7
BRANCH   2   9
ATOM      9  O   UNL     1      28.658  41.240  25.247  1.00  0.00    -0.504 OA
ATOM     10  H   UNL     1      28.346  40.352  25.624  1.00  0.00     0.293 HD
ENDBRANCH   2   9
BRANCH   5  11
ATOM     11  C   UNL     1      26.873  43.125  20.179  1.00  0.00     0.000 C 
ATOM     12  C   UNL     1      26.909  42.439  19.036  1.00  0.00     0.009 C 
ENDBRANCH   5  11
TORSDOF 3
ENDMDL
MODEL 9
REMARK VINA RESULT:    -1.673      5.181      6.918
REMARK INTER + INTRA:          -2.016
REMARK INTER:                  -1.936
REMARK INTRA:                  -0.081
REMARK UNBOUND:                -0.099
REMARK SMILES C=Cc1ccc(O)c(OC)c1
REMARK SMILES IDX 8 1 6 2 5 3 4 4 3 5 11 6 9 7 10 8 7 9 2 11 1 12
REMARK H PARENT 7 10
REMARK Flexibility Score: inf
ROOT
ATOM      1  C   UNL     1      24.603  23.212  25.708  1.00  0.00     0.161 A 
ATOM      2  C   UNL     1      24.310  23.220  27.078  1.00  0.00     0.157 A 
ATOM      3  C   UNL     1      25.301  23.556  28.007  1.00  0.00     0.051 A 
ATOM      4  C   UNL     1      26.590  23.881  27.577  1.00  0.00     0.012 A 
ATOM      5  C   UNL     1      26.909  23.867  26.206  1.00  0.00    -0.022 A 
ATOM      6  C   UNL     1      25.904  23.542  25.278  1.00  0.00     0.058 A 
ENDROOT
BRANCH   1   7
ATOM      7  O   UNL     1      23.581  22.875  24.807  1.00  0.00    -0.493 OA
ATOM      8  C   UNL     1      23.717  22.888  23.390  1.00  0.00     0.278 C 
ENDBRANCH   1   7
BRANCH   2   9
ATOM      9  O   UNL     1      23.025  22.894  27.509  1.00  0.00    -0.504 OA
ATOM     10  H   UNL     1      22.383  23.602  27.846  1.00  0.00     0.293 HD
ENDBRANCH   2   9
BRANCH   5  11
ATOM     11  C   UNL     1      28.259  24.214  25.697  1.00  0.00     0.000 C 
ATOM     12  C   UNL     1      28.804  25.428  25.780  1.00  0.00     0.009 C 
ENDBRANCH   5  11
TORSDOF 3
ENDMDL
