MODEL 1
REMARK VINA RESULT:    -4.134      0.000      0.000
REMARK INTER + INTRA:          -5.676
REMARK INTER:                  -5.342
REMARK INTRA:                  -0.334
REMARK UNBOUND:                -0.334
REMARK SMILES CCCCCCC=O
REMARK SMILES IDX 4 1 3 2 2 3 1 4 5 5 6 6 7 7 8 8
REMARK H PARENT
REMARK Flexibility Score: inf
ROOT
ATOM      1  C   UNL     1      13.006 -29.983 -22.093  1.00  0.00     0.000 C 
ENDROOT
BRANCH   1   2
ATOM      2  C   UNL     1      12.224 -28.755 -22.612  1.00  0.00    -0.000 C 
BRANCH   2   3
ATOM      3  C   UNL     1      10.790 -29.092 -23.060  1.00  0.00    -0.003 C 
ATOM      4  C   UNL     1      10.758 -30.157 -24.157  1.00  0.00     0.004 C 
ENDBRANCH   2   3
ENDBRANCH   1   2
BRANCH   1   5
ATOM      5  C   UNL     1      12.715 -30.318 -20.617  1.00  0.00     0.008 C 
BRANCH   5   6
ATOM      6  C   UNL     1      12.297 -31.778 -20.380  1.00  0.00     0.072 C 
BRANCH   6   7
ATOM      7  C   UNL     1      12.013 -32.502 -21.664  1.00  0.00     0.224 C 
ATOM      8  O   UNL     1      10.872 -32.824 -21.955  1.00  0.00    -0.303 OA
ENDBRANCH   6   7
ENDBRANCH   5   6
ENDBRANCH   1   5
TORSDOF 5
ENDMDL
MODEL 2
REMARK VINA RESULT:    -4.071      1.865      2.158
REMARK INTER + INTRA:          -5.596
REMARK INTER:                  -5.394
REMARK INTRA:                  -0.202
REMARK UNBOUND:                -0.334
REMARK SMILES CCCCCCC=O
REMARK SMILES IDX 4 1 3 2 2 3 1 4 5 5 6 6 7 7 8 8
REMARK H PARENT
REMARK Flexibility Score: inf
ROOT
ATOM      1  C   UNL     1      12.258 -31.069 -22.394  1.00  0.00     0.000 C 
ENDROOT
BRANCH   1   2
ATOM      2  C   UNL     1      11.898 -29.565 -22.360  1.00  0.00    -0.000 C 
BRANCH   2   3
ATOM      3  C   UNL     1      10.728 -29.199 -23.291  1.00  0.00    -0.003 C 
ATOM      4  C   UNL     1      10.488 -30.257 -24.367  1.00  0.00     0.004 C 
ENDBRANCH   2   3
ENDBRANCH   1   2
BRANCH   1   5
ATOM      5  C   UNL     1      11.592 -31.884 -21.268  1.00  0.00     0.008 C 
BRANCH   5   6
ATOM      6  C   UNL     1      12.546 -32.256 -20.121  1.00  0.00     0.072 C 
BRANCH   6   7
ATOM      7  C   UNL     1      12.618 -31.184 -19.073  1.00  0.00     0.224 C 
ATOM      8  O   UNL     1      13.489 -30.330 -19.120  1.00  0.00    -0.303 OA
ENDBRANCH   6   7
ENDBRANCH   5   6
ENDBRANCH   1   5
TORSDOF 5
ENDMDL
MODEL 3
REMARK VINA RESULT:    -4.067      1.457      3.422
REMARK INTER + INTRA:          -5.590
REMARK INTER:                  -5.331
REMARK INTRA:                  -0.259
REMARK UNBOUND:                -0.334
REMARK SMILES CCCCCCC=O
REMARK SMILES IDX 4 1 3 2 2 3 1 4 5 5 6 6 7 7 8 8
REMARK H PARENT
REMARK Flexibility Score: inf
ROOT
ATOM      1  C   UNL     1      12.740 -30.078 -22.131  1.00  0.00     0.000 C 
ENDROOT
BRANCH   1   2
ATOM      2  C   UNL     1      12.839 -30.194 -20.592  1.00  0.00    -0.000 C 
BRANCH   2   3
ATOM      3  C   UNL     1      12.513 -31.603 -20.066  1.00  0.00    -0.003 C 
ATOM      4  C   UNL     1      11.819 -32.470 -21.117  1.00  0.00     0.004 C 
ENDBRANCH   2   3
ENDBRANCH   1   2
BRANCH   1   5
ATOM      5  C   UNL     1      12.020 -28.800 -22.604  1.00  0.00     0.008 C 
BRANCH   5   6
ATOM      6  C   UNL     1      10.693 -29.066 -23.332  1.00  0.00     0.072 C 
BRANCH   6   7
ATOM      7  C   UNL     1      10.673 -30.409 -24.003  1.00  0.00     0.224 C 
ATOM      8  O   UNL     1      10.468 -30.498 -25.203  1.00  0.00    -0.303 OA
ENDBRANCH   6   7
ENDBRANCH   5   6
ENDBRANCH   1   5
TORSDOF 5
ENDMDL
MODEL 4
REMARK VINA RESULT:    -4.029      2.819      3.420
REMARK INTER + INTRA:          -5.541
REMARK INTER:                  -5.398
REMARK INTRA:                  -0.143
REMARK UNBOUND:                -0.334
REMARK SMILES CCCCCCC=O
REMARK SMILES IDX 4 1 3 2 2 3 1 4 5 5 6 6 7 7 8 8
REMARK H PARENT
REMARK Flexibility Score: inf
ROOT
ATOM      1  C   UNL     1      12.693 -29.842 -21.730  1.00  0.00     0.000 C 
ENDROOT
BRANCH   1   2
ATOM      2  C   UNL     1      11.950 -30.898 -22.579  1.00  0.00    -0.000 C 
BRANCH   2   3
ATOM      3  C   UNL     1      11.127 -30.286 -23.728  1.00  0.00    -0.003 C 
ATOM      4  C   UNL     1      10.521 -28.934 -23.352  1.00  0.00     0.004 C 
ENDBRANCH   2   3
ENDBRANCH   1   2
BRANCH   1   5
ATOM      5  C   UNL     1      12.831 -30.235 -20.246  1.00  0.00     0.008 C 
BRANCH   5   6
ATOM      6  C   UNL     1      13.757 -29.310 -19.440  1.00  0.00     0.072 C 
BRANCH   6   7
ATOM      7  C   UNL     1      14.447 -28.300 -20.310  1.00  0.00     0.224 C 
ATOM      8  O   UNL     1      15.577 -27.922 -20.045  1.00  0.00    -0.303 OA
ENDBRANCH   6   7
ENDBRANCH   5   6
ENDBRANCH   1   5
TORSDOF 5
ENDMDL
MODEL 5
REMARK VINA RESULT:    -3.975      1.794      4.085
REMARK INTER + INTRA:          -5.471
REMARK INTER:                  -5.241
REMARK INTRA:                  -0.230
REMARK UNBOUND:                -0.334
REMARK SMILES CCCCCCC=O
REMARK SMILES IDX 4 1 3 2 2 3 1 4 5 5 6 6 7 7 8 8
REMARK H PARENT
REMARK Flexibility Score: inf
ROOT
ATOM      1  C   UNL     1      12.215 -32.483 -21.352  1.00  0.00     0.000 C 
ENDROOT
BRANCH   1   2
ATOM      2  C   UNL     1      11.899 -32.440 -19.839  1.00  0.00    -0.000 C 
BRANCH   2   3
ATOM      3  C   UNL     1      13.053 -31.873 -18.993  1.00  0.00    -0.003 C 
ATOM      4  C   UNL     1      13.099 -30.345 -19.022  1.00  0.00     0.004 C 
ENDBRANCH   2   3
ENDBRANCH   1   2
BRANCH   1   5
ATOM      5  C   UNL     1      11.346 -31.523 -22.188  1.00  0.00     0.008 C 
BRANCH   5   6
ATOM      6  C   UNL     1      12.082 -30.251 -22.640  1.00  0.00     0.072 C 
BRANCH   6   7
ATOM      7  C   UNL     1      11.141 -29.107 -22.881  1.00  0.00     0.224 C 
ATOM      8  O   UNL     1      10.225 -29.216 -23.680  1.00  0.00    -0.303 OA
ENDBRANCH   6   7
ENDBRANCH   5   6
ENDBRANCH   1   5
TORSDOF 5
ENDMDL
MODEL 6
REMARK VINA RESULT:    -3.828      2.491      3.868
REMARK INTER + INTRA:          -5.281
REMARK INTER:                  -5.119
REMARK INTRA:                  -0.162
REMARK UNBOUND:                -0.334
REMARK SMILES CCCCCCC=O
REMARK SMILES IDX 4 1 3 2 2 3 1 4 5 5 6 6 7 7 8 8
REMARK H PARENT
REMARK Flexibility Score: inf
ROOT
ATOM      1  C   UNL     1      12.999 -29.982 -20.154  1.00  0.00     0.000 C 
ENDROOT
BRANCH   1   2
ATOM      2  C   UNL     1      13.881 -29.005 -19.344  1.00  0.00    -0.000 C 
BRANCH   2   3
ATOM      3  C   UNL     1      14.853 -28.193 -20.220  1.00  0.00    -0.003 C 
ATOM      4  C   UNL     1      14.588 -26.690 -20.141  1.00  0.00     0.004 C 
ENDBRANCH   2   3
ENDBRANCH   1   2
BRANCH   1   5
ATOM      5  C   UNL     1      12.965 -29.670 -21.663  1.00  0.00     0.008 C 
BRANCH   5   6
ATOM      6  C   UNL     1      12.137 -30.669 -22.487  1.00  0.00     0.072 C 
BRANCH   6   7
ATOM      7  C   UNL     1      11.151 -29.983 -23.388  1.00  0.00     0.224 C 
ATOM      8  O   UNL     1      10.715 -28.879 -23.101  1.00  0.00    -0.303 OA
ENDBRANCH   6   7
ENDBRANCH   5   6
ENDBRANCH   1   5
TORSDOF 5
ENDMDL
MODEL 7
REMARK VINA RESULT:    -3.764     12.782     14.378
REMARK INTER + INTRA:          -5.199
REMARK INTER:                  -4.859
REMARK INTRA:                  -0.340
REMARK UNBOUND:                -0.334
REMARK SMILES CCCCCCC=O
REMARK SMILES IDX 4 1 3 2 2 3 1 4 5 5 6 6 7 7 8 8
REMARK H PARENT
REMARK Flexibility Score: inf
ROOT
ATOM      1  C   UNL     1      11.041 -31.334 -35.043  1.00  0.00     0.000 C 
ENDROOT
BRANCH   1   2
ATOM      2  C   UNL     1      11.865 -30.501 -34.035  1.00  0.00    -0.000 C 
BRANCH   2   3
ATOM      3  C   UNL     1      13.154 -29.915 -34.640  1.00  0.00    -0.003 C 
ATOM      4  C   UNL     1      12.974 -28.469 -35.102  1.00  0.00     0.004 C 
ENDBRANCH   2   3
ENDBRANCH   1   2
BRANCH   1   5
ATOM      5  C   UNL     1       9.880 -30.548 -35.684  1.00  0.00     0.008 C 
BRANCH   5   6
ATOM      6  C   UNL     1       9.873 -30.592 -37.221  1.00  0.00     0.072 C 
BRANCH   6   7
ATOM      7  C   UNL     1      10.663 -29.468 -37.824  1.00  0.00     0.224 C 
ATOM      8  O   UNL     1      11.722 -29.689 -38.390  1.00  0.00    -0.303 OA
ENDBRANCH   6   7
ENDBRANCH   5   6
ENDBRANCH   1   5
TORSDOF 5
ENDMDL
MODEL 8
REMARK VINA RESULT:    -3.699     13.283     15.100
REMARK INTER + INTRA:          -5.115
REMARK INTER:                  -4.725
REMARK INTRA:                  -0.390
REMARK UNBOUND:                -0.334
REMARK SMILES CCCCCCC=O
REMARK SMILES IDX 4 1 3 2 2 3 1 4 5 5 6 6 7 7 8 8
REMARK H PARENT
REMARK Flexibility Score: inf
ROOT
ATOM      1  C   UNL     1      10.323 -31.432 -36.860  1.00  0.00     0.000 C 
ENDROOT
BRANCH   1   2
ATOM      2  C   UNL     1       9.957 -30.942 -38.280  1.00  0.00    -0.000 C 
BRANCH   2   3
ATOM      3  C   UNL     1       9.473 -29.480 -38.314  1.00  0.00    -0.003 C 
ATOM      4  C   UNL     1      10.478 -28.551 -38.994  1.00  0.00     0.004 C 
ENDBRANCH   2   3
ENDBRANCH   1   2
BRANCH   1   5
ATOM      5  C   UNL     1       9.989 -30.411 -35.754  1.00  0.00     0.008 C 
BRANCH   5   6
ATOM      6  C   UNL     1      11.207 -29.962 -34.933  1.00  0.00     0.072 C 
BRANCH   6   7
ATOM      7  C   UNL     1      11.921 -28.802 -35.564  1.00  0.00     0.224 C 
ATOM      8  O   UNL     1      12.888 -28.988 -36.286  1.00  0.00    -0.303 OA
ENDBRANCH   6   7
ENDBRANCH   5   6
ENDBRANCH   1   5
TORSDOF 5
ENDMDL
MODEL 9
REMARK VINA RESULT:    -3.678     13.284     14.590
REMARK INTER + INTRA:          -5.087
REMARK INTER:                  -4.706
REMARK INTRA:                  -0.381
REMARK UNBOUND:                -0.334
REMARK SMILES CCCCCCC=O
REMARK SMILES IDX 4 1 3 2 2 3 1 4 5 5 6 6 7 7 8 8
REMARK H PARENT
REMARK Flexibility Score: inf
ROOT
ATOM      1  C   UNL     1      12.124 -30.100 -34.623  1.00  0.00     0.000 C 
ENDROOT
BRANCH   1   2
ATOM      2  C   UNL     1      11.080 -31.174 -35.006  1.00  0.00    -0.000 C 
BRANCH   2   3
ATOM      3  C   UNL     1       9.941 -30.628 -35.885  1.00  0.00    -0.003 C 
ATOM      4  C   UNL     1       9.868 -31.327 -37.243  1.00  0.00     0.004 C 
ENDBRANCH   2   3
ENDBRANCH   1   2
BRANCH   1   5
ATOM      5  C   UNL     1      11.893 -28.744 -35.318  1.00  0.00     0.008 C 
BRANCH   5   6
ATOM      6  C   UNL     1      12.984 -28.372 -36.336  1.00  0.00     0.072 C 
BRANCH   6   7
ATOM      7  C   UNL     1      12.580 -28.697 -37.745  1.00  0.00     0.224 C 
ATOM      8  O   UNL     1      11.505 -28.321 -38.183  1.00  0.00    -0.303 OA
ENDBRANCH   6   7
ENDBRANCH   5   6
ENDBRANCH   1   5
TORSDOF 5
ENDMDL
