MODEL 1
REMARK VINA RESULT:     0.000      0.000      0.000
REMARK INTER + INTRA:          -0.517
REMARK INTER:                   0.000
REMARK INTRA:                  -0.517
REMARK UNBOUND:                -0.517
REMARK SMILES NC(=O)C[C@H]([NH3+])C(=O)[O-]
REMARK SMILES IDX 4 1 5 2 6 3 7 7 8 8 9 9 2 10 3 11 1 12
REMARK H PARENT 6 4 6 5 6 6 1 13 1 14
REMARK Flexibility Score: inf
ROOT
ATOM      1  C   UNL     1       1.295  14.992 -42.816  1.00  0.00     0.171 C 
ENDROOT
BRANCH   1   2
ATOM      2  C   UNL     1       1.572  16.508 -42.762  1.00  0.00     0.237 C 
BRANCH   2   3
ATOM      3  N   UNL     1       2.393  16.921 -43.906  1.00  0.00    -0.350 N 
ATOM      4  H   UNL     1       1.868  17.613 -44.487  1.00  0.00     0.345 HD
ATOM      5  H   UNL     1       2.643  16.095 -44.499  1.00  0.00     0.345 HD
ATOM      6  H   UNL     1       3.270  17.378 -43.565  1.00  0.00     0.345 HD
ENDBRANCH   2   3
BRANCH   2   7
ATOM      7  C   UNL     1       2.255  16.885 -41.472  1.00  0.00     0.100 C 
ATOM      8  O   UNL     1       1.624  17.510 -40.581  1.00  0.00    -0.544 OA
ATOM      9  O   UNL     1       3.583  16.535 -41.254  1.00  0.00    -0.544 OA
ENDBRANCH   2   7
ENDBRANCH   1   2
BRANCH   1  10
ATOM     10  C   UNL     1       2.385  14.256 -43.540  1.00  0.00     0.223 C 
ATOM     11  O   UNL     1       2.304  14.081 -44.785  1.00  0.00    -0.275 OA
ATOM     12  N   UNL     1       3.530  13.783 -42.831  1.00  0.00    -0.369 N 
ATOM     13  H   UNL     1       3.620  13.935 -41.802  1.00  0.00     0.159 HD
ATOM     14  H   UNL     1       4.294  13.283 -43.338  1.00  0.00     0.159 HD
ENDBRANCH   1  10
TORSDOF 4
ENDMDL
MODEL 2
REMARK VINA RESULT:     0.000      2.058      2.208
REMARK INTER + INTRA:          -0.517
REMARK INTER:                   0.000
REMARK INTRA:                  -0.517
REMARK UNBOUND:                -0.517
REMARK SMILES NC(=O)C[C@H]([NH3+])C(=O)[O-]
REMARK SMILES IDX 4 1 5 2 6 3 7 7 8 8 9 9 2 10 3 11 1 12
REMARK H PARENT 6 4 6 5 6 6 1 13 1 14
REMARK Flexibility Score: inf
ROOT
ATOM      1  C   UNL     1      -0.131  14.610 -42.516  1.00  0.00     0.171 C 
ENDROOT
BRANCH   1   2
ATOM      2  C   UNL     1      -0.562  15.967 -41.924  1.00  0.00     0.237 C 
BRANCH   2   3
ATOM      3  N   UNL     1      -0.726  16.962 -42.990  1.00  0.00    -0.350 N 
ATOM      4  H   UNL     1      -1.716  17.301 -43.009  1.00  0.00     0.345 HD
ATOM      5  H   UNL     1      -0.488  16.550 -43.921  1.00  0.00     0.345 HD
ATOM      6  H   UNL     1      -0.103  17.783 -42.807  1.00  0.00     0.345 HD
ENDBRANCH   2   3
BRANCH   2   7
ATOM      7  C   UNL     1       0.443  16.455 -40.911  1.00  0.00     0.100 C 
ATOM      8  O   UNL     1       0.164  16.438 -39.684  1.00  0.00    -0.544 OA
ATOM      9  O   UNL     1       1.687  16.918 -41.325  1.00  0.00    -0.544 OA
ENDBRANCH   2   7
ENDBRANCH   1   2
BRANCH   1  10
ATOM     10  C   UNL     1       0.620  14.781 -43.804  1.00  0.00     0.223 C 
ATOM     11  O   UNL     1      -0.005  14.798 -44.898  1.00  0.00    -0.275 OA
ATOM     12  N   UNL     1       2.036  14.959 -43.795  1.00  0.00    -0.369 N 
ATOM     13  H   UNL     1       2.567  14.964 -42.896  1.00  0.00     0.159 HD
ATOM     14  H   UNL     1       2.556  15.092 -44.691  1.00  0.00     0.159 HD
ENDBRANCH   1  10
TORSDOF 4
ENDMDL
MODEL 3
REMARK VINA RESULT:     0.000      4.856      5.494
REMARK INTER + INTRA:          -0.517
REMARK INTER:                   0.000
REMARK INTRA:                  -0.517
REMARK UNBOUND:                -0.517
REMARK SMILES NC(=O)C[C@H]([NH3+])C(=O)[O-]
REMARK SMILES IDX 4 1 5 2 6 3 7 7 8 8 9 9 2 10 3 11 1 12
REMARK H PARENT 6 4 6 5 6 6 1 13 1 14
REMARK Flexibility Score: inf
ROOT
ATOM      1  C   UNL     1       5.517  12.387 -44.509  1.00  0.00     0.171 C 
ENDROOT
BRANCH   1   2
ATOM      2  C   UNL     1       5.560  13.913 -44.723  1.00  0.00     0.237 C 
BRANCH   2   3
ATOM      3  N   UNL     1       4.565  14.320 -45.722  1.00  0.00    -0.350 N 
ATOM      4  H   UNL     1       3.812  13.597 -45.786  1.00  0.00     0.345 HD
ATOM      5  H   UNL     1       5.010  14.434 -46.663  1.00  0.00     0.345 HD
ATOM      6  H   UNL     1       4.126  15.225 -45.437  1.00  0.00     0.345 HD
ENDBRANCH   2   3
BRANCH   2   7
ATOM      7  C   UNL     1       6.936  14.357 -45.153  1.00  0.00     0.100 C 
ATOM      8  O   UNL     1       7.676  14.986 -44.354  1.00  0.00    -0.544 OA
ATOM      9  O   UNL     1       7.398  14.065 -46.432  1.00  0.00    -0.544 OA
ENDBRANCH   2   7
ENDBRANCH   1   2
BRANCH   1  10
ATOM     10  C   UNL     1       5.025  11.670 -45.733  1.00  0.00     0.223 C 
ATOM     11  O   UNL     1       3.794  11.451 -45.880  1.00  0.00    -0.275 OA
ATOM     12  N   UNL     1       5.943  11.264 -46.748  1.00  0.00    -0.369 N 
ATOM     13  H   UNL     1       6.965  11.452 -46.648  1.00  0.00     0.159 HD
ATOM     14  H   UNL     1       5.599  10.777 -47.606  1.00  0.00     0.159 HD
ENDBRANCH   1  10
TORSDOF 4
ENDMDL
MODEL 4
REMARK VINA RESULT:     0.000     10.317     11.199
REMARK INTER + INTRA:          -0.517
REMARK INTER:                   0.000
REMARK INTRA:                  -0.517
REMARK UNBOUND:                -0.517
REMARK SMILES NC(=O)C[C@H]([NH3+])C(=O)[O-]
REMARK SMILES IDX 4 1 5 2 6 3 7 7 8 8 9 9 2 10 3 11 1 12
REMARK H PARENT 6 4 6 5 6 6 1 13 1 14
REMARK Flexibility Score: inf
ROOT
ATOM      1  C   UNL     1       9.176  25.207 -42.766  1.00  0.00     0.171 C 
ENDROOT
BRANCH   1   2
ATOM      2  C   UNL     1       7.885  26.043 -42.645  1.00  0.00     0.237 C 
BRANCH   2   3
ATOM      3  N   UNL     1       7.286  25.872 -41.317  1.00  0.00    -0.350 N 
ATOM      4  H   UNL     1       7.983  26.124 -40.579  1.00  0.00     0.345 HD
ATOM      5  H   UNL     1       6.978  24.882 -41.174  1.00  0.00     0.345 HD
ATOM      6  H   UNL     1       6.460  26.507 -41.217  1.00  0.00     0.345 HD
ENDBRANCH   2   3
BRANCH   2   7
ATOM      7  C   UNL     1       6.893  25.657 -43.713  1.00  0.00     0.100 C 
ATOM      8  O   UNL     1       6.669  26.434 -44.678  1.00  0.00    -0.544 OA
ATOM      9  O   UNL     1       6.228  24.438 -43.645  1.00  0.00    -0.544 OA
ENDBRANCH   2   7
ENDBRANCH   1   2
BRANCH   1  10
ATOM     10  C   UNL     1       9.143  24.006 -41.865  1.00  0.00     0.223 C 
ATOM     11  O   UNL     1       9.585  24.092 -40.689  1.00  0.00    -0.275 OA
ATOM     12  N   UNL     1       8.584  22.776 -42.323  1.00  0.00    -0.369 N 
ATOM     13  H   UNL     1       8.199  22.693 -43.291  1.00  0.00     0.159 HD
ATOM     14  H   UNL     1       8.550  21.945 -41.692  1.00  0.00     0.159 HD
ENDBRANCH   1  10
TORSDOF 4
ENDMDL
MODEL 5
REMARK VINA RESULT:     0.000      7.704      8.891
REMARK INTER + INTRA:          -0.517
REMARK INTER:                   0.000
REMARK INTRA:                  -0.517
REMARK UNBOUND:                -0.517
REMARK SMILES NC(=O)C[C@H]([NH3+])C(=O)[O-]
REMARK SMILES IDX 4 1 5 2 6 3 7 7 8 8 9 9 2 10 3 11 1 12
REMARK H PARENT 6 4 6 5 6 6 1 13 1 14
REMARK Flexibility Score: inf
ROOT
ATOM      1  C   UNL     1      -1.582  13.364 -51.035  1.00  0.00     0.171 C 
ENDROOT
BRANCH   1   2
ATOM      2  C   UNL     1      -1.003  13.070 -49.637  1.00  0.00     0.237 C 
BRANCH   2   3
ATOM      3  N   UNL     1      -1.712  13.848 -48.614  1.00  0.00    -0.350 N 
ATOM      4  H   UNL     1      -1.101  14.624 -48.272  1.00  0.00     0.345 HD
ATOM      5  H   UNL     1      -1.978  13.240 -47.805  1.00  0.00     0.345 HD
ATOM      6  H   UNL     1      -2.576  14.270 -49.026  1.00  0.00     0.345 HD
ENDBRANCH   2   3
BRANCH   2   7
ATOM      7  C   UNL     1       0.472  13.378 -49.590  1.00  0.00     0.100 C 
ATOM      8  O   UNL     1       1.313  12.443 -49.547  1.00  0.00    -0.544 OA
ATOM      9  O   UNL     1       0.913  14.697 -49.604  1.00  0.00    -0.544 OA
ENDBRANCH   2   7
ENDBRANCH   1   2
BRANCH   1  10
ATOM     10  C   UNL     1      -2.184  14.738 -51.107  1.00  0.00     0.223 C 
ATOM     11  O   UNL     1      -3.399  14.906 -50.823  1.00  0.00    -0.275 OA
ATOM     12  N   UNL     1      -1.377  15.861 -51.464  1.00  0.00    -0.369 N 
ATOM     13  H   UNL     1      -0.365  15.739 -51.687  1.00  0.00     0.159 HD
ATOM     14  H   UNL     1      -1.793  16.818 -51.501  1.00  0.00     0.159 HD
ENDBRANCH   1  10
TORSDOF 4
ENDMDL
MODEL 6
REMARK VINA RESULT:     0.000      4.851      5.971
REMARK INTER + INTRA:          -0.517
REMARK INTER:                   0.000
REMARK INTRA:                  -0.517
REMARK UNBOUND:                -0.517
REMARK SMILES NC(=O)C[C@H]([NH3+])C(=O)[O-]
REMARK SMILES IDX 4 1 5 2 6 3 7 7 8 8 9 9 2 10 3 11 1 12
REMARK H PARENT 6 4 6 5 6 6 1 13 1 14
REMARK Flexibility Score: inf
ROOT
ATOM      1  C   UNL     1       8.038  17.369 -42.845  1.00  0.00     0.171 C 
ENDROOT
BRANCH   1   2
ATOM      2  C   UNL     1       7.148  16.608 -43.848  1.00  0.00     0.237 C 
BRANCH   2   3
ATOM      3  N   UNL     1       5.806  17.199 -43.893  1.00  0.00    -0.350 N 
ATOM      4  H   UNL     1       5.120  16.494 -44.248  1.00  0.00     0.345 HD
ATOM      5  H   UNL     1       5.791  18.036 -44.521  1.00  0.00     0.345 HD
ATOM      6  H   UNL     1       5.512  17.486 -42.931  1.00  0.00     0.345 HD
ENDBRANCH   2   3
BRANCH   2   7
ATOM      7  C   UNL     1       7.058  15.147 -43.487  1.00  0.00     0.100 C 
ATOM      8  O   UNL     1       7.655  14.285 -44.182  1.00  0.00    -0.544 OA
ATOM      9  O   UNL     1       6.323  14.744 -42.378  1.00  0.00    -0.544 OA
ENDBRANCH   2   7
ENDBRANCH   1   2
BRANCH   1  10
ATOM     10  C   UNL     1       7.224  18.008 -41.756  1.00  0.00     0.223 C 
ATOM     11  O   UNL     1       6.790  19.181 -41.905  1.00  0.00    -0.275 OA
ATOM     12  N   UNL     1       6.912  17.282 -40.568  1.00  0.00    -0.369 N 
ATOM     13  H   UNL     1       7.252  16.303 -40.437  1.00  0.00     0.159 HD
ATOM     14  H   UNL     1       6.335  17.722 -39.818  1.00  0.00     0.159 HD
ENDBRANCH   1  10
TORSDOF 4
ENDMDL
MODEL 7
REMARK VINA RESULT:     0.000      6.232      7.407
REMARK INTER + INTRA:          -0.517
REMARK INTER:                   0.000
REMARK INTRA:                  -0.517
REMARK UNBOUND:                -0.517
REMARK SMILES NC(=O)C[C@H]([NH3+])C(=O)[O-]
REMARK SMILES IDX 4 1 5 2 6 3 7 7 8 8 9 9 2 10 3 11 1 12
REMARK H PARENT 6 4 6 5 6 6 1 13 1 14
REMARK Flexibility Score: inf
ROOT
ATOM      1  C   UNL     1       5.351  12.483 -47.531  1.00  0.00     0.171 C 
ENDROOT
BRANCH   1   2
ATOM      2  C   UNL     1       4.502  11.755 -46.469  1.00  0.00     0.237 C 
BRANCH   2   3
ATOM      3  N   UNL     1       5.123  10.478 -46.103  1.00  0.00    -0.350 N 
ATOM      4  H   UNL     1       5.973  10.316 -46.690  1.00  0.00     0.345 HD
ATOM      5  H   UNL     1       4.453   9.686 -46.245  1.00  0.00     0.345 HD
ATOM      6  H   UNL     1       5.419  10.502 -45.099  1.00  0.00     0.345 HD
ENDBRANCH   2   3
BRANCH   2   7
ATOM      7  C   UNL     1       3.098  11.524 -46.968  1.00  0.00     0.100 C 
ATOM      8  O   UNL     1       2.142  12.194 -46.500  1.00  0.00    -0.544 OA
ATOM      9  O   UNL     1       2.853  10.576 -47.956  1.00  0.00    -0.544 OA
ENDBRANCH   2   7
ENDBRANCH   1   2
BRANCH   1  10
ATOM     10  C   UNL     1       6.140  11.516 -48.365  1.00  0.00     0.223 C 
ATOM     11  O   UNL     1       7.299  11.178 -48.006  1.00  0.00    -0.275 OA
ATOM     12  N   UNL     1       5.572  10.951 -49.546  1.00  0.00    -0.369 N 
ATOM     13  H   UNL     1       4.607  11.210 -49.849  1.00  0.00     0.159 HD
ATOM     14  H   UNL     1       6.117  10.269 -50.119  1.00  0.00     0.159 HD
ENDBRANCH   1  10
TORSDOF 4
ENDMDL
MODEL 8
REMARK VINA RESULT:     0.000      7.061      7.917
REMARK INTER + INTRA:          -0.517
REMARK INTER:                   0.000
REMARK INTRA:                  -0.517
REMARK UNBOUND:                -0.517
REMARK SMILES NC(=O)C[C@H]([NH3+])C(=O)[O-]
REMARK SMILES IDX 4 1 5 2 6 3 7 7 8 8 9 9 2 10 3 11 1 12
REMARK H PARENT 6 4 6 5 6 6 1 13 1 14
REMARK Flexibility Score: inf
ROOT
ATOM      1  C   UNL     1      -1.738  12.321 -49.300  1.00  0.00     0.171 C 
ENDROOT
BRANCH   1   2
ATOM      2  C   UNL     1      -2.194  11.756 -47.940  1.00  0.00     0.237 C 
BRANCH   2   3
ATOM      3  N   UNL     1      -2.738  12.826 -47.097  1.00  0.00    -0.350 N 
ATOM      4  H   UNL     1      -1.968  13.270 -46.546  1.00  0.00     0.345 HD
ATOM      5  H   UNL     1      -3.456  12.448 -46.435  1.00  0.00     0.345 HD
ATOM      6  H   UNL     1      -3.177  13.562 -47.697  1.00  0.00     0.345 HD
ENDBRANCH   2   3
BRANCH   2   7
ATOM      7  C   UNL     1      -1.053  11.070 -47.233  1.00  0.00     0.100 C 
ATOM      8  O   UNL     1      -1.029   9.814 -47.142  1.00  0.00    -0.544 OA
ATOM      9  O   UNL     1      -0.017  11.817 -46.686  1.00  0.00    -0.544 OA
ENDBRANCH   2   7
ENDBRANCH   1   2
BRANCH   1  10
ATOM     10  C   UNL     1      -1.344  13.766 -49.195  1.00  0.00     0.223 C 
ATOM     11  O   UNL     1      -2.207  14.666 -49.372  1.00  0.00    -0.275 OA
ATOM     12  N   UNL     1      -0.003  14.125 -48.862  1.00  0.00    -0.369 N 
ATOM     13  H   UNL     1       0.720  13.390 -48.696  1.00  0.00     0.159 HD
ATOM     14  H   UNL     1       0.267  15.130 -48.776  1.00  0.00     0.159 HD
ENDBRANCH   1  10
TORSDOF 4
ENDMDL
MODEL 9
REMARK VINA RESULT:     0.001      3.260      4.625
REMARK INTER + INTRA:          -0.516
REMARK INTER:                   0.000
REMARK INTRA:                  -0.516
REMARK UNBOUND:                -0.517
REMARK SMILES NC(=O)C[C@H]([NH3+])C(=O)[O-]
REMARK SMILES IDX 4 1 5 2 6 3 7 7 8 8 9 9 2 10 3 11 1 12
REMARK H PARENT 6 4 6 5 6 6 1 13 1 14
REMARK Flexibility Score: inf
ROOT
ATOM      1  C   UNL     1       0.694  18.395 -43.355  1.00  0.00     0.171 C 
ENDROOT
BRANCH   1   2
ATOM      2  C   UNL     1       1.770  17.968 -42.335  1.00  0.00     0.237 C 
BRANCH   2   3
ATOM      3  N   UNL     1       1.901  18.976 -41.277  1.00  0.00    -0.350 N 
ATOM      4  H   UNL     1       1.757  19.931 -41.677  1.00  0.00     0.345 HD
ATOM      5  H   UNL     1       2.849  18.929 -40.836  1.00  0.00     0.345 HD
ATOM      6  H   UNL     1       1.172  18.815 -40.543  1.00  0.00     0.345 HD
ENDBRANCH   2   3
BRANCH   2   7
ATOM      7  C   UNL     1       3.099  17.754 -43.013  1.00  0.00     0.100 C 
ATOM      8  O   UNL     1       3.550  16.590 -43.169  1.00  0.00    -0.544 OA
ATOM      9  O   UNL     1       3.831  18.841 -43.479  1.00  0.00    -0.544 OA
ENDBRANCH   2   7
ENDBRANCH   1   2
BRANCH   1  10
ATOM     10  C   UNL     1       0.552  19.888 -43.416  1.00  0.00     0.223 C 
ATOM     11  O   UNL     1      -0.268  20.472 -42.658  1.00  0.00    -0.275 OA
ATOM     12  N   UNL     1       1.363  20.654 -44.306  1.00  0.00    -0.369 N 
ATOM     13  H   UNL     1       2.058  20.187 -44.929  1.00  0.00     0.159 HD
ATOM     14  H   UNL     1       1.273  21.694 -44.339  1.00  0.00     0.159 HD
ENDBRANCH   1  10
TORSDOF 4
ENDMDL
