MODEL 1
REMARK VINA RESULT:    -3.322      0.000      0.000
REMARK INTER + INTRA:          -3.976
REMARK INTER:                  -3.905
REMARK INTRA:                  -0.071
REMARK UNBOUND:                -0.071
REMARK SMILES CCCCC(=O)[O-]
REMARK SMILES IDX 4 1 5 2 6 3 7 4 3 5 2 6 1 7
REMARK H PARENT
REMARK Flexibility Score: inf
ROOT
ATOM      1  C   UNL     1      -1.024 -14.721 -27.836  1.00  0.00     0.053 C 
ENDROOT
BRANCH   1   2
ATOM      2  C   UNL     1      -1.530 -15.095 -26.479  1.00  0.00     0.041 C 
ATOM      3  O   UNL     1      -1.384 -14.306 -25.508  1.00  0.00    -0.550 OA
ATOM      4  O   UNL     1      -2.119 -16.337 -26.275  1.00  0.00    -0.550 OA
ENDBRANCH   1   2
BRANCH   1   5
ATOM      5  C   UNL     1      -1.306 -13.243 -28.125  1.00  0.00     0.006 C 
BRANCH   5   6
ATOM      6  C   UNL     1      -0.009 -12.427 -28.124  1.00  0.00    -0.003 C 
ATOM      7  C   UNL     1      -0.197 -11.092 -27.407  1.00  0.00     0.004 C 
ENDBRANCH   5   6
ENDBRANCH   1   5
TORSDOF 3
ENDMDL
MODEL 2
REMARK VINA RESULT:    -3.218      1.236      1.369
REMARK INTER + INTRA:          -3.854
REMARK INTER:                  -3.816
REMARK INTRA:                  -0.038
REMARK UNBOUND:                -0.071
REMARK SMILES CCCCC(=O)[O-]
REMARK SMILES IDX 4 1 5 2 6 3 7 4 3 5 2 6 1 7
REMARK H PARENT
REMARK Flexibility Score: inf
ROOT
ATOM      1  C   UNL     1      -1.386 -14.295 -26.247  1.00  0.00     0.053 C 
ENDROOT
BRANCH   1   2
ATOM      2  C   UNL     1      -1.369 -15.742 -26.628  1.00  0.00     0.041 C 
ATOM      3  O   UNL     1      -0.707 -16.126 -27.628  1.00  0.00    -0.550 OA
ATOM      4  O   UNL     1      -2.125 -16.659 -25.909  1.00  0.00    -0.550 OA
ENDBRANCH   1   2
BRANCH   1   5
ATOM      5  C   UNL     1      -1.804 -13.430 -27.440  1.00  0.00     0.006 C 
BRANCH   5   6
ATOM      6  C   UNL     1      -0.608 -12.653 -28.000  1.00  0.00    -0.003 C 
ATOM      7  C   UNL     1      -0.510 -11.264 -27.374  1.00  0.00     0.004 C 
ENDBRANCH   5   6
ENDBRANCH   1   5
TORSDOF 3
ENDMDL
MODEL 3
REMARK VINA RESULT:    -3.204      1.783      3.426
REMARK INTER + INTRA:          -3.837
REMARK INTER:                  -3.792
REMARK INTRA:                  -0.045
REMARK UNBOUND:                -0.071
REMARK SMILES CCCCC(=O)[O-]
REMARK SMILES IDX 4 1 5 2 6 3 7 4 3 5 2 6 1 7
REMARK H PARENT
REMARK Flexibility Score: inf
ROOT
ATOM      1  C   UNL     1      -0.770 -13.425 -28.042  1.00  0.00     0.053 C 
ENDROOT
BRANCH   1   2
ATOM      2  C   UNL     1      -0.996 -12.421 -26.956  1.00  0.00     0.041 C 
ATOM      3  O   UNL     1      -0.384 -11.321 -26.971  1.00  0.00    -0.550 OA
ATOM      4  O   UNL     1      -1.847 -12.722 -25.899  1.00  0.00    -0.550 OA
ENDBRANCH   1   2
BRANCH   1   5
ATOM      5  C   UNL     1      -1.753 -14.592 -27.908  1.00  0.00     0.006 C 
BRANCH   5   6
ATOM      6  C   UNL     1      -1.122 -15.755 -27.136  1.00  0.00    -0.003 C 
ATOM      7  C   UNL     1      -2.054 -16.258 -26.036  1.00  0.00     0.004 C 
ENDBRANCH   5   6
ENDBRANCH   1   5
TORSDOF 3
ENDMDL
MODEL 4
REMARK VINA RESULT:    -3.180      2.086      2.962
REMARK INTER + INTRA:          -3.809
REMARK INTER:                  -3.782
REMARK INTRA:                  -0.027
REMARK UNBOUND:                -0.071
REMARK SMILES CCCCC(=O)[O-]
REMARK SMILES IDX 4 1 5 2 6 3 7 4 3 5 2 6 1 7
REMARK H PARENT
REMARK Flexibility Score: inf
ROOT
ATOM      1  C   UNL     1      -1.113 -16.611 -26.604  1.00  0.00     0.053 C 
ENDROOT
BRANCH   1   2
ATOM      2  C   UNL     1      -1.287 -17.800 -25.712  1.00  0.00     0.041 C 
ATOM      3  O   UNL     1      -2.125 -17.770 -24.773  1.00  0.00    -0.550 OA
ATOM      4  O   UNL     1      -0.488 -18.923 -25.888  1.00  0.00    -0.550 OA
ENDBRANCH   1   2
BRANCH   1   5
ATOM      5  C   UNL     1      -2.125 -15.518 -26.245  1.00  0.00     0.006 C 
BRANCH   5   6
ATOM      6  C   UNL     1      -2.120 -14.400 -27.292  1.00  0.00    -0.003 C 
ATOM      7  C   UNL     1      -0.744 -13.748 -27.398  1.00  0.00     0.004 C 
ENDBRANCH   5   6
ENDBRANCH   1   5
TORSDOF 3
ENDMDL
MODEL 5
REMARK VINA RESULT:    -2.778      2.905      3.903
REMARK INTER + INTRA:          -3.337
REMARK INTER:                  -3.318
REMARK INTRA:                  -0.019
REMARK UNBOUND:                -0.071
REMARK SMILES CCCCC(=O)[O-]
REMARK SMILES IDX 4 1 5 2 6 3 7 4 3 5 2 6 1 7
REMARK H PARENT
REMARK Flexibility Score: inf
ROOT
ATOM      1  C   UNL     1      -1.539 -17.641 -25.601  1.00  0.00     0.053 C 
ENDROOT
BRANCH   1   2
ATOM      2  C   UNL     1      -0.674 -18.830 -25.879  1.00  0.00     0.041 C 
ATOM      3  O   UNL     1       0.550 -18.677 -26.135  1.00  0.00    -0.550 OA
ATOM      4  O   UNL     1      -1.229 -20.103 -25.904  1.00  0.00    -0.550 OA
ENDBRANCH   1   2
BRANCH   1   5
ATOM      5  C   UNL     1      -1.193 -16.492 -26.553  1.00  0.00     0.006 C 
BRANCH   5   6
ATOM      6  C   UNL     1      -2.125 -15.296 -26.330  1.00  0.00    -0.003 C 
ATOM      7  C   UNL     1      -1.386 -13.975 -26.531  1.00  0.00     0.004 C 
ENDBRANCH   5   6
ENDBRANCH   1   5
TORSDOF 3
ENDMDL
MODEL 6
REMARK VINA RESULT:    -2.712      2.145      4.325
REMARK INTER + INTRA:          -3.259
REMARK INTER:                  -3.237
REMARK INTRA:                  -0.022
REMARK UNBOUND:                -0.071
REMARK SMILES CCCCC(=O)[O-]
REMARK SMILES IDX 4 1 5 2 6 3 7 4 3 5 2 6 1 7
REMARK H PARENT
REMARK Flexibility Score: inf
ROOT
ATOM      1  C   UNL     1      -1.936 -14.682 -26.418  1.00  0.00     0.053 C 
ENDROOT
BRANCH   1   2
ATOM      2  C   UNL     1      -0.982 -13.714 -27.041  1.00  0.00     0.041 C 
ATOM      3  O   UNL     1      -0.114 -14.117 -27.860  1.00  0.00    -0.550 OA
ATOM      4  O   UNL     1      -1.017 -12.372 -26.680  1.00  0.00    -0.550 OA
ENDBRANCH   1   2
BRANCH   1   5
ATOM      5  C   UNL     1      -1.439 -16.119 -26.601  1.00  0.00     0.006 C 
BRANCH   5   6
ATOM      6  C   UNL     1      -2.104 -17.063 -25.594  1.00  0.00    -0.003 C 
ATOM      7  C   UNL     1      -1.386 -18.409 -25.540  1.00  0.00     0.004 C 
ENDBRANCH   5   6
ENDBRANCH   1   5
TORSDOF 3
ENDMDL
MODEL 7
REMARK VINA RESULT:    -2.569      2.630      3.884
REMARK INTER + INTRA:          -3.090
REMARK INTER:                  -3.041
REMARK INTRA:                  -0.049
REMARK UNBOUND:                -0.071
REMARK SMILES CCCCC(=O)[O-]
REMARK SMILES IDX 4 1 5 2 6 3 7 4 3 5 2 6 1 7
REMARK H PARENT
REMARK Flexibility Score: inf
ROOT
ATOM      1  C   UNL     1      -0.595 -13.193 -27.741  1.00  0.00     0.053 C 
ENDROOT
BRANCH   1   2
ATOM      2  C   UNL     1      -0.220 -11.753 -27.588  1.00  0.00     0.041 C 
ATOM      3  O   UNL     1      -1.003 -10.951 -27.015  1.00  0.00    -0.550 OA
ATOM      4  O   UNL     1       0.975 -11.286 -28.123  1.00  0.00    -0.550 OA
ENDBRANCH   1   2
BRANCH   1   5
ATOM      5  C   UNL     1      -1.948 -13.468 -27.077  1.00  0.00     0.006 C 
BRANCH   5   6
ATOM      6  C   UNL     1      -1.949 -14.833 -26.379  1.00  0.00    -0.003 C 
ATOM      7  C   UNL     1      -0.934 -15.779 -27.014  1.00  0.00     0.004 C 
ENDBRANCH   5   6
ENDBRANCH   1   5
TORSDOF 3
ENDMDL
MODEL 8
REMARK VINA RESULT:    -2.520      4.243      5.485
REMARK INTER + INTRA:          -3.034
REMARK INTER:                  -3.004
REMARK INTRA:                  -0.030
REMARK UNBOUND:                -0.071
REMARK SMILES CCCCC(=O)[O-]
REMARK SMILES IDX 4 1 5 2 6 3 7 4 3 5 2 6 1 7
REMARK H PARENT
REMARK Flexibility Score: inf
ROOT
ATOM      1  C   UNL     1      -0.543 -18.745 -25.887  1.00  0.00     0.053 C 
ENDROOT
BRANCH   1   2
ATOM      2  C   UNL     1      -0.481 -20.239 -25.936  1.00  0.00     0.041 C 
ATOM      3  O   UNL     1      -1.213 -20.878 -26.737  1.00  0.00    -0.550 OA
ATOM      4  O   UNL     1       0.350 -20.929 -25.062  1.00  0.00    -0.550 OA
ENDBRANCH   1   2
BRANCH   1   5
ATOM      5  C   UNL     1      -1.964 -18.278 -25.555  1.00  0.00     0.006 C 
BRANCH   5   6
ATOM      6  C   UNL     1      -2.053 -16.748 -25.557  1.00  0.00    -0.003 C 
ATOM      7  C   UNL     1      -1.309 -16.153 -26.749  1.00  0.00     0.004 C 
ENDBRANCH   5   6
ENDBRANCH   1   5
TORSDOF 3
ENDMDL
MODEL 9
REMARK VINA RESULT:    -2.296      2.598      4.664
REMARK INTER + INTRA:          -2.769
REMARK INTER:                  -2.753
REMARK INTRA:                  -0.016
REMARK UNBOUND:                -0.071
REMARK SMILES CCCCC(=O)[O-]
REMARK SMILES IDX 4 1 5 2 6 3 7 4 3 5 2 6 1 7
REMARK H PARENT
REMARK Flexibility Score: inf
ROOT
ATOM      1  C   UNL     1      -2.125 -16.171 -25.910  1.00  0.00     0.053 C 
ENDROOT
BRANCH   1   2
ATOM      2  C   UNL     1      -1.812 -14.856 -26.551  1.00  0.00     0.041 C 
ATOM      3  O   UNL     1      -1.547 -13.851 -25.840  1.00  0.00    -0.550 OA
ATOM      4  O   UNL     1      -1.863 -14.728 -27.934  1.00  0.00    -0.550 OA
ENDBRANCH   1   2
BRANCH   1   5
ATOM      5  C   UNL     1      -1.043 -17.202 -26.247  1.00  0.00     0.006 C 
BRANCH   5   6
ATOM      6  C   UNL     1      -1.318 -18.536 -25.543  1.00  0.00    -0.003 C 
ATOM      7  C   UNL     1      -0.286 -19.590 -25.935  1.00  0.00     0.004 C 
ENDBRANCH   5   6
ENDBRANCH   1   5
TORSDOF 3
ENDMDL
