MODEL 1
REMARK VINA RESULT:    -2.890      0.000      0.000
REMARK INTER + INTRA:          -3.459
REMARK INTER:                  -3.397
REMARK INTRA:                  -0.062
REMARK UNBOUND:                -0.062
REMARK SMILES O=C([O-])CCC(=O)[O-]
REMARK SMILES IDX 4 1 2 2 1 3 3 4 5 5 6 6 7 7 8 8
REMARK H PARENT
REMARK Flexibility Score: inf
ROOT
ATOM      1  C   UNL     1       6.410  40.186  14.809  1.00  0.00     0.059 C 
ENDROOT
BRANCH   1   2
ATOM      2  C   UNL     1       7.433  40.834  15.692  1.00  0.00     0.042 C 
ATOM      3  O   UNL     1       7.248  42.003  16.125  1.00  0.00    -0.550 OA
ATOM      4  O   UNL     1       8.571  40.133  16.067  1.00  0.00    -0.550 OA
ENDBRANCH   1   2
BRANCH   1   5
ATOM      5  C   UNL     1       5.890  38.879  15.417  1.00  0.00     0.059 C 
BRANCH   5   6
ATOM      6  C   UNL     1       4.405  38.916  15.615  1.00  0.00     0.042 C 
ATOM      7  O   UNL     1       3.799  37.906  16.061  1.00  0.00    -0.550 OA
ATOM      8  O   UNL     1       3.696  40.080  15.344  1.00  0.00    -0.550 OA
ENDBRANCH   5   6
ENDBRANCH   1   5
TORSDOF 3
ENDMDL
MODEL 2
REMARK VINA RESULT:    -2.809      1.813      2.060
REMARK INTER + INTRA:          -3.364
REMARK INTER:                  -3.259
REMARK INTRA:                  -0.106
REMARK UNBOUND:                -0.062
REMARK SMILES O=C([O-])CCC(=O)[O-]
REMARK SMILES IDX 4 1 2 2 1 3 3 4 5 5 6 6 7 7 8 8
REMARK H PARENT
REMARK Flexibility Score: inf
ROOT
ATOM      1  C   UNL     1       7.632  40.058  14.913  1.00  0.00     0.059 C 
ENDROOT
BRANCH   1   2
ATOM      2  C   UNL     1       8.738  39.092  15.215  1.00  0.00     0.042 C 
ATOM      3  O   UNL     1       9.872  39.240  14.685  1.00  0.00    -0.550 OA
ATOM      4  O   UNL     1       8.529  38.055  16.114  1.00  0.00    -0.550 OA
ENDBRANCH   1   2
BRANCH   1   5
ATOM      5  C   UNL     1       6.548  40.028  15.995  1.00  0.00     0.059 C 
BRANCH   5   6
ATOM      6  C   UNL     1       5.306  39.342  15.512  1.00  0.00     0.042 C 
ATOM      7  O   UNL     1       5.348  38.136  15.152  1.00  0.00    -0.550 OA
ATOM      8  O   UNL     1       4.096  40.023  15.499  1.00  0.00    -0.550 OA
ENDBRANCH   5   6
ENDBRANCH   1   5
TORSDOF 3
ENDMDL
MODEL 3
REMARK VINA RESULT:    -2.708      2.372      4.471
REMARK INTER + INTRA:          -3.245
REMARK INTER:                  -3.130
REMARK INTRA:                  -0.116
REMARK UNBOUND:                -0.062
REMARK SMILES O=C([O-])CCC(=O)[O-]
REMARK SMILES IDX 4 1 2 2 1 3 3 4 5 5 6 6 7 7 8 8
REMARK H PARENT
REMARK Flexibility Score: inf
ROOT
ATOM      1  C   UNL     1       8.071  40.228  14.963  1.00  0.00     0.059 C 
ENDROOT
BRANCH   1   2
ATOM      2  C   UNL     1       6.645  39.795  15.126  1.00  0.00     0.042 C 
ATOM      3  O   UNL     1       5.711  40.630  14.999  1.00  0.00    -0.550 OA
ATOM      4  O   UNL     1       6.348  38.462  15.376  1.00  0.00    -0.550 OA
ENDBRANCH   1   2
BRANCH   1   5
ATOM      5  C   UNL     1       8.950  39.716  16.108  1.00  0.00     0.059 C 
BRANCH   5   6
ATOM      6  C   UNL     1      10.063  38.849  15.604  1.00  0.00     0.042 C 
ATOM      7  O   UNL     1       9.852  38.017  14.682  1.00  0.00    -0.550 OA
ATOM      8  O   UNL     1      11.344  38.989  16.125  1.00  0.00    -0.550 OA
ENDBRANCH   5   6
ENDBRANCH   1   5
TORSDOF 3
ENDMDL
