MODEL 1
REMARK VINA RESULT:    -2.902      0.000      0.000
REMARK INTER + INTRA:          -3.094
REMARK INTER:                  -3.072
REMARK INTRA:                  -0.022
REMARK UNBOUND:                -0.022
REMARK SMILES C=C(C)[C@@H]1CC[C@@H](C)[C@@]12CC=C(C)CC2
REMARK SMILES IDX 8 1 7 2 6 3 5 4 4 5 9 6 15 7 14 8 12 9 11 10 10 11 13 12
REMARK SMILES IDX 2 13 1 14 3 15
REMARK H PARENT
REMARK Flexibility Score: inf
ROOT
ATOM      1  C   UNL     1     144.929 148.224 134.125  1.00  0.00     0.008 C 
ATOM      2  C   UNL     1     144.593 147.354 132.896  1.00  0.00    -0.007 C 
ATOM      3  C   UNL     1     143.320 146.542 133.160  1.00  0.00     0.004 C 
ATOM      4  C   UNL     1     143.762 145.168 133.661  1.00  0.00     0.009 C 
ATOM      5  C   UNL     1     145.286 145.096 133.463  1.00  0.00     0.021 C 
ATOM      6  C   UNL     1     145.675 146.285 132.539  1.00  0.00    -0.017 C 
ATOM      7  C   UNL     1     145.591 145.918 131.026  1.00  0.00     0.012 C 
ATOM      8  C   UNL     1     145.986 147.082 130.096  1.00  0.00     0.031 C 
ATOM      9  C   UNL     1     147.103 147.959 130.630  1.00  0.00    -0.077 C 
ATOM     10  C   UNL     1     147.573 147.837 131.888  1.00  0.00    -0.027 C 
ATOM     11  C   UNL     1     147.139 146.727 132.807  1.00  0.00     0.035 C 
ATOM     12  C   UNL     1     147.631 149.064 129.759  1.00  0.00     0.039 C 
ENDROOT
BRANCH   5  13
ATOM     13  C   UNL     1     145.815 143.717 133.057  1.00  0.00    -0.077 C 
ATOM     14  C   UNL     1     144.988 142.658 133.085  1.00  0.00     0.008 C 
ATOM     15  C   UNL     1     147.253 143.477 132.656  1.00  0.00     0.039 C 
ENDBRANCH   5  13
TORSDOF 1
ENDMDL
MODEL 2
REMARK VINA RESULT:    -2.894      1.076      3.123
REMARK INTER + INTRA:          -3.085
REMARK INTER:                  -3.099
REMARK INTRA:                   0.015
REMARK UNBOUND:                -0.022
REMARK SMILES C=C(C)[C@@H]1CC[C@@H](C)[C@@]12CC=C(C)CC2
REMARK SMILES IDX 8 1 7 2 6 3 5 4 4 5 9 6 15 7 14 8 12 9 11 10 10 11 13 12
REMARK SMILES IDX 2 13 1 14 3 15
REMARK H PARENT
REMARK Flexibility Score: inf
ROOT
ATOM      1  C   UNL     1     147.440 144.090 131.144  1.00  0.00     0.008 C 
ATOM      2  C   UNL     1     147.128 145.097 132.270  1.00  0.00    -0.007 C 
ATOM      3  C   UNL     1     146.878 144.352 133.587  1.00  0.00     0.004 C 
ATOM      4  C   UNL     1     145.367 144.166 133.715  1.00  0.00     0.009 C 
ATOM      5  C   UNL     1     144.722 145.007 132.600  1.00  0.00     0.021 C 
ATOM      6  C   UNL     1     145.834 145.944 132.046  1.00  0.00    -0.017 C 
ATOM      7  C   UNL     1     145.928 147.289 132.830  1.00  0.00     0.012 C 
ATOM      8  C   UNL     1     147.017 148.234 132.285  1.00  0.00     0.031 C 
ATOM      9  C   UNL     1     147.187 148.190 130.778  1.00  0.00    -0.077 C 
ATOM     10  C   UNL     1     146.570 147.269 130.011  1.00  0.00    -0.027 C 
ATOM     11  C   UNL     1     145.548 146.314 130.566  1.00  0.00     0.035 C 
ATOM     12  C   UNL     1     148.154 149.143 130.133  1.00  0.00     0.039 C 
ENDROOT
BRANCH   5  13
ATOM     13  C   UNL     1     143.399 145.676 132.985  1.00  0.00    -0.077 C 
ATOM     14  C   UNL     1     142.785 145.316 134.125  1.00  0.00     0.008 C 
ATOM     15  C   UNL     1     142.720 146.709 132.114  1.00  0.00     0.039 C 
ENDBRANCH   5  13
TORSDOF 1
ENDMDL
MODEL 3
REMARK VINA RESULT:    -2.860      2.074      4.190
REMARK INTER + INTRA:          -3.049
REMARK INTER:                  -3.042
REMARK INTRA:                  -0.008
REMARK UNBOUND:                -0.022
REMARK SMILES C=C(C)[C@@H]1CC[C@@H](C)[C@@]12CC=C(C)CC2
REMARK SMILES IDX 8 1 7 2 6 3 5 4 4 5 9 6 15 7 14 8 12 9 11 10 10 11 13 12
REMARK SMILES IDX 2 13 1 14 3 15
REMARK H PARENT
REMARK Flexibility Score: inf
ROOT
ATOM      1  C   UNL     1     143.240 146.660 131.185  1.00  0.00     0.008 C 
ATOM      2  C   UNL     1     143.566 145.639 132.295  1.00  0.00    -0.007 C 
ATOM      3  C   UNL     1     143.824 146.368 133.619  1.00  0.00     0.004 C 
ATOM      4  C   UNL     1     145.336 146.557 133.737  1.00  0.00     0.009 C 
ATOM      5  C   UNL     1     145.973 145.733 132.606  1.00  0.00     0.021 C 
ATOM      6  C   UNL     1     144.860 144.800 132.048  1.00  0.00    -0.017 C 
ATOM      7  C   UNL     1     144.777 143.445 132.815  1.00  0.00     0.012 C 
ATOM      8  C   UNL     1     143.688 142.502 132.266  1.00  0.00     0.031 C 
ATOM      9  C   UNL     1     143.504 142.567 130.761  1.00  0.00    -0.077 C 
ATOM     10  C   UNL     1     144.112 143.500 130.003  1.00  0.00    -0.027 C 
ATOM     11  C   UNL     1     145.135 144.452 130.561  1.00  0.00     0.035 C 
ATOM     12  C   UNL     1     142.535 141.619 130.112  1.00  0.00     0.039 C 
ENDROOT
BRANCH   5  13
ATOM     13  C   UNL     1     147.302 145.064 132.970  1.00  0.00    -0.077 C 
ATOM     14  C   UNL     1     147.909 145.388 134.125  1.00  0.00     0.008 C 
ATOM     15  C   UNL     1     147.994 144.070 132.065  1.00  0.00     0.039 C 
ENDBRANCH   5  13
TORSDOF 1
ENDMDL
MODEL 4
REMARK VINA RESULT:    -2.647      1.602      3.409
REMARK INTER + INTRA:          -2.824
REMARK INTER:                  -2.688
REMARK INTRA:                  -0.136
REMARK UNBOUND:                -0.022
REMARK SMILES C=C(C)[C@@H]1CC[C@@H](C)[C@@]12CC=C(C)CC2
REMARK SMILES IDX 8 1 7 2 6 3 5 4 4 5 9 6 15 7 14 8 12 9 11 10 10 11 13 12
REMARK SMILES IDX 2 13 1 14 3 15
REMARK H PARENT
REMARK Flexibility Score: inf
ROOT
ATOM      1  C   UNL     1     146.625 147.548 130.790  1.00  0.00     0.008 C 
ATOM      2  C   UNL     1     145.808 147.272 132.070  1.00  0.00    -0.007 C 
ATOM      3  C   UNL     1     146.753 147.026 133.252  1.00  0.00     0.004 C 
ATOM      4  C   UNL     1     146.930 145.513 133.374  1.00  0.00     0.009 C 
ATOM      5  C   UNL     1     145.908 144.871 132.422  1.00  0.00     0.021 C 
ATOM      6  C   UNL     1     144.913 145.993 132.008  1.00  0.00    -0.017 C 
ATOM      7  C   UNL     1     143.716 146.126 132.997  1.00  0.00     0.012 C 
ATOM      8  C   UNL     1     142.714 147.225 132.594  1.00  0.00     0.031 C 
ATOM      9  C   UNL     1     142.516 147.374 131.097  1.00  0.00    -0.077 C 
ATOM     10  C   UNL     1     143.289 146.727 130.203  1.00  0.00    -0.027 C 
ATOM     11  C   UNL     1     144.304 145.694 130.612  1.00  0.00     0.035 C 
ATOM     12  C   UNL     1     141.488 148.351 130.599  1.00  0.00     0.039 C 
ENDROOT
BRANCH   5  13
ATOM     13  C   UNL     1     145.286 143.566 132.933  1.00  0.00    -0.077 C 
ATOM     14  C   UNL     1     145.668 143.077 134.125  1.00  0.00     0.008 C 
ATOM     15  C   UNL     1     144.279 142.771 132.134  1.00  0.00     0.039 C 
ENDBRANCH   5  13
TORSDOF 1
ENDMDL
MODEL 5
REMARK VINA RESULT:    -2.550      1.590      4.158
REMARK INTER + INTRA:          -2.721
REMARK INTER:                  -2.576
REMARK INTRA:                  -0.145
REMARK UNBOUND:                -0.022
REMARK SMILES C=C(C)[C@@H]1CC[C@@H](C)[C@@]12CC=C(C)CC2
REMARK SMILES IDX 8 1 7 2 6 3 5 4 4 5 9 6 15 7 14 8 12 9 11 10 10 11 13 12
REMARK SMILES IDX 2 13 1 14 3 15
REMARK H PARENT
REMARK Flexibility Score: inf
ROOT
ATOM      1  C   UNL     1     144.136 143.202 130.747  1.00  0.00     0.008 C 
ATOM      2  C   UNL     1     144.906 143.567 132.033  1.00  0.00    -0.007 C 
ATOM      3  C   UNL     1     143.920 143.942 133.146  1.00  0.00     0.004 C 
ATOM      4  C   UNL     1     143.784 145.464 133.129  1.00  0.00     0.009 C 
ATOM      5  C   UNL     1     144.865 145.993 132.171  1.00  0.00     0.021 C 
ATOM      6  C   UNL     1     145.841 144.812 131.901  1.00  0.00    -0.017 C 
ATOM      7  C   UNL     1     146.991 144.735 132.951  1.00  0.00     0.012 C 
ATOM      8  C   UNL     1     147.975 143.577 132.690  1.00  0.00     0.031 C 
ATOM      9  C   UNL     1     148.232 143.293 131.222  1.00  0.00    -0.077 C 
ATOM     10  C   UNL     1     147.517 143.879 130.241  1.00  0.00    -0.027 C 
ATOM     11  C   UNL     1     146.518 144.971 130.513  1.00  0.00     0.035 C 
ATOM     12  C   UNL     1     149.249 142.248 130.857  1.00  0.00     0.039 C 
ENDROOT
BRANCH   5  13
ATOM     13  C   UNL     1     145.503 147.319 132.594  1.00  0.00    -0.077 C 
ATOM     14  C   UNL     1     145.102 147.911 133.732  1.00  0.00     0.008 C 
ATOM     15  C   UNL     1     146.552 148.025 131.765  1.00  0.00     0.039 C 
ENDBRANCH   5  13
TORSDOF 1
ENDMDL
MODEL 6
REMARK VINA RESULT:    -1.078      1.467      3.601
REMARK INTER + INTRA:          -1.163
REMARK INTER:                  -0.994
REMARK INTRA:                  -0.168
REMARK UNBOUND:                -0.022
REMARK SMILES C=C(C)[C@@H]1CC[C@@H](C)[C@@]12CC=C(C)CC2
REMARK SMILES IDX 8 1 7 2 6 3 5 4 4 5 9 6 15 7 14 8 12 9 11 10 10 11 13 12
REMARK SMILES IDX 2 13 1 14 3 15
REMARK H PARENT
REMARK Flexibility Score: inf
ROOT
ATOM      1  C   UNL     1     147.858 146.133 134.125  1.00  0.00     0.008 C 
ATOM      2  C   UNL     1     147.250 146.406 132.734  1.00  0.00    -0.007 C 
ATOM      3  C   UNL     1     146.642 147.813 132.694  1.00  0.00     0.004 C 
ATOM      4  C   UNL     1     145.154 147.666 133.007  1.00  0.00     0.009 C 
ATOM      5  C   UNL     1     144.847 146.159 132.993  1.00  0.00     0.021 C 
ATOM      6  C   UNL     1     146.073 145.457 132.340  1.00  0.00    -0.017 C 
ATOM      7  C   UNL     1     145.951 145.365 130.788  1.00  0.00     0.012 C 
ATOM      8  C   UNL     1     147.152 144.661 130.126  1.00  0.00     0.031 C 
ATOM      9  C   UNL     1     147.733 143.519 130.938  1.00  0.00    -0.077 C 
ATOM     10  C   UNL     1     147.349 143.269 132.205  1.00  0.00    -0.027 C 
ATOM     11  C   UNL     1     146.209 144.002 132.861  1.00  0.00     0.035 C 
ATOM     12  C   UNL     1     148.845 142.703 130.340  1.00  0.00     0.039 C 
ENDROOT
BRANCH   5  13
ATOM     13  C   UNL     1     143.471 145.789 132.429  1.00  0.00    -0.077 C 
ATOM     14  C   UNL     1     142.818 144.726 132.928  1.00  0.00     0.008 C 
ATOM     15  C   UNL     1     142.819 146.549 131.297  1.00  0.00     0.039 C 
ENDBRANCH   5  13
TORSDOF 1
ENDMDL
MODEL 7
REMARK VINA RESULT:    -0.772      1.597      3.773
REMARK INTER + INTRA:          -0.839
REMARK INTER:                  -0.724
REMARK INTRA:                  -0.115
REMARK UNBOUND:                -0.022
REMARK SMILES C=C(C)[C@@H]1CC[C@@H](C)[C@@]12CC=C(C)CC2
REMARK SMILES IDX 8 1 7 2 6 3 5 4 4 5 9 6 15 7 14 8 12 9 11 10 10 11 13 12
REMARK SMILES IDX 2 13 1 14 3 15
REMARK H PARENT
REMARK Flexibility Score: inf
ROOT
ATOM      1  C   UNL     1     147.272 143.073 131.894  1.00  0.00     0.008 C 
ATOM      2  C   UNL     1     147.212 144.614 131.834  1.00  0.00    -0.007 C 
ATOM      3  C   UNL     1     147.947 145.214 133.039  1.00  0.00     0.004 C 
ATOM      4  C   UNL     1     146.894 145.494 134.110  1.00  0.00     0.009 C 
ATOM      5  C   UNL     1     145.523 145.281 133.448  1.00  0.00     0.021 C 
ATOM      6  C   UNL     1     145.772 145.213 131.913  1.00  0.00    -0.017 C 
ATOM      7  C   UNL     1     145.736 146.619 131.239  1.00  0.00     0.012 C 
ATOM      8  C   UNL     1     145.968 146.568 129.716  1.00  0.00     0.031 C 
ATOM      9  C   UNL     1     145.370 145.354 129.032  1.00  0.00    -0.077 C 
ATOM     10  C   UNL     1     144.846 144.323 129.726  1.00  0.00    -0.027 C 
ATOM     11  C   UNL     1     144.675 144.362 131.220  1.00  0.00     0.035 C 
ATOM     12  C   UNL     1     145.454 145.255 127.535  1.00  0.00     0.039 C 
ENDROOT
BRANCH   5  13
ATOM     13  C   UNL     1     144.428 146.244 133.917  1.00  0.00    -0.077 C 
ATOM     14  C   UNL     1     143.185 145.777 134.125  1.00  0.00     0.008 C 
ATOM     15  C   UNL     1     144.670 147.722 134.125  1.00  0.00     0.039 C 
ENDBRANCH   5  13
TORSDOF 1
ENDMDL
MODEL 8
REMARK VINA RESULT:    -0.757      1.781      4.815
REMARK INTER + INTRA:          -0.823
REMARK INTER:                  -0.781
REMARK INTRA:                  -0.042
REMARK UNBOUND:                -0.022
REMARK SMILES C=C(C)[C@@H]1CC[C@@H](C)[C@@]12CC=C(C)CC2
REMARK SMILES IDX 8 1 7 2 6 3 5 4 4 5 9 6 15 7 14 8 12 9 11 10 10 11 13 12
REMARK SMILES IDX 2 13 1 14 3 15
REMARK H PARENT
REMARK Flexibility Score: inf
ROOT
ATOM      1  C   UNL     1     145.763 142.540 134.125  1.00  0.00     0.008 C 
ATOM      2  C   UNL     1     146.117 143.419 132.908  1.00  0.00    -0.007 C 
ATOM      3  C   UNL     1     147.391 144.223 133.194  1.00  0.00     0.004 C 
ATOM      4  C   UNL     1     146.949 145.594 133.703  1.00  0.00     0.009 C 
ATOM      5  C   UNL     1     145.429 145.676 133.489  1.00  0.00     0.021 C 
ATOM      6  C   UNL     1     145.044 144.497 132.549  1.00  0.00    -0.017 C 
ATOM      7  C   UNL     1     145.147 144.878 131.040  1.00  0.00     0.012 C 
ATOM      8  C   UNL     1     144.757 143.724 130.095  1.00  0.00     0.031 C 
ATOM      9  C   UNL     1     143.630 142.848 130.609  1.00  0.00    -0.077 C 
ATOM     10  C   UNL     1     143.146 142.961 131.862  1.00  0.00    -0.027 C 
ATOM     11  C   UNL     1     143.575 144.059 132.796  1.00  0.00     0.035 C 
ATOM     12  C   UNL     1     143.106 141.754 129.721  1.00  0.00     0.039 C 
ENDROOT
BRANCH   5  13
ATOM     13  C   UNL     1     144.910 147.061 133.090  1.00  0.00    -0.077 C 
ATOM     14  C   UNL     1     145.751 148.109 133.104  1.00  0.00     0.008 C 
ATOM     15  C   UNL     1     143.470 147.318 132.710  1.00  0.00     0.039 C 
ENDBRANCH   5  13
TORSDOF 1
ENDMDL
