MODEL 1
REMARK VINA RESULT:    -5.991      0.000      0.000
REMARK INTER + INTRA:          -7.309
REMARK INTER:                  -7.042
REMARK INTRA:                  -0.267
REMARK UNBOUND:                -0.267
REMARK SMILES O=c1cc(-c2ccc(O)c(O)c2)oc2cc(O)cc(O)c12
REMARK SMILES IDX 4 1 3 2 2 3 1 4 21 5 19 6 18 7 16 8 15 9 14 10 13 11 5 12
REMARK SMILES IDX 6 13 7 14 8 15 12 16 10 17 9 18 11 20 20 22 17 24
REMARK H PARENT 9 19 11 21 20 23 17 25
REMARK Flexibility Score: inf
ROOT
ATOM      1  C   UNL     1       4.000 -15.473  11.518  1.00  0.00     0.138 A 
ATOM      2  C   UNL     1       4.594 -16.091  12.627  1.00  0.00     0.100 A 
ATOM      3  C   UNL     1       4.203 -17.381  12.989  1.00  0.00     0.197 A 
ATOM      4  O   UNL     1       4.709 -17.886  14.025  1.00  0.00    -0.289 OA
ATOM      5  C   UNL     1       3.234 -18.065  12.218  1.00  0.00     0.107 A 
ATOM      6  C   UNL     1       2.788 -19.398  12.469  1.00  0.00     0.134 A 
ATOM      7  C   UNL     1       1.739 -19.929  11.708  1.00  0.00     0.093 A 
ATOM      8  C   UNL     1       1.163 -19.201  10.668  1.00  0.00     0.123 A 
ATOM      9  C   UNL     1       1.627 -17.917  10.379  1.00  0.00     0.094 A 
ATOM     10  C   UNL     1       2.648 -17.346  11.141  1.00  0.00     0.146 A 
ATOM     11  O   UNL     1       3.053 -16.116  10.843  1.00  0.00    -0.456 OA
ENDROOT
BRANCH   1  12
ATOM     12  C   UNL     1       4.380 -14.103  11.088  1.00  0.00     0.021 A 
ATOM     13  C   UNL     1       5.543 -13.861  10.333  1.00  0.00     0.016 A 
ATOM     14  C   UNL     1       5.871 -12.562   9.932  1.00  0.00     0.051 A 
ATOM     15  C   UNL     1       5.039 -11.487  10.272  1.00  0.00     0.157 A 
ATOM     16  C   UNL     1       3.544 -13.019  11.413  1.00  0.00     0.062 A 
ATOM     17  C   UNL     1       3.873 -11.716  11.012  1.00  0.00     0.158 A 
BRANCH  15  18
ATOM     18  O   UNL     1       5.364 -10.191   9.875  1.00  0.00    -0.504 OA
ATOM     19  H   UNL     1       5.095  -9.385  10.427  1.00  0.00     0.293 HD
ENDBRANCH  15  18
BRANCH  17  20
ATOM     20  O   UNL     1       3.046 -10.644  11.344  1.00  0.00    -0.504 OA
ATOM     21  H   UNL     1       2.054 -10.658  11.140  1.00  0.00     0.293 HD
ENDBRANCH  17  20
ENDBRANCH   1  12
BRANCH   6  22
ATOM     22  O   UNL     1       3.353 -20.243  13.429  1.00  0.00    -0.507 OA
ATOM     23  H   UNL     1       3.221 -21.242  13.466  1.00  0.00     0.293 HD
ENDBRANCH   6  22
BRANCH   8  24
ATOM     24  O   UNL     1       0.131 -19.768   9.922  1.00  0.00    -0.508 OA
ATOM     25  H   UNL     1      -0.822 -19.785  10.263  1.00  0.00     0.293 HD
ENDBRANCH   8  24
TORSDOF 5
ENDMDL
MODEL 2
REMARK VINA RESULT:    -5.305      1.921      7.321
REMARK INTER + INTRA:          -6.502
REMARK INTER:                  -6.240
REMARK INTRA:                  -0.262
REMARK UNBOUND:                -0.267
REMARK SMILES O=c1cc(-c2ccc(O)c(O)c2)oc2cc(O)cc(O)c12
REMARK SMILES IDX 4 1 3 2 2 3 1 4 21 5 19 6 18 7 16 8 15 9 14 10 13 11 5 12
REMARK SMILES IDX 6 13 7 14 8 15 12 16 10 17 9 18 11 20 20 22 17 24
REMARK H PARENT 9 19 11 21 20 23 17 25
REMARK Flexibility Score: inf
ROOT
ATOM      1  C   UNL     1       3.742 -13.534  11.343  1.00  0.00     0.138 A 
ATOM      2  C   UNL     1       4.970 -12.858  11.302  1.00  0.00     0.100 A 
ATOM      3  C   UNL     1       4.989 -11.464  11.261  1.00  0.00     0.197 A 
ATOM      4  O   UNL     1       6.104 -10.888  11.162  1.00  0.00    -0.289 OA
ATOM      5  C   UNL     1       3.772 -10.743  11.293  1.00  0.00     0.107 A 
ATOM      6  C   UNL     1       3.671  -9.318  11.298  1.00  0.00     0.134 A 
ATOM      7  C   UNL     1       2.409  -8.716  11.214  1.00  0.00     0.093 A 
ATOM      8  C   UNL     1       1.246  -9.483  11.186  1.00  0.00     0.123 A 
ATOM      9  C   UNL     1       1.329 -10.875  11.235  1.00  0.00     0.094 A 
ATOM     10  C   UNL     1       2.574 -11.507  11.286  1.00  0.00     0.146 A 
ATOM     11  O   UNL     1       2.613 -12.834  11.317  1.00  0.00    -0.456 OA
ENDROOT
BRANCH   1  12
ATOM     12  C   UNL     1       3.664 -15.017  11.388  1.00  0.00     0.021 A 
ATOM     13  C   UNL     1       3.140 -15.762  10.315  1.00  0.00     0.016 A 
ATOM     14  C   UNL     1       3.088 -17.158  10.381  1.00  0.00     0.051 A 
ATOM     15  C   UNL     1       3.565 -17.830  11.513  1.00  0.00     0.157 A 
ATOM     16  C   UNL     1       4.153 -15.701  12.516  1.00  0.00     0.062 A 
ATOM     17  C   UNL     1       4.100 -17.101  12.581  1.00  0.00     0.158 A 
BRANCH  15  18
ATOM     18  O   UNL     1       3.514 -19.221  11.582  1.00  0.00    -0.504 OA
ATOM     19  H   UNL     1       4.251 -19.799  11.195  1.00  0.00     0.293 HD
ENDBRANCH  15  18
BRANCH  17  20
ATOM     20  O   UNL     1       4.578 -17.773  13.705  1.00  0.00    -0.504 OA
ATOM     21  H   UNL     1       5.548 -17.706  13.991  1.00  0.00     0.293 HD
ENDBRANCH  17  20
ENDBRANCH   1  12
BRANCH   6  22
ATOM     22  O   UNL     1       4.767  -8.458  11.408  1.00  0.00    -0.507 OA
ATOM     23  H   UNL     1       5.469  -8.323  10.696  1.00  0.00     0.293 HD
ENDBRANCH   6  22
BRANCH   8  24
ATOM     24  O   UNL     1       0.006  -8.848  11.117  1.00  0.00    -0.508 OA
ATOM     25  H   UNL     1      -0.152  -7.946  11.549  1.00  0.00     0.293 HD
ENDBRANCH   8  24
TORSDOF 5
ENDMDL
MODEL 3
REMARK VINA RESULT:    -4.592      0.883      1.568
REMARK INTER + INTRA:          -5.664
REMARK INTER:                  -5.392
REMARK INTRA:                  -0.272
REMARK UNBOUND:                -0.267
REMARK SMILES O=c1cc(-c2ccc(O)c(O)c2)oc2cc(O)cc(O)c12
REMARK SMILES IDX 4 1 3 2 2 3 1 4 21 5 19 6 18 7 16 8 15 9 14 10 13 11 5 12
REMARK SMILES IDX 6 13 7 14 8 15 12 16 10 17 9 18 11 20 20 22 17 24
REMARK H PARENT 9 19 11 21 20 23 17 25
REMARK Flexibility Score: inf
ROOT
ATOM      1  C   UNL     1       3.568 -14.893  11.634  1.00  0.00     0.138 A 
ATOM      2  C   UNL     1       4.411 -15.468  12.593  1.00  0.00     0.100 A 
ATOM      3  C   UNL     1       4.340 -16.840  12.840  1.00  0.00     0.197 A 
ATOM      4  O   UNL     1       5.066 -17.317  13.751  1.00  0.00    -0.289 OA
ATOM      5  C   UNL     1       3.440 -17.642  12.099  1.00  0.00     0.107 A 
ATOM      6  C   UNL     1       3.311 -19.057  12.237  1.00  0.00     0.134 A 
ATOM      7  C   UNL     1       2.304 -19.730  11.532  1.00  0.00     0.093 A 
ATOM      8  C   UNL     1       1.464 -19.050  10.652  1.00  0.00     0.123 A 
ATOM      9  C   UNL     1       1.617 -17.675  10.469  1.00  0.00     0.094 A 
ATOM     10  C   UNL     1       2.589 -16.970  11.182  1.00  0.00     0.146 A 
ATOM     11  O   UNL     1       2.693 -15.660  10.990  1.00  0.00    -0.456 OA
ENDROOT
BRANCH   1  12
ATOM     12  C   UNL     1       3.602 -13.439  11.330  1.00  0.00     0.021 A 
ATOM     13  C   UNL     1       2.433 -12.655  11.333  1.00  0.00     0.016 A 
ATOM     14  C   UNL     1       2.497 -11.286  11.053  1.00  0.00     0.051 A 
ATOM     15  C   UNL     1       3.728 -10.679  10.775  1.00  0.00     0.157 A 
ATOM     16  C   UNL     1       4.836 -12.817  11.063  1.00  0.00     0.062 A 
ATOM     17  C   UNL     1       4.899 -11.445  10.782  1.00  0.00     0.158 A 
BRANCH  15  18
ATOM     18  O   UNL     1       3.794  -9.315  10.495  1.00  0.00    -0.504 OA
ATOM     19  H   UNL     1       4.439  -8.705  10.983  1.00  0.00     0.293 HD
ENDBRANCH  15  18
BRANCH  17  20
ATOM     20  O   UNL     1       6.123 -10.836  10.509  1.00  0.00    -0.504 OA
ATOM     21  H   UNL     1       6.980 -11.372  10.450  1.00  0.00     0.293 HD
ENDBRANCH  17  20
ENDBRANCH   1  12
BRANCH   6  22
ATOM     22  O   UNL     1       4.154 -19.846  13.026  1.00  0.00    -0.507 OA
ATOM     23  H   UNL     1       5.161 -19.795  13.023  1.00  0.00     0.293 HD
ENDBRANCH   6  22
BRANCH   8  24
ATOM     24  O   UNL     1       0.483 -19.754   9.956  1.00  0.00    -0.508 OA
ATOM     25  H   UNL     1      -0.371 -19.307   9.647  1.00  0.00     0.293 HD
ENDBRANCH   8  24
TORSDOF 5
ENDMDL
MODEL 4
REMARK VINA RESULT:    -4.076      1.453      7.066
REMARK INTER + INTRA:          -5.057
REMARK INTER:                  -4.788
REMARK INTRA:                  -0.269
REMARK UNBOUND:                -0.267
REMARK SMILES O=c1cc(-c2ccc(O)c(O)c2)oc2cc(O)cc(O)c12
REMARK SMILES IDX 4 1 3 2 2 3 1 4 21 5 19 6 18 7 16 8 15 9 14 10 13 11 5 12
REMARK SMILES IDX 6 13 7 14 8 15 12 16 10 17 9 18 11 20 20 22 17 24
REMARK H PARENT 9 19 11 21 20 23 17 25
REMARK Flexibility Score: inf
ROOT
ATOM      1  C   UNL     1       3.263 -15.388  11.228  1.00  0.00     0.138 A 
ATOM      2  C   UNL     1       4.583 -15.064  10.885  1.00  0.00     0.100 A 
ATOM      3  C   UNL     1       4.948 -13.726  10.736  1.00  0.00     0.197 A 
ATOM      4  O   UNL     1       6.124 -13.468  10.368  1.00  0.00    -0.289 OA
ATOM      5  C   UNL     1       3.992 -12.707  10.962  1.00  0.00     0.107 A 
ATOM      6  C   UNL     1       4.262 -11.307  10.879  1.00  0.00     0.134 A 
ATOM      7  C   UNL     1       3.208 -10.393  11.009  1.00  0.00     0.093 A 
ATOM      8  C   UNL     1       1.910 -10.824  11.278  1.00  0.00     0.123 A 
ATOM      9  C   UNL     1       1.644 -12.187  11.415  1.00  0.00     0.094 A 
ATOM     10  C   UNL     1       2.667 -13.125  11.257  1.00  0.00     0.146 A 
ATOM     11  O   UNL     1       2.372 -14.414  11.381  1.00  0.00    -0.456 OA
ENDROOT
BRANCH   1  12
ATOM     12  C   UNL     1       2.821 -16.796  11.400  1.00  0.00     0.021 A 
ATOM     13  C   UNL     1       1.744 -17.328  10.667  1.00  0.00     0.016 A 
ATOM     14  C   UNL     1       1.356 -18.660  10.842  1.00  0.00     0.051 A 
ATOM     15  C   UNL     1       2.041 -19.482  11.745  1.00  0.00     0.157 A 
ATOM     16  C   UNL     1       3.512 -17.633  12.295  1.00  0.00     0.062 A 
ATOM     17  C   UNL     1       3.122 -18.969  12.472  1.00  0.00     0.158 A 
BRANCH  15  18
ATOM     18  O   UNL     1       1.656 -20.809  11.923  1.00  0.00    -0.504 OA
ATOM     19  H   UNL     1       0.680 -21.081  11.932  1.00  0.00     0.293 HD
ENDBRANCH  15  18
BRANCH  17  20
ATOM     20  O   UNL     1       3.805 -19.791  13.366  1.00  0.00    -0.504 OA
ATOM     21  H   UNL     1       4.370 -20.569  13.046  1.00  0.00     0.293 HD
ENDBRANCH  17  20
ENDBRANCH   1  12
BRANCH   6  22
ATOM     22  O   UNL     1       5.538 -10.766  10.697  1.00  0.00    -0.507 OA
ATOM     23  H   UNL     1       5.785 -10.100   9.982  1.00  0.00     0.293 HD
ENDBRANCH   6  22
BRANCH   8  24
ATOM     24  O   UNL     1       0.889  -9.884  11.417  1.00  0.00    -0.508 OA
ATOM     25  H   UNL     1       1.088  -8.896  11.508  1.00  0.00     0.293 HD
ENDBRANCH   8  24
TORSDOF 5
ENDMDL
MODEL 5
REMARK VINA RESULT:    -4.004      1.691      2.345
REMARK INTER + INTRA:          -4.973
REMARK INTER:                  -4.684
REMARK INTRA:                  -0.289
REMARK UNBOUND:                -0.267
REMARK SMILES O=c1cc(-c2ccc(O)c(O)c2)oc2cc(O)cc(O)c12
REMARK SMILES IDX 4 1 3 2 2 3 1 4 21 5 19 6 18 7 16 8 15 9 14 10 13 11 5 12
REMARK SMILES IDX 6 13 7 14 8 15 12 16 10 17 9 18 11 20 20 22 17 24
REMARK H PARENT 9 19 11 21 20 23 17 25
REMARK Flexibility Score: inf
ROOT
ATOM      1  C   UNL     1       3.895 -13.589  11.301  1.00  0.00     0.138 A 
ATOM      2  C   UNL     1       4.970 -13.981  12.110  1.00  0.00     0.100 A 
ATOM      3  C   UNL     1       5.190 -15.336  12.355  1.00  0.00     0.197 A 
ATOM      4  O   UNL     1       6.125 -15.655  13.136  1.00  0.00    -0.289 OA
ATOM      5  C   UNL     1       4.347 -16.305  11.760  1.00  0.00     0.107 A 
ATOM      6  C   UNL     1       4.501 -17.717  11.907  1.00  0.00     0.134 A 
ATOM      7  C   UNL     1       3.536 -18.576  11.365  1.00  0.00     0.093 A 
ATOM      8  C   UNL     1       2.458 -18.079  10.635  1.00  0.00     0.123 A 
ATOM      9  C   UNL     1       2.326 -16.704  10.439  1.00  0.00     0.094 A 
ATOM     10  C   UNL     1       3.253 -15.819  10.995  1.00  0.00     0.146 A 
ATOM     11  O   UNL     1       3.085 -14.516  10.799  1.00  0.00    -0.456 OA
ENDROOT
BRANCH   1  12
ATOM     12  C   UNL     1       3.615 -12.160  11.006  1.00  0.00     0.021 A 
ATOM     13  C   UNL     1       4.619 -11.292  10.535  1.00  0.00     0.016 A 
ATOM     14  C   UNL     1       4.325  -9.954  10.256  1.00  0.00     0.051 A 
ATOM     15  C   UNL     1       3.025  -9.464  10.436  1.00  0.00     0.157 A 
ATOM     16  C   UNL     1       2.310 -11.661  11.171  1.00  0.00     0.062 A 
ATOM     17  C   UNL     1       2.016 -10.319  10.892  1.00  0.00     0.158 A 
BRANCH  15  18
ATOM     18  O   UNL     1       2.730  -8.130  10.160  1.00  0.00    -0.504 OA
ATOM     19  H   UNL     1       2.541  -7.465  10.900  1.00  0.00     0.293 HD
ENDBRANCH  15  18
BRANCH  17  20
ATOM     20  O   UNL     1       0.723  -9.829  11.066  1.00  0.00    -0.504 OA
ATOM     21  H   UNL     1      -0.090 -10.367  10.788  1.00  0.00     0.293 HD
ENDBRANCH  17  20
ENDBRANCH   1  12
BRANCH   6  22
ATOM     22  O   UNL     1       5.587 -18.322  12.546  1.00  0.00    -0.507 OA
ATOM     23  H   UNL     1       6.467 -18.543  12.105  1.00  0.00     0.293 HD
ENDBRANCH   6  22
BRANCH   8  24
ATOM     24  O   UNL     1       1.525 -18.965  10.097  1.00  0.00    -0.508 OA
ATOM     25  H   UNL     1       0.885 -18.681   9.366  1.00  0.00     0.293 HD
ENDBRANCH   8  24
TORSDOF 5
ENDMDL
MODEL 6
REMARK VINA RESULT:    -3.941      2.397      7.874
REMARK INTER + INTRA:          -4.899
REMARK INTER:                  -4.615
REMARK INTRA:                  -0.284
REMARK UNBOUND:                -0.267
REMARK SMILES O=c1cc(-c2ccc(O)c(O)c2)oc2cc(O)cc(O)c12
REMARK SMILES IDX 4 1 3 2 2 3 1 4 21 5 19 6 18 7 16 8 15 9 14 10 13 11 5 12
REMARK SMILES IDX 6 13 7 14 8 15 12 16 10 17 9 18 11 20 20 22 17 24
REMARK H PARENT 9 19 11 21 20 23 17 25
REMARK Flexibility Score: inf
ROOT
ATOM      1  C   UNL     1       3.782 -12.889  11.397  1.00  0.00     0.138 A 
ATOM      2  C   UNL     1       2.563 -12.385  10.926  1.00  0.00     0.100 A 
ATOM      3  C   UNL     1       2.277 -11.027  11.070  1.00  0.00     0.197 A 
ATOM      4  O   UNL     1       1.149 -10.614  10.694  1.00  0.00    -0.289 OA
ATOM      5  C   UNL     1       3.231 -10.166  11.662  1.00  0.00     0.107 A 
ATOM      6  C   UNL     1       3.065  -8.757  11.824  1.00  0.00     0.134 A 
ATOM      7  C   UNL     1       4.029  -8.025  12.528  1.00  0.00     0.093 A 
ATOM      8  C   UNL     1       5.179  -8.638  13.023  1.00  0.00     0.123 A 
ATOM      9  C   UNL     1       5.378 -10.005  12.825  1.00  0.00     0.094 A 
ATOM     10  C   UNL     1       4.419 -10.769  12.155  1.00  0.00     0.146 A 
ATOM     11  O   UNL     1       4.639 -12.069  11.998  1.00  0.00    -0.456 OA
ENDROOT
BRANCH   1  12
ATOM     12  C   UNL     1       4.138 -14.326  11.269  1.00  0.00     0.021 A 
ATOM     13  C   UNL     1       5.474 -14.746  11.124  1.00  0.00     0.016 A 
ATOM     14  C   UNL     1       5.781 -16.106  11.015  1.00  0.00     0.051 A 
ATOM     15  C   UNL     1       4.762 -17.066  11.057  1.00  0.00     0.157 A 
ATOM     16  C   UNL     1       3.123 -15.298  11.323  1.00  0.00     0.062 A 
ATOM     17  C   UNL     1       3.432 -16.662  11.213  1.00  0.00     0.158 A 
BRANCH  15  18
ATOM     18  O   UNL     1       5.066 -18.422  10.947  1.00  0.00    -0.504 OA
ATOM     19  H   UNL     1       5.281 -18.984  11.762  1.00  0.00     0.293 HD
ENDBRANCH  15  18
BRANCH  17  20
ATOM     20  O   UNL     1       2.421 -17.620  11.259  1.00  0.00    -0.504 OA
ATOM     21  H   UNL     1       2.565 -18.522  11.698  1.00  0.00     0.293 HD
ENDBRANCH  17  20
ENDBRANCH   1  12
BRANCH   6  22
ATOM     22  O   UNL     1       1.994  -8.030  11.294  1.00  0.00    -0.507 OA
ATOM     23  H   UNL     1       1.233  -8.428  10.766  1.00  0.00     0.293 HD
ENDBRANCH   6  22
BRANCH   8  24
ATOM     24  O   UNL     1       6.125  -7.875  13.707  1.00  0.00    -0.508 OA
ATOM     25  H   UNL     1       7.102  -7.883  13.443  1.00  0.00     0.293 HD
ENDBRANCH   8  24
TORSDOF 5
ENDMDL
MODEL 7
REMARK VINA RESULT:    -3.123      1.532      2.868
REMARK INTER + INTRA:          -3.937
REMARK INTER:                  -3.649
REMARK INTRA:                  -0.288
REMARK UNBOUND:                -0.267
REMARK SMILES O=c1cc(-c2ccc(O)c(O)c2)oc2cc(O)cc(O)c12
REMARK SMILES IDX 4 1 3 2 2 3 1 4 21 5 19 6 18 7 16 8 15 9 14 10 13 11 5 12
REMARK SMILES IDX 6 13 7 14 8 15 12 16 10 17 9 18 11 20 20 22 17 24
REMARK H PARENT 9 19 11 21 20 23 17 25
REMARK Flexibility Score: inf
ROOT
ATOM      1  C   UNL     1       3.962 -14.684  11.619  1.00  0.00     0.138 A 
ATOM      2  C   UNL     1       2.935 -15.079  10.751  1.00  0.00     0.100 A 
ATOM      3  C   UNL     1       2.545 -16.418  10.708  1.00  0.00     0.197 A 
ATOM      4  O   UNL     1       1.663 -16.754   9.875  1.00  0.00    -0.289 OA
ATOM      5  C   UNL     1       3.168 -17.360  11.562  1.00  0.00     0.107 A 
ATOM      6  C   UNL     1       2.825 -18.744  11.633  1.00  0.00     0.134 A 
ATOM      7  C   UNL     1       3.589 -19.604  12.432  1.00  0.00     0.093 A 
ATOM      8  C   UNL     1       4.643 -19.121  13.206  1.00  0.00     0.123 A 
ATOM      9  C   UNL     1       4.954 -17.761  13.185  1.00  0.00     0.094 A 
ATOM     10  C   UNL     1       4.232 -16.883  12.373  1.00  0.00     0.146 A 
ATOM     11  O   UNL     1       4.568 -15.598  12.371  1.00  0.00    -0.456 OA
ENDROOT
BRANCH   1  12
ATOM     12  C   UNL     1       4.415 -13.272  11.706  1.00  0.00     0.021 A 
ATOM     13  C   UNL     1       5.717 -12.938  12.125  1.00  0.00     0.016 A 
ATOM     14  C   UNL     1       6.119 -11.600  12.188  1.00  0.00     0.051 A 
ATOM     15  C   UNL     1       5.233 -10.578  11.827  1.00  0.00     0.157 A 
ATOM     16  C   UNL     1       3.536 -12.239  11.333  1.00  0.00     0.062 A 
ATOM     17  C   UNL     1       3.940 -10.898  11.397  1.00  0.00     0.158 A 
BRANCH  15  18
ATOM     18  O   UNL     1       5.631  -9.244  11.890  1.00  0.00    -0.504 OA
ATOM     19  H   UNL     1       5.161  -8.578  12.492  1.00  0.00     0.293 HD
ENDBRANCH  15  18
BRANCH  17  20
ATOM     20  O   UNL     1       3.061  -9.878  11.035  1.00  0.00    -0.504 OA
ATOM     21  H   UNL     1       2.433  -9.455  11.708  1.00  0.00     0.293 HD
ENDBRANCH  17  20
ENDBRANCH   1  12
BRANCH   6  22
ATOM     22  O   UNL     1       1.737 -19.314  10.965  1.00  0.00    -0.507 OA
ATOM     23  H   UNL     1       1.218 -20.117  11.288  1.00  0.00     0.293 HD
ENDBRANCH   6  22
BRANCH   8  24
ATOM     24  O   UNL     1       5.372 -20.004  14.001  1.00  0.00    -0.508 OA
ATOM     25  H   UNL     1       6.384 -19.980  14.028  1.00  0.00     0.293 HD
ENDBRANCH   8  24
TORSDOF 5
ENDMDL
MODEL 8
REMARK VINA RESULT:    -2.993      2.415      7.269
REMARK INTER + INTRA:          -3.785
REMARK INTER:                  -3.510
REMARK INTRA:                  -0.275
REMARK UNBOUND:                -0.267
REMARK SMILES O=c1cc(-c2ccc(O)c(O)c2)oc2cc(O)cc(O)c12
REMARK SMILES IDX 4 1 3 2 2 3 1 4 21 5 19 6 18 7 16 8 15 9 14 10 13 11 5 12
REMARK SMILES IDX 6 13 7 14 8 15 12 16 10 17 9 18 11 20 20 22 17 24
REMARK H PARENT 9 19 11 21 20 23 17 25
REMARK Flexibility Score: inf
ROOT
ATOM      1  C   UNL     1       3.990 -14.449  11.477  1.00  0.00     0.138 A 
ATOM      2  C   UNL     1       2.619 -14.162  11.540  1.00  0.00     0.100 A 
ATOM      3  C   UNL     1       2.178 -12.854  11.335  1.00  0.00     0.197 A 
ATOM      4  O   UNL     1       0.948 -12.616  11.460  1.00  0.00    -0.289 OA
ATOM      5  C   UNL     1       3.113 -11.835  11.036  1.00  0.00     0.107 A 
ATOM      6  C   UNL     1       2.774 -10.474  10.768  1.00  0.00     0.134 A 
ATOM      7  C   UNL     1       3.795  -9.530  10.598  1.00  0.00     0.093 A 
ATOM      8  C   UNL     1       5.136  -9.907  10.626  1.00  0.00     0.123 A 
ATOM      9  C   UNL     1       5.479 -11.243  10.833  1.00  0.00     0.094 A 
ATOM     10  C   UNL     1       4.485 -12.203  11.039  1.00  0.00     0.146 A 
ATOM     11  O   UNL     1       4.852 -13.463  11.248  1.00  0.00    -0.456 OA
ENDROOT
BRANCH   1  12
ATOM     12  C   UNL     1       4.514 -15.823  11.685  1.00  0.00     0.021 A 
ATOM     13  C   UNL     1       5.520 -16.363  10.861  1.00  0.00     0.016 A 
ATOM     14  C   UNL     1       6.002 -17.656  11.087  1.00  0.00     0.051 A 
ATOM     15  C   UNL     1       5.494 -18.426  12.141  1.00  0.00     0.157 A 
ATOM     16  C   UNL     1       4.019 -16.599  12.750  1.00  0.00     0.062 A 
ATOM     17  C   UNL     1       4.502 -17.895  12.975  1.00  0.00     0.158 A 
BRANCH  15  18
ATOM     18  O   UNL     1       5.971 -19.715  12.367  1.00  0.00    -0.504 OA
ATOM     19  H   UNL     1       5.474 -20.531  12.030  1.00  0.00     0.293 HD
ENDBRANCH  15  18
BRANCH  17  20
ATOM     20  O   UNL     1       4.002 -18.663  14.025  1.00  0.00    -0.504 OA
ATOM     21  H   UNL     1       4.562 -19.379  14.472  1.00  0.00     0.293 HD
ENDBRANCH  17  20
ENDBRANCH   1  12
BRANCH   6  22
ATOM     22  O   UNL     1       1.463 -10.007  10.636  1.00  0.00    -0.507 OA
ATOM     23  H   UNL     1       1.188  -9.038  10.687  1.00  0.00     0.293 HD
ENDBRANCH   6  22
BRANCH   8  24
ATOM     24  O   UNL     1       6.125  -8.942  10.437  1.00  0.00    -0.508 OA
ATOM     25  H   UNL     1       7.061  -9.064  10.803  1.00  0.00     0.293 HD
ENDBRANCH   8  24
TORSDOF 5
ENDMDL
