MODEL 1
REMARK VINA RESULT:    -3.003      0.000      0.000
REMARK INTER + INTRA:          -3.851
REMARK INTER:                  -3.705
REMARK INTRA:                  -0.146
REMARK UNBOUND:                -0.146
REMARK SMILES CCCCCC(=O)[O-]
REMARK SMILES IDX 4 1 5 2 6 3 7 4 8 5 3 6 2 7 1 8
REMARK H PARENT
REMARK Flexibility Score: inf
ROOT
ATOM      1  C   UNL     1       2.594  13.772  10.647  1.00  0.00     0.006 C 
ENDROOT
BRANCH   1   2
ATOM      2  C   UNL     1       2.252  14.312   9.250  1.00  0.00     0.053 C 
BRANCH   2   3
ATOM      3  C   UNL     1       1.062  15.220   9.276  1.00  0.00     0.041 C 
ATOM      4  O   UNL     1      -0.101  14.741   9.333  1.00  0.00    -0.550 OA
ATOM      5  O   UNL     1       1.235  16.596   9.205  1.00  0.00    -0.550 OA
ENDBRANCH   2   3
ENDBRANCH   1   2
BRANCH   1   6
ATOM      6  C   UNL     1       3.001  14.852  11.669  1.00  0.00     0.000 C 
BRANCH   6   7
ATOM      7  C   UNL     1       4.381  14.642  12.317  1.00  0.00    -0.003 C 
ATOM      8  C   UNL     1       5.380  13.955  11.388  1.00  0.00     0.004 C 
ENDBRANCH   6   7
ENDBRANCH   1   6
TORSDOF 4
ENDMDL
MODEL 2
REMARK VINA RESULT:    -3.001      0.614      1.616
REMARK INTER + INTRA:          -3.849
REMARK INTER:                  -3.761
REMARK INTRA:                  -0.087
REMARK UNBOUND:                -0.146
REMARK SMILES CCCCCC(=O)[O-]
REMARK SMILES IDX 4 1 5 2 6 3 7 4 8 5 3 6 2 7 1 8
REMARK H PARENT
REMARK Flexibility Score: inf
ROOT
ATOM      1  C   UNL     1       2.796  13.806  10.350  1.00  0.00     0.006 C 
ENDROOT
BRANCH   1   2
ATOM      2  C   UNL     1       2.172  14.208   9.005  1.00  0.00     0.053 C 
BRANCH   2   3
ATOM      3  C   UNL     1       1.010  15.136   9.181  1.00  0.00     0.041 C 
ATOM      4  O   UNL     1       1.196  16.379   9.256  1.00  0.00    -0.550 OA
ATOM      5  O   UNL     1      -0.277  14.626   9.297  1.00  0.00    -0.550 OA
ENDBRANCH   2   3
ENDBRANCH   1   2
BRANCH   1   6
ATOM      6  C   UNL     1       4.316  13.552  10.299  1.00  0.00     0.000 C 
BRANCH   6   7
ATOM      7  C   UNL     1       5.090  14.002  11.551  1.00  0.00    -0.003 C 
ATOM      8  C   UNL     1       4.248  14.852  12.501  1.00  0.00     0.004 C 
ENDBRANCH   6   7
ENDBRANCH   1   6
TORSDOF 4
ENDMDL
MODEL 3
REMARK VINA RESULT:    -2.980      1.551      1.869
REMARK INTER + INTRA:          -3.822
REMARK INTER:                  -3.569
REMARK INTRA:                  -0.253
REMARK UNBOUND:                -0.146
REMARK SMILES CCCCCC(=O)[O-]
REMARK SMILES IDX 4 1 5 2 6 3 7 4 8 5 3 6 2 7 1 8
REMARK H PARENT
REMARK Flexibility Score: inf
ROOT
ATOM      1  C   UNL     1       2.631  14.582  12.124  1.00  0.00     0.006 C 
ENDROOT
BRANCH   1   2
ATOM      2  C   UNL     1       2.215  15.192  10.776  1.00  0.00     0.053 C 
BRANCH   2   3
ATOM      3  C   UNL     1       2.226  14.177   9.675  1.00  0.00     0.041 C 
ATOM      4  O   UNL     1       2.576  12.991   9.909  1.00  0.00    -0.550 OA
ATOM      5  O   UNL     1       1.881  14.550   8.382  1.00  0.00    -0.550 OA
ENDBRANCH   2   3
ENDBRANCH   1   2
BRANCH   1   6
ATOM      6  C   UNL     1       4.077  14.903  12.552  1.00  0.00     0.000 C 
BRANCH   6   7
ATOM      7  C   UNL     1       5.075  13.744  12.382  1.00  0.00    -0.003 C 
ATOM      8  C   UNL     1       5.852  13.812  11.068  1.00  0.00     0.004 C 
ENDBRANCH   6   7
ENDBRANCH   1   6
TORSDOF 4
ENDMDL
MODEL 4
REMARK VINA RESULT:    -2.971      1.899      2.341
REMARK INTER + INTRA:          -3.811
REMARK INTER:                  -3.742
REMARK INTRA:                  -0.069
REMARK UNBOUND:                -0.146
REMARK SMILES CCCCCC(=O)[O-]
REMARK SMILES IDX 4 1 5 2 6 3 7 4 8 5 3 6 2 7 1 8
REMARK H PARENT
REMARK Flexibility Score: inf
ROOT
ATOM      1  C   UNL     1       3.599  13.554   9.732  1.00  0.00     0.006 C 
ENDROOT
BRANCH   1   2
ATOM      2  C   UNL     1       3.475  13.200   8.241  1.00  0.00     0.053 C 
BRANCH   2   3
ATOM      3  C   UNL     1       2.324  13.903   7.592  1.00  0.00     0.041 C 
ATOM      4  O   UNL     1       2.112  13.768   6.359  1.00  0.00    -0.550 OA
ATOM      5  O   UNL     1       1.504  14.736   8.344  1.00  0.00    -0.550 OA
ENDBRANCH   2   3
ENDBRANCH   1   2
BRANCH   1   6
ATOM      6  C   UNL     1       4.896  13.058  10.401  1.00  0.00     0.000 C 
BRANCH   6   7
ATOM      7  C   UNL     1       5.448  13.978  11.504  1.00  0.00    -0.003 C 
ATOM      8  C   UNL     1       4.350  14.648  12.329  1.00  0.00     0.004 C 
ENDBRANCH   6   7
ENDBRANCH   1   6
TORSDOF 4
ENDMDL
MODEL 5
REMARK VINA RESULT:    -2.908      3.321      4.549
REMARK INTER + INTRA:          -3.734
REMARK INTER:                  -3.551
REMARK INTRA:                  -0.183
REMARK UNBOUND:                -0.146
REMARK SMILES CCCCCC(=O)[O-]
REMARK SMILES IDX 4 1 5 2 6 3 7 4 8 5 3 6 2 7 1 8
REMARK H PARENT
REMARK Flexibility Score: inf
ROOT
ATOM      1  C   UNL     1       3.458  13.229   7.884  1.00  0.00     0.006 C 
ENDROOT
BRANCH   1   2
ATOM      2  C   UNL     1       3.990  13.195   9.326  1.00  0.00     0.053 C 
BRANCH   2   3
ATOM      3  C   UNL     1       4.017  11.804   9.879  1.00  0.00     0.041 C 
ATOM      4  O   UNL     1       2.946  11.164  10.040  1.00  0.00    -0.550 OA
ATOM      5  O   UNL     1       5.225  11.227  10.249  1.00  0.00    -0.550 OA
ENDBRANCH   2   3
ENDBRANCH   1   2
BRANCH   1   6
ATOM      6  C   UNL     1       2.245  14.158   7.673  1.00  0.00     0.000 C 
BRANCH   6   7
ATOM      7  C   UNL     1       1.363  14.365   8.917  1.00  0.00    -0.003 C 
ATOM      8  C   UNL     1       1.178  15.837   9.280  1.00  0.00     0.004 C 
ENDBRANCH   6   7
ENDBRANCH   1   6
TORSDOF 4
ENDMDL
MODEL 6
REMARK VINA RESULT:    -2.905      4.489      5.652
REMARK INTER + INTRA:          -3.730
REMARK INTER:                  -3.506
REMARK INTRA:                  -0.224
REMARK UNBOUND:                -0.146
REMARK SMILES CCCCCC(=O)[O-]
REMARK SMILES IDX 4 1 5 2 6 3 7 4 8 5 3 6 2 7 1 8
REMARK H PARENT
REMARK Flexibility Score: inf
ROOT
ATOM      1  C   UNL     1       6.047  13.786  11.143  1.00  0.00     0.006 C 
ENDROOT
BRANCH   1   2
ATOM      2  C   UNL     1       6.830  12.502  11.458  1.00  0.00     0.053 C 
BRANCH   2   3
ATOM      3  C   UNL     1       6.908  12.241  12.930  1.00  0.00     0.041 C 
ATOM      4  O   UNL     1       5.860  12.026  13.593  1.00  0.00    -0.550 OA
ATOM      5  O   UNL     1       8.137  12.268  13.577  1.00  0.00    -0.550 OA
ENDBRANCH   2   3
ENDBRANCH   1   2
BRANCH   1   6
ATOM      6  C   UNL     1       4.598  13.552  10.671  1.00  0.00     0.000 C 
BRANCH   6   7
ATOM      7  C   UNL     1       3.522  14.275  11.500  1.00  0.00    -0.003 C 
ATOM      8  C   UNL     1       4.090  14.982  12.729  1.00  0.00     0.004 C 
ENDBRANCH   6   7
ENDBRANCH   1   6
TORSDOF 4
ENDMDL
MODEL 7
REMARK VINA RESULT:    -2.905      3.936      5.092
REMARK INTER + INTRA:          -3.730
REMARK INTER:                  -3.563
REMARK INTRA:                  -0.167
REMARK UNBOUND:                -0.146
REMARK SMILES CCCCCC(=O)[O-]
REMARK SMILES IDX 4 1 5 2 6 3 7 4 8 5 3 6 2 7 1 8
REMARK H PARENT
REMARK Flexibility Score: inf
ROOT
ATOM      1  C   UNL     1       5.429  13.902  11.292  1.00  0.00     0.006 C 
ENDROOT
BRANCH   1   2
ATOM      2  C   UNL     1       6.395  12.838  11.836  1.00  0.00     0.053 C 
BRANCH   2   3
ATOM      3  C   UNL     1       6.151  11.494  11.223  1.00  0.00     0.041 C 
ATOM      4  O   UNL     1       5.057  11.246  10.651  1.00  0.00    -0.550 OA
ATOM      5  O   UNL     1       7.121  10.503  11.312  1.00  0.00    -0.550 OA
ENDBRANCH   2   3
ENDBRANCH   1   2
BRANCH   1   6
ATOM      6  C   UNL     1       4.498  14.522  12.354  1.00  0.00     0.000 C 
BRANCH   6   7
ATOM      7  C   UNL     1       3.065  14.809  11.871  1.00  0.00    -0.003 C 
ATOM      8  C   UNL     1       2.705  14.058  10.589  1.00  0.00     0.004 C 
ENDBRANCH   6   7
ENDBRANCH   1   6
TORSDOF 4
ENDMDL
MODEL 8
REMARK VINA RESULT:    -2.904      5.415      6.663
REMARK INTER + INTRA:          -3.729
REMARK INTER:                  -3.624
REMARK INTRA:                  -0.105
REMARK UNBOUND:                -0.146
REMARK SMILES CCCCCC(=O)[O-]
REMARK SMILES IDX 4 1 5 2 6 3 7 4 8 5 3 6 2 7 1 8
REMARK H PARENT
REMARK Flexibility Score: inf
ROOT
ATOM      1  C   UNL     1       5.748  12.185  13.030  1.00  0.00     0.006 C 
ENDROOT
BRANCH   1   2
ATOM      2  C   UNL     1       6.995  11.985  13.906  1.00  0.00     0.053 C 
BRANCH   2   3
ATOM      3  C   UNL     1       6.655  11.948  15.364  1.00  0.00     0.041 C 
ATOM      4  O   UNL     1       7.322  11.229  16.153  1.00  0.00    -0.550 OA
ATOM      5  O   UNL     1       5.580  12.684  15.846  1.00  0.00    -0.550 OA
ENDBRANCH   2   3
ENDBRANCH   1   2
BRANCH   1   6
ATOM      6  C   UNL     1       5.882  13.300  11.973  1.00  0.00     0.000 C 
BRANCH   6   7
ATOM      7  C   UNL     1       4.577  14.050  11.654  1.00  0.00    -0.003 C 
ATOM      8  C   UNL     1       4.161  15.022  12.758  1.00  0.00     0.004 C 
ENDBRANCH   6   7
ENDBRANCH   1   6
TORSDOF 4
ENDMDL
MODEL 9
REMARK VINA RESULT:    -2.816      3.583      4.306
REMARK INTER + INTRA:          -3.620
REMARK INTER:                  -3.341
REMARK INTRA:                  -0.279
REMARK UNBOUND:                -0.146
REMARK SMILES CCCCCC(=O)[O-]
REMARK SMILES IDX 4 1 5 2 6 3 7 4 8 5 3 6 2 7 1 8
REMARK H PARENT
REMARK Flexibility Score: inf
ROOT
ATOM      1  C   UNL     1       5.449  13.792  11.342  1.00  0.00     0.006 C 
ENDROOT
BRANCH   1   2
ATOM      2  C   UNL     1       4.482  13.438  10.202  1.00  0.00     0.053 C 
BRANCH   2   3
ATOM      3  C   UNL     1       4.273  11.960  10.083  1.00  0.00     0.041 C 
ATOM      4  O   UNL     1       4.630  11.350   9.042  1.00  0.00    -0.550 OA
ATOM      5  O   UNL     1       3.652  11.262  11.111  1.00  0.00    -0.550 OA
ENDBRANCH   2   3
ENDBRANCH   1   2
BRANCH   1   6
ATOM      6  C   UNL     1       6.806  13.062  11.281  1.00  0.00     0.000 C 
BRANCH   6   7
ATOM      7  C   UNL     1       7.145  12.221  12.524  1.00  0.00    -0.003 C 
ATOM      8  C   UNL     1       6.041  12.243  13.580  1.00  0.00     0.004 C 
ENDBRANCH   6   7
ENDBRANCH   1   6
TORSDOF 4
ENDMDL
