MODEL 1
REMARK VINA RESULT:    -3.903      0.000      0.000
REMARK INTER + INTRA:          -5.238
REMARK INTER:                  -5.044
REMARK INTRA:                  -0.194
REMARK UNBOUND:                -0.194
REMARK SMILES CCCCCCC(=O)[O-]
REMARK SMILES IDX 5 1 6 2 7 3 8 4 9 5 4 6 3 7 2 8 1 9
REMARK H PARENT
REMARK Flexibility Score: inf
ROOT
ATOM      1  C   UNL     1      -2.129   6.923   5.127  1.00  0.00     0.006 C 
ENDROOT
BRANCH   1   2
ATOM      2  C   UNL     1      -2.943   5.664   4.801  1.00  0.00     0.053 C 
BRANCH   2   3
ATOM      3  C   UNL     1      -3.404   5.000   6.060  1.00  0.00     0.041 C 
ATOM      4  O   UNL     1      -3.540   3.749   6.103  1.00  0.00    -0.550 OA
ATOM      5  O   UNL     1      -3.635   5.758   7.201  1.00  0.00    -0.550 OA
ENDBRANCH   2   3
ENDBRANCH   1   2
BRANCH   1   6
ATOM      6  C   UNL     1      -2.889   8.219   4.805  1.00  0.00     0.000 C 
BRANCH   6   7
ATOM      7  C   UNL     1      -2.864   9.225   5.966  1.00  0.00    -0.000 C 
BRANCH   7   8
ATOM      8  C   UNL     1      -2.121   8.647   7.175  1.00  0.00    -0.003 C 
ATOM      9  C   UNL     1      -1.274   9.714   7.863  1.00  0.00     0.004 C 
ENDBRANCH   7   8
ENDBRANCH   6   7
ENDBRANCH   1   6
TORSDOF 5
ENDMDL
MODEL 2
REMARK VINA RESULT:    -3.748      1.715      3.992
REMARK INTER + INTRA:          -5.038
REMARK INTER:                  -4.772
REMARK INTRA:                  -0.266
REMARK UNBOUND:                -0.194
REMARK SMILES CCCCCCC(=O)[O-]
REMARK SMILES IDX 5 1 6 2 7 3 8 4 9 5 4 6 3 7 2 8 1 9
REMARK H PARENT
REMARK Flexibility Score: inf
ROOT
ATOM      1  C   UNL     1      -2.088   8.273   6.696  1.00  0.00     0.006 C 
ENDROOT
BRANCH   1   2
ATOM      2  C   UNL     1      -3.158   9.048   7.478  1.00  0.00     0.053 C 
BRANCH   2   3
ATOM      3  C   UNL     1      -3.641   8.242   8.641  1.00  0.00     0.041 C 
ATOM      4  O   UNL     1      -4.072   8.816   9.675  1.00  0.00    -0.550 OA
ATOM      5  O   UNL     1      -3.660   6.854   8.565  1.00  0.00    -0.550 OA
ENDBRANCH   2   3
ENDBRANCH   1   2
BRANCH   1   6
ATOM      6  C   UNL     1      -2.554   7.881   5.286  1.00  0.00     0.000 C 
BRANCH   6   7
ATOM      7  C   UNL     1      -2.138   6.453   4.900  1.00  0.00    -0.000 C 
BRANCH   7   8
ATOM      8  C   UNL     1      -3.356   5.524   4.845  1.00  0.00    -0.003 C 
ATOM      9  C   UNL     1      -3.317   4.499   5.975  1.00  0.00     0.004 C 
ENDBRANCH   7   8
ENDBRANCH   6   7
ENDBRANCH   1   6
TORSDOF 5
ENDMDL
MODEL 3
REMARK VINA RESULT:    -3.653      1.583      3.533
REMARK INTER + INTRA:          -4.915
REMARK INTER:                  -4.542
REMARK INTRA:                  -0.373
REMARK UNBOUND:                -0.194
REMARK SMILES CCCCCCC(=O)[O-]
REMARK SMILES IDX 5 1 6 2 7 3 8 4 9 5 4 6 3 7 2 8 1 9
REMARK H PARENT
REMARK Flexibility Score: inf
ROOT
ATOM      1  C   UNL     1      -1.949   8.620   7.039  1.00  0.00     0.006 C 
ENDROOT
BRANCH   1   2
ATOM      2  C   UNL     1      -2.516   8.803   8.453  1.00  0.00     0.053 C 
BRANCH   2   3
ATOM      3  C   UNL     1      -3.738   7.960   8.638  1.00  0.00     0.041 C 
ATOM      4  O   UNL     1      -3.694   6.722   8.411  1.00  0.00    -0.550 OA
ATOM      5  O   UNL     1      -4.913   8.532   9.109  1.00  0.00    -0.550 OA
ENDBRANCH   2   3
ENDBRANCH   1   2
BRANCH   1   6
ATOM      6  C   UNL     1      -2.909   9.116   5.947  1.00  0.00     0.000 C 
BRANCH   6   7
ATOM      7  C   UNL     1      -2.944   8.189   4.723  1.00  0.00    -0.000 C 
BRANCH   7   8
ATOM      8  C   UNL     1      -2.077   6.946   4.953  1.00  0.00    -0.003 C 
ATOM      9  C   UNL     1      -2.930   5.682   5.006  1.00  0.00     0.004 C 
ENDBRANCH   7   8
ENDBRANCH   6   7
ENDBRANCH   1   6
TORSDOF 5
ENDMDL
MODEL 4
REMARK VINA RESULT:    -3.626     12.866     14.658
REMARK INTER + INTRA:          -4.880
REMARK INTER:                  -4.507
REMARK INTRA:                  -0.374
REMARK UNBOUND:                -0.194
REMARK SMILES CCCCCCC(=O)[O-]
REMARK SMILES IDX 5 1 6 2 7 3 8 4 9 5 4 6 3 7 2 8 1 9
REMARK H PARENT
REMARK Flexibility Score: inf
ROOT
ATOM      1  C   UNL     1       2.628  -4.975   9.068  1.00  0.00     0.006 C 
ENDROOT
BRANCH   1   2
ATOM      2  C   UNL     1       2.192  -4.792   7.607  1.00  0.00     0.053 C 
BRANCH   2   3
ATOM      3  C   UNL     1       0.880  -5.468   7.366  1.00  0.00     0.041 C 
ATOM      4  O   UNL     1       0.760  -6.707   7.556  1.00  0.00    -0.550 OA
ATOM      5  O   UNL     1      -0.226  -4.721   6.977  1.00  0.00    -0.550 OA
ENDBRANCH   2   3
ENDBRANCH   1   2
BRANCH   1   6
ATOM      6  C   UNL     1       3.822  -5.930   9.214  1.00  0.00     0.000 C 
BRANCH   6   7
ATOM      7  C   UNL     1       4.595  -6.117   7.899  1.00  0.00    -0.000 C 
BRANCH   7   8
ATOM      8  C   UNL     1       4.922  -7.596   7.662  1.00  0.00    -0.003 C 
ATOM      9  C   UNL     1       3.731  -8.486   8.008  1.00  0.00     0.004 C 
ENDBRANCH   7   8
ENDBRANCH   6   7
ENDBRANCH   1   6
TORSDOF 5
ENDMDL
MODEL 5
REMARK VINA RESULT:    -3.560      1.729      2.234
REMARK INTER + INTRA:          -4.794
REMARK INTER:                  -4.482
REMARK INTRA:                  -0.313
REMARK UNBOUND:                -0.194
REMARK SMILES CCCCCCC(=O)[O-]
REMARK SMILES IDX 5 1 6 2 7 3 8 4 9 5 4 6 3 7 2 8 1 9
REMARK H PARENT
REMARK Flexibility Score: inf
ROOT
ATOM      1  C   UNL     1      -2.116   8.172   6.412  1.00  0.00     0.006 C 
ENDROOT
BRANCH   1   2
ATOM      2  C   UNL     1      -2.483   7.449   5.109  1.00  0.00     0.053 C 
BRANCH   2   3
ATOM      3  C   UNL     1      -2.778   6.007   5.379  1.00  0.00     0.041 C 
ATOM      4  O   UNL     1      -2.364   5.118   4.589  1.00  0.00    -0.550 OA
ATOM      5  O   UNL     1      -3.468   5.642   6.528  1.00  0.00    -0.550 OA
ENDBRANCH   2   3
ENDBRANCH   1   2
BRANCH   1   6
ATOM      6  C   UNL     1      -2.918   9.467   6.616  1.00  0.00     0.000 C 
BRANCH   6   7
ATOM      7  C   UNL     1      -3.574   9.545   8.003  1.00  0.00    -0.000 C 
BRANCH   7   8
ATOM      8  C   UNL     1      -3.185   8.337   8.862  1.00  0.00    -0.003 C 
ATOM      9  C   UNL     1      -4.418   7.554   9.302  1.00  0.00     0.004 C 
ENDBRANCH   7   8
ENDBRANCH   6   7
ENDBRANCH   1   6
TORSDOF 5
ENDMDL
MODEL 6
REMARK VINA RESULT:    -3.463     14.236     15.832
REMARK INTER + INTRA:          -4.669
REMARK INTER:                  -4.312
REMARK INTRA:                  -0.357
REMARK UNBOUND:                -0.194
REMARK SMILES CCCCCCC(=O)[O-]
REMARK SMILES IDX 5 1 6 2 7 3 8 4 9 5 4 6 3 7 2 8 1 9
REMARK H PARENT
REMARK Flexibility Score: inf
ROOT
ATOM      1  C   UNL     1      -5.340   2.939  -6.808  1.00  0.00     0.006 C 
ENDROOT
BRANCH   1   2
ATOM      2  C   UNL     1      -4.080   2.570  -7.603  1.00  0.00     0.053 C 
BRANCH   2   3
ATOM      3  C   UNL     1      -3.484   3.789  -8.232  1.00  0.00     0.041 C 
ATOM      4  O   UNL     1      -2.266   4.060  -8.061  1.00  0.00    -0.550 OA
ATOM      5  O   UNL     1      -4.262   4.601  -9.048  1.00  0.00    -0.550 OA
ENDBRANCH   2   3
ENDBRANCH   1   2
BRANCH   1   6
ATOM      6  C   UNL     1      -6.635   2.530  -7.529  1.00  0.00     0.000 C 
BRANCH   6   7
ATOM      7  C   UNL     1      -6.401   1.457  -8.603  1.00  0.00    -0.000 C 
BRANCH   7   8
ATOM      8  C   UNL     1      -7.225   1.753  -9.861  1.00  0.00    -0.003 C 
ATOM      9  C   UNL     1      -7.352   3.255 -10.096  1.00  0.00     0.004 C 
ENDBRANCH   7   8
ENDBRANCH   6   7
ENDBRANCH   1   6
TORSDOF 5
ENDMDL
MODEL 7
REMARK VINA RESULT:    -3.409     14.265     15.482
REMARK INTER + INTRA:          -4.599
REMARK INTER:                  -4.361
REMARK INTRA:                  -0.238
REMARK UNBOUND:                -0.194
REMARK SMILES CCCCCCC(=O)[O-]
REMARK SMILES IDX 5 1 6 2 7 3 8 4 9 5 4 6 3 7 2 8 1 9
REMARK H PARENT
REMARK Flexibility Score: inf
ROOT
ATOM      1  C   UNL     1      -3.057   3.656  -8.155  1.00  0.00     0.006 C 
ENDROOT
BRANCH   1   2
ATOM      2  C   UNL     1      -3.507   4.562  -9.310  1.00  0.00     0.053 C 
BRANCH   2   3
ATOM      3  C   UNL     1      -2.699   5.821  -9.331  1.00  0.00     0.041 C 
ATOM      4  O   UNL     1      -1.668   5.900 -10.050  1.00  0.00    -0.550 OA
ATOM      5  O   UNL     1      -3.112   6.924  -8.594  1.00  0.00    -0.550 OA
ENDBRANCH   2   3
ENDBRANCH   1   2
BRANCH   1   6
ATOM      6  C   UNL     1      -4.083   2.561  -7.829  1.00  0.00     0.000 C 
BRANCH   6   7
ATOM      7  C   UNL     1      -5.056   2.974  -6.713  1.00  0.00    -0.000 C 
BRANCH   7   8
ATOM      8  C   UNL     1      -6.500   2.626  -7.089  1.00  0.00    -0.003 C 
ATOM      9  C   UNL     1      -6.623   2.318  -8.579  1.00  0.00     0.004 C 
ENDBRANCH   7   8
ENDBRANCH   6   7
ENDBRANCH   1   6
TORSDOF 5
ENDMDL
MODEL 8
REMARK VINA RESULT:    -3.382     13.128     15.026
REMARK INTER + INTRA:          -4.564
REMARK INTER:                  -4.340
REMARK INTRA:                  -0.224
REMARK UNBOUND:                -0.194
REMARK SMILES CCCCCCC(=O)[O-]
REMARK SMILES IDX 5 1 6 2 7 3 8 4 9 5 4 6 3 7 2 8 1 9
REMARK H PARENT
REMARK Flexibility Score: inf
ROOT
ATOM      1  C   UNL     1       2.645  -6.814   8.422  1.00  0.00     0.006 C 
ENDROOT
BRANCH   1   2
ATOM      2  C   UNL     1       1.321  -6.686   7.656  1.00  0.00     0.053 C 
BRANCH   2   3
ATOM      3  C   UNL     1       1.040  -5.252   7.336  1.00  0.00     0.041 C 
ATOM      4  O   UNL     1       1.977  -4.411   7.319  1.00  0.00    -0.550 OA
ATOM      5  O   UNL     1      -0.250  -4.853   7.008  1.00  0.00    -0.550 OA
ENDBRANCH   2   3
ENDBRANCH   1   2
BRANCH   1   6
ATOM      6  C   UNL     1       3.335  -8.167   8.188  1.00  0.00     0.000 C 
BRANCH   6   7
ATOM      7  C   UNL     1       4.842  -8.026   7.928  1.00  0.00    -0.000 C 
BRANCH   7   8
ATOM      8  C   UNL     1       5.228  -6.557   7.723  1.00  0.00    -0.003 C 
ATOM      9  C   UNL     1       6.178  -6.396   6.540  1.00  0.00     0.004 C 
ENDBRANCH   7   8
ENDBRANCH   6   7
ENDBRANCH   1   6
TORSDOF 5
ENDMDL
MODEL 9
REMARK VINA RESULT:    -3.279     14.117     15.774
REMARK INTER + INTRA:          -4.432
REMARK INTER:                  -4.278
REMARK INTRA:                  -0.154
REMARK UNBOUND:                -0.194
REMARK SMILES CCCCCCC(=O)[O-]
REMARK SMILES IDX 5 1 6 2 7 3 8 4 9 5 4 6 3 7 2 8 1 9
REMARK H PARENT
REMARK Flexibility Score: inf
ROOT
ATOM      1  C   UNL     1       3.344  -7.142   8.112  1.00  0.00     0.006 C 
ENDROOT
BRANCH   1   2
ATOM      2  C   UNL     1       4.719  -7.791   7.902  1.00  0.00     0.053 C 
BRANCH   2   3
ATOM      3  C   UNL     1       4.564  -9.229   7.517  1.00  0.00     0.041 C 
ATOM      4  O   UNL     1       5.443  -9.796   6.817  1.00  0.00    -0.550 OA
ATOM      5  O   UNL     1       3.472  -9.957   7.974  1.00  0.00    -0.550 OA
ENDBRANCH   2   3
ENDBRANCH   1   2
BRANCH   1   6
ATOM      6  C   UNL     1       3.405  -5.607   8.094  1.00  0.00     0.000 C 
BRANCH   6   7
ATOM      7  C   UNL     1       2.085  -4.967   7.640  1.00  0.00    -0.000 C 
BRANCH   7   8
ATOM      8  C   UNL     1       0.932  -5.973   7.721  1.00  0.00    -0.003 C 
ATOM      9  C   UNL     1      -0.361  -5.375   7.175  1.00  0.00     0.004 C 
ENDBRANCH   7   8
ENDBRANCH   6   7
ENDBRANCH   1   6
TORSDOF 5
ENDMDL
