MODEL 1
REMARK VINA RESULT:    -3.575      0.000      0.000
REMARK INTER + INTRA:          -3.680
REMARK INTER:                  -3.680
REMARK INTRA:                   0.000
REMARK UNBOUND:                 0.000
REMARK SMILES CC1(C)[C@H]2CC[C@](C)(C2)[C@@H]1O
REMARK SMILES IDX 1 1 2 2 4 3 5 4 6 5 7 6 9 7 10 8 8 9 3 10 11 11
REMARK H PARENT 11 12
REMARK Flexibility Score: inf
ROOT
ATOM      1  C   UNL     1     151.102 146.704 136.875  1.00  0.00     0.014 C 
ATOM      2  C   UNL     1     150.427 146.478 138.253  1.00  0.00    -0.006 C 
ATOM      3  C   UNL     1     150.888 145.104 138.853  1.00  0.00    -0.002 C 
ATOM      4  C   UNL     1     150.468 144.964 140.331  1.00  0.00     0.005 C 
ATOM      5  C   UNL     1     148.939 144.841 140.242  1.00  0.00     0.010 C 
ATOM      6  C   UNL     1     148.683 144.832 138.716  1.00  0.00    -0.006 C 
ATOM      7  C   UNL     1     149.922 144.120 138.212  1.00  0.00     0.013 C 
ATOM      8  C   UNL     1     148.873 146.281 138.175  1.00  0.00     0.126 C 
ATOM      9  C   UNL     1     147.359 144.157 138.334  1.00  0.00     0.014 C 
ATOM     10  C   UNL     1     150.791 147.691 139.144  1.00  0.00     0.014 C 
ENDROOT
BRANCH   8  11
ATOM     11  O   UNL     1     148.348 146.470 136.879  1.00  0.00    -0.392 OA
ATOM     12  H   UNL     1     147.943 147.372 136.822  1.00  0.00     0.211 HD
ENDBRANCH   8  11
TORSDOF 1
ENDMDL
MODEL 2
REMARK VINA RESULT:    -3.525     12.921     14.535
REMARK INTER + INTRA:          -3.628
REMARK INTER:                  -3.628
REMARK INTRA:                   0.000
REMARK UNBOUND:                 0.000
REMARK SMILES CC1(C)[C@H]2CC[C@](C)(C2)[C@@H]1O
REMARK SMILES IDX 1 1 2 2 4 3 5 4 6 5 7 6 9 7 10 8 8 9 3 10 11 11
REMARK H PARENT 11 12
REMARK Flexibility Score: inf
ROOT
ATOM      1  C   UNL     1     134.622 151.125 137.060  1.00  0.00     0.014 C 
ATOM      2  C   UNL     1     134.923 150.375 138.385  1.00  0.00    -0.006 C 
ATOM      3  C   UNL     1     136.302 150.846 138.962  1.00  0.00    -0.002 C 
ATOM      4  C   UNL     1     136.510 150.342 140.406  1.00  0.00     0.005 C 
ATOM      5  C   UNL     1     136.681 148.826 140.218  1.00  0.00     0.010 C 
ATOM      6  C   UNL     1     136.641 148.664 138.679  1.00  0.00    -0.006 C 
ATOM      7  C   UNL     1     137.292 149.956 138.229  1.00  0.00     0.013 C 
ATOM      8  C   UNL     1     135.167 148.836 138.202  1.00  0.00     0.126 C 
ATOM      9  C   UNL     1     137.345 147.391 138.191  1.00  0.00     0.014 C 
ATOM     10  C   UNL     1     133.732 150.641 139.339  1.00  0.00     0.014 C 
ENDROOT
BRANCH   8  11
ATOM     11  O   UNL     1     134.947 148.385 136.883  1.00  0.00    -0.392 OA
ATOM     12  H   UNL     1     135.424 148.984 136.254  1.00  0.00     0.211 HD
ENDBRANCH   8  11
TORSDOF 1
ENDMDL
MODEL 3
REMARK VINA RESULT:    -3.418     17.489     19.056
REMARK INTER + INTRA:          -3.518
REMARK INTER:                  -3.518
REMARK INTRA:                   0.000
REMARK UNBOUND:                 0.000
REMARK SMILES CC1(C)[C@H]2CC[C@](C)(C2)[C@@H]1O
REMARK SMILES IDX 1 1 2 2 4 3 5 4 6 5 7 6 9 7 10 8 8 9 3 10 11 11
REMARK H PARENT 11 12
REMARK Flexibility Score: inf
ROOT
ATOM      1  C   UNL     1     133.840 134.017 139.488  1.00  0.00     0.014 C 
ATOM      2  C   UNL     1     134.025 135.538 139.243  1.00  0.00    -0.006 C 
ATOM      3  C   UNL     1     133.190 136.352 140.292  1.00  0.00    -0.002 C 
ATOM      4  C   UNL     1     133.560 137.850 140.266  1.00  0.00     0.005 C 
ATOM      5  C   UNL     1     133.013 138.315 138.907  1.00  0.00     0.010 C 
ATOM      6  C   UNL     1     132.315 137.045 138.365  1.00  0.00    -0.006 C 
ATOM      7  C   UNL     1     131.815 136.412 139.648  1.00  0.00     0.013 C 
ATOM      8  C   UNL     1     133.411 136.043 137.891  1.00  0.00     0.126 C 
ATOM      9  C   UNL     1     131.219 137.354 137.337  1.00  0.00     0.014 C 
ATOM     10  C   UNL     1     135.545 135.828 139.308  1.00  0.00     0.014 C 
ENDROOT
BRANCH   8  11
ATOM     11  O   UNL     1     132.909 135.004 137.080  1.00  0.00    -0.392 OA
ATOM     12  H   UNL     1     133.103 134.134 137.512  1.00  0.00     0.211 HD
ENDBRANCH   8  11
TORSDOF 1
ENDMDL
MODEL 4
REMARK VINA RESULT:    -3.401     12.202     13.932
REMARK INTER + INTRA:          -3.500
REMARK INTER:                  -3.500
REMARK INTRA:                   0.000
REMARK UNBOUND:                 0.000
REMARK SMILES CC1(C)[C@H]2CC[C@](C)(C2)[C@@H]1O
REMARK SMILES IDX 1 1 2 2 4 3 5 4 6 5 7 6 9 7 10 8 8 9 3 10 11 11
REMARK H PARENT 11 12
REMARK Flexibility Score: inf
ROOT
ATOM      1  C   UNL     1     138.129 147.421 137.983  1.00  0.00     0.014 C 
ATOM      2  C   UNL     1     137.255 148.396 138.816  1.00  0.00    -0.006 C 
ATOM      3  C   UNL     1     135.754 147.946 138.758  1.00  0.00    -0.002 C 
ATOM      4  C   UNL     1     134.896 148.710 139.788  1.00  0.00     0.005 C 
ATOM      5  C   UNL     1     134.881 150.141 139.226  1.00  0.00     0.010 C 
ATOM      6  C   UNL     1     135.655 149.995 137.894  1.00  0.00    -0.006 C 
ATOM      7  C   UNL     1     135.261 148.594 137.474  1.00  0.00     0.013 C 
ATOM      8  C   UNL     1     137.173 149.844 138.220  1.00  0.00     0.126 C 
ATOM      9  C   UNL     1     135.309 151.089 136.876  1.00  0.00     0.014 C 
ATOM     10  C   UNL     1     137.836 148.416 140.251  1.00  0.00     0.014 C 
ENDROOT
BRANCH   8  11
ATOM     11  O   UNL     1     138.009 150.038 137.100  1.00  0.00    -0.392 OA
ATOM     12  H   UNL     1     138.779 150.601 137.366  1.00  0.00     0.211 HD
ENDBRANCH   8  11
TORSDOF 1
ENDMDL
MODEL 5
REMARK VINA RESULT:    -3.395      2.632      4.034
REMARK INTER + INTRA:          -3.494
REMARK INTER:                  -3.494
REMARK INTRA:                   0.000
REMARK UNBOUND:                 0.000
REMARK SMILES CC1(C)[C@H]2CC[C@](C)(C2)[C@@H]1O
REMARK SMILES IDX 1 1 2 2 4 3 5 4 6 5 7 6 9 7 10 8 8 9 3 10 11 11
REMARK H PARENT 11 12
REMARK Flexibility Score: inf
ROOT
ATOM      1  C   UNL     1     148.300 145.135 140.160  1.00  0.00     0.014 C 
ATOM      2  C   UNL     1     147.212 144.454 139.288  1.00  0.00    -0.006 C 
ATOM      3  C   UNL     1     146.760 143.109 139.955  1.00  0.00    -0.002 C 
ATOM      4  C   UNL     1     145.493 142.543 139.279  1.00  0.00     0.005 C 
ATOM      5  C   UNL     1     146.004 142.122 137.893  1.00  0.00     0.010 C 
ATOM      6  C   UNL     1     147.521 142.414 137.982  1.00  0.00    -0.006 C 
ATOM      7  C   UNL     1     147.794 142.120 139.442  1.00  0.00     0.013 C 
ATOM      8  C   UNL     1     147.732 143.956 137.895  1.00  0.00     0.126 C 
ATOM      9  C   UNL     1     148.352 141.582 136.997  1.00  0.00     0.014 C 
ATOM     10  C   UNL     1     146.059 145.475 139.120  1.00  0.00     0.014 C 
ENDROOT
BRANCH   8  11
ATOM     11  O   UNL     1     149.068 144.326 137.630  1.00  0.00    -0.392 OA
ATOM     12  H   UNL     1     149.116 145.309 137.520  1.00  0.00     0.211 HD
ENDBRANCH   8  11
TORSDOF 1
ENDMDL
MODEL 6
REMARK VINA RESULT:    -3.391     10.549     11.957
REMARK INTER + INTRA:          -3.491
REMARK INTER:                  -3.491
REMARK INTRA:                   0.000
REMARK UNBOUND:                 0.000
REMARK SMILES CC1(C)[C@H]2CC[C@](C)(C2)[C@@H]1O
REMARK SMILES IDX 1 1 2 2 4 3 5 4 6 5 7 6 9 7 10 8 8 9 3 10 11 11
REMARK H PARENT 11 12
REMARK Flexibility Score: inf
ROOT
ATOM      1  C   UNL     1     136.517 148.186 140.289  1.00  0.00     0.014 C 
ATOM      2  C   UNL     1     137.139 147.136 139.330  1.00  0.00    -0.006 C 
ATOM      3  C   UNL     1     138.523 146.657 139.891  1.00  0.00    -0.002 C 
ATOM      4  C   UNL     1     139.043 145.422 139.127  1.00  0.00     0.005 C 
ATOM      5  C   UNL     1     139.377 145.993 137.739  1.00  0.00     0.010 C 
ATOM      6  C   UNL     1     139.093 147.504 137.912  1.00  0.00    -0.006 C 
ATOM      7  C   UNL     1     139.479 147.714 139.362  1.00  0.00     0.013 C 
ATOM      8  C   UNL     1     137.549 147.718 137.932  1.00  0.00     0.126 C 
ATOM      9  C   UNL     1     139.864 148.378 136.914  1.00  0.00     0.014 C 
ATOM     10  C   UNL     1     136.107 145.992 139.177  1.00  0.00     0.014 C 
ENDROOT
BRANCH   8  11
ATOM     11  O   UNL     1     137.166 149.063 137.749  1.00  0.00    -0.392 OA
ATOM     12  H   UNL     1     136.208 149.161 137.981  1.00  0.00     0.211 HD
ENDBRANCH   8  11
TORSDOF 1
ENDMDL
MODEL 7
REMARK VINA RESULT:    -3.370     11.334     13.115
REMARK INTER + INTRA:          -3.468
REMARK INTER:                  -3.468
REMARK INTRA:                   0.000
REMARK UNBOUND:                 0.000
REMARK SMILES CC1(C)[C@H]2CC[C@](C)(C2)[C@@H]1O
REMARK SMILES IDX 1 1 2 2 4 3 5 4 6 5 7 6 9 7 10 8 8 9 3 10 11 11
REMARK H PARENT 11 12
REMARK Flexibility Score: inf
ROOT
ATOM      1  C   UNL     1     145.098 133.433 140.353  1.00  0.00     0.014 C 
ATOM      2  C   UNL     1     144.465 134.455 139.373  1.00  0.00    -0.006 C 
ATOM      3  C   UNL     1     143.076 134.931 139.925  1.00  0.00    -0.002 C 
ATOM      4  C   UNL     1     142.543 136.145 139.135  1.00  0.00     0.005 C 
ATOM      5  C   UNL     1     142.214 135.542 137.761  1.00  0.00     0.010 C 
ATOM      6  C   UNL     1     142.513 134.038 137.965  1.00  0.00    -0.006 C 
ATOM      7  C   UNL     1     142.130 133.854 139.419  1.00  0.00     0.013 C 
ATOM      8  C   UNL     1     144.060 133.841 137.988  1.00  0.00     0.126 C 
ATOM      9  C   UNL     1     141.752 133.136 136.985  1.00  0.00     0.014 C 
ATOM     10  C   UNL     1     145.484 135.607 139.195  1.00  0.00     0.014 C 
ENDROOT
BRANCH   8  11
ATOM     11  O   UNL     1     144.457 132.496 137.832  1.00  0.00    -0.392 OA
ATOM     12  H   UNL     1     144.006 132.116 137.036  1.00  0.00     0.211 HD
ENDBRANCH   8  11
TORSDOF 1
ENDMDL
MODEL 8
REMARK VINA RESULT:    -3.364     15.526     17.285
REMARK INTER + INTRA:          -3.462
REMARK INTER:                  -3.462
REMARK INTRA:                   0.000
REMARK UNBOUND:                 0.000
REMARK SMILES CC1(C)[C@H]2CC[C@](C)(C2)[C@@H]1O
REMARK SMILES IDX 1 1 2 2 4 3 5 4 6 5 7 6 9 7 10 8 8 9 3 10 11 11
REMARK H PARENT 11 12
REMARK Flexibility Score: inf
ROOT
ATOM      1  C   UNL     1     133.328 136.517 140.194  1.00  0.00     0.014 C 
ATOM      2  C   UNL     1     134.394 137.192 139.290  1.00  0.00    -0.006 C 
ATOM      3  C   UNL     1     134.823 138.568 139.909  1.00  0.00    -0.002 C 
ATOM      4  C   UNL     1     136.070 139.139 139.204  1.00  0.00     0.005 C 
ATOM      5  C   UNL     1     135.538 139.504 137.809  1.00  0.00     0.010 C 
ATOM      6  C   UNL     1     134.029 139.182 137.922  1.00  0.00    -0.006 C 
ATOM      7  C   UNL     1     133.762 139.517 139.375  1.00  0.00     0.013 C 
ATOM      8  C   UNL     1     133.851 137.634 137.887  1.00  0.00     0.126 C 
ATOM      9  C   UNL     1     133.171 139.964 136.919  1.00  0.00     0.014 C 
ATOM     10  C   UNL     1     135.567 136.191 139.144  1.00  0.00     0.014 C 
ENDROOT
BRANCH   8  11
ATOM     11  O   UNL     1     132.521 137.227 137.647  1.00  0.00    -0.392 OA
ATOM     12  H   UNL     1     132.496 136.241 137.554  1.00  0.00     0.211 HD
ENDBRANCH   8  11
TORSDOF 1
ENDMDL
MODEL 9
REMARK VINA RESULT:    -3.339      1.617      3.533
REMARK INTER + INTRA:          -3.436
REMARK INTER:                  -3.436
REMARK INTRA:                   0.000
REMARK UNBOUND:                 0.000
REMARK SMILES CC1(C)[C@H]2CC[C@](C)(C2)[C@@H]1O
REMARK SMILES IDX 1 1 2 2 4 3 5 4 6 5 7 6 9 7 10 8 8 9 3 10 11 11
REMARK H PARENT 11 12
REMARK Flexibility Score: inf
ROOT
ATOM      1  C   UNL     1     147.264 142.876 137.553  1.00  0.00     0.014 C 
ATOM      2  C   UNL     1     148.142 143.630 138.587  1.00  0.00    -0.006 C 
ATOM      3  C   UNL     1     147.624 145.100 138.755  1.00  0.00    -0.002 C 
ATOM      4  C   UNL     1     148.282 145.795 139.965  1.00  0.00     0.005 C 
ATOM      5  C   UNL     1     149.741 145.961 139.513  1.00  0.00     0.010 C 
ATOM      6  C   UNL     1     149.715 145.424 138.062  1.00  0.00    -0.006 C 
ATOM      7  C   UNL     1     148.324 145.831 137.621  1.00  0.00     0.013 C 
ATOM      8  C   UNL     1     149.618 143.868 138.113  1.00  0.00     0.126 C 
ATOM      9  C   UNL     1     150.849 145.982 137.193  1.00  0.00     0.014 C 
ATOM     10  C   UNL     1     148.104 142.810 139.900  1.00  0.00     0.014 C 
ENDROOT
BRANCH   8  11
ATOM     11  O   UNL     1     149.920 143.246 136.883  1.00  0.00    -0.392 OA
ATOM     12  H   UNL     1     149.106 142.798 136.539  1.00  0.00     0.211 HD
ENDBRANCH   8  11
TORSDOF 1
ENDMDL
