MODEL 1
REMARK VINA RESULT:   147.090      0.000      0.000
REMARK INTER + INTRA:         151.390
REMARK INTER:                 151.390
REMARK INTRA:                   0.000
REMARK UNBOUND:                 0.000
REMARK SMILES CC1(C)CC[C@]2(C)CC[C@]3(C)C(=CC[C@@H]4[C@]5(C)CC[C@H](O)C(C)(C)[C@H]5CC[C@@]43C)[C@H]2C1
REMARK SMILES IDX 1 1 2 2 4 3 5 4 6 5 8 6 9 7 10 8 12 9 13 10 14 11 15 12
REMARK SMILES IDX 28 13 27 14 26 15 25 16 16 17 18 18 19 19 20 20 22 21 23 22
REMARK SMILES IDX 24 23 17 24 29 25 30 26 31 27 11 28 7 29 3 30 21 31
REMARK H PARENT 21 32
REMARK Flexibility Score: inf
ROOT
ATOM      1  C   UNL     1     -31.663  22.957 -12.934  1.00  0.00     0.011 C 
ATOM      2  C   UNL     1     -31.114  22.638 -14.346  1.00  0.00    -0.035 C 
ATOM      3  C   UNL     1     -29.570  22.441 -14.296  1.00  0.00     0.007 C 
ATOM      4  C   UNL     1     -28.779  23.756 -14.131  1.00  0.00     0.008 C 
ATOM      5  C   UNL     1     -29.144  24.826 -15.197  1.00  0.00    -0.026 C 
ATOM      6  C   UNL     1     -28.395  26.160 -14.861  1.00  0.00     0.008 C 
ATOM      7  C   UNL     1     -28.915  27.417 -15.627  1.00  0.00     0.012 C 
ATOM      8  C   UNL     1     -30.466  27.610 -15.587  1.00  0.00    -0.006 C 
ATOM      9  C   UNL     1     -31.054  26.257 -16.013  1.00  0.00    -0.064 C 
ATOM     10  C   UNL     1     -31.413  26.054 -17.294  1.00  0.00    -0.027 C 
ATOM     11  C   UNL     1     -30.929  26.961 -18.375  1.00  0.00     0.032 C 
ATOM     12  C   UNL     1     -31.189  28.454 -18.088  1.00  0.00     0.006 C 
ATOM     13  C   UNL     1     -31.025  28.819 -16.531  1.00  0.00    -0.020 C 
ATOM     14  C   UNL     1     -30.177  30.131 -16.339  1.00  0.00     0.008 C 
ATOM     15  C   UNL     1     -28.927  30.327 -17.227  1.00  0.00     0.005 C 
ATOM     16  C   UNL     1     -28.974  29.632 -18.614  1.00  0.00     0.003 C 
ATOM     17  C   UNL     1     -30.447  29.440 -19.103  1.00  0.00    -0.025 C 
ATOM     18  C   UNL     1     -30.406  28.840 -20.544  1.00  0.00     0.010 C 
ATOM     19  C   UNL     1     -29.689  29.726 -21.581  1.00  0.00     0.033 C 
ATOM     20  C   UNL     1     -28.667  30.716 -20.979  1.00  0.00     0.120 C 
ATOM     21  C   UNL     1     -27.933  30.161 -19.717  1.00  0.00    -0.006 C 
ATOM     22  C   UNL     1     -27.003  31.284 -19.183  1.00  0.00     0.014 C 
ATOM     23  C   UNL     1     -26.998  28.992 -20.142  1.00  0.00     0.014 C 
ATOM     24  C   UNL     1     -31.230  30.802 -19.172  1.00  0.00     0.012 C 
ATOM     25  C   UNL     1     -32.476  29.174 -16.043  1.00  0.00     0.012 C 
ATOM     26  C   UNL     1     -30.688  25.058 -15.135  1.00  0.00     0.022 C 
ATOM     27  C   UNL     1     -31.495  23.756 -15.362  1.00  0.00     0.015 C 
ATOM     28  C   UNL     1     -30.863  27.891 -14.090  1.00  0.00     0.017 C 
ATOM     29  C   UNL     1     -28.659  24.338 -16.592  1.00  0.00     0.012 C 
ATOM     30  C   UNL     1     -31.762  21.315 -14.810  1.00  0.00     0.011 C 
ENDROOT
BRANCH  20  31
ATOM     31  O   UNL     1     -27.736  31.080 -21.971  1.00  0.00    -0.393 OA
ATOM     32  H   UNL     1     -27.950  32.012 -22.243  1.00  0.00     0.210 HD
ENDBRANCH  20  31
TORSDOF 1
ENDMDL
