MODEL 1
REMARK VINA RESULT:    -5.385      0.000      0.000
REMARK INTER + INTRA:          -8.481
REMARK INTER:                  -8.375
REMARK INTRA:                  -0.106
REMARK UNBOUND:                -0.106
REMARK SMILES C=C(C)[C@H]1CC=C2C(=CC[C@@]3(C)[C@@H]([C@@H](CCC=C(C)C)C(=O)[O-])[C@@H](O)C[C@]23C)[C@]1(C)CCC(=O)[O-]
REMARK SMILES IDX 29 1 8 2 4 3 30 4 7 5 9 6 5 7 27 8 6 9 10 10 11 11 26 12
REMARK SMILES IDX 28 13 13 14 12 15 24 16 31 17 32 18 33 19 34 20 35 21 2 22
REMARK SMILES IDX 1 23 3 24 14 25 21 26 22 27 23 28 15 29 16 30 17 31 18 32
REMARK SMILES IDX 19 33 20 34 25 35
REMARK H PARENT 25 36
REMARK Flexibility Score: inf
ROOT
ATOM      1  C   UNL     1      92.289 112.033 107.467  1.00  0.00    -0.000 C 
ATOM      2  C   UNL     1      93.820 111.917 107.635  1.00  0.00    -0.042 C 
ATOM      3  C   UNL     1      91.664 110.600 107.237  1.00  0.00     0.028 C 
ATOM      4  C   UNL     1      92.030 112.953 106.246  1.00  0.00     0.017 C 
ATOM      5  C   UNL     1      94.532 110.639 107.269  1.00  0.00    -0.042 C 
ATOM      6  C   UNL     1      94.556 112.989 108.044  1.00  0.00    -0.022 C 
ATOM      7  C   UNL     1      92.469 109.778 106.213  1.00  0.00     0.036 C 
ATOM      8  C   UNL     1      95.968 110.505 107.740  1.00  0.00     0.001 C 
ATOM      9  C   UNL     1      93.882 109.627 106.674  1.00  0.00    -0.022 C 
ATOM     10  C   UNL     1      96.068 112.970 108.217  1.00  0.00     0.035 C 
ATOM     11  C   UNL     1      96.715 111.828 107.389  1.00  0.00    -0.014 C 
ATOM     12  C   UNL     1      96.859 109.445 107.083  1.00  0.00     0.044 C 
ATOM     13  C   UNL     1      95.883 110.179 109.265  1.00  0.00     0.017 C 
ATOM     14  C   UNL     1      98.242 111.477 107.571  1.00  0.00     0.034 C 
ATOM     15  C   UNL     1      96.543 112.229 105.875  1.00  0.00     0.013 C 
ATOM     16  C   UNL     1      98.299 109.921 107.368  1.00  0.00     0.119 C 
ENDROOT
BRANCH   1  17
ATOM     17  C   UNL     1      91.625 112.707 108.720  1.00  0.00     0.018 C 
BRANCH  17  18
ATOM     18  C   UNL     1      91.061 114.122 108.483  1.00  0.00     0.053 C 
BRANCH  18  19
ATOM     19  C   UNL     1      91.564 115.063 109.532  1.00  0.00     0.041 C 
ATOM     20  O   UNL     1      91.081 116.223 109.628  1.00  0.00    -0.550 OA
ATOM     21  O   UNL     1      92.598 114.675 110.375  1.00  0.00    -0.550 OA
ENDBRANCH  18  19
ENDBRANCH  17  18
ENDBRANCH   1  17
BRANCH   3  22
ATOM     22  C   UNL     1      90.166 110.591 106.912  1.00  0.00    -0.076 C 
ATOM     23  C   UNL     1      89.710 109.859 105.881  1.00  0.00     0.008 C 
ATOM     24  C   UNL     1      89.162 111.403 107.697  1.00  0.00     0.039 C 
ENDBRANCH   3  22
BRANCH  14  25
ATOM     25  C   UNL     1      98.968 112.055 108.844  1.00  0.00     0.042 C 
BRANCH  25  26
ATOM     26  C   UNL     1      99.885 113.203 108.488  1.00  0.00     0.045 C 
ATOM     27  O   UNL     1      99.399 114.298 108.100  1.00  0.00    -0.550 OA
ATOM     28  O   UNL     1     101.264 113.083 108.626  1.00  0.00    -0.550 OA
ENDBRANCH  25  26
BRANCH  25  29
ATOM     29  C   UNL     1      99.806 111.022 109.656  1.00  0.00     0.014 C 
BRANCH  29  30
ATOM     30  C   UNL     1      99.999 111.375 111.141  1.00  0.00     0.028 C 
BRANCH  30  31
ATOM     31  C   UNL     1      98.696 111.817 111.761  1.00  0.00    -0.028 C 
ATOM     32  C   UNL     1      98.422 111.762 113.085  1.00  0.00    -0.080 C 
ATOM     33  C   UNL     1      99.403 111.196 114.086  1.00  0.00     0.039 C 
ATOM     34  C   UNL     1      97.099 112.271 113.600  1.00  0.00     0.039 C 
ENDBRANCH  30  31
ENDBRANCH  29  30
ENDBRANCH  25  29
ENDBRANCH  14  25
BRANCH  16  35
ATOM     35  O   UNL     1      98.787 109.251 108.501  1.00  0.00    -0.393 OA
ATOM     36  H   UNL     1      98.010 109.096 109.101  1.00  0.00     0.210 HD
ENDBRANCH  16  35
TORSDOF 10
ENDMDL
MODEL 2
REMARK VINA RESULT:    -3.227      2.469      7.586
REMARK INTER + INTRA:          -5.126
REMARK INTER:                  -5.895
REMARK INTRA:                   0.769
REMARK UNBOUND:                -0.106
REMARK SMILES C=C(C)[C@H]1CC=C2C(=CC[C@@]3(C)[C@@H]([C@@H](CCC=C(C)C)C(=O)[O-])[C@@H](O)C[C@]23C)[C@]1(C)CCC(=O)[O-]
REMARK SMILES IDX 29 1 8 2 4 3 30 4 7 5 9 6 5 7 27 8 6 9 10 10 11 11 26 12
REMARK SMILES IDX 28 13 13 14 12 15 24 16 31 17 32 18 33 19 34 20 35 21 2 22
REMARK SMILES IDX 1 23 3 24 14 25 21 26 22 27 23 28 15 29 16 30 17 31 18 32
REMARK SMILES IDX 19 33 20 34 25 35
REMARK H PARENT 25 36
REMARK Flexibility Score: inf
ROOT
ATOM      1  C   UNL     1      99.120 111.679 109.473  1.00  0.00    -0.000 C 
ATOM      2  C   UNL     1      97.654 111.525 109.011  1.00  0.00    -0.042 C 
ATOM      3  C   UNL     1      99.920 112.559 108.433  1.00  0.00     0.028 C 
ATOM      4  C   UNL     1      99.723 110.254 109.572  1.00  0.00     0.017 C 
ATOM      5  C   UNL     1      97.254 111.899 107.607  1.00  0.00    -0.042 C 
ATOM      6  C   UNL     1      96.720 110.980 109.841  1.00  0.00    -0.022 C 
ATOM      7  C   UNL     1      99.634 112.137 106.980  1.00  0.00     0.036 C 
ATOM      8  C   UNL     1      95.765 112.001 107.331  1.00  0.00     0.001 C 
ATOM      9  C   UNL     1      98.171 112.249 106.693  1.00  0.00    -0.022 C 
ATOM     10  C   UNL     1      95.260 110.772 109.463  1.00  0.00     0.035 C 
ATOM     11  C   UNL     1      95.078 110.733 107.922  1.00  0.00    -0.014 C 
ATOM     12  C   UNL     1      95.287 111.981 105.875  1.00  0.00     0.044 C 
ATOM     13  C   UNL     1      95.312 113.355 107.965  1.00  0.00     0.017 C 
ATOM     14  C   UNL     1      93.633 110.739 107.290  1.00  0.00     0.034 C 
ATOM     15  C   UNL     1      95.758 109.400 107.431  1.00  0.00     0.013 C 
ATOM     16  C   UNL     1      93.805 111.560 105.963  1.00  0.00     0.119 C 
ENDROOT
BRANCH   1  17
ATOM     17  C   UNL     1      99.206 112.332 110.899  1.00  0.00     0.018 C 
BRANCH  17  18
ATOM     18  C   UNL     1      99.530 111.357 112.048  1.00  0.00     0.053 C 
BRANCH  18  19
ATOM     19  C   UNL     1      99.006 111.893 113.345  1.00  0.00     0.041 C 
ATOM     20  O   UNL     1      99.793 112.116 114.302  1.00  0.00    -0.550 OA
ATOM     21  O   UNL     1      97.643 112.102 113.509  1.00  0.00    -0.550 OA
ENDBRANCH  18  19
ENDBRANCH  17  18
ENDBRANCH   1  17
BRANCH   3  22
ATOM     22  C   UNL     1     101.426 112.669 108.700  1.00  0.00    -0.076 C 
ATOM     23  C   UNL     1     102.295 112.551 107.682  1.00  0.00     0.008 C 
ATOM     24  C   UNL     1     101.989 112.883 110.086  1.00  0.00     0.039 C 
ENDBRANCH   3  22
BRANCH  14  25
ATOM     25  C   UNL     1      92.436 111.147 108.229  1.00  0.00     0.042 C 
BRANCH  25  26
ATOM     26  C   UNL     1      91.103 110.981 107.535  1.00  0.00     0.045 C 
ATOM     27  O   UNL     1      90.194 111.835 107.709  1.00  0.00    -0.550 OA
ATOM     28  O   UNL     1      90.879 109.918 106.666  1.00  0.00    -0.550 OA
ENDBRANCH  25  26
BRANCH  25  29
ATOM     29  C   UNL     1      92.495 112.601 108.785  1.00  0.00     0.014 C 
BRANCH  29  30
ATOM     30  C   UNL     1      92.938 112.711 110.255  1.00  0.00     0.028 C 
BRANCH  30  31
ATOM     31  C   UNL     1      93.374 114.118 110.581  1.00  0.00    -0.028 C 
ATOM     32  C   UNL     1      92.602 115.216 110.407  1.00  0.00    -0.080 C 
ATOM     33  C   UNL     1      91.214 115.138 109.813  1.00  0.00     0.039 C 
ATOM     34  C   UNL     1      93.126 116.573 110.806  1.00  0.00     0.039 C 
ENDBRANCH  30  31
ENDBRANCH  29  30
ENDBRANCH  25  29
ENDBRANCH  14  25
BRANCH  16  35
ATOM     35  O   UNL     1      93.000 112.709 105.937  1.00  0.00    -0.393 OA
ATOM     36  H   UNL     1      92.884 113.002 106.879  1.00  0.00     0.210 HD
ENDBRANCH  16  35
TORSDOF 10
ENDMDL
MODEL 3
REMARK VINA RESULT:    -2.473      0.881      1.060
REMARK INTER + INTRA:          -3.953
REMARK INTER:                  -3.651
REMARK INTRA:                  -0.301
REMARK UNBOUND:                -0.106
REMARK SMILES C=C(C)[C@H]1CC=C2C(=CC[C@@]3(C)[C@@H]([C@@H](CCC=C(C)C)C(=O)[O-])[C@@H](O)C[C@]23C)[C@]1(C)CCC(=O)[O-]
REMARK SMILES IDX 29 1 8 2 4 3 30 4 7 5 9 6 5 7 27 8 6 9 10 10 11 11 26 12
REMARK SMILES IDX 28 13 13 14 12 15 24 16 31 17 32 18 33 19 34 20 35 21 2 22
REMARK SMILES IDX 1 23 3 24 14 25 21 26 22 27 23 28 15 29 16 30 17 31 18 32
REMARK SMILES IDX 19 33 20 34 25 35
REMARK H PARENT 25 36
REMARK Flexibility Score: inf
ROOT
ATOM      1  C   UNL     1      92.727 112.399 107.358  1.00  0.00    -0.000 C 
ATOM      2  C   UNL     1      94.248 112.253 107.588  1.00  0.00    -0.042 C 
ATOM      3  C   UNL     1      92.026 110.989 107.493  1.00  0.00     0.028 C 
ATOM      4  C   UNL     1      92.532 112.980 105.934  1.00  0.00     0.017 C 
ATOM      5  C   UNL     1      94.891 110.890 107.585  1.00  0.00    -0.042 C 
ATOM      6  C   UNL     1      95.037 113.356 107.722  1.00  0.00    -0.022 C 
ATOM      7  C   UNL     1      92.794 109.888 106.739  1.00  0.00     0.036 C 
ATOM      8  C   UNL     1      96.313 110.811 108.109  1.00  0.00     0.001 C 
ATOM      9  C   UNL     1      94.193 109.792 107.258  1.00  0.00    -0.022 C 
ATOM     10  C   UNL     1      96.544 113.306 107.931  1.00  0.00     0.035 C 
ATOM     11  C   UNL     1      97.136 111.956 107.444  1.00  0.00    -0.014 C 
ATOM     12  C   UNL     1      97.150 109.572 107.772  1.00  0.00     0.044 C 
ATOM     13  C   UNL     1      96.193 110.899 109.664  1.00  0.00     0.017 C 
ATOM     14  C   UNL     1      98.639 111.588 107.749  1.00  0.00     0.034 C 
ATOM     15  C   UNL     1      97.002 111.956 105.875  1.00  0.00     0.013 C 
ATOM     16  C   UNL     1      98.611 110.032 107.959  1.00  0.00     0.119 C 
ENDROOT
BRANCH   1  17
ATOM     17  C   UNL     1      92.088 113.410 108.376  1.00  0.00     0.018 C 
BRANCH  17  18
ATOM     18  C   UNL     1      92.614 113.306 109.821  1.00  0.00     0.053 C 
BRANCH  18  19
ATOM     19  C   UNL     1      92.966 114.664 110.343  1.00  0.00     0.041 C 
ATOM     20  O   UNL     1      94.121 114.892 110.790  1.00  0.00    -0.550 OA
ATOM     21  O   UNL     1      92.003 115.666 110.377  1.00  0.00    -0.550 OA
ENDBRANCH  18  19
ENDBRANCH  17  18
ENDBRANCH   1  17
BRANCH   3  22
ATOM     22  C   UNL     1      90.533 110.972 107.145  1.00  0.00    -0.076 C 
ATOM     23  C   UNL     1      90.072 110.110 106.223  1.00  0.00     0.008 C 
ATOM     24  C   UNL     1      89.541 111.915 107.785  1.00  0.00     0.039 C 
ENDBRANCH   3  22
BRANCH  14  25
ATOM     25  C   UNL     1      99.383 112.440 108.846  1.00  0.00     0.042 C 
BRANCH  25  26
ATOM     26  C   UNL     1     100.247 113.513 108.223  1.00  0.00     0.045 C 
ATOM     27  O   UNL     1      99.730 114.599 107.851  1.00  0.00    -0.550 OA
ATOM     28  O   UNL     1     101.621 113.336 108.097  1.00  0.00    -0.550 OA
ENDBRANCH  25  26
BRANCH  25  29
ATOM     29  C   UNL     1     100.280 111.625 109.824  1.00  0.00     0.014 C 
BRANCH  29  30
ATOM     30  C   UNL     1     100.425 112.239 111.228  1.00  0.00     0.028 C 
BRANCH  30  31
ATOM     31  C   UNL     1      99.244 111.881 112.095  1.00  0.00    -0.028 C 
ATOM     32  C   UNL     1      99.115 112.234 113.395  1.00  0.00    -0.080 C 
ATOM     33  C   UNL     1     100.191 113.000 114.130  1.00  0.00     0.039 C 
ATOM     34  C   UNL     1      97.869 111.856 114.155  1.00  0.00     0.039 C 
ENDBRANCH  30  31
ENDBRANCH  29  30
ENDBRANCH  25  29
ENDBRANCH  14  25
BRANCH  16  35
ATOM     35  O   UNL     1      99.049 109.657 109.239  1.00  0.00    -0.393 OA
ATOM     36  H   UNL     1      98.805 110.397 109.856  1.00  0.00     0.210 HD
ENDBRANCH  16  35
TORSDOF 10
ENDMDL
