MODEL 1
REMARK VINA RESULT:    -4.513      0.000      0.000
REMARK INTER + INTRA:          -6.915
REMARK INTER:                  -6.096
REMARK INTRA:                  -0.819
REMARK UNBOUND:                -0.819
REMARK SMILES CC(=O)CCC=C(C)CCC=C(C)C
REMARK SMILES IDX 7 1 6 2 8 3 9 4 10 5 11 6 13 7 12 8 14 9 5 10 4 11 2 12 3 13
REMARK SMILES IDX 1 14
REMARK H PARENT
REMARK Flexibility Score: inf
ROOT
ATOM      1  C   UNL     1      15.210  45.422  18.876  1.00  0.00    -0.077 C 
ATOM      2  C   UNL     1      14.093  45.271  19.623  1.00  0.00    -0.028 C 
ATOM      3  C   UNL     1      15.409  46.611  17.966  1.00  0.00     0.039 C 
ENDROOT
BRANCH   1   4
ATOM      4  C   UNL     1      16.285  44.358  18.939  1.00  0.00     0.034 C 
BRANCH   4   5
ATOM      5  C   UNL     1      16.959  44.346  20.316  1.00  0.00     0.032 C 
BRANCH   5   6
ATOM      6  C   UNL     1      18.321  44.991  20.250  1.00  0.00    -0.028 C 
ATOM      7  C   UNL     1      20.006  46.753  20.556  1.00  0.00     0.039 C 
ATOM      8  C   UNL     1      18.586  46.256  20.643  1.00  0.00    -0.080 C 
ATOM      9  C   UNL     1      17.503  47.183  21.144  1.00  0.00     0.039 C 
ENDBRANCH   5   6
ENDBRANCH   4   5
ENDBRANCH   1   4
BRANCH   2  10
ATOM     10  C   UNL     1      12.965  46.271  19.681  1.00  0.00     0.035 C 
BRANCH  10  11
ATOM     11  C   UNL     1      11.841  45.878  18.717  1.00  0.00     0.079 C 
BRANCH  11  12
ATOM     12  C   UNL     1      10.501  46.291  19.265  1.00  0.00     0.130 C 
ATOM     13  O   UNL     1       9.863  45.506  19.950  1.00  0.00    -0.300 OA
ATOM     14  C   UNL     1       9.933  47.654  18.995  1.00  0.00     0.087 C 
ENDBRANCH  11  12
ENDBRANCH  10  11
ENDBRANCH   2  10
TORSDOF 6
ENDMDL
MODEL 2
REMARK VINA RESULT:    -4.506      2.477      6.464
REMARK INTER + INTRA:          -6.906
REMARK INTER:                  -5.913
REMARK INTRA:                  -0.993
REMARK UNBOUND:                -0.819
REMARK SMILES CC(=O)CCC=C(C)CCC=C(C)C
REMARK SMILES IDX 7 1 6 2 8 3 9 4 10 5 11 6 13 7 12 8 14 9 5 10 4 11 2 12 3 13
REMARK SMILES IDX 1 14
REMARK H PARENT
REMARK Flexibility Score: inf
ROOT
ATOM      1  C   UNL     1      12.893  46.207  17.695  1.00  0.00    -0.077 C 
ATOM      2  C   UNL     1      13.917  46.211  18.578  1.00  0.00    -0.028 C 
ATOM      3  C   UNL     1      12.990  45.505  16.361  1.00  0.00     0.039 C 
ENDROOT
BRANCH   1   4
ATOM      4  C   UNL     1      11.618  46.944  18.045  1.00  0.00     0.034 C 
BRANCH   4   5
ATOM      5  C   UNL     1      11.175  46.615  19.475  1.00  0.00     0.032 C 
BRANCH   5   6
ATOM      6  C   UNL     1      10.008  45.659  19.467  1.00  0.00    -0.028 C 
ATOM      7  C   UNL     1       8.857  43.494  19.627  1.00  0.00     0.039 C 
ATOM      8  C   UNL     1      10.117  44.320  19.616  1.00  0.00    -0.080 C 
ATOM      9  C   UNL     1      11.458  43.636  19.751  1.00  0.00     0.039 C 
ENDBRANCH   5   6
ENDBRANCH   4   5
ENDBRANCH   1   4
BRANCH   2  10
ATOM     10  C   UNL     1      15.225  45.488  18.370  1.00  0.00     0.035 C 
BRANCH  10  11
ATOM     11  C   UNL     1      15.192  44.107  19.030  1.00  0.00     0.079 C 
BRANCH  11  12
ATOM     12  C   UNL     1      16.115  44.063  20.219  1.00  0.00     0.130 C 
ATOM     13  O   UNL     1      16.219  43.029  20.861  1.00  0.00    -0.300 OA
ATOM     14  C   UNL     1      16.918  45.262  20.629  1.00  0.00     0.087 C 
ENDBRANCH  11  12
ENDBRANCH  10  11
ENDBRANCH   2  10
TORSDOF 6
ENDMDL
MODEL 3
REMARK VINA RESULT:    -4.490      2.612      6.458
REMARK INTER + INTRA:          -6.884
REMARK INTER:                  -5.787
REMARK INTRA:                  -1.097
REMARK UNBOUND:                -0.819
REMARK SMILES CC(=O)CCC=C(C)CCC=C(C)C
REMARK SMILES IDX 7 1 6 2 8 3 9 4 10 5 11 6 13 7 12 8 14 9 5 10 4 11 2 12 3 13
REMARK SMILES IDX 1 14
REMARK H PARENT
REMARK Flexibility Score: inf
ROOT
ATOM      1  C   UNL     1      15.307  45.634  18.813  1.00  0.00    -0.077 C 
ATOM      2  C   UNL     1      15.957  44.520  18.406  1.00  0.00    -0.028 C 
ATOM      3  C   UNL     1      15.109  45.955  20.276  1.00  0.00     0.039 C 
ENDROOT
BRANCH   1   4
ATOM      4  C   UNL     1      14.745  46.579  17.772  1.00  0.00     0.034 C 
BRANCH   4   5
ATOM      5  C   UNL     1      13.457  46.012  17.164  1.00  0.00     0.032 C 
BRANCH   5   6
ATOM      6  C   UNL     1      12.246  46.710  17.732  1.00  0.00    -0.028 C 
ATOM      7  C   UNL     1      10.303  47.031  19.201  1.00  0.00     0.039 C 
ATOM      8  C   UNL     1      11.457  46.200  18.703  1.00  0.00    -0.080 C 
ATOM      9  C   UNL     1      11.688  44.824  19.283  1.00  0.00     0.039 C 
ENDBRANCH   5   6
ENDBRANCH   4   5
ENDBRANCH   1   4
BRANCH   2  10
ATOM     10  C   UNL     1      16.595  43.517  19.336  1.00  0.00     0.035 C 
BRANCH  10  11
ATOM     11  C   UNL     1      18.110  43.731  19.407  1.00  0.00     0.079 C 
BRANCH  11  12
ATOM     12  C   UNL     1      18.481  44.501  20.647  1.00  0.00     0.130 C 
ATOM     13  O   UNL     1      18.477  43.934  21.730  1.00  0.00    -0.300 OA
ATOM     14  C   UNL     1      18.864  45.950  20.582  1.00  0.00     0.087 C 
ENDBRANCH  11  12
ENDBRANCH  10  11
ENDBRANCH   2  10
TORSDOF 6
ENDMDL
MODEL 4
REMARK VINA RESULT:    -4.484      2.966      6.819
REMARK INTER + INTRA:          -6.876
REMARK INTER:                  -6.296
REMARK INTRA:                  -0.580
REMARK UNBOUND:                -0.819
REMARK SMILES CC(=O)CCC=C(C)CCC=C(C)C
REMARK SMILES IDX 7 1 6 2 8 3 9 4 10 5 11 6 13 7 12 8 14 9 5 10 4 11 2 12 3 13
REMARK SMILES IDX 1 14
REMARK H PARENT
REMARK Flexibility Score: inf
ROOT
ATOM      1  C   UNL     1      14.870  45.947  19.495  1.00  0.00    -0.077 C 
ATOM      2  C   UNL     1      16.222  45.928  19.483  1.00  0.00    -0.028 C 
ATOM      3  C   UNL     1      14.080  45.882  20.781  1.00  0.00     0.039 C 
ENDROOT
BRANCH   1   4
ATOM      4  C   UNL     1      14.125  46.016  18.179  1.00  0.00     0.034 C 
BRANCH   4   5
ATOM      5  C   UNL     1      12.662  45.592  18.359  1.00  0.00     0.032 C 
BRANCH   5   6
ATOM      6  C   UNL     1      11.743  46.782  18.236  1.00  0.00    -0.028 C 
ATOM      7  C   UNL     1       9.756  48.160  18.675  1.00  0.00     0.039 C 
ATOM      8  C   UNL     1      10.549  46.892  18.861  1.00  0.00    -0.080 C 
ATOM      9  C   UNL     1       9.987  45.781  19.716  1.00  0.00     0.039 C 
ENDBRANCH   5   6
ENDBRANCH   4   5
ENDBRANCH   1   4
BRANCH   2  10
ATOM     10  C   UNL     1      17.085  45.898  20.721  1.00  0.00     0.035 C 
BRANCH  10  11
ATOM     11  C   UNL     1      17.454  47.318  21.159  1.00  0.00     0.079 C 
BRANCH  11  12
ATOM     12  C   UNL     1      18.768  47.737  20.555  1.00  0.00     0.130 C 
ATOM     13  O   UNL     1      19.798  47.182  20.910  1.00  0.00    -0.300 OA
ATOM     14  C   UNL     1      18.843  48.817  19.516  1.00  0.00     0.087 C 
ENDBRANCH  11  12
ENDBRANCH  10  11
ENDBRANCH   2  10
TORSDOF 6
ENDMDL
MODEL 5
REMARK VINA RESULT:    -4.472      1.740      2.593
REMARK INTER + INTRA:          -6.859
REMARK INTER:                  -5.688
REMARK INTRA:                  -1.171
REMARK UNBOUND:                -0.819
REMARK SMILES CC(=O)CCC=C(C)CCC=C(C)C
REMARK SMILES IDX 7 1 6 2 8 3 9 4 10 5 11 6 13 7 12 8 14 9 5 10 4 11 2 12 3 13
REMARK SMILES IDX 1 14
REMARK H PARENT
REMARK Flexibility Score: inf
ROOT
ATOM      1  C   UNL     1      16.567  43.494  19.236  1.00  0.00    -0.077 C 
ATOM      2  C   UNL     1      16.110  44.488  18.441  1.00  0.00    -0.028 C 
ATOM      3  C   UNL     1      15.631  42.554  19.960  1.00  0.00     0.039 C 
ENDROOT
BRANCH   1   4
ATOM      4  C   UNL     1      18.061  43.331  19.423  1.00  0.00     0.034 C 
BRANCH   4   5
ATOM      5  C   UNL     1      18.525  44.012  20.715  1.00  0.00     0.032 C 
BRANCH   5   6
ATOM      6  C   UNL     1      19.315  45.260  20.406  1.00  0.00    -0.028 C 
ATOM      7  C   UNL     1      19.766  47.671  20.249  1.00  0.00     0.039 C 
ATOM      8  C   UNL     1      18.846  46.518  20.560  1.00  0.00    -0.080 C 
ATOM      9  C   UNL     1      17.432  46.796  21.013  1.00  0.00     0.039 C 
ENDBRANCH   5   6
ENDBRANCH   4   5
ENDBRANCH   1   4
BRANCH   2  10
ATOM     10  C   UNL     1      14.652  44.738  18.142  1.00  0.00     0.035 C 
BRANCH  10  11
ATOM     11  C   UNL     1      14.224  46.118  18.649  1.00  0.00     0.079 C 
BRANCH  11  12
ATOM     12  C   UNL     1      13.332  45.987  19.856  1.00  0.00     0.130 C 
ATOM     13  O   UNL     1      12.141  46.244  19.754  1.00  0.00    -0.300 OA
ATOM     14  C   UNL     1      13.872  45.538  21.182  1.00  0.00     0.087 C 
ENDBRANCH  11  12
ENDBRANCH  10  11
ENDBRANCH   2  10
TORSDOF 6
ENDMDL
MODEL 6
REMARK VINA RESULT:    -4.439      1.608      2.727
REMARK INTER + INTRA:          -6.815
REMARK INTER:                  -5.787
REMARK INTRA:                  -1.027
REMARK UNBOUND:                -0.819
REMARK SMILES CC(=O)CCC=C(C)CCC=C(C)C
REMARK SMILES IDX 7 1 6 2 8 3 9 4 10 5 11 6 13 7 12 8 14 9 5 10 4 11 2 12 3 13
REMARK SMILES IDX 1 14
REMARK H PARENT
REMARK Flexibility Score: inf
ROOT
ATOM      1  C   UNL     1      14.858  45.873  19.844  1.00  0.00    -0.077 C 
ATOM      2  C   UNL     1      14.323  45.866  18.601  1.00  0.00    -0.028 C 
ATOM      3  C   UNL     1      14.080  45.406  21.051  1.00  0.00     0.039 C 
ENDROOT
BRANCH   1   4
ATOM      4  C   UNL     1      16.271  46.384  20.033  1.00  0.00     0.034 C 
BRANCH   4   5
ATOM      5  C   UNL     1      17.127  45.351  20.775  1.00  0.00     0.032 C 
BRANCH   5   6
ATOM      6  C   UNL     1      17.648  44.305  19.820  1.00  0.00    -0.028 C 
ATOM      7  C   UNL     1      17.934  42.061  18.860  1.00  0.00     0.039 C 
ATOM      8  C   UNL     1      17.375  42.985  19.911  1.00  0.00    -0.080 C 
ATOM      9  C   UNL     1      16.547  42.414  21.038  1.00  0.00     0.039 C 
ENDBRANCH   5   6
ENDBRANCH   4   5
ENDBRANCH   1   4
BRANCH   2  10
ATOM     10  C   UNL     1      12.945  45.352  18.269  1.00  0.00     0.035 C 
BRANCH  10  11
ATOM     11  C   UNL     1      11.966  46.513  18.072  1.00  0.00     0.079 C 
BRANCH  11  12
ATOM     12  C   UNL     1      10.906  46.502  19.142  1.00  0.00     0.130 C 
ATOM     13  O   UNL     1      10.360  47.548  19.458  1.00  0.00    -0.300 OA
ATOM     14  C   UNL     1      10.498  45.230  19.826  1.00  0.00     0.087 C 
ENDBRANCH  11  12
ENDBRANCH  10  11
ENDBRANCH   2  10
TORSDOF 6
ENDMDL
MODEL 7
REMARK VINA RESULT:    -4.409      3.218      6.468
REMARK INTER + INTRA:          -6.775
REMARK INTER:                  -5.827
REMARK INTRA:                  -0.948
REMARK UNBOUND:                -0.819
REMARK SMILES CC(=O)CCC=C(C)CCC=C(C)C
REMARK SMILES IDX 7 1 6 2 8 3 9 4 10 5 11 6 13 7 12 8 14 9 5 10 4 11 2 12 3 13
REMARK SMILES IDX 1 14
REMARK H PARENT
REMARK Flexibility Score: inf
ROOT
ATOM      1  C   UNL     1      14.902  44.947  20.482  1.00  0.00    -0.077 C 
ATOM      2  C   UNL     1      15.741  45.975  20.743  1.00  0.00    -0.028 C 
ATOM      3  C   UNL     1      15.405  43.610  19.989  1.00  0.00     0.039 C 
ENDROOT
BRANCH   1   4
ATOM      4  C   UNL     1      13.414  45.147  20.671  1.00  0.00     0.034 C 
BRANCH   4   5
ATOM      5  C   UNL     1      12.891  46.249  19.743  1.00  0.00     0.032 C 
BRANCH   5   6
ATOM      6  C   UNL     1      12.645  45.708  18.357  1.00  0.00    -0.028 C 
ATOM      7  C   UNL     1      13.062  45.351  15.961  1.00  0.00     0.039 C 
ATOM      8  C   UNL     1      13.405  45.998  17.278  1.00  0.00    -0.080 C 
ATOM      9  C   UNL     1      14.568  46.961  17.353  1.00  0.00     0.039 C 
ENDBRANCH   5   6
ENDBRANCH   4   5
ENDBRANCH   1   4
BRANCH   2  10
ATOM     10  C   UNL     1      17.244  45.900  20.631  1.00  0.00     0.035 C 
BRANCH  10  11
ATOM     11  C   UNL     1      17.871  47.286  20.807  1.00  0.00     0.079 C 
BRANCH  11  12
ATOM     12  C   UNL     1      19.374  47.194  20.798  1.00  0.00     0.130 C 
ATOM     13  O   UNL     1      20.039  48.178  21.086  1.00  0.00    -0.300 OA
ATOM     14  C   UNL     1      20.077  45.914  20.450  1.00  0.00     0.087 C 
ENDBRANCH  11  12
ENDBRANCH  10  11
ENDBRANCH   2  10
TORSDOF 6
ENDMDL
MODEL 8
REMARK VINA RESULT:    -4.409      1.969      3.038
REMARK INTER + INTRA:          -6.775
REMARK INTER:                  -5.926
REMARK INTRA:                  -0.849
REMARK UNBOUND:                -0.819
REMARK SMILES CC(=O)CCC=C(C)CCC=C(C)C
REMARK SMILES IDX 7 1 6 2 8 3 9 4 10 5 11 6 13 7 12 8 14 9 5 10 4 11 2 12 3 13
REMARK SMILES IDX 1 14
REMARK H PARENT
REMARK Flexibility Score: inf
ROOT
ATOM      1  C   UNL     1      17.434  44.963  20.254  1.00  0.00    -0.077 C 
ATOM      2  C   UNL     1      16.458  45.803  20.667  1.00  0.00    -0.028 C 
ATOM      3  C   UNL     1      17.212  43.966  19.141  1.00  0.00     0.039 C 
ENDROOT
BRANCH   1   4
ATOM      4  C   UNL     1      18.783  45.010  20.939  1.00  0.00     0.034 C 
BRANCH   4   5
ATOM      5  C   UNL     1      19.768  45.873  20.142  1.00  0.00     0.032 C 
BRANCH   5   6
ATOM      6  C   UNL     1      20.160  47.100  20.927  1.00  0.00    -0.028 C 
ATOM      7  C   UNL     1      20.092  49.455  21.626  1.00  0.00     0.039 C 
ATOM      8  C   UNL     1      19.631  48.329  20.737  1.00  0.00    -0.080 C 
ATOM      9  C   UNL     1      18.613  48.605  19.655  1.00  0.00     0.039 C 
ENDBRANCH   5   6
ENDBRANCH   4   5
ENDBRANCH   1   4
BRANCH   2  10
ATOM     10  C   UNL     1      15.084  45.884  20.048  1.00  0.00     0.035 C 
BRANCH  10  11
ATOM     11  C   UNL     1      14.053  45.161  20.920  1.00  0.00     0.079 C 
BRANCH  11  12
ATOM     12  C   UNL     1      12.886  44.696  20.088  1.00  0.00     0.130 C 
ATOM     13  O   UNL     1      11.862  45.363  20.064  1.00  0.00    -0.300 OA
ATOM     14  C   UNL     1      12.956  43.434  19.280  1.00  0.00     0.087 C 
ENDBRANCH  11  12
ENDBRANCH  10  11
ENDBRANCH   2  10
TORSDOF 6
ENDMDL
MODEL 9
REMARK VINA RESULT:    -4.353      2.841      4.903
REMARK INTER + INTRA:          -6.699
REMARK INTER:                  -5.850
REMARK INTRA:                  -0.849
REMARK UNBOUND:                -0.819
REMARK SMILES CC(=O)CCC=C(C)CCC=C(C)C
REMARK SMILES IDX 7 1 6 2 8 3 9 4 10 5 11 6 13 7 12 8 14 9 5 10 4 11 2 12 3 13
REMARK SMILES IDX 1 14
REMARK H PARENT
REMARK Flexibility Score: inf
ROOT
ATOM      1  C   UNL     1      18.830  46.269  20.626  1.00  0.00    -0.077 C 
ATOM      2  C   UNL     1      18.783  44.950  20.330  1.00  0.00    -0.028 C 
ATOM      3  C   UNL     1      17.593  47.048  21.003  1.00  0.00     0.039 C 
ENDROOT
BRANCH   1   4
ATOM      4  C   UNL     1      20.160  46.989  20.558  1.00  0.00     0.034 C 
BRANCH   4   5
ATOM      5  C   UNL     1      20.008  48.453  20.989  1.00  0.00     0.032 C 
BRANCH   5   6
ATOM      6  C   UNL     1      20.664  49.375  19.991  1.00  0.00    -0.028 C 
ATOM      7  C   UNL     1      20.787  51.121  18.267  1.00  0.00     0.039 C 
ATOM      8  C   UNL     1      19.994  50.231  19.188  1.00  0.00    -0.080 C 
ATOM      9  C   UNL     1      18.485  50.304  19.176  1.00  0.00     0.039 C 
ENDBRANCH   5   6
ENDBRANCH   4   5
ENDBRANCH   1   4
BRANCH   2  10
ATOM     10  C   UNL     1      17.534  44.106  20.393  1.00  0.00     0.035 C 
BRANCH  10  11
ATOM     11  C   UNL     1      16.902  43.967  19.005  1.00  0.00     0.079 C 
BRANCH  11  12
ATOM     12  C   UNL     1      15.485  44.476  19.012  1.00  0.00     0.130 C 
ATOM     13  O   UNL     1      14.930  44.726  17.953  1.00  0.00    -0.300 OA
ATOM     14  C   UNL     1      14.732  44.674  20.295  1.00  0.00     0.087 C 
ENDBRANCH  11  12
ENDBRANCH  10  11
ENDBRANCH   2  10
TORSDOF 6
ENDMDL
