MODEL 1
REMARK VINA RESULT:    -4.984      0.000      0.000
REMARK INTER + INTRA:          -5.825
REMARK INTER:                  -5.713
REMARK INTRA:                  -0.112
REMARK UNBOUND:                -0.112
REMARK SMILES COc1cc(C(C)=O)ccc1O
REMARK SMILES IDX 5 1 4 2 3 3 11 4 10 5 9 6 6 7 7 8 8 9 2 10 1 11 12 12
REMARK H PARENT 12 13
REMARK Flexibility Score: inf
ROOT
ATOM      1  C   UNL     1     173.145 172.675 178.770  1.00  0.00     0.021 A 
ATOM      2  C   UNL     1     173.337 171.770 177.707  1.00  0.00     0.062 A 
ATOM      3  C   UNL     1     172.291 171.479 176.809  1.00  0.00     0.161 A 
ATOM      4  C   UNL     1     171.047 172.099 176.978  1.00  0.00     0.157 A 
ATOM      5  C   UNL     1     170.848 172.999 178.031  1.00  0.00     0.051 A 
ATOM      6  C   UNL     1     171.886 173.285 178.920  1.00  0.00     0.016 A 
ENDROOT
BRANCH   1   7
ATOM      7  C   UNL     1     174.263 172.970 179.709  1.00  0.00     0.159 C 
ATOM      8  C   UNL     1     174.023 173.267 181.159  1.00  0.00     0.093 C 
ATOM      9  O   UNL     1     175.451 172.972 179.286  1.00  0.00    -0.295 OA
ENDBRANCH   1   7
BRANCH   3  10
ATOM     10  O   UNL     1     172.450 170.583 175.740  1.00  0.00    -0.493 OA
ATOM     11  C   UNL     1     173.470 169.593 175.660  1.00  0.00     0.278 C 
ENDBRANCH   3  10
BRANCH   4  12
ATOM     12  O   UNL     1     170.009 171.815 176.093  1.00  0.00    -0.504 OA
ATOM     13  H   UNL     1     169.039 171.968 176.345  1.00  0.00     0.293 HD
ENDBRANCH   4  12
TORSDOF 3
ENDMDL
MODEL 2
REMARK VINA RESULT:    -4.983      2.998      4.414
REMARK INTER + INTRA:          -5.823
REMARK INTER:                  -5.714
REMARK INTRA:                  -0.110
REMARK UNBOUND:                -0.112
REMARK SMILES COc1cc(C(C)=O)ccc1O
REMARK SMILES IDX 5 1 4 2 3 3 11 4 10 5 9 6 6 7 7 8 8 9 2 10 1 11 12 12
REMARK H PARENT 12 13
REMARK Flexibility Score: inf
ROOT
ATOM      1  C   UNL     1     173.169 173.752 178.770  1.00  0.00     0.021 A 
ATOM      2  C   UNL     1     173.007 174.648 177.694  1.00  0.00     0.062 A 
ATOM      3  C   UNL     1     174.070 174.912 176.808  1.00  0.00     0.161 A 
ATOM      4  C   UNL     1     175.302 174.273 177.001  1.00  0.00     0.157 A 
ATOM      5  C   UNL     1     175.470 173.382 178.067  1.00  0.00     0.051 A 
ATOM      6  C   UNL     1     174.415 173.123 178.944  1.00  0.00     0.016 A 
ENDROOT
BRANCH   1   7
ATOM      7  C   UNL     1     172.033 173.486 179.696  1.00  0.00     0.159 C 
ATOM      8  C   UNL     1     172.234 173.339 181.175  1.00  0.00     0.093 C 
ATOM      9  O   UNL     1     170.863 173.380 179.237  1.00  0.00    -0.295 OA
ENDBRANCH   1   7
BRANCH   3  10
ATOM     10  O   UNL     1     173.942 175.798 175.727  1.00  0.00    -0.493 OA
ATOM     11  C   UNL     1     172.909 176.770 175.598  1.00  0.00     0.278 C 
ENDBRANCH   3  10
BRANCH   4  12
ATOM     12  O   UNL     1     176.356 174.530 176.128  1.00  0.00    -0.504 OA
ATOM     13  H   UNL     1     176.232 174.502 175.122  1.00  0.00     0.293 HD
ENDBRANCH   4  12
TORSDOF 3
ENDMDL
MODEL 3
REMARK VINA RESULT:    -4.867      3.115      4.117
REMARK INTER + INTRA:          -5.690
REMARK INTER:                  -5.576
REMARK INTRA:                  -0.114
REMARK UNBOUND:                -0.112
REMARK SMILES COc1cc(C(C)=O)ccc1O
REMARK SMILES IDX 5 1 4 2 3 3 11 4 10 5 9 6 6 7 7 8 8 9 2 10 1 11 12 12
REMARK H PARENT 12 13
REMARK Flexibility Score: inf
ROOT
ATOM      1  C   UNL     1     173.757 173.363 179.463  1.00  0.00     0.021 A 
ATOM      2  C   UNL     1     173.058 174.138 178.515  1.00  0.00     0.062 A 
ATOM      3  C   UNL     1     173.674 174.536 177.312  1.00  0.00     0.161 A 
ATOM      4  C   UNL     1     174.998 174.156 177.059  1.00  0.00     0.157 A 
ATOM      5  C   UNL     1     175.699 173.386 177.995  1.00  0.00     0.051 A 
ATOM      6  C   UNL     1     175.086 172.993 179.186  1.00  0.00     0.016 A 
ENDROOT
BRANCH   1   7
ATOM      7  C   UNL     1     173.088 172.952 180.728  1.00  0.00     0.159 C 
ATOM      8  C   UNL     1     171.713 173.429 181.090  1.00  0.00     0.093 C 
ATOM      9  O   UNL     1     173.682 172.178 181.527  1.00  0.00    -0.295 OA
ENDBRANCH   1   7
BRANCH   3  10
ATOM     10  O   UNL     1     173.007 175.307 176.348  1.00  0.00    -0.493 OA
ATOM     11  C   UNL     1     172.833 176.719 176.422  1.00  0.00     0.278 C 
ENDBRANCH   3  10
BRANCH   4  12
ATOM     12  O   UNL     1     175.613 174.547 175.872  1.00  0.00    -0.504 OA
ATOM     13  H   UNL     1     175.107 174.569 174.993  1.00  0.00     0.293 HD
ENDBRANCH   4  12
TORSDOF 3
ENDMDL
MODEL 4
REMARK VINA RESULT:    -4.751      2.391      3.915
REMARK INTER + INTRA:          -5.558
REMARK INTER:                  -5.458
REMARK INTRA:                  -0.100
REMARK UNBOUND:                -0.112
REMARK SMILES COc1cc(C(C)=O)ccc1O
REMARK SMILES IDX 5 1 4 2 3 3 11 4 10 5 9 6 6 7 7 8 8 9 2 10 1 11 12 12
REMARK H PARENT 12 13
REMARK Flexibility Score: inf
ROOT
ATOM      1  C   UNL     1     174.541 173.211 178.164  1.00  0.00     0.021 A 
ATOM      2  C   UNL     1     173.146 173.309 177.995  1.00  0.00     0.062 A 
ATOM      3  C   UNL     1     172.277 173.237 179.102  1.00  0.00     0.161 A 
ATOM      4  C   UNL     1     172.812 173.066 180.386  1.00  0.00     0.157 A 
ATOM      5  C   UNL     1     174.197 172.967 180.562  1.00  0.00     0.051 A 
ATOM      6  C   UNL     1     175.055 173.039 179.463  1.00  0.00     0.016 A 
ENDROOT
BRANCH   1   7
ATOM      7  C   UNL     1     175.443 173.290 176.981  1.00  0.00     0.159 C 
ATOM      8  C   UNL     1     176.225 174.528 176.662  1.00  0.00     0.093 C 
ATOM      9  O   UNL     1     175.563 172.293 176.218  1.00  0.00    -0.295 OA
ENDBRANCH   1   7
BRANCH   3  10
ATOM     10  O   UNL     1     170.884 173.331 178.968  1.00  0.00    -0.493 OA
ATOM     11  C   UNL     1     170.151 172.903 177.824  1.00  0.00     0.278 C 
ENDBRANCH   3  10
BRANCH   4  12
ATOM     12  O   UNL     1     171.958 172.994 181.484  1.00  0.00    -0.504 OA
ATOM     13  H   UNL     1     172.195 173.424 182.371  1.00  0.00     0.293 HD
ENDBRANCH   4  12
TORSDOF 3
ENDMDL
MODEL 5
REMARK VINA RESULT:    -4.689      2.714      3.350
REMARK INTER + INTRA:          -5.486
REMARK INTER:                  -5.375
REMARK INTRA:                  -0.111
REMARK UNBOUND:                -0.112
REMARK SMILES COc1cc(C(C)=O)ccc1O
REMARK SMILES IDX 5 1 4 2 3 3 11 4 10 5 9 6 6 7 7 8 8 9 2 10 1 11 12 12
REMARK H PARENT 12 13
REMARK Flexibility Score: inf
ROOT
ATOM      1  C   UNL     1     172.244 173.577 179.205  1.00  0.00     0.021 A 
ATOM      2  C   UNL     1     173.112 174.502 178.593  1.00  0.00     0.062 A 
ATOM      3  C   UNL     1     172.946 174.865 177.241  1.00  0.00     0.161 A 
ATOM      4  C   UNL     1     171.901 174.297 176.501  1.00  0.00     0.157 A 
ATOM      5  C   UNL     1     171.034 173.377 177.102  1.00  0.00     0.051 A 
ATOM      6  C   UNL     1     171.202 173.020 178.441  1.00  0.00     0.016 A 
ENDROOT
BRANCH   1   7
ATOM      7  C   UNL     1     172.436 173.206 180.634  1.00  0.00     0.159 C 
ATOM      8  C   UNL     1     173.723 172.620 181.135  1.00  0.00     0.093 C 
ATOM      9  O   UNL     1     171.500 173.386 181.459  1.00  0.00    -0.295 OA
ENDBRANCH   1   7
BRANCH   3  10
ATOM     10  O   UNL     1     173.793 175.783 176.602  1.00  0.00    -0.493 OA
ATOM     11  C   UNL     1     175.143 175.515 176.234  1.00  0.00     0.278 C 
ENDBRANCH   3  10
BRANCH   4  12
ATOM     12  O   UNL     1     171.731 174.651 175.164  1.00  0.00    -0.504 OA
ATOM     13  H   UNL     1     171.976 175.575 174.824  1.00  0.00     0.293 HD
ENDBRANCH   4  12
TORSDOF 3
ENDMDL
MODEL 6
REMARK VINA RESULT:    -4.684      1.783      2.678
REMARK INTER + INTRA:          -5.481
REMARK INTER:                  -5.369
REMARK INTRA:                  -0.112
REMARK UNBOUND:                -0.112
REMARK SMILES COc1cc(C(C)=O)ccc1O
REMARK SMILES IDX 5 1 4 2 3 3 11 4 10 5 9 6 6 7 7 8 8 9 2 10 1 11 12 12
REMARK H PARENT 12 13
REMARK Flexibility Score: inf
ROOT
ATOM      1  C   UNL     1     174.140 172.798 179.226  1.00  0.00     0.021 A 
ATOM      2  C   UNL     1     173.290 171.852 178.620  1.00  0.00     0.062 A 
ATOM      3  C   UNL     1     173.463 171.483 177.272  1.00  0.00     0.161 A 
ATOM      4  C   UNL     1     174.496 172.066 176.527  1.00  0.00     0.157 A 
ATOM      5  C   UNL     1     175.345 173.007 177.121  1.00  0.00     0.051 A 
ATOM      6  C   UNL     1     175.170 173.371 178.457  1.00  0.00     0.016 A 
ENDROOT
BRANCH   1   7
ATOM      7  C   UNL     1     173.941 173.174 180.653  1.00  0.00     0.159 C 
ATOM      8  C   UNL     1     172.650 173.757 181.146  1.00  0.00     0.093 C 
ATOM      9  O   UNL     1     174.875 173.003 181.482  1.00  0.00    -0.295 OA
ENDBRANCH   1   7
BRANCH   3  10
ATOM     10  O   UNL     1     172.634 170.544 176.639  1.00  0.00    -0.493 OA
ATOM     11  C   UNL     1     171.291 170.795 176.235  1.00  0.00     0.278 C 
ENDBRANCH   3  10
BRANCH   4  12
ATOM     12  O   UNL     1     174.672 171.706 175.193  1.00  0.00    -0.504 OA
ATOM     13  H   UNL     1     174.910 170.757 174.925  1.00  0.00     0.293 HD
ENDBRANCH   4  12
TORSDOF 3
ENDMDL
MODEL 7
REMARK VINA RESULT:    -4.565      2.405      3.500
REMARK INTER + INTRA:          -5.344
REMARK INTER:                  -5.223
REMARK INTRA:                  -0.121
REMARK UNBOUND:                -0.112
REMARK SMILES COc1cc(C(C)=O)ccc1O
REMARK SMILES IDX 5 1 4 2 3 3 11 4 10 5 9 6 6 7 7 8 8 9 2 10 1 11 12 12
REMARK H PARENT 12 13
REMARK Flexibility Score: inf
ROOT
ATOM      1  C   UNL     1     173.936 172.786 179.198  1.00  0.00     0.021 A 
ATOM      2  C   UNL     1     174.690 173.714 178.453  1.00  0.00     0.062 A 
ATOM      3  C   UNL     1     174.979 173.484 177.093  1.00  0.00     0.161 A 
ATOM      4  C   UNL     1     174.509 172.317 176.478  1.00  0.00     0.157 A 
ATOM      5  C   UNL     1     173.759 171.390 177.212  1.00  0.00     0.051 A 
ATOM      6  C   UNL     1     173.475 171.621 178.559  1.00  0.00     0.016 A 
ENDROOT
BRANCH   1   7
ATOM      7  C   UNL     1     173.640 173.047 180.634  1.00  0.00     0.159 C 
ATOM      8  C   UNL     1     172.253 173.352 181.115  1.00  0.00     0.093 C 
ATOM      9  O   UNL     1     174.574 173.013 181.482  1.00  0.00    -0.295 OA
ENDBRANCH   1   7
BRANCH   3  10
ATOM     10  O   UNL     1     175.727 174.388 176.323  1.00  0.00    -0.493 OA
ATOM     11  C   UNL     1     175.243 175.643 175.855  1.00  0.00     0.278 C 
ENDBRANCH   3  10
BRANCH   4  12
ATOM     12  O   UNL     1     174.792 172.084 175.134  1.00  0.00    -0.504 OA
ATOM     13  H   UNL     1     175.040 171.161 174.795  1.00  0.00     0.293 HD
ENDBRANCH   4  12
TORSDOF 3
ENDMDL
MODEL 8
REMARK VINA RESULT:    -4.513      2.047      2.959
REMARK INTER + INTRA:          -5.284
REMARK INTER:                  -5.175
REMARK INTRA:                  -0.110
REMARK UNBOUND:                -0.112
REMARK SMILES COc1cc(C(C)=O)ccc1O
REMARK SMILES IDX 5 1 4 2 3 3 11 4 10 5 9 6 6 7 7 8 8 9 2 10 1 11 12 12
REMARK H PARENT 12 13
REMARK Flexibility Score: inf
ROOT
ATOM      1  C   UNL     1     173.998 172.697 178.882  1.00  0.00     0.021 A 
ATOM      2  C   UNL     1     173.400 171.811 177.964  1.00  0.00     0.062 A 
ATOM      3  C   UNL     1     173.943 171.630 176.676  1.00  0.00     0.161 A 
ATOM      4  C   UNL     1     175.092 172.342 176.308  1.00  0.00     0.157 A 
ATOM      5  C   UNL     1     175.692 173.223 177.214  1.00  0.00     0.051 A 
ATOM      6  C   UNL     1     175.152 173.401 178.489  1.00  0.00     0.016 A 
ENDROOT
BRANCH   1   7
ATOM      7  C   UNL     1     173.410 172.875 180.239  1.00  0.00     0.159 C 
ATOM      8  C   UNL     1     174.266 173.003 181.463  1.00  0.00     0.093 C 
ATOM      9  O   UNL     1     172.158 172.921 180.377  1.00  0.00    -0.295 OA
ENDBRANCH   1   7
BRANCH   3  10
ATOM     10  O   UNL     1     173.371 170.756 175.739  1.00  0.00    -0.493 OA
ATOM     11  C   UNL     1     172.032 170.273 175.796  1.00  0.00     0.278 C 
ENDBRANCH   3  10
BRANCH   4  12
ATOM     12  O   UNL     1     175.633 172.167 175.036  1.00  0.00    -0.504 OA
ATOM     13  H   UNL     1     175.551 172.881 174.321  1.00  0.00     0.293 HD
ENDBRANCH   4  12
TORSDOF 3
ENDMDL
MODEL 9
REMARK VINA RESULT:    -4.490      1.801      2.908
REMARK INTER + INTRA:          -5.258
REMARK INTER:                  -5.140
REMARK INTRA:                  -0.117
REMARK UNBOUND:                -0.112
REMARK SMILES COc1cc(C(C)=O)ccc1O
REMARK SMILES IDX 5 1 4 2 3 3 11 4 10 5 9 6 6 7 7 8 8 9 2 10 1 11 12 12
REMARK H PARENT 12 13
REMARK Flexibility Score: inf
ROOT
ATOM      1  C   UNL     1     172.842 172.787 179.222  1.00  0.00     0.021 A 
ATOM      2  C   UNL     1     171.870 173.379 178.390  1.00  0.00     0.062 A 
ATOM      3  C   UNL     1     171.803 173.061 177.019  1.00  0.00     0.161 A 
ATOM      4  C   UNL     1     172.715 172.145 176.480  1.00  0.00     0.157 A 
ATOM      5  C   UNL     1     173.683 171.553 177.300  1.00  0.00     0.051 A 
ATOM      6  C   UNL     1     173.747 171.870 178.658  1.00  0.00     0.016 A 
ENDROOT
BRANCH   1   7
ATOM      7  C   UNL     1     172.896 173.136 180.669  1.00  0.00     0.159 C 
ATOM      8  C   UNL     1     174.163 173.028 181.463  1.00  0.00     0.093 C 
ATOM      9  O   UNL     1     171.854 173.536 181.256  1.00  0.00    -0.295 OA
ENDBRANCH   1   7
BRANCH   3  10
ATOM     10  O   UNL     1     170.848 173.632 176.164  1.00  0.00    -0.493 OA
ATOM     11  C   UNL     1     171.019 174.865 175.471  1.00  0.00     0.278 C 
ENDBRANCH   3  10
BRANCH   4  12
ATOM     12  O   UNL     1     172.654 171.827 175.125  1.00  0.00    -0.504 OA
ATOM     13  H   UNL     1     172.093 172.368 174.477  1.00  0.00     0.293 HD
ENDBRANCH   4  12
TORSDOF 3
ENDMDL
