MODEL 1
REMARK VINA RESULT:    -5.786      0.000      0.000
REMARK INTER + INTRA:          -4.966
REMARK INTER:                  -5.955
REMARK INTRA:                   0.989
REMARK UNBOUND:                 0.989
REMARK SMILES C[C@@H]1O[C@H](Oc2cc(O)c3c(=O)c(O[C@H]4O[C@H](C)[C@@H](O)[C@@H](O)[C@@H]4O)c(-c4ccc(O)cc4)oc3c2)[C@@H](O)[C@H](O)[C@H]1O
REMARK SMILES IDX 6 1 7 2 8 3 10 4 34 5 35 6 33 7 25 8 13 9 11 10 12 11 5 12
REMARK SMILES IDX 4 13 1 14 2 15 40 16 3 17 38 18 36 19 41 20 39 22 37 24 9 26
REMARK SMILES IDX 26 28 27 29 32 30 28 31 31 32 29 33 30 34 14 36 15 37 23 38
REMARK SMILES IDX 16 39 21 40 17 41 19 42 18 43 24 44 22 46 20 48
REMARK H PARENT 41 21 39 23 37 25 9 27 30 35 24 45 22 47 20 49
REMARK Flexibility Score: inf
ROOT
ATOM      1  C   UNL     1       0.006 -16.195  29.326  1.00  0.00     0.130 A 
ATOM      2  C   UNL     1      -1.235 -17.443  29.373  1.00  0.00     0.093 A 
ATOM      3  C   UNL     1      -2.741 -17.762  28.305  1.00  0.00     0.134 A 
ATOM      4  C   UNL     1      -3.982 -15.518  27.747  1.00  0.00     0.111 A 
ATOM      5  C   UNL     1      -2.926 -15.720  29.121  1.00  0.00     0.146 A 
ATOM      6  C   UNL     1      -1.300 -15.342  29.375  1.00  0.00     0.094 A 
ATOM      7  O   UNL     1      -4.423 -15.335  30.478  1.00  0.00    -0.452 OA
ATOM      8  C   UNL     1      -6.170 -14.282  30.758  1.00  0.00     0.180 A 
ATOM      9  C   UNL     1      -7.908 -14.953  30.079  1.00  0.00     0.214 A 
ATOM     10  C   UNL     1      -5.957 -14.306  27.639  1.00  0.00     0.239 A 
ATOM     11  O   UNL     1      -6.373 -14.114  26.214  1.00  0.00    -0.285 OA
ENDROOT
BRANCH   1  12
ATOM     12  O   UNL     1       1.951 -16.620  28.996  1.00  0.00    -0.462 OA
BRANCH  12  13
ATOM     13  C   UNL     1       2.399 -18.594  28.346  1.00  0.00     0.339 C 
ATOM     14  C   UNL     1       2.014 -21.876  26.210  1.00  0.00     0.042 C 
ATOM     15  C   UNL     1       2.515 -21.476  27.942  1.00  0.00     0.151 C 
ATOM     16  C   UNL     1       3.690 -23.025  28.603  1.00  0.00     0.174 C 
ATOM     17  O   UNL     1       3.012 -20.188  28.229  1.00  0.00    -0.335 OA
ATOM     18  C   UNL     1       3.084 -22.885  30.168  1.00  0.00     0.180 C 
ATOM     19  C   UNL     1       2.140 -20.017  30.457  1.00  0.00     0.214 C 
BRANCH  16  20
ATOM     20  O   UNL     1       3.456 -24.773  27.454  1.00  0.00    -0.388 OA
ATOM     21  H   UNL     1       3.803 -24.903  28.903  1.00  0.00     0.211 HD
ENDBRANCH  16  20
BRANCH  18  22
ATOM     22  O   UNL     1       4.116 -22.643  31.332  1.00  0.00    -0.387 OA
ATOM     23  H   UNL     1       4.324 -23.579  31.646  1.00  0.00     0.211 HD
ENDBRANCH  18  22
BRANCH  19  24
ATOM     24  O   UNL     1       0.411 -19.261  31.091  1.00  0.00    -0.384 OA
ATOM     25  H   UNL     1       0.796 -17.532  30.925  1.00  0.00     0.211 HD
ENDBRANCH  19  24
ENDBRANCH  12  13
ENDBRANCH   1  12
BRANCH   3  26
ATOM     26  O   UNL     1      -0.819 -18.453  28.039  1.00  0.00    -0.507 OA
ATOM     27  H   UNL     1      -1.928 -18.708  28.274  1.00  0.00     0.293 HD
ENDBRANCH   3  26
BRANCH   8  28
ATOM     28  C   UNL     1      -6.294 -12.742  31.846  1.00  0.00     0.021 A 
ATOM     29  C   UNL     1      -6.423 -12.459  30.112  1.00  0.00     0.016 A 
ATOM     30  C   UNL     1      -5.087 -12.033  33.186  1.00  0.00     0.016 A 
ATOM     31  C   UNL     1      -4.831 -12.360  29.834  1.00  0.00     0.047 A 
ATOM     32  C   UNL     1      -3.761 -11.502  32.484  1.00  0.00     0.047 A 
ATOM     33  C   UNL     1      -3.393 -12.541  31.330  1.00  0.00     0.115 A 
BRANCH  33  34
ATOM     34  O   UNL     1      -2.230 -13.701  31.866  1.00  0.00    -0.508 OA
ATOM     35  H   UNL     1      -1.059 -13.678  32.155  1.00  0.00     0.293 HD
ENDBRANCH  33  34
ENDBRANCH   8  28
BRANCH   9  36
ATOM     36  O   UNL     1     -10.352 -16.131  31.552  1.00  0.00    -0.454 OA
BRANCH  36  37
ATOM     37  C   UNL     1     -12.820 -17.068  33.025  1.00  0.00     0.339 C 
ATOM     38  C   UNL     1     -14.500 -15.823  35.376  1.00  0.00     0.214 C 
ATOM     39  O   UNL     1     -13.877 -18.962  33.671  1.00  0.00    -0.335 OA
ATOM     40  C   UNL     1     -15.299 -18.074  36.343  1.00  0.00     0.180 C 
ATOM     41  C   UNL     1     -14.927 -20.742  34.655  1.00  0.00     0.151 C 
ATOM     42  C   UNL     1     -15.807 -20.118  36.388  1.00  0.00     0.174 C 
ATOM     43  C   UNL     1     -16.125 -22.817  33.020  1.00  0.00     0.042 C 
BRANCH  38  44
ATOM     44  O   UNL     1     -15.497 -14.642  36.577  1.00  0.00    -0.384 OA
ATOM     45  H   UNL     1     -16.664 -14.763  36.340  1.00  0.00     0.211 HD
ENDBRANCH  38  44
BRANCH  40  46
ATOM     46  O   UNL     1     -15.025 -17.600  37.765  1.00  0.00    -0.387 OA
ATOM     47  H   UNL     1     -15.008 -16.556  38.573  1.00  0.00     0.211 HD
ENDBRANCH  40  46
BRANCH  42  48
ATOM     48  O   UNL     1     -16.125 -20.820  37.779  1.00  0.00    -0.388 OA
ATOM     49  H   UNL     1     -16.430 -20.224  38.565  1.00  0.00     0.211 HD
ENDBRANCH  42  48
ENDBRANCH  36  37
ENDBRANCH   9  36
TORSDOF 13
ENDMDL
MODEL 2
REMARK VINA RESULT:    -5.744      1.243      1.645
REMARK INTER + INTRA:          -4.923
REMARK INTER:                  -5.711
REMARK INTRA:                   0.787
REMARK UNBOUND:                 0.989
REMARK SMILES C[C@@H]1O[C@H](Oc2cc(O)c3c(=O)c(O[C@H]4O[C@H](C)[C@@H](O)[C@@H](O)[C@@H]4O)c(-c4ccc(O)cc4)oc3c2)[C@@H](O)[C@H](O)[C@H]1O
REMARK SMILES IDX 6 1 7 2 8 3 10 4 34 5 35 6 33 7 25 8 13 9 11 10 12 11 5 12
REMARK SMILES IDX 4 13 1 14 2 15 40 16 3 17 38 18 36 19 41 20 39 22 37 24 9 26
REMARK SMILES IDX 26 28 27 29 32 30 28 31 31 32 29 33 30 34 14 36 15 37 23 38
REMARK SMILES IDX 16 39 21 40 17 41 19 42 18 43 24 44 22 46 20 48
REMARK H PARENT 41 21 39 23 37 25 9 27 30 35 24 45 22 47 20 49
REMARK Flexibility Score: inf
ROOT
ATOM      1  C   UNL     1      -0.144 -16.305  29.181  1.00  0.00     0.130 A 
ATOM      2  C   UNL     1      -1.419 -17.518  29.158  1.00  0.00     0.093 A 
ATOM      3  C   UNL     1      -2.939 -17.726  28.082  1.00  0.00     0.134 A 
ATOM      4  C   UNL     1      -4.119 -15.418  27.677  1.00  0.00     0.111 A 
ATOM      5  C   UNL     1      -3.061 -15.736  29.028  1.00  0.00     0.146 A 
ATOM      6  C   UNL     1      -1.425 -15.420  29.294  1.00  0.00     0.094 A 
ATOM      7  O   UNL     1      -4.540 -15.396  30.417  1.00  0.00    -0.452 OA
ATOM      8  C   UNL     1      -6.255 -14.315  30.775  1.00  0.00     0.180 A 
ATOM      9  C   UNL     1      -8.015 -14.892  30.068  1.00  0.00     0.214 A 
ATOM     10  C   UNL     1      -6.059 -14.146  27.660  1.00  0.00     0.239 A 
ATOM     11  O   UNL     1      -6.478 -13.852  26.253  1.00  0.00    -0.285 OA
ENDROOT
BRANCH   1  12
ATOM     12  O   UNL     1       1.787 -16.762  28.811  1.00  0.00    -0.462 OA
BRANCH  12  13
ATOM     13  C   UNL     1       2.164 -18.040  27.154  1.00  0.00     0.339 C 
ATOM     14  C   UNL     1       1.567 -19.640  23.609  1.00  0.00     0.042 C 
ATOM     15  C   UNL     1       2.226 -20.227  25.232  1.00  0.00     0.151 C 
ATOM     16  C   UNL     1       3.448 -21.830  24.841  1.00  0.00     0.174 C 
ATOM     17  O   UNL     1       2.754 -19.282  26.135  1.00  0.00    -0.335 OA
ATOM     18  C   UNL     1       2.989 -22.594  26.270  1.00  0.00     0.180 C 
ATOM     19  C   UNL     1       2.090 -20.394  28.155  1.00  0.00     0.214 C 
BRANCH  16  20
ATOM     20  O   UNL     1       3.102 -22.677  22.946  1.00  0.00    -0.388 OA
ATOM     21  H   UNL     1       2.495 -23.328  24.149  1.00  0.00     0.211 HD
ENDBRANCH  16  20
BRANCH  18  22
ATOM     22  O   UNL     1       4.124 -22.979  27.291  1.00  0.00    -0.387 OA
ATOM     23  H   UNL     1       4.965 -22.703  26.806  1.00  0.00     0.211 HD
ENDBRANCH  18  22
BRANCH  19  24
ATOM     24  O   UNL     1       0.431 -20.186  29.234  1.00  0.00    -0.384 OA
ATOM     25  H   UNL     1       1.070 -20.700  30.813  1.00  0.00     0.211 HD
ENDBRANCH  19  24
ENDBRANCH  12  13
ENDBRANCH   1  12
BRANCH   3  26
ATOM     26  O   UNL     1      -1.039 -18.453  27.759  1.00  0.00    -0.507 OA
ATOM     27  H   UNL     1      -2.065 -18.154  27.302  1.00  0.00     0.293 HD
ENDBRANCH   3  26
BRANCH   8  28
ATOM     28  C   UNL     1      -6.329 -12.844  31.960  1.00  0.00     0.021 A 
ATOM     29  C   UNL     1      -6.560 -12.460  30.257  1.00  0.00     0.016 A 
ATOM     30  C   UNL     1      -5.054 -12.203  33.270  1.00  0.00     0.016 A 
ATOM     31  C   UNL     1      -4.988 -12.325  29.896  1.00  0.00     0.047 A 
ATOM     32  C   UNL     1      -3.775 -11.615  32.527  1.00  0.00     0.047 A 
ATOM     33  C   UNL     1      -3.464 -12.578  31.294  1.00  0.00     0.115 A 
BRANCH  33  34
ATOM     34  O   UNL     1      -2.263 -13.755  31.692  1.00  0.00    -0.508 OA
ATOM     35  H   UNL     1      -1.188 -13.738  32.240  1.00  0.00     0.293 HD
ENDBRANCH  33  34
ENDBRANCH   8  28
BRANCH   9  36
ATOM     36  O   UNL     1     -10.484 -16.093  31.480  1.00  0.00    -0.454 OA
BRANCH  36  37
ATOM     37  C   UNL     1     -12.923 -17.068  32.976  1.00  0.00     0.339 C 
ATOM     38  C   UNL     1     -14.620 -15.835  35.322  1.00  0.00     0.214 C 
ATOM     39  O   UNL     1     -13.936 -18.978  33.647  1.00  0.00    -0.335 OA
ATOM     40  C   UNL     1     -15.364 -18.092  36.317  1.00  0.00     0.180 C 
ATOM     41  C   UNL     1     -14.941 -20.769  34.656  1.00  0.00     0.151 C 
ATOM     42  C   UNL     1     -15.826 -20.146  36.386  1.00  0.00     0.174 C 
ATOM     43  C   UNL     1     -16.101 -22.888  33.049  1.00  0.00     0.042 C 
BRANCH  38  44
ATOM     44  O   UNL     1     -15.636 -14.663  36.514  1.00  0.00    -0.384 OA
ATOM     45  H   UNL     1     -16.803 -14.853  36.324  1.00  0.00     0.211 HD
ENDBRANCH  38  44
BRANCH  40  46
ATOM     46  O   UNL     1     -15.094 -17.596  37.732  1.00  0.00    -0.387 OA
ATOM     47  H   UNL     1     -15.630 -17.351  38.913  1.00  0.00     0.211 HD
ENDBRANCH  40  46
BRANCH  42  48
ATOM     48  O   UNL     1     -16.123 -20.839  37.787  1.00  0.00    -0.388 OA
ATOM     49  H   UNL     1     -16.363 -21.843  37.791  1.00  0.00     0.211 HD
ENDBRANCH  42  48
ENDBRANCH  36  37
ENDBRANCH   9  36
TORSDOF 13
ENDMDL
MODEL 3
REMARK VINA RESULT:    -5.198      1.954      2.545
REMARK INTER + INTRA:          -4.361
REMARK INTER:                  -6.346
REMARK INTRA:                   1.985
REMARK UNBOUND:                 0.989
REMARK SMILES C[C@@H]1O[C@H](Oc2cc(O)c3c(=O)c(O[C@H]4O[C@H](C)[C@@H](O)[C@@H](O)[C@@H]4O)c(-c4ccc(O)cc4)oc3c2)[C@@H](O)[C@H](O)[C@H]1O
REMARK SMILES IDX 6 1 7 2 8 3 10 4 34 5 35 6 33 7 25 8 13 9 11 10 12 11 5 12
REMARK SMILES IDX 4 13 1 14 2 15 40 16 3 17 38 18 36 19 41 20 39 22 37 24 9 26
REMARK SMILES IDX 26 28 27 29 32 30 28 31 31 32 29 33 30 34 14 36 15 37 23 38
REMARK SMILES IDX 16 39 21 40 17 41 19 42 18 43 24 44 22 46 20 48
REMARK H PARENT 41 21 39 23 37 25 9 27 30 35 24 45 22 47 20 49
REMARK Flexibility Score: inf
ROOT
ATOM      1  C   UNL     1       0.006 -16.338  29.209  1.00  0.00     0.130 A 
ATOM      2  C   UNL     1      -1.263 -17.552  29.328  1.00  0.00     0.093 A 
ATOM      3  C   UNL     1      -2.812 -17.856  28.320  1.00  0.00     0.134 A 
ATOM      4  C   UNL     1      -4.016 -15.594  27.754  1.00  0.00     0.111 A 
ATOM      5  C   UNL     1      -2.917 -15.792  29.095  1.00  0.00     0.146 A 
ATOM      6  C   UNL     1      -1.276 -15.450  29.284  1.00  0.00     0.094 A 
ATOM      7  O   UNL     1      -4.356 -15.339  30.494  1.00  0.00    -0.452 OA
ATOM      8  C   UNL     1      -6.065 -14.236  30.810  1.00  0.00     0.180 A 
ATOM      9  C   UNL     1      -7.842 -14.876  30.208  1.00  0.00     0.214 A 
ATOM     10  C   UNL     1      -5.963 -14.334  27.687  1.00  0.00     0.239 A 
ATOM     11  O   UNL     1      -6.425 -14.163  26.274  1.00  0.00    -0.285 OA
ENDROOT
BRANCH   1  12
ATOM     12  O   UNL     1       1.928 -16.820  28.821  1.00  0.00    -0.462 OA
BRANCH  12  13
ATOM     13  C   UNL     1       2.254 -18.401  27.438  1.00  0.00     0.339 C 
ATOM     14  C   UNL     1       4.078 -20.378  24.566  1.00  0.00     0.042 C 
ATOM     15  C   UNL     1       2.327 -20.141  25.104  1.00  0.00     0.151 C 
ATOM     16  C   UNL     1       1.263 -21.758  24.420  1.00  0.00     0.174 C 
ATOM     17  O   UNL     1       2.067 -19.780  26.442  1.00  0.00    -0.335 OA
ATOM     18  C   UNL     1      -0.101 -20.809  24.144  1.00  0.00     0.180 C 
ATOM     19  C   UNL     1       0.125 -18.436  26.020  1.00  0.00     0.214 C 
BRANCH  16  20
ATOM     20  O   UNL     1       2.251 -22.791  22.875  1.00  0.00    -0.388 OA
ATOM     21  H   UNL     1       0.968 -22.086  22.566  1.00  0.00     0.211 HD
ENDBRANCH  16  20
BRANCH  18  22
ATOM     22  O   UNL     1      -1.438 -21.225  24.861  1.00  0.00    -0.387 OA
ATOM     23  H   UNL     1      -1.526 -22.203  24.625  1.00  0.00     0.211 HD
ENDBRANCH  18  22
BRANCH  19  24
ATOM     24  O   UNL     1      -0.018 -16.479  25.685  1.00  0.00    -0.384 OA
ATOM     25  H   UNL     1       1.717 -16.087  25.632  1.00  0.00     0.211 HD
ENDBRANCH  19  24
ENDBRANCH  12  13
ENDBRANCH   1  12
BRANCH   3  26
ATOM     26  O   UNL     1      -0.919 -18.602  28.004  1.00  0.00    -0.507 OA
ATOM     27  H   UNL     1      -1.877 -18.606  28.662  1.00  0.00     0.293 HD
ENDBRANCH   3  26
BRANCH   8  28
ATOM     28  C   UNL     1      -6.112 -12.669  31.866  1.00  0.00     0.021 A 
ATOM     29  C   UNL     1      -6.364 -12.429  30.140  1.00  0.00     0.016 A 
ATOM     30  C   UNL     1      -4.814 -11.930  33.101  1.00  0.00     0.016 A 
ATOM     31  C   UNL     1      -4.795 -12.339  29.748  1.00  0.00     0.047 A 
ATOM     32  C   UNL     1      -3.541 -11.418  32.293  1.00  0.00     0.047 A 
ATOM     33  C   UNL     1      -3.255 -12.485  31.142  1.00  0.00     0.115 A 
BRANCH  33  34
ATOM     34  O   UNL     1      -2.057 -13.634  31.623  1.00  0.00    -0.508 OA
ATOM     35  H   UNL     1      -1.311 -13.760  32.563  1.00  0.00     0.293 HD
ENDBRANCH  33  34
ENDBRANCH   8  28
BRANCH   9  36
ATOM     36  O   UNL     1     -10.261 -15.959  31.792  1.00  0.00    -0.454 OA
BRANCH  36  37
ATOM     37  C   UNL     1     -12.756 -16.993  33.151  1.00  0.00     0.339 C 
ATOM     38  C   UNL     1     -14.608 -15.802  35.399  1.00  0.00     0.214 C 
ATOM     39  O   UNL     1     -13.758 -18.926  33.767  1.00  0.00    -0.335 OA
ATOM     40  C   UNL     1     -15.352 -18.076  36.353  1.00  0.00     0.180 C 
ATOM     41  C   UNL     1     -14.775 -20.742  34.720  1.00  0.00     0.151 C 
ATOM     42  C   UNL     1     -15.768 -20.141  36.398  1.00  0.00     0.174 C 
ATOM     43  C   UNL     1     -15.793 -22.886  33.053  1.00  0.00     0.042 C 
BRANCH  38  44
ATOM     44  O   UNL     1     -15.716 -14.655  36.533  1.00  0.00    -0.384 OA
ATOM     45  H   UNL     1     -15.585 -15.009  37.669  1.00  0.00     0.211 HD
ENDBRANCH  38  44
BRANCH  40  46
ATOM     46  O   UNL     1     -15.172 -17.575  37.781  1.00  0.00    -0.387 OA
ATOM     47  H   UNL     1     -14.320 -17.060  38.648  1.00  0.00     0.211 HD
ENDBRANCH  40  46
BRANCH  42  48
ATOM     48  O   UNL     1     -16.125 -20.842  37.781  1.00  0.00    -0.388 OA
ATOM     49  H   UNL     1     -17.037 -21.317  37.863  1.00  0.00     0.211 HD
ENDBRANCH  42  48
ENDBRANCH  36  37
ENDBRANCH   9  36
TORSDOF 13
ENDMDL
MODEL 4
REMARK VINA RESULT:    -3.594      1.069      1.904
REMARK INTER + INTRA:          -2.710
REMARK INTER:                  -3.724
REMARK INTRA:                   1.013
REMARK UNBOUND:                 0.989
REMARK SMILES C[C@@H]1O[C@H](Oc2cc(O)c3c(=O)c(O[C@H]4O[C@H](C)[C@@H](O)[C@@H](O)[C@@H]4O)c(-c4ccc(O)cc4)oc3c2)[C@@H](O)[C@H](O)[C@H]1O
REMARK SMILES IDX 6 1 7 2 8 3 10 4 34 5 35 6 33 7 25 8 13 9 11 10 12 11 5 12
REMARK SMILES IDX 4 13 1 14 2 15 40 16 3 17 38 18 36 19 41 20 39 22 37 24 9 26
REMARK SMILES IDX 26 28 27 29 32 30 28 31 31 32 29 33 30 34 14 36 15 37 23 38
REMARK SMILES IDX 16 39 21 40 17 41 19 42 18 43 24 44 22 46 20 48
REMARK H PARENT 41 21 39 23 37 25 9 27 30 35 24 45 22 47 20 49
REMARK Flexibility Score: inf
ROOT
ATOM      1  C   UNL     1      -0.138 -16.784  29.600  1.00  0.00     0.130 A 
ATOM      2  C   UNL     1      -1.480 -17.924  29.585  1.00  0.00     0.093 A 
ATOM      3  C   UNL     1      -2.963 -18.108  28.455  1.00  0.00     0.134 A 
ATOM      4  C   UNL     1      -3.989 -15.764  27.873  1.00  0.00     0.111 A 
ATOM      5  C   UNL     1      -3.009 -16.064  29.285  1.00  0.00     0.146 A 
ATOM      6  C   UNL     1      -1.369 -15.825  29.607  1.00  0.00     0.094 A 
ATOM      7  O   UNL     1      -4.521 -15.564  30.586  1.00  0.00    -0.452 OA
ATOM      8  C   UNL     1      -6.185 -14.371  30.808  1.00  0.00     0.180 A 
ATOM      9  C   UNL     1      -7.944 -14.888  30.055  1.00  0.00     0.214 A 
ATOM     10  C   UNL     1      -5.849 -14.389  27.700  1.00  0.00     0.239 A 
ATOM     11  O   UNL     1      -6.191 -14.153  26.262  1.00  0.00    -0.285 OA
ENDROOT
BRANCH   1  12
ATOM     12  O   UNL     1       1.777 -17.369  29.342  1.00  0.00    -0.462 OA
BRANCH  12  13
ATOM     13  C   UNL     1       2.117 -19.456  29.127  1.00  0.00     0.339 C 
ATOM     14  C   UNL     1       4.125 -22.835  29.323  1.00  0.00     0.042 C 
ATOM     15  C   UNL     1       2.849 -22.117  28.196  1.00  0.00     0.151 C 
ATOM     16  C   UNL     1       1.893 -23.691  27.288  1.00  0.00     0.174 C 
ATOM     17  O   UNL     1       1.998 -21.106  28.686  1.00  0.00    -0.335 OA
ATOM     18  C   UNL     1       1.715 -22.823  25.856  1.00  0.00     0.180 C 
ATOM     19  C   UNL     1       1.759 -19.890  26.631  1.00  0.00     0.214 C 
BRANCH  16  20
ATOM     20  O   UNL     1       2.992 -25.483  27.393  1.00  0.00    -0.388 OA
ATOM     21  H   UNL     1       2.255 -25.016  28.609  1.00  0.00     0.211 HD
ENDBRANCH  16  20
BRANCH  18  22
ATOM     22  O   UNL     1       0.258 -22.633  25.293  1.00  0.00    -0.387 OA
ATOM     23  H   UNL     1       0.379 -22.780  24.302  1.00  0.00     0.211 HD
ENDBRANCH  18  22
BRANCH  19  24
ATOM     24  O   UNL     1       2.822 -18.362  25.927  1.00  0.00    -0.384 OA
ATOM     25  H   UNL     1       3.382 -17.688  27.476  1.00  0.00     0.211 HD
ENDBRANCH  19  24
ENDBRANCH  12  13
ENDBRANCH   1  12
BRANCH   3  26
ATOM     26  O   UNL     1      -1.096 -18.956  28.258  1.00  0.00    -0.507 OA
ATOM     27  H   UNL     1      -1.736 -18.081  28.677  1.00  0.00     0.293 HD
ENDBRANCH   3  26
BRANCH   8  28
ATOM     28  C   UNL     1      -6.223 -12.833  31.907  1.00  0.00     0.021 A 
ATOM     29  C   UNL     1      -6.445 -12.541  30.185  1.00  0.00     0.016 A 
ATOM     30  C   UNL     1      -4.931 -12.150  33.180  1.00  0.00     0.016 A 
ATOM     31  C   UNL     1      -4.870 -12.465  29.817  1.00  0.00     0.047 A 
ATOM     32  C   UNL     1      -3.639 -11.635  32.405  1.00  0.00     0.047 A 
ATOM     33  C   UNL     1      -3.352 -12.675  31.229  1.00  0.00     0.115 A 
BRANCH  33  34
ATOM     34  O   UNL     1      -2.180 -13.855  31.694  1.00  0.00    -0.508 OA
ATOM     35  H   UNL     1      -1.220 -13.876  32.426  1.00  0.00     0.293 HD
ENDBRANCH  33  34
ENDBRANCH   8  28
BRANCH   9  36
ATOM     36  O   UNL     1     -10.535 -15.868  31.418  1.00  0.00    -0.454 OA
BRANCH  36  37
ATOM     37  C   UNL     1     -12.939 -16.932  32.911  1.00  0.00     0.339 C 
ATOM     38  C   UNL     1     -14.679 -15.764  35.258  1.00  0.00     0.214 C 
ATOM     39  O   UNL     1     -13.883 -18.877  33.579  1.00  0.00    -0.335 OA
ATOM     40  C   UNL     1     -15.342 -18.048  36.249  1.00  0.00     0.180 C 
ATOM     41  C   UNL     1     -14.824 -20.705  34.584  1.00  0.00     0.151 C 
ATOM     42  C   UNL     1     -15.731 -20.118  36.314  1.00  0.00     0.174 C 
ATOM     43  C   UNL     1     -15.907 -22.861  32.972  1.00  0.00     0.042 C 
BRANCH  38  44
ATOM     44  O   UNL     1     -15.737 -14.631  36.453  1.00  0.00    -0.384 OA
ATOM     45  H   UNL     1     -15.372 -13.499  36.316  1.00  0.00     0.211 HD
ENDBRANCH  38  44
BRANCH  40  46
ATOM     46  O   UNL     1     -15.091 -17.545  37.665  1.00  0.00    -0.387 OA
ATOM     47  H   UNL     1     -15.554 -17.515  38.901  1.00  0.00     0.211 HD
ENDBRANCH  40  46
BRANCH  42  48
ATOM     48  O   UNL     1     -16.003 -20.823  37.714  1.00  0.00    -0.388 OA
ATOM     49  H   UNL     1     -15.510 -20.461  38.544  1.00  0.00     0.211 HD
ENDBRANCH  42  48
ENDBRANCH  36  37
ENDBRANCH   9  36
TORSDOF 13
ENDMDL
