MODEL 1
REMARK VINA RESULT:    -4.337      0.000      0.000
REMARK INTER + INTRA:          -5.073
REMARK INTER:                  -4.970
REMARK INTRA:                  -0.103
REMARK UNBOUND:                -0.103
REMARK SMILES COc1cc(C(C)=O)ccc1O
REMARK SMILES IDX 5 1 4 2 3 3 11 4 10 5 9 6 6 7 7 8 8 9 2 10 1 11 12 12
REMARK H PARENT 12 13
REMARK Flexibility Score: inf
ROOT
ATOM      1  C   UNL     1      79.872  15.648   3.623  1.00  0.00     0.021 A 
ATOM      2  C   UNL     1      79.417  15.181   2.375  1.00  0.00     0.062 A 
ATOM      3  C   UNL     1      79.128  16.079   1.327  1.00  0.00     0.161 A 
ATOM      4  C   UNL     1      79.299  17.458   1.537  1.00  0.00     0.157 A 
ATOM      5  C   UNL     1      79.752  17.925   2.773  1.00  0.00     0.051 A 
ATOM      6  C   UNL     1      80.035  17.033   3.808  1.00  0.00     0.016 A 
ENDROOT
BRANCH   1   7
ATOM      7  C   UNL     1      80.171  14.683   4.717  1.00  0.00     0.159 C 
ATOM      8  C   UNL     1      79.360  14.636   5.977  1.00  0.00     0.093 C 
ATOM      9  O   UNL     1      81.131  13.875   4.593  1.00  0.00    -0.295 OA
ENDBRANCH   1   7
BRANCH   3  10
ATOM     10  O   UNL     1      78.673  15.638   0.074  1.00  0.00    -0.493 OA
ATOM     11  C   UNL     1      77.786  14.541  -0.125  1.00  0.00     0.278 C 
ENDBRANCH   3  10
BRANCH   4  12
ATOM     12  O   UNL     1      79.027  18.381   0.527  1.00  0.00    -0.504 OA
ATOM     13  H   UNL     1      78.156  18.897   0.488  1.00  0.00     0.293 HD
ENDBRANCH   4  12
TORSDOF 3
ENDMDL
MODEL 2
REMARK VINA RESULT:    -4.175      1.599      2.925
REMARK INTER + INTRA:          -4.888
REMARK INTER:                  -4.795
REMARK INTRA:                  -0.093
REMARK UNBOUND:                -0.103
REMARK SMILES COc1cc(C(C)=O)ccc1O
REMARK SMILES IDX 5 1 4 2 3 3 11 4 10 5 9 6 6 7 7 8 8 9 2 10 1 11 12 12
REMARK H PARENT 12 13
REMARK Flexibility Score: inf
ROOT
ATOM      1  C   UNL     1      79.488  15.567   2.813  1.00  0.00     0.021 A 
ATOM      2  C   UNL     1      80.148  16.806   2.929  1.00  0.00     0.062 A 
ATOM      3  C   UNL     1      79.818  17.884   2.082  1.00  0.00     0.161 A 
ATOM      4  C   UNL     1      78.816  17.713   1.112  1.00  0.00     0.157 A 
ATOM      5  C   UNL     1      78.159  16.487   0.995  1.00  0.00     0.051 A 
ATOM      6  C   UNL     1      78.489  15.422   1.834  1.00  0.00     0.016 A 
ENDROOT
BRANCH   1   7
ATOM      7  C   UNL     1      79.852  14.441   3.718  1.00  0.00     0.159 C 
ATOM      8  C   UNL     1      81.239  13.875   3.761  1.00  0.00     0.093 C 
ATOM      9  O   UNL     1      78.977  13.940   4.476  1.00  0.00    -0.295 OA
ENDBRANCH   1   7
BRANCH   3  10
ATOM     10  O   UNL     1      80.462  19.128   2.178  1.00  0.00    -0.493 OA
ATOM     11  C   UNL     1      81.622  19.498   1.439  1.00  0.00     0.278 C 
ENDBRANCH   3  10
BRANCH   4  12
ATOM     12  O   UNL     1      78.458  18.754   0.255  1.00  0.00    -0.504 OA
ATOM     13  H   UNL     1      77.702  19.394   0.469  1.00  0.00     0.293 HD
ENDBRANCH   4  12
TORSDOF 3
ENDMDL
MODEL 3
REMARK VINA RESULT:    -4.033      1.454      2.796
REMARK INTER + INTRA:          -4.725
REMARK INTER:                  -4.609
REMARK INTRA:                  -0.116
REMARK UNBOUND:                -0.103
REMARK SMILES COc1cc(C(C)=O)ccc1O
REMARK SMILES IDX 5 1 4 2 3 3 11 4 10 5 9 6 6 7 7 8 8 9 2 10 1 11 12 12
REMARK H PARENT 12 13
REMARK Flexibility Score: inf
ROOT
ATOM      1  C   UNL     1      79.462  15.177   4.249  1.00  0.00     0.021 A 
ATOM      2  C   UNL     1      79.610  16.390   3.548  1.00  0.00     0.062 A 
ATOM      3  C   UNL     1      79.499  16.434   2.143  1.00  0.00     0.161 A 
ATOM      4  C   UNL     1      79.237  15.247   1.438  1.00  0.00     0.157 A 
ATOM      5  C   UNL     1      79.089  14.043   2.129  1.00  0.00     0.051 A 
ATOM      6  C   UNL     1      79.200  14.003   3.519  1.00  0.00     0.016 A 
ENDROOT
BRANCH   1   7
ATOM      7  C   UNL     1      79.582  15.153   5.732  1.00  0.00     0.159 C 
ATOM      8  C   UNL     1      79.509  13.876   6.513  1.00  0.00     0.093 C 
ATOM      9  O   UNL     1      79.752  16.231   6.364  1.00  0.00    -0.295 OA
ENDBRANCH   1   7
BRANCH   3  10
ATOM     10  O   UNL     1      79.643  17.630   1.423  1.00  0.00    -0.493 OA
ATOM     11  C   UNL     1      80.385  18.761   1.870  1.00  0.00     0.278 C 
ENDBRANCH   3  10
BRANCH   4  12
ATOM     12  O   UNL     1      79.119  15.245   0.048  1.00  0.00    -0.504 OA
ATOM     13  H   UNL     1      78.612  15.965  -0.452  1.00  0.00     0.293 HD
ENDBRANCH   4  12
TORSDOF 3
ENDMDL
MODEL 4
REMARK VINA RESULT:    -3.933      1.464      4.879
REMARK INTER + INTRA:          -4.611
REMARK INTER:                  -4.515
REMARK INTRA:                  -0.097
REMARK UNBOUND:                -0.103
REMARK SMILES COc1cc(C(C)=O)ccc1O
REMARK SMILES IDX 5 1 4 2 3 3 11 4 10 5 9 6 6 7 7 8 8 9 2 10 1 11 12 12
REMARK H PARENT 12 13
REMARK Flexibility Score: inf
ROOT
ATOM      1  C   UNL     1      79.313  15.726   2.199  1.00  0.00     0.021 A 
ATOM      2  C   UNL     1      79.136  16.333   3.458  1.00  0.00     0.062 A 
ATOM      3  C   UNL     1      79.635  15.730   4.630  1.00  0.00     0.161 A 
ATOM      4  C   UNL     1      80.320  14.506   4.535  1.00  0.00     0.157 A 
ATOM      5  C   UNL     1      80.499  13.902   3.288  1.00  0.00     0.051 A 
ATOM      6  C   UNL     1      80.002  14.501   2.131  1.00  0.00     0.016 A 
ENDROOT
BRANCH   1   7
ATOM      7  C   UNL     1      78.777  16.380   0.973  1.00  0.00     0.159 C 
ATOM      8  C   UNL     1      78.376  17.824   0.956  1.00  0.00     0.093 C 
ATOM      9  O   UNL     1      78.653  15.711  -0.089  1.00  0.00    -0.295 OA
ENDBRANCH   1   7
BRANCH   3  10
ATOM     10  O   UNL     1      79.470  16.314   5.896  1.00  0.00    -0.493 OA
ATOM     11  C   UNL     1      79.584  17.708   6.165  1.00  0.00     0.278 C 
ENDBRANCH   3  10
BRANCH   4  12
ATOM     12  O   UNL     1      80.832  13.875   5.668  1.00  0.00    -0.504 OA
ATOM     13  H   UNL     1      81.823  13.709   5.793  1.00  0.00     0.293 HD
ENDBRANCH   4  12
TORSDOF 3
ENDMDL
MODEL 5
REMARK VINA RESULT:    -3.844      1.852      4.219
REMARK INTER + INTRA:          -4.509
REMARK INTER:                  -4.428
REMARK INTRA:                  -0.081
REMARK UNBOUND:                -0.103
REMARK SMILES COc1cc(C(C)=O)ccc1O
REMARK SMILES IDX 5 1 4 2 3 3 11 4 10 5 9 6 6 7 7 8 8 9 2 10 1 11 12 12
REMARK H PARENT 12 13
REMARK Flexibility Score: inf
ROOT
ATOM      1  C   UNL     1      79.170  15.076   1.946  1.00  0.00     0.021 A 
ATOM      2  C   UNL     1      78.975  14.424   3.179  1.00  0.00     0.062 A 
ATOM      3  C   UNL     1      79.069  15.131   4.395  1.00  0.00     0.161 A 
ATOM      4  C   UNL     1      79.361  16.506   4.370  1.00  0.00     0.157 A 
ATOM      5  C   UNL     1      79.553  17.156   3.149  1.00  0.00     0.051 A 
ATOM      6  C   UNL     1      79.460  16.453   1.948  1.00  0.00     0.016 A 
ENDROOT
BRANCH   1   7
ATOM      7  C   UNL     1      79.065  14.311   0.673  1.00  0.00     0.159 C 
ATOM      8  C   UNL     1      77.745  14.035   0.019  1.00  0.00     0.093 C 
ATOM      9  O   UNL     1      80.110  13.877   0.116  1.00  0.00    -0.295 OA
ENDBRANCH   1   7
BRANCH   3  10
ATOM     10  O   UNL     1      78.880  14.503   5.637  1.00  0.00    -0.493 OA
ATOM     11  C   UNL     1      79.928  13.984   6.449  1.00  0.00     0.278 C 
ENDBRANCH   3  10
BRANCH   4  12
ATOM     12  O   UNL     1      79.462  17.243   5.549  1.00  0.00    -0.504 OA
ATOM     13  H   UNL     1      80.011  18.093   5.609  1.00  0.00     0.293 HD
ENDBRANCH   4  12
TORSDOF 3
ENDMDL
MODEL 6
REMARK VINA RESULT:    -3.306      2.174      4.795
REMARK INTER + INTRA:          -3.892
REMARK INTER:                  -3.901
REMARK INTRA:                   0.009
REMARK UNBOUND:                -0.103
REMARK SMILES COc1cc(C(C)=O)ccc1O
REMARK SMILES IDX 5 1 4 2 3 3 11 4 10 5 9 6 6 7 7 8 8 9 2 10 1 11 12 12
REMARK H PARENT 12 13
REMARK Flexibility Score: inf
ROOT
ATOM      1  C   UNL     1      79.142  15.038   3.603  1.00  0.00     0.021 A 
ATOM      2  C   UNL     1      79.187  14.278   4.788  1.00  0.00     0.062 A 
ATOM      3  C   UNL     1      79.384  14.897   6.039  1.00  0.00     0.161 A 
ATOM      4  C   UNL     1      79.536  16.293   6.098  1.00  0.00     0.157 A 
ATOM      5  C   UNL     1      79.490  17.050   4.925  1.00  0.00     0.051 A 
ATOM      6  C   UNL     1      79.296  16.433   3.689  1.00  0.00     0.016 A 
ENDROOT
BRANCH   1   7
ATOM      7  C   UNL     1      78.933  14.364   2.292  1.00  0.00     0.159 C 
ATOM      8  C   UNL     1      77.573  13.936   1.828  1.00  0.00     0.093 C 
ATOM      9  O   UNL     1      79.920  14.140   1.538  1.00  0.00    -0.295 OA
ENDBRANCH   1   7
BRANCH   3  10
ATOM     10  O   UNL     1      79.434  14.161   7.234  1.00  0.00    -0.493 OA
ATOM     11  C   UNL     1      80.621  13.904   7.977  1.00  0.00     0.278 C 
ENDBRANCH   3  10
BRANCH   4  12
ATOM     12  O   UNL     1      79.731  16.946   7.315  1.00  0.00    -0.504 OA
ATOM     13  H   UNL     1      80.656  17.138   7.682  1.00  0.00     0.293 HD
ENDBRANCH   4  12
TORSDOF 3
ENDMDL
MODEL 7
REMARK VINA RESULT:    -3.085     19.355     20.931
REMARK INTER + INTRA:          -3.639
REMARK INTER:                  -3.537
REMARK INTRA:                  -0.102
REMARK UNBOUND:                -0.103
REMARK SMILES COc1cc(C(C)=O)ccc1O
REMARK SMILES IDX 5 1 4 2 3 3 11 4 10 5 9 6 6 7 7 8 8 9 2 10 1 11 12 12
REMARK H PARENT 12 13
REMARK Flexibility Score: inf
ROOT
ATOM      1  C   UNL     1      90.680  27.038  14.807  1.00  0.00     0.021 A 
ATOM      2  C   UNL     1      91.027  27.262  16.154  1.00  0.00     0.062 A 
ATOM      3  C   UNL     1      90.114  26.989  17.193  1.00  0.00     0.161 A 
ATOM      4  C   UNL     1      88.841  26.487  16.874  1.00  0.00     0.157 A 
ATOM      5  C   UNL     1      88.493  26.262  15.541  1.00  0.00     0.051 A 
ATOM      6  C   UNL     1      89.399  26.533  14.515  1.00  0.00     0.016 A 
ENDROOT
BRANCH   1   7
ATOM      7  C   UNL     1      91.659  27.332  13.725  1.00  0.00     0.159 C 
ATOM      8  C   UNL     1      92.117  26.278  12.762  1.00  0.00     0.093 C 
ATOM      9  O   UNL     1      92.125  28.497  13.602  1.00  0.00    -0.295 OA
ENDBRANCH   1   7
BRANCH   3  10
ATOM     10  O   UNL     1      90.437  27.205  18.542  1.00  0.00    -0.493 OA
ATOM     11  C   UNL     1      91.762  27.354  19.044  1.00  0.00     0.278 C 
ENDBRANCH   3  10
BRANCH   4  12
ATOM     12  O   UNL     1      87.908  26.203  17.871  1.00  0.00    -0.504 OA
ATOM     13  H   UNL     1      88.083  25.517  18.596  1.00  0.00     0.293 HD
ENDBRANCH   4  12
TORSDOF 3
ENDMDL
MODEL 8
REMARK VINA RESULT:    -3.031      2.288      3.825
REMARK INTER + INTRA:          -3.577
REMARK INTER:                  -3.591
REMARK INTRA:                   0.014
REMARK UNBOUND:                -0.103
REMARK SMILES COc1cc(C(C)=O)ccc1O
REMARK SMILES IDX 5 1 4 2 3 3 11 4 10 5 9 6 6 7 7 8 8 9 2 10 1 11 12 12
REMARK H PARENT 12 13
REMARK Flexibility Score: inf
ROOT
ATOM      1  C   UNL     1      79.750  15.090   6.527  1.00  0.00     0.021 A 
ATOM      2  C   UNL     1      79.690  16.286   5.785  1.00  0.00     0.062 A 
ATOM      3  C   UNL     1      79.291  16.281   4.433  1.00  0.00     0.161 A 
ATOM      4  C   UNL     1      78.948  15.063   3.822  1.00  0.00     0.157 A 
ATOM      5  C   UNL     1      79.004  13.875   4.555  1.00  0.00     0.051 A 
ATOM      6  C   UNL     1      79.401  13.884   5.892  1.00  0.00     0.016 A 
ENDROOT
BRANCH   1   7
ATOM      7  C   UNL     1      80.175  15.118   7.953  1.00  0.00     0.159 C 
ATOM      8  C   UNL     1      80.705  13.899   8.646  1.00  0.00     0.093 C 
ATOM      9  O   UNL     1      80.092  16.191   8.611  1.00  0.00    -0.295 OA
ENDBRANCH   1   7
BRANCH   3  10
ATOM     10  O   UNL     1      79.224  17.460   3.673  1.00  0.00    -0.493 OA
ATOM     11  C   UNL     1      80.119  17.794   2.617  1.00  0.00     0.278 C 
ENDBRANCH   3  10
BRANCH   4  12
ATOM     12  O   UNL     1      78.546  15.013   2.488  1.00  0.00    -0.504 OA
ATOM     13  H   UNL     1      78.884  14.303   1.849  1.00  0.00     0.293 HD
ENDBRANCH   4  12
TORSDOF 3
ENDMDL
MODEL 9
REMARK VINA RESULT:    -2.887      2.208      3.170
REMARK INTER + INTRA:          -3.412
REMARK INTER:                  -3.472
REMARK INTRA:                   0.060
REMARK UNBOUND:                -0.103
REMARK SMILES COc1cc(C(C)=O)ccc1O
REMARK SMILES IDX 5 1 4 2 3 3 11 4 10 5 9 6 6 7 7 8 8 9 2 10 1 11 12 12
REMARK H PARENT 12 13
REMARK Flexibility Score: inf
ROOT
ATOM      1  C   UNL     1      79.774  15.593   6.662  1.00  0.00     0.021 A 
ATOM      2  C   UNL     1      79.642  14.612   5.660  1.00  0.00     0.062 A 
ATOM      3  C   UNL     1      79.341  14.970   4.331  1.00  0.00     0.161 A 
ATOM      4  C   UNL     1      79.172  16.328   4.007  1.00  0.00     0.157 A 
ATOM      5  C   UNL     1      79.303  17.303   4.997  1.00  0.00     0.051 A 
ATOM      6  C   UNL     1      79.601  16.944   6.312  1.00  0.00     0.016 A 
ENDROOT
BRANCH   1   7
ATOM      7  C   UNL     1      80.093  15.192   8.060  1.00  0.00     0.159 C 
ATOM      8  C   UNL     1      79.869  16.115   9.220  1.00  0.00     0.093 C 
ATOM      9  O   UNL     1      80.565  14.046   8.291  1.00  0.00    -0.295 OA
ENDBRANCH   1   7
BRANCH   3  10
ATOM     10  O   UNL     1      79.203  14.011   3.314  1.00  0.00    -0.493 OA
ATOM     11  C   UNL     1      80.085  13.875   2.205  1.00  0.00     0.278 C 
ENDBRANCH   3  10
BRANCH   4  12
ATOM     12  O   UNL     1      78.874  16.727   2.704  1.00  0.00    -0.504 OA
ATOM     13  H   UNL     1      79.541  17.222   2.125  1.00  0.00     0.293 HD
ENDBRANCH   4  12
TORSDOF 3
ENDMDL
