MODEL 1
REMARK VINA RESULT:    -8.707      0.000      0.000
REMARK INTER + INTRA:         -11.130
REMARK INTER:                 -10.743
REMARK INTRA:                  -0.387
REMARK UNBOUND:                -0.387
REMARK SMILES COc1cc(-c2oc3cc(O)cc(O)c3c(=O)c2O)ccc1O
REMARK SMILES IDX 6 1 18 2 16 3 17 4 15 5 13 6 12 7 10 8 9 9 8 10 7 11 5 12
REMARK SMILES IDX 3 13 22 14 4 15 21 16 20 17 2 18 1 19 23 20 19 22 14 24
REMARK SMILES IDX 11 26
REMARK H PARENT 23 21 19 23 14 25 11 27
REMARK Flexibility Score: inf
ROOT
ATOM      1  C   UNL     1     126.241 135.217 110.430  1.00  0.00     0.180 A 
ATOM      2  C   UNL     1     126.532 136.428 109.779  1.00  0.00     0.208 A 
ATOM      3  C   UNL     1     127.240 136.396 108.567  1.00  0.00     0.238 A 
ATOM      4  O   UNL     1     127.544 137.486 108.016  1.00  0.00    -0.285 OA
ATOM      5  C   UNL     1     127.635 135.155 108.014  1.00  0.00     0.111 A 
ATOM      6  C   UNL     1     128.321 135.002 106.772  1.00  0.00     0.134 A 
ATOM      7  C   UNL     1     128.777 133.736 106.386  1.00  0.00     0.093 A 
ATOM      8  C   UNL     1     128.514 132.606 107.165  1.00  0.00     0.123 A 
ATOM      9  C   UNL     1     127.793 132.737 108.350  1.00  0.00     0.094 A 
ATOM     10  C   UNL     1     127.356 133.992 108.780  1.00  0.00     0.146 A 
ATOM     11  O   UNL     1     126.682 134.073 109.920  1.00  0.00    -0.452 OA
ENDROOT
BRANCH   1  12
ATOM     12  C   UNL     1     125.476 135.169 111.697  1.00  0.00     0.025 A 
ATOM     13  C   UNL     1     123.358 135.161 112.920  1.00  0.00     0.161 A 
ATOM     14  C   UNL     1     124.062 135.018 114.124  1.00  0.00     0.157 A 
ATOM     15  C   UNL     1     124.071 135.228 111.706  1.00  0.00     0.062 A 
ATOM     16  C   UNL     1     125.460 134.937 114.115  1.00  0.00     0.051 A 
ATOM     17  C   UNL     1     126.162 135.004 112.910  1.00  0.00     0.016 A 
BRANCH  13  18
ATOM     18  O   UNL     1     121.956 135.228 112.970  1.00  0.00    -0.493 OA
ATOM     19  C   UNL     1     121.167 136.158 112.235  1.00  0.00     0.278 C 
ENDBRANCH  13  18
BRANCH  14  20
ATOM     20  O   UNL     1     123.363 134.954 115.328  1.00  0.00    -0.504 OA
ATOM     21  H   UNL     1     123.841 134.967 116.221  1.00  0.00     0.293 HD
ENDBRANCH  14  20
ENDBRANCH   1  12
BRANCH   2  22
ATOM     22  O   UNL     1     126.152 137.645 110.353  1.00  0.00    -0.502 OA
ATOM     23  H   UNL     1     126.173 137.805 111.353  1.00  0.00     0.293 HD
ENDBRANCH   2  22
BRANCH   6  24
ATOM     24  O   UNL     1     128.555 136.049 105.875  1.00  0.00    -0.507 OA
ATOM     25  H   UNL     1     128.215 136.992 105.991  1.00  0.00     0.293 HD
ENDBRANCH   6  24
BRANCH   8  26
ATOM     26  O   UNL     1     128.957 131.348 106.766  1.00  0.00    -0.508 OA
ATOM     27  H   UNL     1     128.777 130.994 105.834  1.00  0.00     0.293 HD
ENDBRANCH   8  26
TORSDOF 6
ENDMDL
MODEL 2
REMARK VINA RESULT:    -8.662      9.043     10.944
REMARK INTER + INTRA:         -11.074
REMARK INTER:                 -11.148
REMARK INTRA:                   0.074
REMARK UNBOUND:                -0.387
REMARK SMILES COc1cc(-c2oc3cc(O)cc(O)c3c(=O)c2O)ccc1O
REMARK SMILES IDX 6 1 18 2 16 3 17 4 15 5 13 6 12 7 10 8 9 9 8 10 7 11 5 12
REMARK SMILES IDX 3 13 22 14 4 15 21 16 20 17 2 18 1 19 23 20 19 22 14 24
REMARK SMILES IDX 11 26
REMARK H PARENT 23 21 19 23 14 25 11 27
REMARK Flexibility Score: inf
ROOT
ATOM      1  C   UNL     1     134.835 134.442 113.201  1.00  0.00     0.180 A 
ATOM      2  C   UNL     1     134.473 133.531 112.195  1.00  0.00     0.208 A 
ATOM      3  C   UNL     1     133.139 133.491 111.760  1.00  0.00     0.238 A 
ATOM      4  O   UNL     1     132.808 132.636 110.897  1.00  0.00    -0.285 OA
ATOM      5  C   UNL     1     132.187 134.374 112.325  1.00  0.00     0.111 A 
ATOM      6  C   UNL     1     130.817 134.449 111.932  1.00  0.00     0.134 A 
ATOM      7  C   UNL     1     129.937 135.268 112.649  1.00  0.00     0.093 A 
ATOM      8  C   UNL     1     130.391 136.064 113.704  1.00  0.00     0.123 A 
ATOM      9  C   UNL     1     131.738 136.043 114.056  1.00  0.00     0.094 A 
ATOM     10  C   UNL     1     132.634 135.209 113.383  1.00  0.00     0.146 A 
ATOM     11  O   UNL     1     133.907 135.211 113.757  1.00  0.00    -0.452 OA
ENDROOT
BRANCH   1  12
ATOM     12  C   UNL     1     136.228 134.559 113.692  1.00  0.00     0.025 A 
ATOM     13  C   UNL     1     137.843 134.763 115.517  1.00  0.00     0.161 A 
ATOM     14  C   UNL     1     138.890 134.723 114.585  1.00  0.00     0.157 A 
ATOM     15  C   UNL     1     136.511 134.672 115.065  1.00  0.00     0.062 A 
ATOM     16  C   UNL     1     138.610 134.588 113.220  1.00  0.00     0.051 A 
ATOM     17  C   UNL     1     137.289 134.499 112.777  1.00  0.00     0.016 A 
BRANCH  13  18
ATOM     18  O   UNL     1     138.165 134.889 116.878  1.00  0.00    -0.493 OA
ATOM     19  C   UNL     1     137.778 133.961 117.887  1.00  0.00     0.278 C 
ENDBRANCH  13  18
BRANCH  14  20
ATOM     20  O   UNL     1     140.209 134.816 115.026  1.00  0.00    -0.504 OA
ATOM     21  H   UNL     1     140.956 134.299 114.578  1.00  0.00     0.293 HD
ENDBRANCH  14  20
ENDBRANCH   1  12
BRANCH   2  22
ATOM     22  O   UNL     1     135.423 132.652 111.665  1.00  0.00    -0.502 OA
ATOM     23  H   UNL     1     135.369 132.297 110.718  1.00  0.00     0.293 HD
ENDBRANCH   2  22
BRANCH   6  24
ATOM     24  O   UNL     1     130.281 133.766 110.837  1.00  0.00    -0.507 OA
ATOM     25  H   UNL     1     130.763 133.611 109.963  1.00  0.00     0.293 HD
ENDBRANCH   6  24
BRANCH   8  26
ATOM     26  O   UNL     1     129.512 136.889 114.402  1.00  0.00    -0.508 OA
ATOM     27  H   UNL     1     129.832 137.489 115.153  1.00  0.00     0.293 HD
ENDBRANCH   8  26
TORSDOF 6
ENDMDL
MODEL 3
REMARK VINA RESULT:    -8.497      4.165      4.764
REMARK INTER + INTRA:         -10.870
REMARK INTER:                 -10.517
REMARK INTRA:                  -0.353
REMARK UNBOUND:                -0.387
REMARK SMILES COc1cc(-c2oc3cc(O)cc(O)c3c(=O)c2O)ccc1O
REMARK SMILES IDX 6 1 18 2 16 3 17 4 15 5 13 6 12 7 10 8 9 9 8 10 7 11 5 12
REMARK SMILES IDX 3 13 22 14 4 15 21 16 20 17 2 18 1 19 23 20 19 22 14 24
REMARK SMILES IDX 11 26
REMARK H PARENT 23 21 19 23 14 25 11 27
REMARK Flexibility Score: inf
ROOT
ATOM      1  C   UNL     1     128.858 134.942 112.556  1.00  0.00     0.180 A 
ATOM      2  C   UNL     1     129.739 135.784 113.256  1.00  0.00     0.208 A 
ATOM      3  C   UNL     1     131.121 135.642 113.057  1.00  0.00     0.238 A 
ATOM      4  O   UNL     1     131.906 136.363 113.726  1.00  0.00    -0.285 OA
ATOM      5  C   UNL     1     131.605 134.670 112.149  1.00  0.00     0.111 A 
ATOM      6  C   UNL     1     132.983 134.465 111.839  1.00  0.00     0.134 A 
ATOM      7  C   UNL     1     133.356 133.389 111.025  1.00  0.00     0.093 A 
ATOM      8  C   UNL     1     132.395 132.548 110.457  1.00  0.00     0.123 A 
ATOM      9  C   UNL     1     131.044 132.776 110.706  1.00  0.00     0.094 A 
ATOM     10  C   UNL     1     130.643 133.820 111.543  1.00  0.00     0.146 A 
ATOM     11  O   UNL     1     129.346 133.995 111.762  1.00  0.00    -0.452 OA
ENDROOT
BRANCH   1  12
ATOM     12  C   UNL     1     127.388 135.049 112.695  1.00  0.00     0.025 A 
ATOM     13  C   UNL     1     125.320 134.647 113.937  1.00  0.00     0.161 A 
ATOM     14  C   UNL     1     124.600 135.326 112.944  1.00  0.00     0.157 A 
ATOM     15  C   UNL     1     126.718 134.518 113.811  1.00  0.00     0.062 A 
ATOM     16  C   UNL     1     125.268 135.875 111.843  1.00  0.00     0.051 A 
ATOM     17  C   UNL     1     126.653 135.745 111.723  1.00  0.00     0.016 A 
BRANCH  13  18
ATOM     18  O   UNL     1     124.615 134.119 115.031  1.00  0.00    -0.493 OA
ATOM     19  C   UNL     1     124.840 132.828 115.588  1.00  0.00     0.278 C 
ENDBRANCH  13  18
BRANCH  14  20
ATOM     20  O   UNL     1     123.217 135.453 113.061  1.00  0.00    -0.504 OA
ATOM     21  H   UNL     1     122.600 135.291 112.274  1.00  0.00     0.293 HD
ENDBRANCH  14  20
ENDBRANCH   1  12
BRANCH   2  22
ATOM     22  O   UNL     1     129.240 136.723 114.165  1.00  0.00    -0.502 OA
ATOM     23  H   UNL     1     129.401 137.717 114.063  1.00  0.00     0.293 HD
ENDBRANCH   2  22
BRANCH   6  24
ATOM     24  O   UNL     1     134.015 135.300 112.279  1.00  0.00    -0.507 OA
ATOM     25  H   UNL     1     134.198 135.527 113.245  1.00  0.00     0.293 HD
ENDBRANCH   6  24
BRANCH   8  26
ATOM     26  O   UNL     1     132.773 131.489 109.636  1.00  0.00    -0.508 OA
ATOM     27  H   UNL     1     133.743 131.210 109.543  1.00  0.00     0.293 HD
ENDBRANCH   8  26
TORSDOF 6
ENDMDL
MODEL 4
REMARK VINA RESULT:    -8.365      0.714      1.938
REMARK INTER + INTRA:         -10.707
REMARK INTER:                 -10.309
REMARK INTRA:                  -0.399
REMARK UNBOUND:                -0.387
REMARK SMILES COc1cc(-c2oc3cc(O)cc(O)c3c(=O)c2O)ccc1O
REMARK SMILES IDX 6 1 18 2 16 3 17 4 15 5 13 6 12 7 10 8 9 9 8 10 7 11 5 12
REMARK SMILES IDX 3 13 22 14 4 15 21 16 20 17 2 18 1 19 23 20 19 22 14 24
REMARK SMILES IDX 11 26
REMARK H PARENT 23 21 19 23 14 25 11 27
REMARK Flexibility Score: inf
ROOT
ATOM      1  C   UNL     1     126.127 135.144 110.245  1.00  0.00     0.180 A 
ATOM      2  C   UNL     1     126.499 136.371 109.671  1.00  0.00     0.208 A 
ATOM      3  C   UNL     1     127.276 136.368 108.502  1.00  0.00     0.238 A 
ATOM      4  O   UNL     1     127.652 137.469 108.022  1.00  0.00    -0.285 OA
ATOM      5  C   UNL     1     127.658 135.138 107.913  1.00  0.00     0.111 A 
ATOM      6  C   UNL     1     128.410 135.016 106.706  1.00  0.00     0.134 A 
ATOM      7  C   UNL     1     128.842 133.753 106.286  1.00  0.00     0.093 A 
ATOM      8  C   UNL     1     128.494 132.599 106.994  1.00  0.00     0.123 A 
ATOM      9  C   UNL     1     127.709 132.704 108.140  1.00  0.00     0.094 A 
ATOM     10  C   UNL     1     127.293 133.954 108.604  1.00  0.00     0.146 A 
ATOM     11  O   UNL     1     126.556 134.008 109.706  1.00  0.00    -0.452 OA
ENDROOT
BRANCH   1  12
ATOM     12  C   UNL     1     125.287 135.067 111.463  1.00  0.00     0.025 A 
ATOM     13  C   UNL     1     125.047 134.975 113.895  1.00  0.00     0.161 A 
ATOM     14  C   UNL     1     123.653 134.977 113.750  1.00  0.00     0.157 A 
ATOM     15  C   UNL     1     125.862 135.028 112.746  1.00  0.00     0.062 A 
ATOM     16  C   UNL     1     123.079 135.037 112.474  1.00  0.00     0.051 A 
ATOM     17  C   UNL     1     123.890 135.090 111.339  1.00  0.00     0.016 A 
BRANCH  13  18
ATOM     18  O   UNL     1     125.584 134.925 115.191  1.00  0.00    -0.493 OA
ATOM     19  C   UNL     1     126.081 133.743 115.812  1.00  0.00     0.278 C 
ENDBRANCH  13  18
BRANCH  14  20
ATOM     20  O   UNL     1     122.843 134.921 114.882  1.00  0.00    -0.504 OA
ATOM     21  H   UNL     1     121.846 135.097 114.831  1.00  0.00     0.293 HD
ENDBRANCH  14  20
ENDBRANCH   1  12
BRANCH   2  22
ATOM     22  O   UNL     1     126.130 137.574 110.280  1.00  0.00    -0.502 OA
ATOM     23  H   UNL     1     126.540 137.891 111.150  1.00  0.00     0.293 HD
ENDBRANCH   2  22
BRANCH   6  24
ATOM     24  O   UNL     1     128.734 136.093 105.876  1.00  0.00    -0.507 OA
ATOM     25  H   UNL     1     128.078 136.792 105.558  1.00  0.00     0.293 HD
ENDBRANCH   6  24
BRANCH   8  26
ATOM     26  O   UNL     1     128.914 131.344 106.561  1.00  0.00    -0.508 OA
ATOM     27  H   UNL     1     128.617 130.496 107.028  1.00  0.00     0.293 HD
ENDBRANCH   8  26
TORSDOF 6
ENDMDL
MODEL 5
REMARK VINA RESULT:    -8.320      5.377      7.675
REMARK INTER + INTRA:         -10.652
REMARK INTER:                 -10.328
REMARK INTRA:                  -0.323
REMARK UNBOUND:                -0.387
REMARK SMILES COc1cc(-c2oc3cc(O)cc(O)c3c(=O)c2O)ccc1O
REMARK SMILES IDX 6 1 18 2 16 3 17 4 15 5 13 6 12 7 10 8 9 9 8 10 7 11 5 12
REMARK SMILES IDX 3 13 22 14 4 15 21 16 20 17 2 18 1 19 23 20 19 22 14 24
REMARK SMILES IDX 11 26
REMARK H PARENT 23 21 19 23 14 25 11 27
REMARK Flexibility Score: inf
ROOT
ATOM      1  C   UNL     1     130.814 134.540 110.978  1.00  0.00     0.180 A 
ATOM      2  C   UNL     1     130.102 135.139 112.031  1.00  0.00     0.208 A 
ATOM      3  C   UNL     1     130.792 135.509 113.196  1.00  0.00     0.238 A 
ATOM      4  O   UNL     1     130.140 135.996 114.156  1.00  0.00    -0.285 OA
ATOM      5  C   UNL     1     132.187 135.291 113.287  1.00  0.00     0.111 A 
ATOM      6  C   UNL     1     132.995 135.664 114.403  1.00  0.00     0.134 A 
ATOM      7  C   UNL     1     134.341 135.282 114.440  1.00  0.00     0.093 A 
ATOM      8  C   UNL     1     134.926 134.597 113.372  1.00  0.00     0.123 A 
ATOM      9  C   UNL     1     134.160 134.282 112.252  1.00  0.00     0.094 A 
ATOM     10  C   UNL     1     132.805 134.617 112.201  1.00  0.00     0.146 A 
ATOM     11  O   UNL     1     132.110 134.288 111.120  1.00  0.00    -0.452 OA
ENDROOT
BRANCH   1  12
ATOM     12  C   UNL     1     130.159 134.145 109.709  1.00  0.00     0.025 A 
ATOM     13  C   UNL     1     129.109 134.714 107.575  1.00  0.00     0.161 A 
ATOM     14  C   UNL     1     128.972 133.349 107.287  1.00  0.00     0.157 A 
ATOM     15  C   UNL     1     129.712 135.108 108.787  1.00  0.00     0.062 A 
ATOM     16  C   UNL     1     129.438 132.389 108.194  1.00  0.00     0.051 A 
ATOM     17  C   UNL     1     130.034 132.784 109.393  1.00  0.00     0.016 A 
BRANCH  13  18
ATOM     18  O   UNL     1     128.640 135.646 106.635  1.00  0.00    -0.493 OA
ATOM     19  C   UNL     1     127.584 136.571 106.875  1.00  0.00     0.278 C 
ENDBRANCH  13  18
BRANCH  14  20
ATOM     20  O   UNL     1     128.374 132.954 106.091  1.00  0.00    -0.504 OA
ATOM     21  H   UNL     1     127.389 132.721 106.042  1.00  0.00     0.293 HD
ENDBRANCH  14  20
ENDBRANCH   1  12
BRANCH   2  22
ATOM     22  O   UNL     1     128.720 135.325 111.929  1.00  0.00    -0.502 OA
ATOM     23  H   UNL     1     128.311 136.162 111.531  1.00  0.00     0.293 HD
ENDBRANCH   2  22
BRANCH   6  24
ATOM     24  O   UNL     1     132.534 136.427 115.480  1.00  0.00    -0.507 OA
ATOM     25  H   UNL     1     132.290 137.405 115.429  1.00  0.00     0.293 HD
ENDBRANCH   6  24
BRANCH   8  26
ATOM     26  O   UNL     1     136.270 134.235 113.409  1.00  0.00    -0.508 OA
ATOM     27  H   UNL     1     136.617 133.434 112.895  1.00  0.00     0.293 HD
ENDBRANCH   8  26
TORSDOF 6
ENDMDL
MODEL 6
REMARK VINA RESULT:    -8.235      7.957      9.032
REMARK INTER + INTRA:         -10.548
REMARK INTER:                 -10.201
REMARK INTRA:                  -0.347
REMARK UNBOUND:                -0.387
REMARK SMILES COc1cc(-c2oc3cc(O)cc(O)c3c(=O)c2O)ccc1O
REMARK SMILES IDX 6 1 18 2 16 3 17 4 15 5 13 6 12 7 10 8 9 9 8 10 7 11 5 12
REMARK SMILES IDX 3 13 22 14 4 15 21 16 20 17 2 18 1 19 23 20 19 22 14 24
REMARK SMILES IDX 11 26
REMARK H PARENT 23 21 19 23 14 25 11 27
REMARK Flexibility Score: inf
ROOT
ATOM      1  C   UNL     1     131.989 135.099 116.241  1.00  0.00     0.180 A 
ATOM      2  C   UNL     1     131.127 135.437 115.184  1.00  0.00     0.208 A 
ATOM      3  C   UNL     1     131.633 135.467 113.875  1.00  0.00     0.238 A 
ATOM      4  O   UNL     1     130.870 135.822 112.940  1.00  0.00    -0.285 OA
ATOM      5  C   UNL     1     132.991 135.145 113.637  1.00  0.00     0.111 A 
ATOM      6  C   UNL     1     133.600 135.104 112.347  1.00  0.00     0.134 A 
ATOM      7  C   UNL     1     134.981 134.901 112.242  1.00  0.00     0.093 A 
ATOM      8  C   UNL     1     135.765 134.671 113.376  1.00  0.00     0.123 A 
ATOM      9  C   UNL     1     135.168 134.649 114.635  1.00  0.00     0.094 A 
ATOM     10  C   UNL     1     133.799 134.885 114.775  1.00  0.00     0.146 A 
ATOM     11  O   UNL     1     133.273 134.866 115.993  1.00  0.00    -0.452 OA
ENDROOT
BRANCH   1  12
ATOM     12  C   UNL     1     131.522 135.021 117.644  1.00  0.00     0.025 A 
ATOM     13  C   UNL     1     131.282 135.990 119.877  1.00  0.00     0.161 A 
ATOM     14  C   UNL     1     130.569 134.854 120.285  1.00  0.00     0.157 A 
ATOM     15  C   UNL     1     131.751 136.072 118.550  1.00  0.00     0.062 A 
ATOM     16  C   UNL     1     130.322 133.816 119.378  1.00  0.00     0.051 A 
ATOM     17  C   UNL     1     130.788 133.902 118.065  1.00  0.00     0.016 A 
BRANCH  13  18
ATOM     18  O   UNL     1     131.500 137.014 120.813  1.00  0.00    -0.493 OA
ATOM     19  C   UNL     1     132.525 137.997 120.708  1.00  0.00     0.278 C 
ENDBRANCH  13  18
BRANCH  14  20
ATOM     20  O   UNL     1     130.106 134.765 121.597  1.00  0.00    -0.504 OA
ATOM     21  H   UNL     1     129.245 135.214 121.887  1.00  0.00     0.293 HD
ENDBRANCH  14  20
ENDBRANCH   1  12
BRANCH   2  22
ATOM     22  O   UNL     1     129.795 135.773 115.444  1.00  0.00    -0.502 OA
ATOM     23  H   UNL     1     129.426 136.702 115.279  1.00  0.00     0.293 HD
ENDBRANCH   2  22
BRANCH   6  24
ATOM     24  O   UNL     1     132.895 135.230 111.146  1.00  0.00    -0.507 OA
ATOM     25  H   UNL     1     132.462 136.081 110.821  1.00  0.00     0.293 HD
ENDBRANCH   6  24
BRANCH   8  26
ATOM     26  O   UNL     1     137.136 134.453 113.262  1.00  0.00    -0.508 OA
ATOM     27  H   UNL     1     137.557 133.575 113.541  1.00  0.00     0.293 HD
ENDBRANCH   8  26
TORSDOF 6
ENDMDL
MODEL 7
REMARK VINA RESULT:    -8.195      4.511      5.004
REMARK INTER + INTRA:         -10.498
REMARK INTER:                 -10.126
REMARK INTRA:                  -0.372
REMARK UNBOUND:                -0.387
REMARK SMILES COc1cc(-c2oc3cc(O)cc(O)c3c(=O)c2O)ccc1O
REMARK SMILES IDX 6 1 18 2 16 3 17 4 15 5 13 6 12 7 10 8 9 9 8 10 7 11 5 12
REMARK SMILES IDX 3 13 22 14 4 15 21 16 20 17 2 18 1 19 23 20 19 22 14 24
REMARK SMILES IDX 11 26
REMARK H PARENT 23 21 19 23 14 25 11 27
REMARK Flexibility Score: inf
ROOT
ATOM      1  C   UNL     1     129.308 134.402 113.588  1.00  0.00     0.180 A 
ATOM      2  C   UNL     1     130.244 135.310 114.110  1.00  0.00     0.208 A 
ATOM      3  C   UNL     1     131.546 135.322 113.587  1.00  0.00     0.238 A 
ATOM      4  O   UNL     1     132.395 136.101 114.095  1.00  0.00    -0.285 OA
ATOM      5  C   UNL     1     131.892 134.438 112.537  1.00  0.00     0.111 A 
ATOM      6  C   UNL     1     133.170 134.392 111.903  1.00  0.00     0.134 A 
ATOM      7  C   UNL     1     133.440 133.389 110.965  1.00  0.00     0.093 A 
ATOM      8  C   UNL     1     132.457 132.470 110.589  1.00  0.00     0.123 A 
ATOM      9  C   UNL     1     131.188 132.544 111.158  1.00  0.00     0.094 A 
ATOM     10  C   UNL     1     130.899 133.511 112.124  1.00  0.00     0.146 A 
ATOM     11  O   UNL     1     129.681 133.540 112.649  1.00  0.00    -0.452 OA
ENDROOT
BRANCH   1  12
ATOM     12  C   UNL     1     127.909 134.347 114.071  1.00  0.00     0.025 A 
ATOM     13  C   UNL     1     125.539 134.899 113.832  1.00  0.00     0.161 A 
ATOM     14  C   UNL     1     125.259 134.170 114.997  1.00  0.00     0.157 A 
ATOM     15  C   UNL     1     126.867 134.978 113.369  1.00  0.00     0.062 A 
ATOM     16  C   UNL     1     126.292 133.523 115.686  1.00  0.00     0.051 A 
ATOM     17  C   UNL     1     127.607 133.604 115.222  1.00  0.00     0.016 A 
BRANCH  13  18
ATOM     18  O   UNL     1     124.474 135.525 113.164  1.00  0.00    -0.493 OA
ATOM     19  C   UNL     1     123.766 134.957 112.067  1.00  0.00     0.278 C 
ENDBRANCH  13  18
BRANCH  14  20
ATOM     20  O   UNL     1     123.948 134.092 115.462  1.00  0.00    -0.504 OA
ATOM     21  H   UNL     1     123.481 133.201 115.587  1.00  0.00     0.293 HD
ENDBRANCH  14  20
ENDBRANCH   1  12
BRANCH   2  22
ATOM     22  O   UNL     1     129.888 136.159 115.162  1.00  0.00    -0.502 OA
ATOM     23  H   UNL     1     129.306 135.857 115.933  1.00  0.00     0.293 HD
ENDBRANCH   2  22
BRANCH   6  24
ATOM     24  O   UNL     1     134.192 135.318 112.138  1.00  0.00    -0.507 OA
ATOM     25  H   UNL     1     134.487 135.628 113.051  1.00  0.00     0.293 HD
ENDBRANCH   6  24
BRANCH   8  26
ATOM     26  O   UNL     1     132.729 131.485 109.642  1.00  0.00    -0.508 OA
ATOM     27  H   UNL     1     133.170 131.708 108.757  1.00  0.00     0.293 HD
ENDBRANCH   8  26
TORSDOF 6
ENDMDL
MODEL 8
REMARK VINA RESULT:    -8.179      4.242      7.505
REMARK INTER + INTRA:         -10.478
REMARK INTER:                 -10.105
REMARK INTRA:                  -0.373
REMARK UNBOUND:                -0.387
REMARK SMILES COc1cc(-c2oc3cc(O)cc(O)c3c(=O)c2O)ccc1O
REMARK SMILES IDX 6 1 18 2 16 3 17 4 15 5 13 6 12 7 10 8 9 9 8 10 7 11 5 12
REMARK SMILES IDX 3 13 22 14 4 15 21 16 20 17 2 18 1 19 23 20 19 22 14 24
REMARK SMILES IDX 11 26
REMARK H PARENT 23 21 19 23 14 25 11 27
REMARK Flexibility Score: inf
ROOT
ATOM      1  C   UNL     1     129.765 134.278 112.000  1.00  0.00     0.180 A 
ATOM      2  C   UNL     1     130.794 135.198 112.259  1.00  0.00     0.208 A 
ATOM      3  C   UNL     1     131.128 135.489 113.591  1.00  0.00     0.238 A 
ATOM      4  O   UNL     1     132.015 136.353 113.818  1.00  0.00    -0.285 OA
ATOM      5  C   UNL     1     130.440 134.845 114.647  1.00  0.00     0.111 A 
ATOM      6  C   UNL     1     130.722 135.033 116.033  1.00  0.00     0.134 A 
ATOM      7  C   UNL     1     129.891 134.444 116.994  1.00  0.00     0.093 A 
ATOM      8  C   UNL     1     128.827 133.620 116.618  1.00  0.00     0.123 A 
ATOM      9  C   UNL     1     128.580 133.383 115.268  1.00  0.00     0.094 A 
ATOM     10  C   UNL     1     129.369 133.986 114.286  1.00  0.00     0.146 A 
ATOM     11  O   UNL     1     129.093 133.741 113.011  1.00  0.00    -0.452 OA
ENDROOT
BRANCH   1  12
ATOM     12  C   UNL     1     129.373 133.902 110.622  1.00  0.00     0.025 A 
ATOM     13  C   UNL     1     128.140 134.332 108.554  1.00  0.00     0.161 A 
ATOM     14  C   UNL     1     128.701 133.178 107.988  1.00  0.00     0.157 A 
ATOM     15  C   UNL     1     128.486 134.694 109.871  1.00  0.00     0.062 A 
ATOM     16  C   UNL     1     129.602 132.401 108.726  1.00  0.00     0.051 A 
ATOM     17  C   UNL     1     129.942 132.764 110.031  1.00  0.00     0.016 A 
BRANCH  13  18
ATOM     18  O   UNL     1     127.250 135.092 107.778  1.00  0.00    -0.493 OA
ATOM     19  C   UNL     1     126.779 136.389 108.130  1.00  0.00     0.278 C 
ENDBRANCH  13  18
BRANCH  14  20
ATOM     20  O   UNL     1     128.360 132.813 106.687  1.00  0.00    -0.504 OA
ATOM     21  H   UNL     1     128.942 133.062 105.896  1.00  0.00     0.293 HD
ENDBRANCH  14  20
ENDBRANCH   1  12
BRANCH   2  22
ATOM     22  O   UNL     1     131.447 135.840 111.202  1.00  0.00    -0.502 OA
ATOM     23  H   UNL     1     132.302 136.368 111.330  1.00  0.00     0.293 HD
ENDBRANCH   2  22
BRANCH   6  24
ATOM     24  O   UNL     1     131.814 135.761 116.516  1.00  0.00    -0.507 OA
ATOM     25  H   UNL     1     132.489 136.237 115.935  1.00  0.00     0.293 HD
ENDBRANCH   6  24
BRANCH   8  26
ATOM     26  O   UNL     1     128.014 133.025 117.580  1.00  0.00    -0.508 OA
ATOM     27  H   UNL     1     128.370 132.786 118.499  1.00  0.00     0.293 HD
ENDBRANCH   8  26
TORSDOF 6
ENDMDL
MODEL 9
REMARK VINA RESULT:    -8.082      4.881      6.952
REMARK INTER + INTRA:         -10.359
REMARK INTER:                  -9.964
REMARK INTRA:                  -0.395
REMARK UNBOUND:                -0.387
REMARK SMILES COc1cc(-c2oc3cc(O)cc(O)c3c(=O)c2O)ccc1O
REMARK SMILES IDX 6 1 18 2 16 3 17 4 15 5 13 6 12 7 10 8 9 9 8 10 7 11 5 12
REMARK SMILES IDX 3 13 22 14 4 15 21 16 20 17 2 18 1 19 23 20 19 22 14 24
REMARK SMILES IDX 11 26
REMARK H PARENT 23 21 19 23 14 25 11 27
REMARK Flexibility Score: inf
ROOT
ATOM      1  C   UNL     1     130.164 134.183 110.758  1.00  0.00     0.180 A 
ATOM      2  C   UNL     1     130.650 132.872 110.624  1.00  0.00     0.208 A 
ATOM      3  C   UNL     1     131.648 132.422 111.501  1.00  0.00     0.238 A 
ATOM      4  O   UNL     1     132.118 131.265 111.343  1.00  0.00    -0.285 OA
ATOM      5  C   UNL     1     132.137 133.284 112.513  1.00  0.00     0.111 A 
ATOM      6  C   UNL     1     133.119 132.920 113.483  1.00  0.00     0.134 A 
ATOM      7  C   UNL     1     133.622 133.894 114.354  1.00  0.00     0.093 A 
ATOM      8  C   UNL     1     133.132 135.202 114.334  1.00  0.00     0.123 A 
ATOM      9  C   UNL     1     132.131 135.551 113.431  1.00  0.00     0.094 A 
ATOM     10  C   UNL     1     131.634 134.611 112.524  1.00  0.00     0.146 A 
ATOM     11  O   UNL     1     130.689 134.989 111.674  1.00  0.00    -0.452 OA
ENDROOT
BRANCH   1  12
ATOM     12  C   UNL     1     129.093 134.720 109.885  1.00  0.00     0.025 A 
ATOM     13  C   UNL     1     126.733 135.145 109.408  1.00  0.00     0.161 A 
ATOM     14  C   UNL     1     127.098 135.802 108.225  1.00  0.00     0.157 A 
ATOM     15  C   UNL     1     127.737 134.611 110.241  1.00  0.00     0.062 A 
ATOM     16  C   UNL     1     128.449 135.930 107.881  1.00  0.00     0.051 A 
ATOM     17  C   UNL     1     129.440 135.400 108.708  1.00  0.00     0.016 A 
BRANCH  13  18
ATOM     18  O   UNL     1     125.368 135.046 109.724  1.00  0.00    -0.493 OA
ATOM     19  C   UNL     1     124.842 134.256 110.785  1.00  0.00     0.278 C 
ENDBRANCH  13  18
BRANCH  14  20
ATOM     20  O   UNL     1     126.109 136.328 107.396  1.00  0.00    -0.504 OA
ATOM     21  H   UNL     1     126.330 136.715 106.485  1.00  0.00     0.293 HD
ENDBRANCH  14  20
ENDBRANCH   1  12
BRANCH   2  22
ATOM     22  O   UNL     1     130.169 132.044 109.604  1.00  0.00    -0.502 OA
ATOM     23  H   UNL     1     130.759 131.381 109.118  1.00  0.00     0.293 HD
ENDBRANCH   2  22
BRANCH   6  24
ATOM     24  O   UNL     1     133.609 131.622 113.649  1.00  0.00    -0.507 OA
ATOM     25  H   UNL     1     133.951 131.036 112.901  1.00  0.00     0.293 HD
ENDBRANCH   6  24
BRANCH   8  26
ATOM     26  O   UNL     1     133.627 136.161 115.215  1.00  0.00    -0.508 OA
ATOM     27  H   UNL     1     133.036 136.590 115.917  1.00  0.00     0.293 HD
ENDBRANCH   8  26
TORSDOF 6
ENDMDL
