MODEL 1
REMARK VINA RESULT:    -5.169      0.000      0.000
REMARK INTER + INTRA:         -16.508
REMARK INTER:                 -13.026
REMARK INTRA:                  -3.482
REMARK UNBOUND:                -3.482
REMARK SMILES CCCCCCCCCCCCCCCCCCCCCCCCCCCC(=O)[O-]
REMARK SMILES IDX 15 1 16 2 17 3 18 4 19 5 20 6 21 7 22 8 23 9 24 10 25 11
REMARK SMILES IDX 26 12 27 13 28 14 29 15 30 16 14 17 13 18 12 19 11 20 10 21
REMARK SMILES IDX 9 22 8 23 7 24 6 25 5 26 4 27 3 28 2 29 1 30
REMARK H PARENT
REMARK Flexibility Score: inf
ROOT
ATOM      1  C   UNL     1     161.070 166.507 156.382  1.00  0.00     0.000 C 
ENDROOT
BRANCH   1   2
ATOM      2  C   UNL     1     162.597 166.334 156.451  1.00  0.00     0.000 C 
BRANCH   2   3
ATOM      3  C   UNL     1     163.233 167.179 157.566  1.00  0.00     0.000 C 
BRANCH   3   4
ATOM      4  C   UNL     1     163.747 166.328 158.749  1.00  0.00     0.000 C 
BRANCH   4   5
ATOM      5  C   UNL     1     163.349 166.878 160.132  1.00  0.00     0.000 C 
BRANCH   5   6
ATOM      6  C   UNL     1     162.257 167.964 160.106  1.00  0.00     0.000 C 
BRANCH   6   7
ATOM      7  C   UNL     1     160.992 167.590 160.913  1.00  0.00     0.000 C 
BRANCH   7   8
ATOM      8  C   UNL     1     159.799 167.220 160.014  1.00  0.00     0.000 C 
BRANCH   8   9
ATOM      9  C   UNL     1     159.603 165.700 159.887  1.00  0.00     0.000 C 
BRANCH   9  10
ATOM     10  C   UNL     1     160.342 164.912 160.980  1.00  0.00     0.000 C 
BRANCH  10  11
ATOM     11  C   UNL     1     161.226 163.817 160.369  1.00  0.00     0.000 C 
BRANCH  11  12
ATOM     12  C   UNL     1     161.052 163.758 158.843  1.00  0.00     0.006 C 
BRANCH  12  13
ATOM     13  C   UNL     1     161.326 162.358 158.281  1.00  0.00     0.053 C 
BRANCH  13  14
ATOM     14  C   UNL     1     162.775 161.994 158.382  1.00  0.00     0.041 C 
ATOM     15  O   UNL     1     163.117 160.845 158.771  1.00  0.00    -0.550 OA
ATOM     16  O   UNL     1     163.750 162.914 158.014  1.00  0.00    -0.550 OA
ENDBRANCH  13  14
ENDBRANCH  12  13
ENDBRANCH  11  12
ENDBRANCH  10  11
ENDBRANCH   9  10
ENDBRANCH   8   9
ENDBRANCH   7   8
ENDBRANCH   6   7
ENDBRANCH   5   6
ENDBRANCH   4   5
ENDBRANCH   3   4
ENDBRANCH   2   3
ENDBRANCH   1   2
BRANCH   1  17
ATOM     17  C   UNL     1     160.500 166.153 155.000  1.00  0.00     0.000 C 
BRANCH  17  18
ATOM     18  C   UNL     1     160.945 167.173 153.946  1.00  0.00     0.000 C 
BRANCH  18  19
ATOM     19  C   UNL     1     161.096 166.511 152.567  1.00  0.00     0.000 C 
BRANCH  19  20
ATOM     20  C   UNL     1     162.563 166.385 152.129  1.00  0.00     0.000 C 
BRANCH  20  21
ATOM     21  C   UNL     1     163.476 167.427 152.799  1.00  0.00     0.000 C 
BRANCH  21  22
ATOM     22  C   UNL     1     164.863 167.503 152.141  1.00  0.00    -0.000 C 
BRANCH  22  23
ATOM     23  C   UNL     1     165.474 166.112 151.890  1.00  0.00    -0.000 C 
BRANCH  23  24
ATOM     24  C   UNL     1     166.769 166.177 151.066  1.00  0.00    -0.000 C 
BRANCH  24  25
ATOM     25  C   UNL     1     166.564 166.842 149.693  1.00  0.00    -0.000 C 
BRANCH  25  26
ATOM     26  C   UNL     1     165.721 165.972 148.736  1.00  0.00    -0.000 C 
BRANCH  26  27
ATOM     27  C   UNL     1     166.189 166.026 147.269  1.00  0.00    -0.000 C 
BRANCH  27  28
ATOM     28  C   UNL     1     166.753 167.385 146.811  1.00  0.00    -0.000 C 
BRANCH  28  29
ATOM     29  C   UNL     1     165.689 168.435 146.442  1.00  0.00    -0.003 C 
ATOM     30  C   UNL     1     166.151 169.868 146.698  1.00  0.00     0.004 C 
ENDBRANCH  28  29
ENDBRANCH  27  28
ENDBRANCH  26  27
ENDBRANCH  25  26
ENDBRANCH  24  25
ENDBRANCH  23  24
ENDBRANCH  22  23
ENDBRANCH  21  22
ENDBRANCH  20  21
ENDBRANCH  19  20
ENDBRANCH  18  19
ENDBRANCH  17  18
ENDBRANCH   1  17
TORSDOF 26
ENDMDL
MODEL 2
REMARK VINA RESULT:    -5.118      3.840     10.426
REMARK INTER + INTRA:         -16.381
REMARK INTER:                 -13.063
REMARK INTRA:                  -3.318
REMARK UNBOUND:                -3.482
REMARK SMILES CCCCCCCCCCCCCCCCCCCCCCCCCCCC(=O)[O-]
REMARK SMILES IDX 15 1 16 2 17 3 18 4 19 5 20 6 21 7 22 8 23 9 24 10 25 11
REMARK SMILES IDX 26 12 27 13 28 14 29 15 30 16 14 17 13 18 12 19 11 20 10 21
REMARK SMILES IDX 9 22 8 23 7 24 6 25 5 26 4 27 3 28 2 29 1 30
REMARK H PARENT
REMARK Flexibility Score: inf
ROOT
ATOM      1  C   UNL     1     161.221 166.495 156.537  1.00  0.00     0.000 C 
ENDROOT
BRANCH   1   2
ATOM      2  C   UNL     1     160.450 166.053 155.281  1.00  0.00     0.000 C 
BRANCH   2   3
ATOM      3  C   UNL     1     160.738 166.955 154.069  1.00  0.00     0.000 C 
BRANCH   3   4
ATOM      4  C   UNL     1     161.026 166.156 152.779  1.00  0.00     0.000 C 
BRANCH   4   5
ATOM      5  C   UNL     1     162.376 166.500 152.121  1.00  0.00     0.000 C 
BRANCH   5   6
ATOM      6  C   UNL     1     163.028 167.801 152.626  1.00  0.00     0.000 C 
BRANCH   6   7
ATOM      7  C   UNL     1     164.455 167.601 153.188  1.00  0.00     0.000 C 
BRANCH   7   8
ATOM      8  C   UNL     1     165.466 168.615 152.622  1.00  0.00     0.000 C 
BRANCH   8   9
ATOM      9  C   UNL     1     164.915 170.050 152.599  1.00  0.00     0.000 C 
BRANCH   9  10
ATOM     10  C   UNL     1     166.012 171.110 152.787  1.00  0.00     0.000 C 
BRANCH  10  11
ATOM     11  C   UNL     1     165.916 172.200 151.711  1.00  0.00     0.000 C 
BRANCH  11  12
ATOM     12  C   UNL     1     165.501 171.601 150.357  1.00  0.00     0.006 C 
BRANCH  12  13
ATOM     13  C   UNL     1     166.622 171.690 149.315  1.00  0.00     0.053 C 
BRANCH  13  14
ATOM     14  C   UNL     1     166.420 170.709 148.201  1.00  0.00     0.041 C 
ATOM     15  O   UNL     1     166.391 171.103 147.004  1.00  0.00    -0.550 OA
ATOM     16  O   UNL     1     166.297 169.354 148.482  1.00  0.00    -0.550 OA
ENDBRANCH  13  14
ENDBRANCH  12  13
ENDBRANCH  11  12
ENDBRANCH  10  11
ENDBRANCH   9  10
ENDBRANCH   8   9
ENDBRANCH   7   8
ENDBRANCH   6   7
ENDBRANCH   5   6
ENDBRANCH   4   5
ENDBRANCH   3   4
ENDBRANCH   2   3
ENDBRANCH   1   2
BRANCH   1  17
ATOM     17  C   UNL     1     162.677 166.877 156.230  1.00  0.00     0.000 C 
BRANCH  17  18
ATOM     18  C   UNL     1     163.423 167.269 157.510  1.00  0.00     0.000 C 
BRANCH  18  19
ATOM     19  C   UNL     1     163.352 166.146 158.557  1.00  0.00     0.000 C 
BRANCH  19  20
ATOM     20  C   UNL     1     164.577 165.221 158.515  1.00  0.00     0.000 C 
BRANCH  20  21
ATOM     21  C   UNL     1     164.249 163.823 157.963  1.00  0.00     0.000 C 
BRANCH  21  22
ATOM     22  C   UNL     1     162.737 163.551 157.912  1.00  0.00    -0.000 C 
BRANCH  22  23
ATOM     23  C   UNL     1     162.319 162.367 158.803  1.00  0.00    -0.000 C 
BRANCH  23  24
ATOM     24  C   UNL     1     160.834 162.005 158.646  1.00  0.00    -0.000 C 
BRANCH  24  25
ATOM     25  C   UNL     1     159.980 163.200 158.186  1.00  0.00    -0.000 C 
BRANCH  25  26
ATOM     26  C   UNL     1     158.709 163.384 159.044  1.00  0.00    -0.000 C 
BRANCH  26  27
ATOM     27  C   UNL     1     158.846 164.460 160.137  1.00  0.00    -0.000 C 
BRANCH  27  28
ATOM     28  C   UNL     1     160.014 165.446 159.944  1.00  0.00    -0.000 C 
BRANCH  28  29
ATOM     29  C   UNL     1     159.643 166.930 160.116  1.00  0.00    -0.003 C 
ATOM     30  C   UNL     1     160.839 167.806 160.482  1.00  0.00     0.004 C 
ENDBRANCH  28  29
ENDBRANCH  27  28
ENDBRANCH  26  27
ENDBRANCH  25  26
ENDBRANCH  24  25
ENDBRANCH  23  24
ENDBRANCH  22  23
ENDBRANCH  21  22
ENDBRANCH  20  21
ENDBRANCH  19  20
ENDBRANCH  18  19
ENDBRANCH  17  18
ENDBRANCH   1  17
TORSDOF 26
ENDMDL
MODEL 3
REMARK VINA RESULT:    -5.100      2.017      2.863
REMARK INTER + INTRA:         -16.335
REMARK INTER:                 -13.016
REMARK INTRA:                  -3.319
REMARK UNBOUND:                -3.482
REMARK SMILES CCCCCCCCCCCCCCCCCCCCCCCCCCCC(=O)[O-]
REMARK SMILES IDX 15 1 16 2 17 3 18 4 19 5 20 6 21 7 22 8 23 9 24 10 25 11
REMARK SMILES IDX 26 12 27 13 28 14 29 15 30 16 14 17 13 18 12 19 11 20 10 21
REMARK SMILES IDX 9 22 8 23 7 24 6 25 5 26 4 27 3 28 2 29 1 30
REMARK H PARENT
REMARK Flexibility Score: inf
ROOT
ATOM      1  C   UNL     1     162.471 165.938 157.085  1.00  0.00     0.000 C 
ENDROOT
BRANCH   1   2
ATOM      2  C   UNL     1     163.528 166.657 157.942  1.00  0.00     0.000 C 
BRANCH   2   3
ATOM      3  C   UNL     1     163.720 165.992 159.315  1.00  0.00     0.000 C 
BRANCH   3   4
ATOM      4  C   UNL     1     163.118 166.817 160.473  1.00  0.00     0.000 C 
BRANCH   4   5
ATOM      5  C   UNL     1     162.135 167.910 160.014  1.00  0.00     0.000 C 
BRANCH   5   6
ATOM      6  C   UNL     1     160.649 167.582 160.245  1.00  0.00     0.000 C 
BRANCH   6   7
ATOM      7  C   UNL     1     160.367 166.907 161.608  1.00  0.00     0.000 C 
BRANCH   7   8
ATOM      8  C   UNL     1     159.536 165.619 161.475  1.00  0.00     0.000 C 
BRANCH   8   9
ATOM      9  C   UNL     1     159.363 165.174 160.013  1.00  0.00     0.000 C 
BRANCH   9  10
ATOM     10  C   UNL     1     158.626 163.832 159.884  1.00  0.00     0.000 C 
BRANCH  10  11
ATOM     11  C   UNL     1     159.423 162.846 159.019  1.00  0.00     0.000 C 
BRANCH  11  12
ATOM     12  C   UNL     1     160.841 163.373 158.750  1.00  0.00     0.006 C 
BRANCH  12  13
ATOM     13  C   UNL     1     161.902 162.633 159.572  1.00  0.00     0.053 C 
BRANCH  13  14
ATOM     14  C   UNL     1     162.917 161.966 158.695  1.00  0.00     0.041 C 
ATOM     15  O   UNL     1     162.935 160.710 158.585  1.00  0.00    -0.550 OA
ATOM     16  O   UNL     1     163.822 162.733 157.972  1.00  0.00    -0.550 OA
ENDBRANCH  13  14
ENDBRANCH  12  13
ENDBRANCH  11  12
ENDBRANCH  10  11
ENDBRANCH   9  10
ENDBRANCH   8   9
ENDBRANCH   7   8
ENDBRANCH   6   7
ENDBRANCH   5   6
ENDBRANCH   4   5
ENDBRANCH   3   4
ENDBRANCH   2   3
ENDBRANCH   1   2
BRANCH   1  17
ATOM     17  C   UNL     1     161.816 166.870 156.054  1.00  0.00     0.000 C 
BRANCH  17  18
ATOM     18  C   UNL     1     160.619 166.188 155.382  1.00  0.00     0.000 C 
BRANCH  18  19
ATOM     19  C   UNL     1     160.244 166.898 154.072  1.00  0.00     0.000 C 
BRANCH  19  20
ATOM     20  C   UNL     1     161.194 166.548 152.916  1.00  0.00     0.000 C 
BRANCH  20  21
ATOM     21  C   UNL     1     162.172 167.689 152.583  1.00  0.00     0.000 C 
BRANCH  21  22
ATOM     22  C   UNL     1     163.629 167.329 152.913  1.00  0.00    -0.000 C 
BRANCH  22  23
ATOM     23  C   UNL     1     164.280 166.449 151.830  1.00  0.00    -0.000 C 
BRANCH  23  24
ATOM     24  C   UNL     1     165.589 167.046 151.293  1.00  0.00    -0.000 C 
BRANCH  24  25
ATOM     25  C   UNL     1     166.833 166.466 151.991  1.00  0.00    -0.000 C 
BRANCH  25  26
ATOM     26  C   UNL     1     167.674 167.552 152.697  1.00  0.00    -0.000 C 
BRANCH  26  27
ATOM     27  C   UNL     1     167.358 168.986 152.232  1.00  0.00    -0.000 C 
BRANCH  27  28
ATOM     28  C   UNL     1     166.460 169.800 153.182  1.00  0.00    -0.000 C 
BRANCH  28  29
ATOM     29  C   UNL     1     165.790 171.031 152.543  1.00  0.00    -0.003 C 
ATOM     30  C   UNL     1     164.344 170.772 152.122  1.00  0.00     0.004 C 
ENDBRANCH  28  29
ENDBRANCH  27  28
ENDBRANCH  26  27
ENDBRANCH  25  26
ENDBRANCH  24  25
ENDBRANCH  23  24
ENDBRANCH  22  23
ENDBRANCH  21  22
ENDBRANCH  20  21
ENDBRANCH  19  20
ENDBRANCH  18  19
ENDBRANCH  17  18
ENDBRANCH   1  17
TORSDOF 26
ENDMDL
MODEL 4
REMARK VINA RESULT:    -5.072      2.620      4.050
REMARK INTER + INTRA:         -16.264
REMARK INTER:                 -12.555
REMARK INTRA:                  -3.708
REMARK UNBOUND:                -3.482
REMARK SMILES CCCCCCCCCCCCCCCCCCCCCCCCCCCC(=O)[O-]
REMARK SMILES IDX 15 1 16 2 17 3 18 4 19 5 20 6 21 7 22 8 23 9 24 10 25 11
REMARK SMILES IDX 26 12 27 13 28 14 29 15 30 16 14 17 13 18 12 19 11 20 10 21
REMARK SMILES IDX 9 22 8 23 7 24 6 25 5 26 4 27 3 28 2 29 1 30
REMARK H PARENT
REMARK Flexibility Score: inf
ROOT
ATOM      1  C   UNL     1     160.485 166.868 154.528  1.00  0.00     0.000 C 
ENDROOT
BRANCH   1   2
ATOM      2  C   UNL     1     160.873 165.947 155.698  1.00  0.00     0.000 C 
BRANCH   2   3
ATOM      3  C   UNL     1     161.443 166.727 156.894  1.00  0.00     0.000 C 
BRANCH   3   4
ATOM      4  C   UNL     1     162.955 166.491 157.101  1.00  0.00     0.000 C 
BRANCH   4   5
ATOM      5  C   UNL     1     163.305 165.065 157.565  1.00  0.00     0.000 C 
BRANCH   5   6
ATOM      6  C   UNL     1     162.415 164.515 158.695  1.00  0.00     0.000 C 
BRANCH   6   7
ATOM      7  C   UNL     1     162.213 162.983 158.635  1.00  0.00     0.000 C 
BRANCH   7   8
ATOM      8  C   UNL     1     160.772 162.585 158.271  1.00  0.00     0.000 C 
BRANCH   8   9
ATOM      9  C   UNL     1     159.778 163.747 158.435  1.00  0.00     0.000 C 
BRANCH   9  10
ATOM     10  C   UNL     1     158.669 163.441 159.455  1.00  0.00     0.000 C 
BRANCH  10  11
ATOM     11  C   UNL     1     158.523 164.583 160.469  1.00  0.00     0.000 C 
BRANCH  11  12
ATOM     12  C   UNL     1     159.477 165.741 160.136  1.00  0.00     0.006 C 
BRANCH  12  13
ATOM     13  C   UNL     1     159.988 166.454 161.393  1.00  0.00     0.053 C 
BRANCH  13  14
ATOM     14  C   UNL     1     160.589 165.491 162.370  1.00  0.00     0.041 C 
ATOM     15  O   UNL     1     161.645 164.866 162.078  1.00  0.00    -0.550 OA
ATOM     16  O   UNL     1     160.003 165.308 163.616  1.00  0.00    -0.550 OA
ENDBRANCH  13  14
ENDBRANCH  12  13
ENDBRANCH  11  12
ENDBRANCH  10  11
ENDBRANCH   9  10
ENDBRANCH   8   9
ENDBRANCH   7   8
ENDBRANCH   6   7
ENDBRANCH   5   6
ENDBRANCH   4   5
ENDBRANCH   3   4
ENDBRANCH   2   3
ENDBRANCH   1   2
BRANCH   1  17
ATOM     17  C   UNL     1     161.202 166.493 153.222  1.00  0.00     0.000 C 
BRANCH  17  18
ATOM     18  C   UNL     1     162.085 167.646 152.732  1.00  0.00     0.000 C 
BRANCH  18  19
ATOM     19  C   UNL     1     163.551 167.430 153.138  1.00  0.00     0.000 C 
BRANCH  19  20
ATOM     20  C   UNL     1     164.421 166.936 151.972  1.00  0.00     0.000 C 
BRANCH  20  21
ATOM     21  C   UNL     1     165.808 166.449 152.430  1.00  0.00     0.000 C 
BRANCH  21  22
ATOM     22  C   UNL     1     166.949 167.310 151.865  1.00  0.00    -0.000 C 
BRANCH  22  23
ATOM     23  C   UNL     1     167.788 167.978 152.970  1.00  0.00    -0.000 C 
BRANCH  23  24
ATOM     24  C   UNL     1     166.983 169.001 153.785  1.00  0.00    -0.000 C 
BRANCH  24  25
ATOM     25  C   UNL     1     166.877 170.366 153.082  1.00  0.00    -0.000 C 
BRANCH  25  26
ATOM     26  C   UNL     1     165.421 170.875 152.996  1.00  0.00    -0.000 C 
BRANCH  26  27
ATOM     27  C   UNL     1     164.750 170.617 151.634  1.00  0.00    -0.000 C 
BRANCH  27  28
ATOM     28  C   UNL     1     165.717 170.478 150.443  1.00  0.00    -0.000 C 
BRANCH  28  29
ATOM     29  C   UNL     1     165.890 171.754 149.599  1.00  0.00    -0.003 C 
ATOM     30  C   UNL     1     166.771 172.803 150.277  1.00  0.00     0.004 C 
ENDBRANCH  28  29
ENDBRANCH  27  28
ENDBRANCH  26  27
ENDBRANCH  25  26
ENDBRANCH  24  25
ENDBRANCH  23  24
ENDBRANCH  22  23
ENDBRANCH  21  22
ENDBRANCH  20  21
ENDBRANCH  19  20
ENDBRANCH  18  19
ENDBRANCH  17  18
ENDBRANCH   1  17
TORSDOF 26
ENDMDL
MODEL 5
REMARK VINA RESULT:    -5.067      2.361      4.056
REMARK INTER + INTRA:         -16.250
REMARK INTER:                 -13.007
REMARK INTRA:                  -3.243
REMARK UNBOUND:                -3.482
REMARK SMILES CCCCCCCCCCCCCCCCCCCCCCCCCCCC(=O)[O-]
REMARK SMILES IDX 15 1 16 2 17 3 18 4 19 5 20 6 21 7 22 8 23 9 24 10 25 11
REMARK SMILES IDX 26 12 27 13 28 14 29 15 30 16 14 17 13 18 12 19 11 20 10 21
REMARK SMILES IDX 9 22 8 23 7 24 6 25 5 26 4 27 3 28 2 29 1 30
REMARK H PARENT
REMARK Flexibility Score: inf
ROOT
ATOM      1  C   UNL     1     160.557 166.498 154.759  1.00  0.00     0.000 C 
ENDROOT
BRANCH   1   2
ATOM      2  C   UNL     1     161.707 166.857 155.716  1.00  0.00     0.000 C 
BRANCH   2   3
ATOM      3  C   UNL     1     161.582 166.147 157.074  1.00  0.00     0.000 C 
BRANCH   3   4
ATOM      4  C   UNL     1     162.876 166.223 157.915  1.00  0.00     0.000 C 
BRANCH   4   5
ATOM      5  C   UNL     1     163.170 164.946 158.724  1.00  0.00     0.000 C 
BRANCH   5   6
ATOM      6  C   UNL     1     163.562 163.721 157.878  1.00  0.00     0.000 C 
BRANCH   6   7
ATOM      7  C   UNL     1     162.850 162.417 158.308  1.00  0.00     0.000 C 
BRANCH   7   8
ATOM      8  C   UNL     1     161.853 162.634 159.460  1.00  0.00     0.000 C 
BRANCH   8   9
ATOM      9  C   UNL     1     160.408 162.809 158.966  1.00  0.00     0.000 C 
BRANCH   9  10
ATOM     10  C   UNL     1     159.739 164.076 159.524  1.00  0.00     0.000 C 
BRANCH  10  11
ATOM     11  C   UNL     1     160.152 164.320 160.982  1.00  0.00     0.000 C 
BRANCH  11  12
ATOM     12  C   UNL     1     159.510 165.606 161.527  1.00  0.00     0.006 C 
BRANCH  12  13
ATOM     13  C   UNL     1     160.552 166.687 161.841  1.00  0.00     0.053 C 
BRANCH  13  14
ATOM     14  C   UNL     1     160.755 167.613 160.681  1.00  0.00     0.041 C 
ATOM     15  O   UNL     1     161.796 168.320 160.607  1.00  0.00    -0.550 OA
ATOM     16  O   UNL     1     159.809 167.672 159.665  1.00  0.00    -0.550 OA
ENDBRANCH  13  14
ENDBRANCH  12  13
ENDBRANCH  11  12
ENDBRANCH  10  11
ENDBRANCH   9  10
ENDBRANCH   8   9
ENDBRANCH   7   8
ENDBRANCH   6   7
ENDBRANCH   5   6
ENDBRANCH   4   5
ENDBRANCH   3   4
ENDBRANCH   2   3
ENDBRANCH   1   2
BRANCH   1  17
ATOM     17  C   UNL     1     160.787 167.031 153.337  1.00  0.00     0.000 C 
BRANCH  17  18
ATOM     18  C   UNL     1     162.139 166.563 152.789  1.00  0.00     0.000 C 
BRANCH  18  19
ATOM     19  C   UNL     1     163.083 167.753 152.557  1.00  0.00     0.000 C 
BRANCH  19  20
ATOM     20  C   UNL     1     164.384 167.643 153.367  1.00  0.00     0.000 C 
BRANCH  20  21
ATOM     21  C   UNL     1     165.622 167.430 152.477  1.00  0.00     0.000 C 
BRANCH  21  22
ATOM     22  C   UNL     1     165.489 166.195 151.572  1.00  0.00    -0.000 C 
BRANCH  22  23
ATOM     23  C   UNL     1     165.846 166.497 150.104  1.00  0.00    -0.000 C 
BRANCH  23  24
ATOM     24  C   UNL     1     166.515 167.868 149.929  1.00  0.00    -0.000 C 
BRANCH  24  25
ATOM     25  C   UNL     1     166.190 168.516 148.571  1.00  0.00    -0.000 C 
BRANCH  25  26
ATOM     26  C   UNL     1     166.621 169.997 148.505  1.00  0.00    -0.000 C 
BRANCH  26  27
ATOM     27  C   UNL     1     166.723 170.678 149.882  1.00  0.00    -0.000 C 
BRANCH  27  28
ATOM     28  C   UNL     1     165.479 171.480 150.311  1.00  0.00    -0.000 C 
BRANCH  28  29
ATOM     29  C   UNL     1     164.702 170.881 151.498  1.00  0.00    -0.003 C 
ATOM     30  C   UNL     1     165.170 171.416 152.850  1.00  0.00     0.004 C 
ENDBRANCH  28  29
ENDBRANCH  27  28
ENDBRANCH  26  27
ENDBRANCH  25  26
ENDBRANCH  24  25
ENDBRANCH  23  24
ENDBRANCH  22  23
ENDBRANCH  21  22
ENDBRANCH  20  21
ENDBRANCH  19  20
ENDBRANCH  18  19
ENDBRANCH  17  18
ENDBRANCH   1  17
TORSDOF 26
ENDMDL
MODEL 6
REMARK VINA RESULT:    -5.062      1.838      2.740
REMARK INTER + INTRA:         -16.239
REMARK INTER:                 -12.681
REMARK INTRA:                  -3.558
REMARK UNBOUND:                -3.482
REMARK SMILES CCCCCCCCCCCCCCCCCCCCCCCCCCCC(=O)[O-]
REMARK SMILES IDX 15 1 16 2 17 3 18 4 19 5 20 6 21 7 22 8 23 9 24 10 25 11
REMARK SMILES IDX 26 12 27 13 28 14 29 15 30 16 14 17 13 18 12 19 11 20 10 21
REMARK SMILES IDX 9 22 8 23 7 24 6 25 5 26 4 27 3 28 2 29 1 30
REMARK H PARENT
REMARK Flexibility Score: inf
ROOT
ATOM      1  C   UNL     1     160.494 166.121 155.158  1.00  0.00     0.000 C 
ENDROOT
BRANCH   1   2
ATOM      2  C   UNL     1     161.223 166.512 156.456  1.00  0.00     0.000 C 
BRANCH   2   3
ATOM      3  C   UNL     1     162.693 166.888 156.210  1.00  0.00     0.000 C 
BRANCH   3   4
ATOM      4  C   UNL     1     163.442 167.269 157.507  1.00  0.00     0.000 C 
BRANCH   4   5
ATOM      5  C   UNL     1     163.477 166.145 158.560  1.00  0.00     0.000 C 
BRANCH   5   6
ATOM      6  C   UNL     1     163.162 166.596 159.998  1.00  0.00     0.000 C 
BRANCH   6   7
ATOM      7  C   UNL     1     162.494 167.989 160.079  1.00  0.00     0.000 C 
BRANCH   7   8
ATOM      8  C   UNL     1     161.088 167.941 160.702  1.00  0.00     0.000 C 
BRANCH   8   9
ATOM      9  C   UNL     1     160.106 167.088 159.881  1.00  0.00     0.000 C 
BRANCH   9  10
ATOM     10  C   UNL     1     159.048 166.394 160.754  1.00  0.00     0.000 C 
BRANCH  10  11
ATOM     11  C   UNL     1     159.067 164.875 160.541  1.00  0.00     0.000 C 
BRANCH  11  12
ATOM     12  C   UNL     1     160.256 164.458 159.661  1.00  0.00     0.006 C 
BRANCH  12  13
ATOM     13  C   UNL     1     159.810 163.944 158.287  1.00  0.00     0.053 C 
BRANCH  13  14
ATOM     14  C   UNL     1     159.422 162.498 158.336  1.00  0.00     0.041 C 
ATOM     15  O   UNL     1     160.224 161.640 158.794  1.00  0.00    -0.550 OA
ATOM     16  O   UNL     1     158.161 162.102 157.908  1.00  0.00    -0.550 OA
ENDBRANCH  13  14
ENDBRANCH  12  13
ENDBRANCH  11  12
ENDBRANCH  10  11
ENDBRANCH   9  10
ENDBRANCH   8   9
ENDBRANCH   7   8
ENDBRANCH   6   7
ENDBRANCH   5   6
ENDBRANCH   4   5
ENDBRANCH   3   4
ENDBRANCH   2   3
ENDBRANCH   1   2
BRANCH   1  17
ATOM     17  C   UNL     1     160.827 167.061 153.990  1.00  0.00     0.000 C 
BRANCH  17  18
ATOM     18  C   UNL     1     160.940 166.282 152.675  1.00  0.00     0.000 C 
BRANCH  18  19
ATOM     19  C   UNL     1     162.364 166.366 152.104  1.00  0.00     0.000 C 
BRANCH  19  20
ATOM     20  C   UNL     1     163.172 167.530 152.698  1.00  0.00     0.000 C 
BRANCH  20  21
ATOM     21  C   UNL     1     164.654 167.176 152.914  1.00  0.00     0.000 C 
BRANCH  21  22
ATOM     22  C   UNL     1     165.424 167.038 151.591  1.00  0.00    -0.000 C 
BRANCH  22  23
ATOM     23  C   UNL     1     166.949 166.993 151.797  1.00  0.00    -0.000 C 
BRANCH  23  24
ATOM     24  C   UNL     1     167.724 167.556 150.596  1.00  0.00    -0.000 C 
BRANCH  24  25
ATOM     25  C   UNL     1     167.010 167.297 149.257  1.00  0.00    -0.000 C 
BRANCH  25  26
ATOM     26  C   UNL     1     166.429 168.587 148.639  1.00  0.00    -0.000 C 
BRANCH  26  27
ATOM     27  C   UNL     1     166.892 169.878 149.341  1.00  0.00    -0.000 C 
BRANCH  27  28
ATOM     28  C   UNL     1     165.792 170.640 150.104  1.00  0.00    -0.000 C 
BRANCH  28  29
ATOM     29  C   UNL     1     165.974 170.678 151.633  1.00  0.00    -0.003 C 
ATOM     30  C   UNL     1     164.675 170.969 152.381  1.00  0.00     0.004 C 
ENDBRANCH  28  29
ENDBRANCH  27  28
ENDBRANCH  26  27
ENDBRANCH  25  26
ENDBRANCH  24  25
ENDBRANCH  23  24
ENDBRANCH  22  23
ENDBRANCH  21  22
ENDBRANCH  20  21
ENDBRANCH  19  20
ENDBRANCH  18  19
ENDBRANCH  17  18
ENDBRANCH   1  17
TORSDOF 26
ENDMDL
MODEL 7
REMARK VINA RESULT:    -5.017      4.173     10.595
REMARK INTER + INTRA:         -16.125
REMARK INTER:                 -12.675
REMARK INTRA:                  -3.449
REMARK UNBOUND:                -3.482
REMARK SMILES CCCCCCCCCCCCCCCCCCCCCCCCCCCC(=O)[O-]
REMARK SMILES IDX 15 1 16 2 17 3 18 4 19 5 20 6 21 7 22 8 23 9 24 10 25 11
REMARK SMILES IDX 26 12 27 13 28 14 29 15 30 16 14 17 13 18 12 19 11 20 10 21
REMARK SMILES IDX 9 22 8 23 7 24 6 25 5 26 4 27 3 28 2 29 1 30
REMARK H PARENT
REMARK Flexibility Score: inf
ROOT
ATOM      1  C   UNL     1     161.788 166.847 155.177  1.00  0.00     0.000 C 
ENDROOT
BRANCH   1   2
ATOM      2  C   UNL     1     160.836 166.693 153.978  1.00  0.00     0.000 C 
BRANCH   2   3
ATOM      3  C   UNL     1     161.581 166.700 152.633  1.00  0.00     0.000 C 
BRANCH   3   4
ATOM      4  C   UNL     1     162.831 167.608 152.642  1.00  0.00     0.000 C 
BRANCH   4   5
ATOM      5  C   UNL     1     164.159 166.842 152.493  1.00  0.00     0.000 C 
BRANCH   5   6
ATOM      6  C   UNL     1     165.311 167.658 151.878  1.00  0.00     0.000 C 
BRANCH   6   7
ATOM      7  C   UNL     1     166.678 167.411 152.558  1.00  0.00     0.000 C 
BRANCH   7   8
ATOM      8  C   UNL     1     167.253 168.678 153.216  1.00  0.00     0.000 C 
BRANCH   8   9
ATOM      9  C   UNL     1     166.164 169.569 153.837  1.00  0.00     0.000 C 
BRANCH   9  10
ATOM     10  C   UNL     1     166.216 171.016 153.320  1.00  0.00     0.000 C 
BRANCH  10  11
ATOM     11  C   UNL     1     165.030 171.313 152.393  1.00  0.00     0.000 C 
BRANCH  11  12
ATOM     12  C   UNL     1     165.401 171.051 150.925  1.00  0.00     0.006 C 
BRANCH  12  13
ATOM     13  C   UNL     1     166.885 171.317 150.644  1.00  0.00     0.053 C 
BRANCH  13  14
ATOM     14  C   UNL     1     167.177 171.324 149.175  1.00  0.00     0.041 C 
ATOM     15  O   UNL     1     166.235 171.395 148.340  1.00  0.00    -0.550 OA
ATOM     16  O   UNL     1     168.492 171.288 148.728  1.00  0.00    -0.550 OA
ENDBRANCH  13  14
ENDBRANCH  12  13
ENDBRANCH  11  12
ENDBRANCH  10  11
ENDBRANCH   9  10
ENDBRANCH   8   9
ENDBRANCH   7   8
ENDBRANCH   6   7
ENDBRANCH   5   6
ENDBRANCH   4   5
ENDBRANCH   3   4
ENDBRANCH   2   3
ENDBRANCH   1   2
BRANCH   1  17
ATOM     17  C   UNL     1     161.226 166.215 156.459  1.00  0.00     0.000 C 
BRANCH  17  18
ATOM     18  C   UNL     1     162.325 165.478 157.234  1.00  0.00     0.000 C 
BRANCH  18  19
ATOM     19  C   UNL     1     163.345 166.467 157.819  1.00  0.00     0.000 C 
BRANCH  19  20
ATOM     20  C   UNL     1     163.847 166.045 159.208  1.00  0.00     0.000 C 
BRANCH  20  21
ATOM     21  C   UNL     1     163.213 166.867 160.345  1.00  0.00     0.000 C 
BRANCH  21  22
ATOM     22  C   UNL     1     162.393 168.057 159.822  1.00  0.00    -0.000 C 
BRANCH  22  23
ATOM     23  C   UNL     1     160.961 168.081 160.387  1.00  0.00    -0.000 C 
BRANCH  23  24
ATOM     24  C   UNL     1     160.065 166.996 159.772  1.00  0.00    -0.000 C 
BRANCH  24  25
ATOM     25  C   UNL     1     159.111 166.363 160.801  1.00  0.00    -0.000 C 
BRANCH  25  26
ATOM     26  C   UNL     1     159.272 164.829 160.891  1.00  0.00    -0.000 C 
BRANCH  26  27
ATOM     27  C   UNL     1     160.588 164.305 160.287  1.00  0.00    -0.000 C 
BRANCH  27  28
ATOM     28  C   UNL     1     160.441 163.091 159.350  1.00  0.00    -0.000 C 
BRANCH  28  29
ATOM     29  C   UNL     1     159.505 163.311 158.148  1.00  0.00    -0.003 C 
ATOM     30  C   UNL     1     158.260 162.427 158.190  1.00  0.00     0.004 C 
ENDBRANCH  28  29
ENDBRANCH  27  28
ENDBRANCH  26  27
ENDBRANCH  25  26
ENDBRANCH  24  25
ENDBRANCH  23  24
ENDBRANCH  22  23
ENDBRANCH  21  22
ENDBRANCH  20  21
ENDBRANCH  19  20
ENDBRANCH  18  19
ENDBRANCH  17  18
ENDBRANCH   1  17
TORSDOF 26
ENDMDL
MODEL 8
REMARK VINA RESULT:    -5.008      3.490     10.459
REMARK INTER + INTRA:         -16.103
REMARK INTER:                 -12.570
REMARK INTRA:                  -3.533
REMARK UNBOUND:                -3.482
REMARK SMILES CCCCCCCCCCCCCCCCCCCCCCCCCCCC(=O)[O-]
REMARK SMILES IDX 15 1 16 2 17 3 18 4 19 5 20 6 21 7 22 8 23 9 24 10 25 11
REMARK SMILES IDX 26 12 27 13 28 14 29 15 30 16 14 17 13 18 12 19 11 20 10 21
REMARK SMILES IDX 9 22 8 23 7 24 6 25 5 26 4 27 3 28 2 29 1 30
REMARK H PARENT
REMARK Flexibility Score: inf
ROOT
ATOM      1  C   UNL     1     160.570 166.490 154.682  1.00  0.00     0.000 C 
ENDROOT
BRANCH   1   2
ATOM      2  C   UNL     1     160.852 166.667 153.180  1.00  0.00     0.000 C 
BRANCH   2   3
ATOM      3  C   UNL     1     162.142 167.462 152.916  1.00  0.00     0.000 C 
BRANCH   3   4
ATOM      4  C   UNL     1     163.206 166.646 152.149  1.00  0.00     0.000 C 
BRANCH   4   5
ATOM      5  C   UNL     1     164.639 167.190 152.303  1.00  0.00     0.000 C 
BRANCH   5   6
ATOM      6  C   UNL     1     164.861 168.088 153.533  1.00  0.00     0.000 C 
BRANCH   6   7
ATOM      7  C   UNL     1     165.443 169.479 153.189  1.00  0.00     0.000 C 
BRANCH   7   8
ATOM      8  C   UNL     1     164.544 170.282 152.232  1.00  0.00     0.000 C 
BRANCH   8   9
ATOM      9  C   UNL     1     165.327 170.898 151.061  1.00  0.00     0.000 C 
BRANCH   9  10
ATOM     10  C   UNL     1     166.822 170.543 151.095  1.00  0.00     0.000 C 
BRANCH  10  11
ATOM     11  C   UNL     1     167.313 170.091 149.713  1.00  0.00     0.000 C 
BRANCH  11  12
ATOM     12  C   UNL     1     166.243 169.252 148.997  1.00  0.00     0.006 C 
BRANCH  12  13
ATOM     13  C   UNL     1     166.402 167.751 149.268  1.00  0.00     0.053 C 
BRANCH  13  14
ATOM     14  C   UNL     1     166.866 167.014 148.049  1.00  0.00     0.041 C 
ATOM     15  O   UNL     1     166.255 167.149 146.955  1.00  0.00    -0.550 OA
ATOM     16  O   UNL     1     167.993 166.205 148.114  1.00  0.00    -0.550 OA
ENDBRANCH  13  14
ENDBRANCH  12  13
ENDBRANCH  11  12
ENDBRANCH  10  11
ENDBRANCH   9  10
ENDBRANCH   8   9
ENDBRANCH   7   8
ENDBRANCH   6   7
ENDBRANCH   5   6
ENDBRANCH   4   5
ENDBRANCH   3   4
ENDBRANCH   2   3
ENDBRANCH   1   2
BRANCH   1  17
ATOM     17  C   UNL     1     161.781 166.853 155.555  1.00  0.00     0.000 C 
BRANCH  17  18
ATOM     18  C   UNL     1     161.698 166.163 156.922  1.00  0.00     0.000 C 
BRANCH  18  19
ATOM     19  C   UNL     1     163.098 165.828 157.457  1.00  0.00     0.000 C 
BRANCH  19  20
ATOM     20  C   UNL     1     163.093 165.488 158.956  1.00  0.00     0.000 C 
BRANCH  20  21
ATOM     21  C   UNL     1     161.853 166.037 159.685  1.00  0.00     0.000 C 
BRANCH  21  22
ATOM     22  C   UNL     1     161.717 165.481 161.111  1.00  0.00    -0.000 C 
BRANCH  22  23
ATOM     23  C   UNL     1     160.313 164.913 161.392  1.00  0.00    -0.000 C 
BRANCH  23  24
ATOM     24  C   UNL     1     159.326 165.186 160.248  1.00  0.00    -0.000 C 
BRANCH  24  25
ATOM     25  C   UNL     1     158.203 164.135 160.173  1.00  0.00    -0.000 C 
BRANCH  25  26
ATOM     26  C   UNL     1     158.433 163.104 159.047  1.00  0.00    -0.000 C 
BRANCH  26  27
ATOM     27  C   UNL     1     159.648 163.417 158.154  1.00  0.00    -0.000 C 
BRANCH  27  28
ATOM     28  C   UNL     1     160.672 162.274 158.016  1.00  0.00    -0.000 C 
BRANCH  28  29
ATOM     29  C   UNL     1     161.761 162.248 159.104  1.00  0.00    -0.003 C 
ATOM     30  C   UNL     1     162.810 161.161 158.873  1.00  0.00     0.004 C 
ENDBRANCH  28  29
ENDBRANCH  27  28
ENDBRANCH  26  27
ENDBRANCH  25  26
ENDBRANCH  24  25
ENDBRANCH  23  24
ENDBRANCH  22  23
ENDBRANCH  21  22
ENDBRANCH  20  21
ENDBRANCH  19  20
ENDBRANCH  18  19
ENDBRANCH  17  18
ENDBRANCH   1  17
TORSDOF 26
ENDMDL
MODEL 9
REMARK VINA RESULT:    -4.977      2.088      3.387
REMARK INTER + INTRA:         -16.025
REMARK INTER:                 -12.767
REMARK INTRA:                  -3.259
REMARK UNBOUND:                -3.482
REMARK SMILES CCCCCCCCCCCCCCCCCCCCCCCCCCCC(=O)[O-]
REMARK SMILES IDX 15 1 16 2 17 3 18 4 19 5 20 6 21 7 22 8 23 9 24 10 25 11
REMARK SMILES IDX 26 12 27 13 28 14 29 15 30 16 14 17 13 18 12 19 11 20 10 21
REMARK SMILES IDX 9 22 8 23 7 24 6 25 5 26 4 27 3 28 2 29 1 30
REMARK H PARENT
REMARK Flexibility Score: inf
ROOT
ATOM      1  C   UNL     1     160.812 166.889 153.450  1.00  0.00     0.000 C 
ENDROOT
BRANCH   1   2
ATOM      2  C   UNL     1     161.553 166.861 154.798  1.00  0.00     0.000 C 
BRANCH   2   3
ATOM      3  C   UNL     1     160.776 166.091 155.879  1.00  0.00     0.000 C 
BRANCH   3   4
ATOM      4  C   UNL     1     161.289 166.377 157.308  1.00  0.00     0.000 C 
BRANCH   4   5
ATOM      5  C   UNL     1     162.497 165.514 157.720  1.00  0.00     0.000 C 
BRANCH   5   6
ATOM      6  C   UNL     1     163.522 166.225 158.622  1.00  0.00     0.000 C 
BRANCH   6   7
ATOM      7  C   UNL     1     162.992 166.529 160.043  1.00  0.00     0.000 C 
BRANCH   7   8
ATOM      8  C   UNL     1     162.440 167.959 160.180  1.00  0.00     0.000 C 
BRANCH   8   9
ATOM      9  C   UNL     1     160.936 167.985 160.500  1.00  0.00     0.000 C 
BRANCH   9  10
ATOM     10  C   UNL     1     160.452 166.695 161.181  1.00  0.00     0.000 C 
BRANCH  10  11
ATOM     11  C   UNL     1     159.170 166.171 160.519  1.00  0.00     0.000 C 
BRANCH  11  12
ATOM     12  C   UNL     1     159.068 164.643 160.653  1.00  0.00     0.006 C 
BRANCH  12  13
ATOM     13  C   UNL     1     160.195 163.918 159.908  1.00  0.00     0.053 C 
BRANCH  13  14
ATOM     14  C   UNL     1     159.669 163.105 158.765  1.00  0.00     0.041 C 
ATOM     15  O   UNL     1     160.455 162.411 158.065  1.00  0.00    -0.550 OA
ATOM     16  O   UNL     1     158.307 163.086 158.494  1.00  0.00    -0.550 OA
ENDBRANCH  13  14
ENDBRANCH  12  13
ENDBRANCH  11  12
ENDBRANCH  10  11
ENDBRANCH   9  10
ENDBRANCH   8   9
ENDBRANCH   7   8
ENDBRANCH   6   7
ENDBRANCH   5   6
ENDBRANCH   4   5
ENDBRANCH   3   4
ENDBRANCH   2   3
ENDBRANCH   1   2
BRANCH   1  17
ATOM     17  C   UNL     1     161.745 167.210 152.272  1.00  0.00     0.000 C 
BRANCH  17  18
ATOM     18  C   UNL     1     162.402 165.936 151.730  1.00  0.00     0.000 C 
BRANCH  18  19
ATOM     19  C   UNL     1     163.907 166.146 151.502  1.00  0.00     0.000 C 
BRANCH  19  20
ATOM     20  C   UNL     1     164.470 167.324 152.311  1.00  0.00     0.000 C 
BRANCH  20  21
ATOM     21  C   UNL     1     165.983 167.202 152.565  1.00  0.00     0.000 C 
BRANCH  21  22
ATOM     22  C   UNL     1     166.636 168.556 152.884  1.00  0.00    -0.000 C 
BRANCH  22  23
ATOM     23  C   UNL     1     165.691 169.503 153.648  1.00  0.00    -0.000 C 
BRANCH  23  24
ATOM     24  C   UNL     1     165.553 170.873 152.968  1.00  0.00    -0.000 C 
BRANCH  24  25
ATOM     25  C   UNL     1     164.934 170.776 151.561  1.00  0.00    -0.000 C 
BRANCH  25  26
ATOM     26  C   UNL     1     165.644 171.691 150.540  1.00  0.00    -0.000 C 
BRANCH  26  27
ATOM     27  C   UNL     1     166.043 170.976 149.235  1.00  0.00    -0.000 C 
BRANCH  27  28
ATOM     28  C   UNL     1     166.709 169.599 149.419  1.00  0.00    -0.000 C 
BRANCH  28  29
ATOM     29  C   UNL     1     166.443 168.596 148.281  1.00  0.00    -0.003 C 
ATOM     30  C   UNL     1     166.220 167.170 148.783  1.00  0.00     0.004 C 
ENDBRANCH  28  29
ENDBRANCH  27  28
ENDBRANCH  26  27
ENDBRANCH  25  26
ENDBRANCH  24  25
ENDBRANCH  23  24
ENDBRANCH  22  23
ENDBRANCH  21  22
ENDBRANCH  20  21
ENDBRANCH  19  20
ENDBRANCH  18  19
ENDBRANCH  17  18
ENDBRANCH   1  17
TORSDOF 26
ENDMDL
