MODEL 1
REMARK VINA RESULT:    -4.371      0.000      0.000
REMARK INTER + INTRA:          -9.602
REMARK INTER:                  -7.948
REMARK INTRA:                  -1.654
REMARK UNBOUND:                -1.654
REMARK SMILES CCCCCCCCCCCCCCCC(=O)[O-]
REMARK SMILES IDX 9 1 10 2 11 3 12 4 13 5 14 6 15 7 16 8 17 9 18 10 8 11 7 12
REMARK SMILES IDX 6 13 5 14 4 15 3 16 2 17 1 18
REMARK H PARENT
REMARK Flexibility Score: inf
ROOT
ATOM      1  C   UNL     1      -3.917   7.419 -37.555  1.00  0.00     0.000 C 
ENDROOT
BRANCH   1   2
ATOM      2  C   UNL     1      -2.442   7.010 -37.391  1.00  0.00     0.000 C 
BRANCH   2   3
ATOM      3  C   UNL     1      -1.571   7.997 -36.584  1.00  0.00     0.000 C 
BRANCH   3   4
ATOM      4  C   UNL     1      -1.017   7.448 -35.257  1.00  0.00     0.000 C 
BRANCH   4   5
ATOM      5  C   UNL     1      -1.683   8.082 -34.023  1.00  0.00     0.000 C 
BRANCH   5   6
ATOM      6  C   UNL     1      -2.640   9.226 -34.391  1.00  0.00     0.006 C 
BRANCH   6   7
ATOM      7  C   UNL     1      -2.525  10.425 -33.441  1.00  0.00     0.053 C 
BRANCH   7   8
ATOM      8  C   UNL     1      -3.870  11.040 -33.214  1.00  0.00     0.041 C 
ATOM      9  O   UNL     1      -4.326  11.153 -32.046  1.00  0.00    -0.550 OA
ATOM     10  O   UNL     1      -4.642  11.444 -34.297  1.00  0.00    -0.550 OA
ENDBRANCH   7   8
ENDBRANCH   6   7
ENDBRANCH   5   6
ENDBRANCH   4   5
ENDBRANCH   3   4
ENDBRANCH   2   3
ENDBRANCH   1   2
BRANCH   1  11
ATOM     11  C   UNL     1      -4.938   6.317 -37.214  1.00  0.00     0.000 C 
BRANCH  11  12
ATOM     12  C   UNL     1      -6.133   6.815 -36.372  1.00  0.00    -0.000 C 
BRANCH  12  13
ATOM     13  C   UNL     1      -5.699   7.716 -35.203  1.00  0.00    -0.000 C 
BRANCH  13  14
ATOM     14  C   UNL     1      -5.540   6.941 -33.886  1.00  0.00    -0.000 C 
BRANCH  14  15
ATOM     15  C   UNL     1      -6.570   7.362 -32.822  1.00  0.00    -0.000 C 
BRANCH  15  16
ATOM     16  C   UNL     1      -7.464   6.197 -32.369  1.00  0.00    -0.000 C 
BRANCH  16  17
ATOM     17  C   UNL     1      -7.679   5.154 -33.475  1.00  0.00    -0.003 C 
ATOM     18  C   UNL     1      -8.957   5.437 -34.258  1.00  0.00     0.004 C 
ENDBRANCH  16  17
ENDBRANCH  15  16
ENDBRANCH  14  15
ENDBRANCH  13  14
ENDBRANCH  12  13
ENDBRANCH  11  12
ENDBRANCH   1  11
TORSDOF 14
ENDMDL
MODEL 2
REMARK VINA RESULT:    -4.274      1.606      2.868
REMARK INTER + INTRA:          -9.425
REMARK INTER:                  -7.789
REMARK INTRA:                  -1.636
REMARK UNBOUND:                -1.654
REMARK SMILES CCCCCCCCCCCCCCCC(=O)[O-]
REMARK SMILES IDX 9 1 10 2 11 3 12 4 13 5 14 6 15 7 16 8 17 9 18 10 8 11 7 12
REMARK SMILES IDX 6 13 5 14 4 15 3 16 2 17 1 18
REMARK H PARENT
REMARK Flexibility Score: inf
ROOT
ATOM      1  C   UNL     1      -6.095   6.025 -37.073  1.00  0.00     0.000 C 
ENDROOT
BRANCH   1   2
ATOM      2  C   UNL     1      -4.968   6.941 -37.583  1.00  0.00     0.000 C 
BRANCH   2   3
ATOM      3  C   UNL     1      -3.678   6.214 -38.020  1.00  0.00     0.000 C 
BRANCH   3   4
ATOM      4  C   UNL     1      -2.376   7.009 -37.814  1.00  0.00     0.000 C 
BRANCH   4   5
ATOM      5  C   UNL     1      -1.744   6.776 -36.431  1.00  0.00     0.000 C 
BRANCH   5   6
ATOM      6  C   UNL     1      -1.550   8.080 -35.643  1.00  0.00     0.006 C 
BRANCH   6   7
ATOM      7  C   UNL     1      -2.739   8.402 -34.727  1.00  0.00     0.053 C 
BRANCH   7   8
ATOM      8  C   UNL     1      -3.523   9.552 -35.277  1.00  0.00     0.041 C 
ATOM      9  O   UNL     1      -4.534   9.982 -34.662  1.00  0.00    -0.550 OA
ATOM     10  O   UNL     1      -3.166  10.117 -36.496  1.00  0.00    -0.550 OA
ENDBRANCH   7   8
ENDBRANCH   6   7
ENDBRANCH   5   6
ENDBRANCH   4   5
ENDBRANCH   3   4
ENDBRANCH   2   3
ENDBRANCH   1   2
BRANCH   1  11
ATOM     11  C   UNL     1      -5.869   4.520 -37.313  1.00  0.00     0.000 C 
BRANCH  11  12
ATOM     12  C   UNL     1      -6.932   3.617 -36.651  1.00  0.00    -0.000 C 
BRANCH  12  13
ATOM     13  C   UNL     1      -6.630   3.335 -35.168  1.00  0.00    -0.000 C 
BRANCH  13  14
ATOM     14  C   UNL     1      -7.805   3.696 -34.247  1.00  0.00    -0.000 C 
BRANCH  14  15
ATOM     15  C   UNL     1      -7.972   5.216 -34.069  1.00  0.00    -0.000 C 
BRANCH  15  16
ATOM     16  C   UNL     1      -7.912   5.650 -32.596  1.00  0.00    -0.000 C 
BRANCH  16  17
ATOM     17  C   UNL     1      -6.798   6.672 -32.327  1.00  0.00    -0.003 C 
ATOM     18  C   UNL     1      -5.996   6.957 -33.594  1.00  0.00     0.004 C 
ENDBRANCH  16  17
ENDBRANCH  15  16
ENDBRANCH  14  15
ENDBRANCH  13  14
ENDBRANCH  12  13
ENDBRANCH  11  12
ENDBRANCH   1  11
TORSDOF 14
ENDMDL
MODEL 3
REMARK VINA RESULT:    -4.254      2.979      5.747
REMARK INTER + INTRA:          -9.389
REMARK INTER:                  -7.612
REMARK INTRA:                  -1.777
REMARK UNBOUND:                -1.654
REMARK SMILES CCCCCCCCCCCCCCCC(=O)[O-]
REMARK SMILES IDX 9 1 10 2 11 3 12 4 13 5 14 6 15 7 16 8 17 9 18 10 8 11 7 12
REMARK SMILES IDX 6 13 5 14 4 15 3 16 2 17 1 18
REMARK H PARENT
REMARK Flexibility Score: inf
ROOT
ATOM      1  C   UNL     1      -3.740   4.989 -38.278  1.00  0.00     0.000 C 
ENDROOT
BRANCH   1   2
ATOM      2  C   UNL     1      -3.696   3.497 -37.903  1.00  0.00     0.000 C 
BRANCH   2   3
ATOM      3  C   UNL     1      -5.070   2.802 -37.808  1.00  0.00     0.000 C 
BRANCH   3   4
ATOM      4  C   UNL     1      -6.247   3.593 -38.409  1.00  0.00     0.000 C 
BRANCH   4   5
ATOM      5  C   UNL     1      -7.440   3.715 -37.445  1.00  0.00     0.000 C 
BRANCH   5   6
ATOM      6  C   UNL     1      -7.239   4.818 -36.394  1.00  0.00     0.006 C 
BRANCH   6   7
ATOM      7  C   UNL     1      -7.244   4.278 -34.957  1.00  0.00     0.053 C 
BRANCH   7   8
ATOM      8  C   UNL     1      -7.975   5.217 -34.051  1.00  0.00     0.041 C 
ATOM      9  O   UNL     1      -9.181   5.503 -34.274  1.00  0.00    -0.550 OA
ATOM     10  O   UNL     1      -7.311   5.816 -32.987  1.00  0.00    -0.550 OA
ENDBRANCH   7   8
ENDBRANCH   6   7
ENDBRANCH   5   6
ENDBRANCH   4   5
ENDBRANCH   3   4
ENDBRANCH   2   3
ENDBRANCH   1   2
BRANCH   1  11
ATOM     11  C   UNL     1      -2.764   5.886 -37.491  1.00  0.00     0.000 C 
BRANCH  11  12
ATOM     12  C   UNL     1      -2.558   7.281 -38.118  1.00  0.00    -0.000 C 
BRANCH  12  13
ATOM     13  C   UNL     1      -1.879   8.270 -37.154  1.00  0.00    -0.000 C 
BRANCH  13  14
ATOM     14  C   UNL     1      -1.273   7.575 -35.925  1.00  0.00    -0.000 C 
BRANCH  14  15
ATOM     15  C   UNL     1      -1.861   8.095 -34.601  1.00  0.00    -0.000 C 
BRANCH  15  16
ATOM     16  C   UNL     1      -3.223   8.784 -34.788  1.00  0.00    -0.000 C 
BRANCH  16  17
ATOM     17  C   UNL     1      -4.399   7.882 -34.386  1.00  0.00    -0.003 C 
ATOM     18  C   UNL     1      -5.373   7.699 -35.548  1.00  0.00     0.004 C 
ENDBRANCH  16  17
ENDBRANCH  15  16
ENDBRANCH  14  15
ENDBRANCH  13  14
ENDBRANCH  12  13
ENDBRANCH  11  12
ENDBRANCH   1  11
TORSDOF 14
ENDMDL
MODEL 4
REMARK VINA RESULT:    -4.225      2.517      4.809
REMARK INTER + INTRA:          -9.336
REMARK INTER:                  -7.887
REMARK INTRA:                  -1.450
REMARK UNBOUND:                -1.654
REMARK SMILES CCCCCCCCCCCCCCCC(=O)[O-]
REMARK SMILES IDX 9 1 10 2 11 3 12 4 13 5 14 6 15 7 16 8 17 9 18 10 8 11 7 12
REMARK SMILES IDX 6 13 5 14 4 15 3 16 2 17 1 18
REMARK H PARENT
REMARK Flexibility Score: inf
ROOT
ATOM      1  C   UNL     1      -6.598   6.611 -32.567  1.00  0.00     0.000 C 
ENDROOT
BRANCH   1   2
ATOM      2  C   UNL     1      -6.307   7.793 -33.510  1.00  0.00     0.000 C 
BRANCH   2   3
ATOM      3  C   UNL     1      -4.986   7.690 -34.303  1.00  0.00     0.000 C 
BRANCH   3   4
ATOM      4  C   UNL     1      -4.506   9.003 -34.948  1.00  0.00     0.000 C 
BRANCH   4   5
ATOM      5  C   UNL     1      -3.021   9.298 -34.670  1.00  0.00     0.000 C 
BRANCH   5   6
ATOM      6  C   UNL     1      -2.241   8.046 -34.239  1.00  0.00     0.006 C 
BRANCH   6   7
ATOM      7  C   UNL     1      -1.022   7.770 -35.129  1.00  0.00     0.053 C 
BRANCH   7   8
ATOM      8  C   UNL     1      -1.440   7.649 -36.560  1.00  0.00     0.041 C 
ATOM      9  O   UNL     1      -1.039   8.486 -37.411  1.00  0.00    -0.550 OA
ATOM     10  O   UNL     1      -2.313   6.639 -36.947  1.00  0.00    -0.550 OA
ENDBRANCH   7   8
ENDBRANCH   6   7
ENDBRANCH   5   6
ENDBRANCH   4   5
ENDBRANCH   3   4
ENDBRANCH   2   3
ENDBRANCH   1   2
BRANCH   1  11
ATOM     11  C   UNL     1      -7.842   5.780 -32.932  1.00  0.00     0.000 C 
BRANCH  11  12
ATOM     12  C   UNL     1      -7.523   4.503 -33.739  1.00  0.00    -0.000 C 
BRANCH  12  13
ATOM     13  C   UNL     1      -8.555   4.229 -34.847  1.00  0.00    -0.000 C 
BRANCH  13  14
ATOM     14  C   UNL     1      -7.905   4.036 -36.226  1.00  0.00    -0.000 C 
BRANCH  14  15
ATOM     15  C   UNL     1      -6.959   5.191 -36.601  1.00  0.00    -0.000 C 
BRANCH  15  16
ATOM     16  C   UNL     1      -5.605   4.698 -37.135  1.00  0.00    -0.000 C 
BRANCH  16  17
ATOM     17  C   UNL     1      -5.539   3.168 -37.249  1.00  0.00    -0.003 C 
ATOM     18  C   UNL     1      -4.106   2.695 -37.480  1.00  0.00     0.004 C 
ENDBRANCH  16  17
ENDBRANCH  15  16
ENDBRANCH  14  15
ENDBRANCH  13  14
ENDBRANCH  12  13
ENDBRANCH  11  12
ENDBRANCH   1  11
TORSDOF 14
ENDMDL
MODEL 5
REMARK VINA RESULT:    -4.207      3.107      5.264
REMARK INTER + INTRA:          -9.305
REMARK INTER:                  -7.744
REMARK INTRA:                  -1.560
REMARK UNBOUND:                -1.654
REMARK SMILES CCCCCCCCCCCCCCCC(=O)[O-]
REMARK SMILES IDX 9 1 10 2 11 3 12 4 13 5 14 6 15 7 16 8 17 9 18 10 8 11 7 12
REMARK SMILES IDX 6 13 5 14 4 15 3 16 2 17 1 18
REMARK H PARENT
REMARK Flexibility Score: inf
ROOT
ATOM      1  C   UNL     1      -1.862   7.795 -36.113  1.00  0.00     0.000 C 
ENDROOT
BRANCH   1   2
ATOM      2  C   UNL     1      -2.930   8.712 -35.491  1.00  0.00     0.000 C 
BRANCH   2   3
ATOM      3  C   UNL     1      -3.753   8.081 -34.348  1.00  0.00     0.000 C 
BRANCH   3   4
ATOM      4  C   UNL     1      -5.281   8.156 -34.521  1.00  0.00     0.000 C 
BRANCH   4   5
ATOM      5  C   UNL     1      -5.998   6.871 -34.074  1.00  0.00     0.000 C 
BRANCH   5   6
ATOM      6  C   UNL     1      -6.794   7.059 -32.773  1.00  0.00     0.006 C 
BRANCH   6   7
ATOM      7  C   UNL     1      -7.582   5.805 -32.371  1.00  0.00     0.053 C 
BRANCH   7   8
ATOM      8  C   UNL     1      -8.160   5.144 -33.582  1.00  0.00     0.041 C 
ATOM      9  O   UNL     1      -9.088   5.701 -34.226  1.00  0.00    -0.550 OA
ATOM     10  O   UNL     1      -7.709   3.888 -33.971  1.00  0.00    -0.550 OA
ENDBRANCH   7   8
ENDBRANCH   6   7
ENDBRANCH   5   6
ENDBRANCH   4   5
ENDBRANCH   3   4
ENDBRANCH   2   3
ENDBRANCH   1   2
BRANCH   1  11
ATOM     11  C   UNL     1      -2.190   7.282 -37.528  1.00  0.00     0.000 C 
BRANCH  11  12
ATOM     12  C   UNL     1      -3.322   6.233 -37.563  1.00  0.00    -0.000 C 
BRANCH  12  13
ATOM     13  C   UNL     1      -4.636   6.797 -38.131  1.00  0.00    -0.000 C 
BRANCH  13  14
ATOM     14  C   UNL     1      -5.732   5.728 -38.259  1.00  0.00    -0.000 C 
BRANCH  14  15
ATOM     15  C   UNL     1      -5.809   4.809 -37.026  1.00  0.00    -0.000 C 
BRANCH  15  16
ATOM     16  C   UNL     1      -6.318   3.400 -37.369  1.00  0.00    -0.000 C 
BRANCH  16  17
ATOM     17  C   UNL     1      -5.302   2.588 -38.185  1.00  0.00    -0.003 C 
ATOM     18  C   UNL     1      -3.932   2.585 -37.512  1.00  0.00     0.004 C 
ENDBRANCH  16  17
ENDBRANCH  15  16
ENDBRANCH  14  15
ENDBRANCH  13  14
ENDBRANCH  12  13
ENDBRANCH  11  12
ENDBRANCH   1  11
TORSDOF 14
ENDMDL
MODEL 6
REMARK VINA RESULT:    -4.191      3.089      6.071
REMARK INTER + INTRA:          -9.274
REMARK INTER:                  -7.714
REMARK INTRA:                  -1.560
REMARK UNBOUND:                -1.654
REMARK SMILES CCCCCCCCCCCCCCCC(=O)[O-]
REMARK SMILES IDX 9 1 10 2 11 3 12 4 13 5 14 6 15 7 16 8 17 9 18 10 8 11 7 12
REMARK SMILES IDX 6 13 5 14 4 15 3 16 2 17 1 18
REMARK H PARENT
REMARK Flexibility Score: inf
ROOT
ATOM      1  C   UNL     1      -4.974   2.964 -37.604  1.00  0.00     0.000 C 
ENDROOT
BRANCH   1   2
ATOM      2  C   UNL     1      -6.208   3.409 -38.410  1.00  0.00     0.000 C 
BRANCH   2   3
ATOM      3  C   UNL     1      -7.382   3.951 -37.568  1.00  0.00     0.000 C 
BRANCH   3   4
ATOM      4  C   UNL     1      -7.702   5.443 -37.774  1.00  0.00     0.000 C 
BRANCH   4   5
ATOM      5  C   UNL     1      -7.634   6.256 -36.470  1.00  0.00     0.000 C 
BRANCH   5   6
ATOM      6  C   UNL     1      -6.370   5.952 -35.650  1.00  0.00     0.006 C 
BRANCH   6   7
ATOM      7  C   UNL     1      -6.540   6.268 -34.158  1.00  0.00     0.053 C 
BRANCH   7   8
ATOM      8  C   UNL     1      -7.624   5.424 -33.568  1.00  0.00     0.041 C 
ATOM      9  O   UNL     1      -8.443   5.924 -32.751  1.00  0.00    -0.550 OA
ATOM     10  O   UNL     1      -7.702   4.073 -33.881  1.00  0.00    -0.550 OA
ENDBRANCH   7   8
ENDBRANCH   6   7
ENDBRANCH   5   6
ENDBRANCH   4   5
ENDBRANCH   3   4
ENDBRANCH   2   3
ENDBRANCH   1   2
BRANCH   1  11
ATOM     11  C   UNL     1      -3.657   3.663 -37.994  1.00  0.00     0.000 C 
BRANCH  11  12
ATOM     12  C   UNL     1      -3.827   5.156 -38.348  1.00  0.00    -0.000 C 
BRANCH  12  13
ATOM     13  C   UNL     1      -2.799   6.055 -37.637  1.00  0.00    -0.000 C 
BRANCH  13  14
ATOM     14  C   UNL     1      -3.427   7.338 -37.074  1.00  0.00    -0.000 C 
BRANCH  14  15
ATOM     15  C   UNL     1      -2.381   8.291 -36.465  1.00  0.00    -0.000 C 
BRANCH  15  16
ATOM     16  C   UNL     1      -1.182   7.545 -35.860  1.00  0.00    -0.000 C 
BRANCH  16  17
ATOM     17  C   UNL     1      -1.135   7.648 -34.329  1.00  0.00    -0.003 C 
ATOM     18  C   UNL     1      -1.953   8.837 -33.833  1.00  0.00     0.004 C 
ENDBRANCH  16  17
ENDBRANCH  15  16
ENDBRANCH  14  15
ENDBRANCH  13  14
ENDBRANCH  12  13
ENDBRANCH  11  12
ENDBRANCH   1  11
TORSDOF 14
ENDMDL
MODEL 7
REMARK VINA RESULT:    -4.170      2.959      5.270
REMARK INTER + INTRA:          -9.237
REMARK INTER:                  -7.502
REMARK INTRA:                  -1.736
REMARK UNBOUND:                -1.654
REMARK SMILES CCCCCCCCCCCCCCCC(=O)[O-]
REMARK SMILES IDX 9 1 10 2 11 3 12 4 13 5 14 6 15 7 16 8 17 9 18 10 8 11 7 12
REMARK SMILES IDX 6 13 5 14 4 15 3 16 2 17 1 18
REMARK H PARENT
REMARK Flexibility Score: inf
ROOT
ATOM      1  C   UNL     1      -2.376   7.158 -37.944  1.00  0.00     0.000 C 
ENDROOT
BRANCH   1   2
ATOM      2  C   UNL     1      -3.803   6.639 -38.195  1.00  0.00     0.000 C 
BRANCH   2   3
ATOM      3  C   UNL     1      -4.026   5.146 -37.873  1.00  0.00     0.000 C 
BRANCH   3   4
ATOM      4  C   UNL     1      -5.474   4.761 -37.519  1.00  0.00     0.000 C 
BRANCH   4   5
ATOM      5  C   UNL     1      -6.454   5.941 -37.640  1.00  0.00     0.000 C 
BRANCH   5   6
ATOM      6  C   UNL     1      -7.583   5.881 -36.600  1.00  0.00     0.006 C 
BRANCH   6   7
ATOM      7  C   UNL     1      -7.825   4.462 -36.067  1.00  0.00     0.053 C 
BRANCH   7   8
ATOM      8  C   UNL     1      -8.435   4.516 -34.702  1.00  0.00     0.041 C 
ATOM      9  O   UNL     1      -9.255   5.425 -34.410  1.00  0.00    -0.550 OA
ATOM     10  O   UNL     1      -8.060   3.590 -33.736  1.00  0.00    -0.550 OA
ENDBRANCH   7   8
ENDBRANCH   6   7
ENDBRANCH   5   6
ENDBRANCH   4   5
ENDBRANCH   3   4
ENDBRANCH   2   3
ENDBRANCH   1   2
BRANCH   1  11
ATOM     11  C   UNL     1      -1.737   6.689 -36.622  1.00  0.00     0.000 C 
BRANCH  11  12
ATOM     12  C   UNL     1      -1.254   7.844 -35.720  1.00  0.00    -0.000 C 
BRANCH  12  13
ATOM     13  C   UNL     1      -2.219   8.133 -34.558  1.00  0.00    -0.000 C 
BRANCH  13  14
ATOM     14  C   UNL     1      -3.449   8.943 -34.998  1.00  0.00    -0.000 C 
BRANCH  14  15
ATOM     15  C   UNL     1      -4.720   8.079 -35.101  1.00  0.00    -0.000 C 
BRANCH  15  16
ATOM     16  C   UNL     1      -5.584   8.145 -33.831  1.00  0.00    -0.000 C 
BRANCH  16  17
ATOM     17  C   UNL     1      -6.101   6.765 -33.398  1.00  0.00    -0.003 C 
ATOM     18  C   UNL     1      -6.869   6.854 -32.083  1.00  0.00     0.004 C 
ENDBRANCH  16  17
ENDBRANCH  15  16
ENDBRANCH  14  15
ENDBRANCH  13  14
ENDBRANCH  12  13
ENDBRANCH  11  12
ENDBRANCH   1  11
TORSDOF 14
ENDMDL
MODEL 8
REMARK VINA RESULT:    -4.089      3.191      6.033
REMARK INTER + INTRA:          -9.089
REMARK INTER:                  -7.457
REMARK INTRA:                  -1.632
REMARK UNBOUND:                -1.654
REMARK SMILES CCCCCCCCCCCCCCCC(=O)[O-]
REMARK SMILES IDX 9 1 10 2 11 3 12 4 13 5 14 6 15 7 16 8 17 9 18 10 8 11 7 12
REMARK SMILES IDX 6 13 5 14 4 15 3 16 2 17 1 18
REMARK H PARENT
REMARK Flexibility Score: inf
ROOT
ATOM      1  C   UNL     1      -2.899   9.141 -34.412  1.00  0.00     0.000 C 
ENDROOT
BRANCH   1   2
ATOM      2  C   UNL     1      -4.395   8.833 -34.221  1.00  0.00     0.000 C 
BRANCH   2   3
ATOM      3  C   UNL     1      -5.026   7.938 -35.309  1.00  0.00     0.000 C 
BRANCH   3   4
ATOM      4  C   UNL     1      -5.793   6.711 -34.786  1.00  0.00     0.000 C 
BRANCH   4   5
ATOM      5  C   UNL     1      -6.379   6.926 -33.379  1.00  0.00     0.000 C 
BRANCH   5   6
ATOM      6  C   UNL     1      -7.258   5.753 -32.920  1.00  0.00     0.006 C 
BRANCH   6   7
ATOM      7  C   UNL     1      -8.442   5.494 -33.861  1.00  0.00     0.053 C 
BRANCH   7   8
ATOM      8  C   UNL     1      -8.389   4.096 -34.391  1.00  0.00     0.041 C 
ATOM      9  O   UNL     1      -9.353   3.632 -35.055  1.00  0.00    -0.550 OA
ATOM     10  O   UNL     1      -7.294   3.287 -34.110  1.00  0.00    -0.550 OA
ENDBRANCH   7   8
ENDBRANCH   6   7
ENDBRANCH   5   6
ENDBRANCH   4   5
ENDBRANCH   3   4
ENDBRANCH   2   3
ENDBRANCH   1   2
BRANCH   1  11
ATOM     11  C   UNL     1      -1.991   7.902 -34.539  1.00  0.00     0.000 C 
BRANCH  11  12
ATOM     12  C   UNL     1      -1.221   7.828 -35.875  1.00  0.00    -0.000 C 
BRANCH  12  13
ATOM     13  C   UNL     1      -1.987   8.484 -37.037  1.00  0.00    -0.000 C 
BRANCH  13  14
ATOM     14  C   UNL     1      -2.295   7.497 -38.174  1.00  0.00    -0.000 C 
BRANCH  14  15
ATOM     15  C   UNL     1      -2.745   6.119 -37.655  1.00  0.00    -0.000 C 
BRANCH  15  16
ATOM     16  C   UNL     1      -3.959   5.567 -38.419  1.00  0.00    -0.000 C 
BRANCH  16  17
ATOM     17  C   UNL     1      -4.331   4.142 -37.985  1.00  0.00    -0.003 C 
ATOM     18  C   UNL     1      -5.671   4.122 -37.254  1.00  0.00     0.004 C 
ENDBRANCH  16  17
ENDBRANCH  15  16
ENDBRANCH  14  15
ENDBRANCH  13  14
ENDBRANCH  12  13
ENDBRANCH  11  12
ENDBRANCH   1  11
TORSDOF 14
ENDMDL
MODEL 9
REMARK VINA RESULT:    -4.063     15.431     17.028
REMARK INTER + INTRA:          -9.043
REMARK INTER:                  -7.677
REMARK INTRA:                  -1.366
REMARK UNBOUND:                -1.654
REMARK SMILES CCCCCCCCCCCCCCCC(=O)[O-]
REMARK SMILES IDX 9 1 10 2 11 3 12 4 13 5 14 6 15 7 16 8 17 9 18 10 8 11 7 12
REMARK SMILES IDX 6 13 5 14 4 15 3 16 2 17 1 18
REMARK H PARENT
REMARK Flexibility Score: inf
ROOT
ATOM      1  C   UNL     1      -9.151   1.085 -21.518  1.00  0.00     0.000 C 
ENDROOT
BRANCH   1   2
ATOM      2  C   UNL     1     -10.273   2.131 -21.392  1.00  0.00     0.000 C 
BRANCH   2   3
ATOM      3  C   UNL     1     -11.663   1.564 -21.035  1.00  0.00     0.000 C 
BRANCH   3   4
ATOM      4  C   UNL     1     -12.821   2.061 -21.920  1.00  0.00     0.000 C 
BRANCH   4   5
ATOM      5  C   UNL     1     -13.890   2.836 -21.129  1.00  0.00     0.000 C 
BRANCH   5   6
ATOM      6  C   UNL     1     -15.103   3.217 -21.992  1.00  0.00     0.006 C 
BRANCH   6   7
ATOM      7  C   UNL     1     -14.716   3.588 -23.430  1.00  0.00     0.053 C 
BRANCH   7   8
ATOM      8  C   UNL     1     -14.941   5.047 -23.669  1.00  0.00     0.041 C 
ATOM      9  O   UNL     1     -14.003   5.773 -24.092  1.00  0.00    -0.550 OA
ATOM     10  O   UNL     1     -16.175   5.617 -23.379  1.00  0.00    -0.550 OA
ENDBRANCH   7   8
ENDBRANCH   6   7
ENDBRANCH   5   6
ENDBRANCH   4   5
ENDBRANCH   3   4
ENDBRANCH   2   3
ENDBRANCH   1   2
BRANCH   1  11
ATOM     11  C   UNL     1      -8.796   0.352 -20.210  1.00  0.00     0.000 C 
BRANCH  11  12
ATOM     12  C   UNL     1      -8.749  -1.184 -20.350  1.00  0.00    -0.000 C 
BRANCH  12  13
ATOM     13  C   UNL     1     -10.150  -1.819 -20.390  1.00  0.00    -0.000 C 
BRANCH  13  14
ATOM     14  C   UNL     1     -10.432  -2.547 -21.713  1.00  0.00    -0.000 C 
BRANCH  14  15
ATOM     15  C   UNL     1     -11.192  -1.667 -22.723  1.00  0.00    -0.000 C 
BRANCH  15  16
ATOM     16  C   UNL     1     -12.717  -1.812 -22.604  1.00  0.00    -0.000 C 
BRANCH  16  17
ATOM     17  C   UNL     1     -13.233  -3.129 -23.203  1.00  0.00    -0.003 C 
ATOM     18  C   UNL     1     -13.733  -4.071 -22.111  1.00  0.00     0.004 C 
ENDBRANCH  16  17
ENDBRANCH  15  16
ENDBRANCH  14  15
ENDBRANCH  13  14
ENDBRANCH  12  13
ENDBRANCH  11  12
ENDBRANCH   1  11
TORSDOF 14
ENDMDL
