MODEL 1
REMARK VINA RESULT:    -4.310      0.000      0.000
REMARK INTER + INTRA:         -10.124
REMARK INTER:                  -7.585
REMARK INTRA:                  -2.539
REMARK UNBOUND:                -2.539
REMARK SMILES CCCCCCCCCCCCCCC(=O)[O-]
REMARK SMILES IDX 9 1 10 2 11 3 12 4 13 5 14 6 15 7 16 8 17 9 8 10 7 11 6 12
REMARK SMILES IDX 5 13 4 14 3 15 2 16 1 17
REMARK H PARENT
REMARK Flexibility Score: inf
ROOT
ATOM      1  C   UNL     1     -24.018  61.504  28.499  1.00  0.00     0.000 C 
ENDROOT
BRANCH   1   2
ATOM      2  C   UNL     1     -24.700  60.137  28.673  1.00  0.00     0.000 C 
BRANCH   2   3
ATOM      3  C   UNL     1     -23.723  59.040  29.119  1.00  0.00     0.000 C 
BRANCH   3   4
ATOM      4  C   UNL     1     -24.233  58.332  30.381  1.00  0.00     0.000 C 
BRANCH   4   5
ATOM      5  C   UNL     1     -25.496  59.014  30.923  1.00  0.00     0.006 C 
BRANCH   5   6
ATOM      6  C   UNL     1     -25.511  59.004  32.454  1.00  0.00     0.053 C 
BRANCH   6   7
ATOM      7  C   UNL     1     -26.375  60.108  32.977  1.00  0.00     0.041 C 
ATOM      8  O   UNL     1     -26.142  60.614  34.106  1.00  0.00    -0.550 OA
ATOM      9  O   UNL     1     -27.466  60.546  32.237  1.00  0.00    -0.550 OA
ENDBRANCH   6   7
ENDBRANCH   5   6
ENDBRANCH   4   5
ENDBRANCH   3   4
ENDBRANCH   2   3
ENDBRANCH   1   2
BRANCH   1  10
ATOM     10  C   UNL     1     -24.732  62.624  29.271  1.00  0.00     0.000 C 
BRANCH  10  11
ATOM     11  C   UNL     1     -24.508  62.478  30.781  1.00  0.00    -0.000 C 
BRANCH  11  12
ATOM     12  C   UNL     1     -23.012  62.459  31.117  1.00  0.00    -0.000 C 
BRANCH  12  13
ATOM     13  C   UNL     1     -22.698  61.392  32.175  1.00  0.00    -0.000 C 
BRANCH  13  14
ATOM     14  C   UNL     1     -21.537  60.474  31.764  1.00  0.00    -0.000 C 
BRANCH  14  15
ATOM     15  C   UNL     1     -20.476  61.200  30.925  1.00  0.00    -0.000 C 
BRANCH  15  16
ATOM     16  C   UNL     1     -20.385  60.598  29.517  1.00  0.00    -0.003 C 
ATOM     17  C   UNL     1     -20.370  61.690  28.450  1.00  0.00     0.004 C 
ENDBRANCH  15  16
ENDBRANCH  14  15
ENDBRANCH  13  14
ENDBRANCH  12  13
ENDBRANCH  11  12
ENDBRANCH  10  11
ENDBRANCH   1  10
TORSDOF 13
ENDMDL
MODEL 2
REMARK VINA RESULT:    -4.301      1.649      3.138
REMARK INTER + INTRA:         -10.109
REMARK INTER:                  -8.024
REMARK INTRA:                  -2.084
REMARK UNBOUND:                -2.539
REMARK SMILES CCCCCCCCCCCCCCC(=O)[O-]
REMARK SMILES IDX 9 1 10 2 11 3 12 4 13 5 14 6 15 7 16 8 17 9 8 10 7 11 6 12
REMARK SMILES IDX 5 13 4 14 3 15 2 16 1 17
REMARK H PARENT
REMARK Flexibility Score: inf
ROOT
ATOM      1  C   UNL     1     -23.563  60.536  28.666  1.00  0.00     0.000 C 
ENDROOT
BRANCH   1   2
ATOM      2  C   UNL     1     -24.797  61.098  29.389  1.00  0.00     0.000 C 
BRANCH   2   3
ATOM      3  C   UNL     1     -24.648  62.583  29.750  1.00  0.00     0.000 C 
BRANCH   3   4
ATOM      4  C   UNL     1     -25.490  62.935  30.982  1.00  0.00     0.000 C 
BRANCH   4   5
ATOM      5  C   UNL     1     -25.967  61.669  31.704  1.00  0.00     0.006 C 
BRANCH   5   6
ATOM      6  C   UNL     1     -27.064  61.997  32.720  1.00  0.00     0.053 C 
BRANCH   6   7
ATOM      7  C   UNL     1     -26.781  61.333  34.031  1.00  0.00     0.041 C 
ATOM      8  O   UNL     1     -26.376  60.141  34.063  1.00  0.00    -0.550 OA
ATOM      9  O   UNL     1     -27.007  62.016  35.219  1.00  0.00    -0.550 OA
ENDBRANCH   6   7
ENDBRANCH   5   6
ENDBRANCH   4   5
ENDBRANCH   3   4
ENDBRANCH   2   3
ENDBRANCH   1   2
BRANCH   1  10
ATOM     10  C   UNL     1     -22.958  61.533  27.666  1.00  0.00     0.000 C 
BRANCH  10  11
ATOM     11  C   UNL     1     -21.449  61.691  27.894  1.00  0.00    -0.000 C 
BRANCH  11  12
ATOM     12  C   UNL     1     -20.979  60.840  29.079  1.00  0.00    -0.000 C 
BRANCH  12  13
ATOM     13  C   UNL     1     -20.235  61.698  30.112  1.00  0.00    -0.000 C 
BRANCH  13  14
ATOM     14  C   UNL     1     -21.188  62.482  31.028  1.00  0.00    -0.000 C 
BRANCH  14  15
ATOM     15  C   UNL     1     -21.232  61.921  32.457  1.00  0.00    -0.000 C 
BRANCH  15  16
ATOM     16  C   UNL     1     -22.611  61.328  32.771  1.00  0.00    -0.003 C 
ATOM     17  C   UNL     1     -22.714  59.885  32.282  1.00  0.00     0.004 C 
ENDBRANCH  15  16
ENDBRANCH  14  15
ENDBRANCH  13  14
ENDBRANCH  12  13
ENDBRANCH  11  12
ENDBRANCH  10  11
ENDBRANCH   1  10
TORSDOF 13
ENDMDL
MODEL 3
REMARK VINA RESULT:    -4.296      1.590      4.015
REMARK INTER + INTRA:         -10.099
REMARK INTER:                  -8.138
REMARK INTRA:                  -1.961
REMARK UNBOUND:                -2.539
REMARK SMILES CCCCCCCCCCCCCCC(=O)[O-]
REMARK SMILES IDX 9 1 10 2 11 3 12 4 13 5 14 6 15 7 16 8 17 9 8 10 7 11 6 12
REMARK SMILES IDX 5 13 4 14 3 15 2 16 1 17
REMARK H PARENT
REMARK Flexibility Score: inf
ROOT
ATOM      1  C   UNL     1     -22.466  60.982  32.200  1.00  0.00     0.000 C 
ENDROOT
BRANCH   1   2
ATOM      2  C   UNL     1     -21.981  61.583  33.530  1.00  0.00     0.000 C 
BRANCH   2   3
ATOM      3  C   UNL     1     -22.880  61.201  34.715  1.00  0.00     0.000 C 
BRANCH   3   4
ATOM      4  C   UNL     1     -24.083  60.373  34.246  1.00  0.00     0.000 C 
BRANCH   4   5
ATOM      5  C   UNL     1     -25.390  60.911  34.842  1.00  0.00     0.006 C 
BRANCH   5   6
ATOM      6  C   UNL     1     -26.602  60.402  34.057  1.00  0.00     0.053 C 
BRANCH   6   7
ATOM      7  C   UNL     1     -27.377  61.549  33.488  1.00  0.00     0.041 C 
ATOM      8  O   UNL     1     -27.671  61.569  32.264  1.00  0.00    -0.550 OA
ATOM      9  O   UNL     1     -27.735  62.617  34.301  1.00  0.00    -0.550 OA
ENDBRANCH   6   7
ENDBRANCH   5   6
ENDBRANCH   4   5
ENDBRANCH   3   4
ENDBRANCH   2   3
ENDBRANCH   1   2
BRANCH   1  10
ATOM     10  C   UNL     1     -22.732  62.051  31.130  1.00  0.00     0.000 C 
BRANCH  10  11
ATOM     11  C   UNL     1     -24.218  62.426  31.087  1.00  0.00    -0.000 C 
BRANCH  11  12
ATOM     12  C   UNL     1     -24.707  62.572  29.641  1.00  0.00    -0.000 C 
BRANCH  12  13
ATOM     13  C   UNL     1     -23.948  61.623  28.704  1.00  0.00    -0.000 C 
BRANCH  13  14
ATOM     14  C   UNL     1     -24.626  60.250  28.574  1.00  0.00    -0.000 C 
BRANCH  14  15
ATOM     15  C   UNL     1     -23.725  59.099  29.045  1.00  0.00    -0.000 C 
BRANCH  15  16
ATOM     16  C   UNL     1     -24.340  58.381  30.253  1.00  0.00    -0.003 C 
ATOM     17  C   UNL     1     -25.606  59.088  30.728  1.00  0.00     0.004 C 
ENDBRANCH  15  16
ENDBRANCH  14  15
ENDBRANCH  13  14
ENDBRANCH  12  13
ENDBRANCH  11  12
ENDBRANCH  10  11
ENDBRANCH   1  10
TORSDOF 13
ENDMDL
MODEL 4
REMARK VINA RESULT:    -4.224      1.331      2.979
REMARK INTER + INTRA:          -9.973
REMARK INTER:                  -7.621
REMARK INTRA:                  -2.352
REMARK UNBOUND:                -2.539
REMARK SMILES CCCCCCCCCCCCCCC(=O)[O-]
REMARK SMILES IDX 9 1 10 2 11 3 12 4 13 5 14 6 15 7 16 8 17 9 8 10 7 11 6 12
REMARK SMILES IDX 5 13 4 14 3 15 2 16 1 17
REMARK H PARENT
REMARK Flexibility Score: inf
ROOT
ATOM      1  C   UNL     1     -22.912  62.319  31.083  1.00  0.00     0.000 C 
ENDROOT
BRANCH   1   2
ATOM      2  C   UNL     1     -22.526  61.109  31.949  1.00  0.00     0.000 C 
BRANCH   2   3
ATOM      3  C   UNL     1     -23.440  60.939  33.171  1.00  0.00     0.000 C 
BRANCH   3   4
ATOM      4  C   UNL     1     -24.125  59.567  33.156  1.00  0.00     0.000 C 
BRANCH   4   5
ATOM      5  C   UNL     1     -25.651  59.712  33.140  1.00  0.00     0.006 C 
BRANCH   5   6
ATOM      6  C   UNL     1     -26.102  60.870  34.034  1.00  0.00     0.053 C 
BRANCH   6   7
ATOM      7  C   UNL     1     -27.240  61.609  33.402  1.00  0.00     0.041 C 
ATOM      8  O   UNL     1     -27.651  61.280  32.259  1.00  0.00    -0.550 OA
ATOM      9  O   UNL     1     -27.816  62.690  34.057  1.00  0.00    -0.550 OA
ENDBRANCH   6   7
ENDBRANCH   5   6
ENDBRANCH   4   5
ENDBRANCH   3   4
ENDBRANCH   2   3
ENDBRANCH   1   2
BRANCH   1  10
ATOM     10  C   UNL     1     -24.433  62.495  30.958  1.00  0.00     0.000 C 
BRANCH  10  11
ATOM     11  C   UNL     1     -24.918  62.100  29.558  1.00  0.00    -0.000 C 
BRANCH  11  12
ATOM     12  C   UNL     1     -25.379  60.638  29.527  1.00  0.00    -0.000 C 
BRANCH  12  13
ATOM     13  C   UNL     1     -24.589  59.833  28.485  1.00  0.00    -0.000 C 
BRANCH  13  14
ATOM     14  C   UNL     1     -23.380  59.103  29.091  1.00  0.00    -0.000 C 
BRANCH  14  15
ATOM     15  C   UNL     1     -22.063  59.449  28.382  1.00  0.00    -0.000 C 
BRANCH  15  16
ATOM     16  C   UNL     1     -22.161  60.807  27.677  1.00  0.00    -0.003 C 
ATOM     17  C   UNL     1     -20.974  61.699  28.031  1.00  0.00     0.004 C 
ENDBRANCH  15  16
ENDBRANCH  14  15
ENDBRANCH  13  14
ENDBRANCH  12  13
ENDBRANCH  11  12
ENDBRANCH  10  11
ENDBRANCH   1  10
TORSDOF 13
ENDMDL
MODEL 5
REMARK VINA RESULT:    -4.198      3.213      5.034
REMARK INTER + INTRA:          -9.927
REMARK INTER:                  -7.713
REMARK INTRA:                  -2.214
REMARK UNBOUND:                -2.539
REMARK SMILES CCCCCCCCCCCCCCC(=O)[O-]
REMARK SMILES IDX 9 1 10 2 11 3 12 4 13 5 14 6 15 7 16 8 17 9 8 10 7 11 6 12
REMARK SMILES IDX 5 13 4 14 3 15 2 16 1 17
REMARK H PARENT
REMARK Flexibility Score: inf
ROOT
ATOM      1  C   UNL     1     -26.659  60.635  31.830  1.00  0.00     0.000 C 
ENDROOT
BRANCH   1   2
ATOM      2  C   UNL     1     -25.783  61.012  30.626  1.00  0.00     0.000 C 
BRANCH   2   3
ATOM      3  C   UNL     1     -25.151  62.405  30.766  1.00  0.00     0.000 C 
BRANCH   3   4
ATOM      4  C   UNL     1     -23.865  62.509  29.936  1.00  0.00     0.000 C 
BRANCH   4   5
ATOM      5  C   UNL     1     -23.852  61.473  28.806  1.00  0.00     0.006 C 
BRANCH   5   6
ATOM      6  C   UNL     1     -22.523  60.715  28.770  1.00  0.00     0.053 C 
BRANCH   6   7
ATOM      7  C   UNL     1     -21.481  61.516  28.055  1.00  0.00     0.041 C 
ATOM      8  O   UNL     1     -21.738  62.034  26.937  1.00  0.00    -0.550 OA
ATOM      9  O   UNL     1     -20.212  61.653  28.603  1.00  0.00    -0.550 OA
ENDBRANCH   6   7
ENDBRANCH   5   6
ENDBRANCH   4   5
ENDBRANCH   3   4
ENDBRANCH   2   3
ENDBRANCH   1   2
BRANCH   1  10
ATOM     10  C   UNL     1     -27.120  61.860  32.634  1.00  0.00     0.000 C 
BRANCH  10  11
ATOM     11  C   UNL     1     -26.976  61.614  34.141  1.00  0.00    -0.000 C 
BRANCH  11  12
ATOM     12  C   UNL     1     -25.987  60.477  34.421  1.00  0.00    -0.000 C 
BRANCH  12  13
ATOM     13  C   UNL     1     -24.798  60.974  35.256  1.00  0.00    -0.000 C 
BRANCH  13  14
ATOM     14  C   UNL     1     -23.449  60.459  34.732  1.00  0.00    -0.000 C 
BRANCH  14  15
ATOM     15  C   UNL     1     -23.046  61.106  33.399  1.00  0.00    -0.000 C 
BRANCH  15  16
ATOM     16  C   UNL     1     -22.447  60.065  32.445  1.00  0.00    -0.003 C 
ATOM     17  C   UNL     1     -23.361  58.850  32.309  1.00  0.00     0.004 C 
ENDBRANCH  15  16
ENDBRANCH  14  15
ENDBRANCH  13  14
ENDBRANCH  12  13
ENDBRANCH  11  12
ENDBRANCH  10  11
ENDBRANCH   1  10
TORSDOF 13
ENDMDL
MODEL 6
REMARK VINA RESULT:    -4.169      2.931      5.311
REMARK INTER + INTRA:          -9.875
REMARK INTER:                  -7.351
REMARK INTRA:                  -2.525
REMARK UNBOUND:                -2.539
REMARK SMILES CCCCCCCCCCCCCCC(=O)[O-]
REMARK SMILES IDX 9 1 10 2 11 3 12 4 13 5 14 6 15 7 16 8 17 9 8 10 7 11 6 12
REMARK SMILES IDX 5 13 4 14 3 15 2 16 1 17
REMARK H PARENT
REMARK Flexibility Score: inf
ROOT
ATOM      1  C   UNL     1     -24.952  62.020  29.443  1.00  0.00     0.000 C 
ENDROOT
BRANCH   1   2
ATOM      2  C   UNL     1     -24.253  62.783  30.580  1.00  0.00     0.000 C 
BRANCH   2   3
ATOM      3  C   UNL     1     -22.809  62.316  30.808  1.00  0.00     0.000 C 
BRANCH   3   4
ATOM      4  C   UNL     1     -22.674  61.586  32.150  1.00  0.00     0.000 C 
BRANCH   4   5
ATOM      5  C   UNL     1     -21.654  60.445  32.058  1.00  0.00     0.006 C 
BRANCH   5   6
ATOM      6  C   UNL     1     -21.147  60.276  30.623  1.00  0.00     0.053 C 
BRANCH   6   7
ATOM      7  C   UNL     1     -19.766  60.837  30.486  1.00  0.00     0.041 C 
ATOM      8  O   UNL     1     -18.840  60.431  31.236  1.00  0.00    -0.550 OA
ATOM      9  O   UNL     1     -19.513  61.841  29.560  1.00  0.00    -0.550 OA
ENDBRANCH   6   7
ENDBRANCH   5   6
ENDBRANCH   4   5
ENDBRANCH   3   4
ENDBRANCH   2   3
ENDBRANCH   1   2
BRANCH   1  10
ATOM     10  C   UNL     1     -23.959  61.322  28.502  1.00  0.00     0.000 C 
BRANCH  10  11
ATOM     11  C   UNL     1     -24.204  59.808  28.469  1.00  0.00    -0.000 C 
BRANCH  11  12
ATOM     12  C   UNL     1     -25.207  59.390  29.550  1.00  0.00    -0.000 C 
BRANCH  12  13
ATOM     13  C   UNL     1     -24.536  58.503  30.609  1.00  0.00    -0.000 C 
BRANCH  13  14
ATOM     14  C   UNL     1     -25.031  58.802  32.033  1.00  0.00    -0.000 C 
BRANCH  14  15
ATOM     15  C   UNL     1     -26.330  59.620  32.048  1.00  0.00    -0.000 C 
BRANCH  15  16
ATOM     16  C   UNL     1     -26.259  60.742  33.091  1.00  0.00    -0.003 C 
ATOM     17  C   UNL     1     -27.102  61.943  32.667  1.00  0.00     0.004 C 
ENDBRANCH  15  16
ENDBRANCH  14  15
ENDBRANCH  13  14
ENDBRANCH  12  13
ENDBRANCH  11  12
ENDBRANCH  10  11
ENDBRANCH   1  10
TORSDOF 13
ENDMDL
MODEL 7
REMARK VINA RESULT:    -4.156      1.252      3.890
REMARK INTER + INTRA:          -9.852
REMARK INTER:                  -7.529
REMARK INTRA:                  -2.323
REMARK UNBOUND:                -2.539
REMARK SMILES CCCCCCCCCCCCCCC(=O)[O-]
REMARK SMILES IDX 9 1 10 2 11 3 12 4 13 5 14 6 15 7 16 8 17 9 8 10 7 11 6 12
REMARK SMILES IDX 5 13 4 14 3 15 2 16 1 17
REMARK H PARENT
REMARK Flexibility Score: inf
ROOT
ATOM      1  C   UNL     1     -20.705  61.334  30.529  1.00  0.00     0.000 C 
ENDROOT
BRANCH   1   2
ATOM      2  C   UNL     1     -21.558  62.373  31.274  1.00  0.00     0.000 C 
BRANCH   2   3
ATOM      3  C   UNL     1     -23.019  61.932  31.439  1.00  0.00     0.000 C 
BRANCH   3   4
ATOM      4  C   UNL     1     -23.965  62.877  30.689  1.00  0.00     0.000 C 
BRANCH   4   5
ATOM      5  C   UNL     1     -25.432  62.515  30.953  1.00  0.00     0.006 C 
BRANCH   5   6
ATOM      6  C   UNL     1     -25.548  61.487  32.082  1.00  0.00     0.053 C 
BRANCH   6   7
ATOM      7  C   UNL     1     -26.936  61.477  32.641  1.00  0.00     0.041 C 
ATOM      8  O   UNL     1     -27.737  60.556  32.331  1.00  0.00    -0.550 OA
ATOM      9  O   UNL     1     -27.360  62.509  33.467  1.00  0.00    -0.550 OA
ENDBRANCH   6   7
ENDBRANCH   5   6
ENDBRANCH   4   5
ENDBRANCH   3   4
ENDBRANCH   2   3
ENDBRANCH   1   2
BRANCH   1  10
ATOM     10  C   UNL     1     -20.615  61.613  29.022  1.00  0.00     0.000 C 
BRANCH  10  11
ATOM     11  C   UNL     1     -21.497  60.639  28.230  1.00  0.00    -0.000 C 
BRANCH  11  12
ATOM     12  C   UNL     1     -22.746  61.343  27.688  1.00  0.00    -0.000 C 
BRANCH  12  13
ATOM     13  C   UNL     1     -24.019  60.570  28.060  1.00  0.00    -0.000 C 
BRANCH  13  14
ATOM     14  C   UNL     1     -23.719  59.242  28.772  1.00  0.00    -0.000 C 
BRANCH  14  15
ATOM     15  C   UNL     1     -24.712  58.941  29.904  1.00  0.00    -0.000 C 
BRANCH  15  16
ATOM     16  C   UNL     1     -24.047  58.112  31.010  1.00  0.00    -0.003 C 
ATOM     17  C   UNL     1     -22.526  58.226  30.945  1.00  0.00     0.004 C 
ENDBRANCH  15  16
ENDBRANCH  14  15
ENDBRANCH  13  14
ENDBRANCH  12  13
ENDBRANCH  11  12
ENDBRANCH  10  11
ENDBRANCH   1  10
TORSDOF 13
ENDMDL
MODEL 8
REMARK VINA RESULT:    -4.152      1.776      3.820
REMARK INTER + INTRA:          -9.847
REMARK INTER:                  -7.549
REMARK INTRA:                  -2.297
REMARK UNBOUND:                -2.539
REMARK SMILES CCCCCCCCCCCCCCC(=O)[O-]
REMARK SMILES IDX 9 1 10 2 11 3 12 4 13 5 14 6 15 7 16 8 17 9 8 10 7 11 6 12
REMARK SMILES IDX 5 13 4 14 3 15 2 16 1 17
REMARK H PARENT
REMARK Flexibility Score: inf
ROOT
ATOM      1  C   UNL     1     -24.176  61.203  32.678  1.00  0.00     0.000 C 
ENDROOT
BRANCH   1   2
ATOM      2  C   UNL     1     -24.866  59.831  32.754  1.00  0.00     0.000 C 
BRANCH   2   3
ATOM      3  C   UNL     1     -26.352  59.894  32.370  1.00  0.00     0.000 C 
BRANCH   3   4
ATOM      4  C   UNL     1     -26.822  61.347  32.233  1.00  0.00     0.000 C 
BRANCH   4   5
ATOM      5  C   UNL     1     -28.125  61.581  33.007  1.00  0.00     0.006 C 
BRANCH   5   6
ATOM      6  C   UNL     1     -28.045  60.980  34.412  1.00  0.00     0.053 C 
BRANCH   6   7
ATOM      7  C   UNL     1     -27.253  61.869  35.319  1.00  0.00     0.041 C 
ATOM      8  O   UNL     1     -27.764  62.926  35.773  1.00  0.00    -0.550 OA
ATOM      9  O   UNL     1     -25.936  61.553  35.625  1.00  0.00    -0.550 OA
ENDBRANCH   6   7
ENDBRANCH   5   6
ENDBRANCH   4   5
ENDBRANCH   3   4
ENDBRANCH   2   3
ENDBRANCH   1   2
BRANCH   1  10
ATOM     10  C   UNL     1     -22.711  61.103  32.225  1.00  0.00     0.000 C 
BRANCH  10  11
ATOM     11  C   UNL     1     -22.456  61.982  30.995  1.00  0.00    -0.000 C 
BRANCH  11  12
ATOM     12  C   UNL     1     -23.775  62.481  30.392  1.00  0.00    -0.000 C 
BRANCH  12  13
ATOM     13  C   UNL     1     -23.999  61.891  28.992  1.00  0.00    -0.000 C 
BRANCH  13  14
ATOM     14  C   UNL     1     -25.117  60.837  28.966  1.00  0.00    -0.000 C 
BRANCH  14  15
ATOM     15  C   UNL     1     -24.629  59.469  28.467  1.00  0.00    -0.000 C 
BRANCH  15  16
ATOM     16  C   UNL     1     -23.817  58.749  29.551  1.00  0.00    -0.003 C 
ATOM     17  C   UNL     1     -22.365  58.560  29.118  1.00  0.00     0.004 C 
ENDBRANCH  15  16
ENDBRANCH  14  15
ENDBRANCH  13  14
ENDBRANCH  12  13
ENDBRANCH  11  12
ENDBRANCH  10  11
ENDBRANCH   1  10
TORSDOF 13
ENDMDL
MODEL 9
REMARK VINA RESULT:    -4.144      1.660      4.095
REMARK INTER + INTRA:          -9.831
REMARK INTER:                  -8.160
REMARK INTRA:                  -1.671
REMARK UNBOUND:                -2.539
REMARK SMILES CCCCCCCCCCCCCCC(=O)[O-]
REMARK SMILES IDX 9 1 10 2 11 3 12 4 13 5 14 6 15 7 16 8 17 9 8 10 7 11 6 12
REMARK SMILES IDX 5 13 4 14 3 15 2 16 1 17
REMARK H PARENT
REMARK Flexibility Score: inf
ROOT
ATOM      1  C   UNL     1     -21.101  62.473  31.363  1.00  0.00     0.000 C 
ENDROOT
BRANCH   1   2
ATOM      2  C   UNL     1     -21.514  62.010  32.769  1.00  0.00     0.000 C 
BRANCH   2   3
ATOM      3  C   UNL     1     -22.512  60.844  32.740  1.00  0.00     0.000 C 
BRANCH   3   4
ATOM      4  C   UNL     1     -23.280  60.747  34.064  1.00  0.00     0.000 C 
BRANCH   4   5
ATOM      5  C   UNL     1     -24.771  60.486  33.819  1.00  0.00     0.006 C 
BRANCH   5   6
ATOM      6  C   UNL     1     -25.623  61.059  34.954  1.00  0.00     0.053 C 
BRANCH   6   7
ATOM      7  C   UNL     1     -27.041  61.237  34.509  1.00  0.00     0.041 C 
ATOM      8  O   UNL     1     -27.943  60.475  34.946  1.00  0.00    -0.550 OA
ATOM      9  O   UNL     1     -27.358  62.215  33.575  1.00  0.00    -0.550 OA
ENDBRANCH   6   7
ENDBRANCH   5   6
ENDBRANCH   4   5
ENDBRANCH   3   4
ENDBRANCH   2   3
ENDBRANCH   1   2
BRANCH   1  10
ATOM     10  C   UNL     1     -20.234  61.439  30.630  1.00  0.00     0.000 C 
BRANCH  10  11
ATOM     11  C   UNL     1     -20.346  61.607  29.110  1.00  0.00    -0.000 C 
BRANCH  11  12
ATOM     12  C   UNL     1     -21.390  60.649  28.525  1.00  0.00    -0.000 C 
BRANCH  12  13
ATOM     13  C   UNL     1     -22.354  61.390  27.587  1.00  0.00    -0.000 C 
BRANCH  13  14
ATOM     14  C   UNL     1     -23.566  61.978  28.327  1.00  0.00    -0.000 C 
BRANCH  14  15
ATOM     15  C   UNL     1     -24.453  60.897  28.961  1.00  0.00    -0.000 C 
BRANCH  15  16
ATOM     16  C   UNL     1     -25.119  61.417  30.242  1.00  0.00    -0.003 C 
ATOM     17  C   UNL     1     -24.767  62.881  30.491  1.00  0.00     0.004 C 
ENDBRANCH  15  16
ENDBRANCH  14  15
ENDBRANCH  13  14
ENDBRANCH  12  13
ENDBRANCH  11  12
ENDBRANCH  10  11
ENDBRANCH   1  10
TORSDOF 13
ENDMDL
