MODEL 1
REMARK VINA RESULT:    -3.982      0.000      0.000
REMARK INTER + INTRA:          -3.982
REMARK INTER:                  -3.982
REMARK INTRA:                   0.000
REMARK UNBOUND:                 0.000
REMARK SMILES CC1=CC[C@H]2[C@H](C1)C2(C)C
REMARK SMILES IDX 1 1 2 2 3 3 4 4 5 5 6 6 7 7 8 8 9 9 10 10
REMARK H PARENT
REMARK Flexibility Score: inf
ROOT
ATOM      1  C   UNL     1      -0.285  12.256  18.629  1.00  0.00     0.039 C 
ATOM      2  C   UNL     1       0.298  13.277  17.695  1.00  0.00    -0.077 C 
ATOM      3  C   UNL     1       0.276  14.598  18.044  1.00  0.00    -0.028 C 
ATOM      4  C   UNL     1       0.875  15.681  17.150  1.00  0.00     0.031 C 
ATOM      5  C   UNL     1       1.916  15.017  16.241  1.00  0.00     0.003 C 
ATOM      6  C   UNL     1       1.016  14.008  15.433  1.00  0.00     0.003 C 
ATOM      7  C   UNL     1       0.966  12.815  16.395  1.00  0.00     0.034 C 
ATOM      8  C   UNL     1       2.098  14.817  14.752  1.00  0.00    -0.029 C 
ATOM      9  C   UNL     1       1.641  15.981  13.868  1.00  0.00     0.012 C 
ATOM     10  C   UNL     1       3.331  14.029  14.303  1.00  0.00     0.012 C 
ENDROOT
TORSDOF 0
ENDMDL
MODEL 2
REMARK VINA RESULT:    -3.969      1.833      2.691
REMARK INTER + INTRA:          -3.969
REMARK INTER:                  -3.969
REMARK INTRA:                   0.000
REMARK UNBOUND:                 0.000
REMARK SMILES CC1=CC[C@H]2[C@H](C1)C2(C)C
REMARK SMILES IDX 1 1 2 2 3 3 4 4 5 5 6 6 7 7 8 8 9 9 10 10
REMARK H PARENT
REMARK Flexibility Score: inf
ROOT
ATOM      1  C   UNL     1      -0.801  12.392  19.349  1.00  0.00     0.039 C 
ATOM      2  C   UNL     1      -0.171  13.436  18.474  1.00  0.00    -0.077 C 
ATOM      3  C   UNL     1       1.107  13.256  18.026  1.00  0.00    -0.028 C 
ATOM      4  C   UNL     1       1.795  14.268  17.113  1.00  0.00     0.031 C 
ATOM      5  C   UNL     1       0.703  15.069  16.392  1.00  0.00     0.003 C 
ATOM      6  C   UNL     1      -0.021  15.759  17.608  1.00  0.00     0.003 C 
ATOM      7  C   UNL     1      -0.994  14.656  18.043  1.00  0.00     0.034 C 
ATOM      8  C   UNL     1       0.270  16.517  16.332  1.00  0.00    -0.029 C 
ATOM      9  C   UNL     1       1.401  17.548  16.380  1.00  0.00     0.012 C 
ATOM     10  C   UNL     1      -0.947  16.841  15.462  1.00  0.00     0.012 C 
ENDROOT
TORSDOF 0
ENDMDL
MODEL 3
REMARK VINA RESULT:    -3.960      1.536      3.546
REMARK INTER + INTRA:          -3.960
REMARK INTER:                  -3.960
REMARK INTRA:                   0.000
REMARK UNBOUND:                 0.000
REMARK SMILES CC1=CC[C@H]2[C@H](C1)C2(C)C
REMARK SMILES IDX 1 1 2 2 3 3 4 4 5 5 6 6 7 7 8 8 9 9 10 10
REMARK H PARENT
REMARK Flexibility Score: inf
ROOT
ATOM      1  C   UNL     1       0.705  11.086  13.768  1.00  0.00     0.039 C 
ATOM      2  C   UNL     1       1.118  12.241  14.635  1.00  0.00    -0.077 C 
ATOM      3  C   UNL     1       2.181  13.013  14.264  1.00  0.00    -0.028 C 
ATOM      4  C   UNL     1       2.634  14.216  15.089  1.00  0.00     0.031 C 
ATOM      5  C   UNL     1       1.440  14.688  15.927  1.00  0.00     0.003 C 
ATOM      6  C   UNL     1       1.174  13.419  16.820  1.00  0.00     0.003 C 
ATOM      7  C   UNL     1       0.298  12.574  15.887  1.00  0.00     0.034 C 
ATOM      8  C   UNL     1       1.121  14.815  17.400  1.00  0.00    -0.029 C 
ATOM      9  C   UNL     1       2.288  15.239  18.296  1.00  0.00     0.012 C 
ATOM     10  C   UNL     1      -0.274  15.327  17.766  1.00  0.00     0.012 C 
ENDROOT
TORSDOF 0
ENDMDL
MODEL 4
REMARK VINA RESULT:    -3.931      1.968      3.961
REMARK INTER + INTRA:          -3.931
REMARK INTER:                  -3.931
REMARK INTRA:                   0.000
REMARK UNBOUND:                 0.000
REMARK SMILES CC1=CC[C@H]2[C@H](C1)C2(C)C
REMARK SMILES IDX 1 1 2 2 3 3 4 4 5 5 6 6 7 7 8 8 9 9 10 10
REMARK H PARENT
REMARK Flexibility Score: inf
ROOT
ATOM      1  C   UNL     1      -0.644  18.507  13.720  1.00  0.00     0.039 C 
ATOM      2  C   UNL     1      -0.236  17.446  14.700  1.00  0.00    -0.077 C 
ATOM      3  C   UNL     1      -1.125  17.029  15.649  1.00  0.00    -0.028 C 
ATOM      4  C   UNL     1      -0.779  15.936  16.658  1.00  0.00     0.031 C 
ATOM      5  C   UNL     1       0.351  15.088  16.063  1.00  0.00     0.003 C 
ATOM      6  C   UNL     1       1.498  16.158  15.928  1.00  0.00     0.003 C 
ATOM      7  C   UNL     1       1.150  16.801  14.579  1.00  0.00     0.034 C 
ATOM      8  C   UNL     1       1.782  14.760  16.430  1.00  0.00    -0.029 C 
ATOM      9  C   UNL     1       2.060  14.604  17.928  1.00  0.00     0.012 C 
ATOM     10  C   UNL     1       2.556  13.856  15.468  1.00  0.00     0.012 C 
ENDROOT
TORSDOF 0
ENDMDL
MODEL 5
REMARK VINA RESULT:    -3.929      1.694      3.106
REMARK INTER + INTRA:          -3.929
REMARK INTER:                  -3.929
REMARK INTRA:                   0.000
REMARK UNBOUND:                 0.000
REMARK SMILES CC1=CC[C@H]2[C@H](C1)C2(C)C
REMARK SMILES IDX 1 1 2 2 3 3 4 4 5 5 6 6 7 7 8 8 9 9 10 10
REMARK H PARENT
REMARK Flexibility Score: inf
ROOT
ATOM      1  C   UNL     1       1.492  13.880  18.386  1.00  0.00     0.039 C 
ATOM      2  C   UNL     1       1.455  14.708  17.134  1.00  0.00    -0.077 C 
ATOM      3  C   UNL     1       2.026  14.226  15.991  1.00  0.00    -0.028 C 
ATOM      4  C   UNL     1       1.999  15.009  14.680  1.00  0.00     0.031 C 
ATOM      5  C   UNL     1       0.821  15.988  14.742  1.00  0.00     0.003 C 
ATOM      6  C   UNL     1       1.237  16.889  15.965  1.00  0.00     0.003 C 
ATOM      7  C   UNL     1       0.719  16.054  17.142  1.00  0.00     0.034 C 
ATOM      8  C   UNL     1       0.646  17.491  14.709  1.00  0.00    -0.029 C 
ATOM      9  C   UNL     1       1.604  18.248  13.785  1.00  0.00     0.012 C 
ATOM     10  C   UNL     1      -0.782  18.026  14.840  1.00  0.00     0.012 C 
ENDROOT
TORSDOF 0
ENDMDL
MODEL 6
REMARK VINA RESULT:    -3.907      1.830      3.945
REMARK INTER + INTRA:          -3.907
REMARK INTER:                  -3.907
REMARK INTRA:                   0.000
REMARK UNBOUND:                 0.000
REMARK SMILES CC1=CC[C@H]2[C@H](C1)C2(C)C
REMARK SMILES IDX 1 1 2 2 3 3 4 4 5 5 6 6 7 7 8 8 9 9 10 10
REMARK H PARENT
REMARK Flexibility Score: inf
ROOT
ATOM      1  C   UNL     1       4.036  13.863  13.160  1.00  0.00     0.039 C 
ATOM      2  C   UNL     1       2.996  14.361  14.121  1.00  0.00    -0.077 C 
ATOM      3  C   UNL     1       2.904  13.802  15.364  1.00  0.00    -0.028 C 
ATOM      4  C   UNL     1       1.884  14.283  16.394  1.00  0.00     0.031 C 
ATOM      5  C   UNL     1       1.494  15.721  16.034  1.00  0.00     0.003 C 
ATOM      6  C   UNL     1       0.851  15.515  14.611  1.00  0.00     0.003 C 
ATOM      7  C   UNL     1       2.095  15.535  13.715  1.00  0.00     0.034 C 
ATOM      8  C   UNL     1       0.225  16.440  15.630  1.00  0.00    -0.029 C 
ATOM      9  C   UNL     1      -1.056  15.955  16.314  1.00  0.00     0.012 C 
ATOM     10  C   UNL     1       0.342  17.936  15.327  1.00  0.00     0.012 C 
ENDROOT
TORSDOF 0
ENDMDL
MODEL 7
REMARK VINA RESULT:    -3.904      1.292      3.753
REMARK INTER + INTRA:          -3.904
REMARK INTER:                  -3.904
REMARK INTRA:                   0.000
REMARK UNBOUND:                 0.000
REMARK SMILES CC1=CC[C@H]2[C@H](C1)C2(C)C
REMARK SMILES IDX 1 1 2 2 3 3 4 4 5 5 6 6 7 7 8 8 9 9 10 10
REMARK H PARENT
REMARK Flexibility Score: inf
ROOT
ATOM      1  C   UNL     1       2.888  13.139  13.079  1.00  0.00     0.039 C 
ATOM      2  C   UNL     1       2.180  13.511  14.349  1.00  0.00    -0.077 C 
ATOM      3  C   UNL     1       1.626  12.532  15.123  1.00  0.00    -0.028 C 
ATOM      4  C   UNL     1       0.915  12.844  16.438  1.00  0.00     0.031 C 
ATOM      5  C   UNL     1       1.441  14.191  16.948  1.00  0.00     0.003 C 
ATOM      6  C   UNL     1       0.993  15.154  15.786  1.00  0.00     0.003 C 
ATOM      7  C   UNL     1       2.147  14.980  14.791  1.00  0.00     0.034 C 
ATOM      8  C   UNL     1       0.854  15.555  17.237  1.00  0.00    -0.029 C 
ATOM      9  C   UNL     1      -0.560  15.555  17.825  1.00  0.00     0.012 C 
ATOM     10  C   UNL     1       1.821  16.639  17.720  1.00  0.00     0.012 C 
ENDROOT
TORSDOF 0
ENDMDL
MODEL 8
REMARK VINA RESULT:    -3.873      1.741      2.408
REMARK INTER + INTRA:          -3.873
REMARK INTER:                  -3.873
REMARK INTRA:                   0.000
REMARK UNBOUND:                 0.000
REMARK SMILES CC1=CC[C@H]2[C@H](C1)C2(C)C
REMARK SMILES IDX 1 1 2 2 3 3 4 4 5 5 6 6 7 7 8 8 9 9 10 10
REMARK H PARENT
REMARK Flexibility Score: inf
ROOT
ATOM      1  C   UNL     1       0.174  12.207  18.676  1.00  0.00     0.039 C 
ATOM      2  C   UNL     1       0.147  13.520  17.948  1.00  0.00    -0.077 C 
ATOM      3  C   UNL     1      -1.026  13.967  17.411  1.00  0.00    -0.028 C 
ATOM      4  C   UNL     1      -1.123  15.305  16.681  1.00  0.00     0.031 C 
ATOM      5  C   UNL     1       0.028  16.192  17.169  1.00  0.00     0.003 C 
ATOM      6  C   UNL     1       1.277  15.352  16.708  1.00  0.00     0.003 C 
ATOM      7  C   UNL     1       1.423  14.368  17.875  1.00  0.00     0.034 C 
ATOM      8  C   UNL     1       1.236  16.855  16.546  1.00  0.00    -0.029 C 
ATOM      9  C   UNL     1       1.037  17.395  15.127  1.00  0.00     0.012 C 
ATOM     10  C   UNL     1       2.154  17.646  17.481  1.00  0.00     0.012 C 
ENDROOT
TORSDOF 0
ENDMDL
MODEL 9
REMARK VINA RESULT:    -3.750      1.023      3.981
REMARK INTER + INTRA:          -3.750
REMARK INTER:                  -3.750
REMARK INTRA:                   0.000
REMARK UNBOUND:                 0.000
REMARK SMILES CC1=CC[C@H]2[C@H](C1)C2(C)C
REMARK SMILES IDX 1 1 2 2 3 3 4 4 5 5 6 6 7 7 8 8 9 9 10 10
REMARK H PARENT
REMARK Flexibility Score: inf
ROOT
ATOM      1  C   UNL     1       4.153  13.888  13.239  1.00  0.00     0.039 C 
ATOM      2  C   UNL     1       2.995  14.316  14.092  1.00  0.00    -0.077 C 
ATOM      3  C   UNL     1       2.217  15.366  13.693  1.00  0.00    -0.028 C 
ATOM      4  C   UNL     1       1.010  15.833  14.504  1.00  0.00     0.031 C 
ATOM      5  C   UNL     1       0.544  14.658  15.372  1.00  0.00     0.003 C 
ATOM      6  C   UNL     1       1.813  14.423  16.274  1.00  0.00     0.003 C 
ATOM      7  C   UNL     1       2.664  13.528  15.366  1.00  0.00     0.034 C 
ATOM      8  C   UNL     1       0.416  14.377  16.853  1.00  0.00    -0.029 C 
ATOM      9  C   UNL     1      -0.016  15.565  17.717  1.00  0.00     0.012 C 
ATOM     10  C   UNL     1      -0.089  12.989  17.255  1.00  0.00     0.012 C 
ENDROOT
TORSDOF 0
ENDMDL
