MODEL 1
REMARK VINA RESULT:    -4.149      0.000      0.000
REMARK INTER + INTRA:          -6.178
REMARK INTER:                  -5.847
REMARK INTRA:                  -0.331
REMARK UNBOUND:                -0.331
REMARK SMILES CCCCCCCCC(=O)[O-]
REMARK SMILES IDX 6 1 7 2 8 3 9 4 10 5 11 6 5 7 4 8 3 9 2 10 1 11
REMARK H PARENT
REMARK Flexibility Score: inf
ROOT
ATOM      1  C   UNL     1       8.278   8.633  80.411  1.00  0.00     0.000 C 
ENDROOT
BRANCH   1   2
ATOM      2  C   UNL     1       8.198   7.739  79.161  1.00  0.00     0.006 C 
BRANCH   2   3
ATOM      3  C   UNL     1       9.352   6.731  79.092  1.00  0.00     0.053 C 
BRANCH   3   4
ATOM      4  C   UNL     1       8.948   5.388  79.615  1.00  0.00     0.041 C 
ATOM      5  O   UNL     1       9.808   4.482  79.774  1.00  0.00    -0.550 OA
ATOM      6  O   UNL     1       7.613   5.124  79.895  1.00  0.00    -0.550 OA
ENDBRANCH   3   4
ENDBRANCH   2   3
ENDBRANCH   1   2
BRANCH   1   7
ATOM      7  C   UNL     1       6.914   9.264  80.765  1.00  0.00     0.000 C 
BRANCH   7   8
ATOM      8  C   UNL     1       5.965   8.305  81.504  1.00  0.00    -0.000 C 
BRANCH   8   9
ATOM      9  C   UNL     1       4.831   9.034  82.238  1.00  0.00    -0.000 C 
BRANCH   9  10
ATOM     10  C   UNL     1       5.023  10.553  82.174  1.00  0.00    -0.003 C 
ATOM     11  C   UNL     1       4.918  11.180  83.562  1.00  0.00     0.004 C 
ENDBRANCH   9  10
ENDBRANCH   8   9
ENDBRANCH   7   8
ENDBRANCH   1   7
TORSDOF 7
ENDMDL
MODEL 2
REMARK VINA RESULT:    -4.013      3.882      6.319
REMARK INTER + INTRA:          -5.987
REMARK INTER:                  -5.696
REMARK INTRA:                  -0.291
REMARK UNBOUND:                -0.331
REMARK SMILES CCCCCCCCC(=O)[O-]
REMARK SMILES IDX 6 1 7 2 8 3 9 4 10 5 11 6 5 7 4 8 3 9 2 10 1 11
REMARK H PARENT
REMARK Flexibility Score: inf
ROOT
ATOM      1  C   UNL     1       5.268   8.434  82.022  1.00  0.00     0.000 C 
ENDROOT
BRANCH   1   2
ATOM      2  C   UNL     1       4.575   9.776  82.319  1.00  0.00     0.006 C 
BRANCH   2   3
ATOM      3  C   UNL     1       5.177  10.932  81.510  1.00  0.00     0.053 C 
BRANCH   3   4
ATOM      4  C   UNL     1       4.116  11.778  80.878  1.00  0.00     0.041 C 
ATOM      5  O   UNL     1       2.967  11.843  81.389  1.00  0.00    -0.550 OA
ATOM      6  O   UNL     1       4.386  12.471  79.705  1.00  0.00    -0.550 OA
ENDBRANCH   3   4
ENDBRANCH   2   3
ENDBRANCH   1   2
BRANCH   1   7
ATOM      7  C   UNL     1       6.671   8.626  81.407  1.00  0.00     0.000 C 
BRANCH   7   8
ATOM      8  C   UNL     1       7.052   7.539  80.389  1.00  0.00    -0.000 C 
BRANCH   8   9
ATOM      9  C   UNL     1       8.277   7.914  79.544  1.00  0.00    -0.000 C 
BRANCH   9  10
ATOM     10  C   UNL     1       9.082   6.667  79.160  1.00  0.00    -0.003 C 
ATOM     11  C   UNL     1       8.427   5.400  79.703  1.00  0.00     0.004 C 
ENDBRANCH   9  10
ENDBRANCH   8   9
ENDBRANCH   7   8
ENDBRANCH   1   7
TORSDOF 7
ENDMDL
MODEL 3
REMARK VINA RESULT:    -3.996      3.338      6.027
REMARK INTER + INTRA:          -5.962
REMARK INTER:                  -5.589
REMARK INTRA:                  -0.373
REMARK UNBOUND:                -0.331
REMARK SMILES CCCCCCCCC(=O)[O-]
REMARK SMILES IDX 6 1 7 2 8 3 9 4 10 5 11 6 5 7 4 8 3 9 2 10 1 11
REMARK H PARENT
REMARK Flexibility Score: inf
ROOT
ATOM      1  C   UNL     1       7.258   8.667  81.466  1.00  0.00     0.000 C 
ENDROOT
BRANCH   1   2
ATOM      2  C   UNL     1       5.732   8.734  81.654  1.00  0.00     0.006 C 
BRANCH   2   3
ATOM      3  C   UNL     1       5.291  10.014  82.376  1.00  0.00     0.053 C 
BRANCH   3   4
ATOM      4  C   UNL     1       4.803  11.053  81.414  1.00  0.00     0.041 C 
ATOM      5  O   UNL     1       5.583  11.537  80.552  1.00  0.00    -0.550 OA
ATOM      6  O   UNL     1       3.495  11.512  81.491  1.00  0.00    -0.550 OA
ENDBRANCH   3   4
ENDBRANCH   2   3
ENDBRANCH   1   2
BRANCH   1   7
ATOM      7  C   UNL     1       7.657   8.526  79.981  1.00  0.00     0.000 C 
BRANCH   7   8
ATOM      8  C   UNL     1       9.169   8.660  79.734  1.00  0.00    -0.000 C 
BRANCH   8   9
ATOM      9  C   UNL     1       9.811   7.357  79.237  1.00  0.00    -0.000 C 
BRANCH   9  10
ATOM     10  C   UNL     1       8.754   6.265  79.036  1.00  0.00    -0.003 C 
ATOM     11  C   UNL     1       9.155   4.974  79.745  1.00  0.00     0.004 C 
ENDBRANCH   9  10
ENDBRANCH   8   9
ENDBRANCH   7   8
ENDBRANCH   1   7
TORSDOF 7
ENDMDL
MODEL 4
REMARK VINA RESULT:    -3.979      3.671      6.023
REMARK INTER + INTRA:          -5.938
REMARK INTER:                  -5.644
REMARK INTRA:                  -0.294
REMARK UNBOUND:                -0.331
REMARK SMILES CCCCCCCCC(=O)[O-]
REMARK SMILES IDX 6 1 7 2 8 3 9 4 10 5 11 6 5 7 4 8 3 9 2 10 1 11
REMARK H PARENT
REMARK Flexibility Score: inf
ROOT
ATOM      1  C   UNL     1       6.719   8.470  81.401  1.00  0.00     0.000 C 
ENDROOT
BRANCH   1   2
ATOM      2  C   UNL     1       5.362   8.754  82.070  1.00  0.00     0.006 C 
BRANCH   2   3
ATOM      3  C   UNL     1       4.941  10.223  81.928  1.00  0.00     0.053 C 
BRANCH   3   4
ATOM      4  C   UNL     1       3.633  10.493  82.606  1.00  0.00     0.041 C 
ATOM      5  O   UNL     1       3.374  11.641  83.053  1.00  0.00    -0.550 OA
ATOM      6  O   UNL     1       2.713   9.466  82.775  1.00  0.00    -0.550 OA
ENDBRANCH   3   4
ENDBRANCH   2   3
ENDBRANCH   1   2
BRANCH   1   7
ATOM      7  C   UNL     1       6.606   7.415  80.279  1.00  0.00     0.000 C 
BRANCH   7   8
ATOM      8  C   UNL     1       7.931   6.699  79.971  1.00  0.00    -0.000 C 
BRANCH   8   9
ATOM      9  C   UNL     1       8.781   7.437  78.927  1.00  0.00    -0.000 C 
BRANCH   9  10
ATOM     10  C   UNL     1      10.056   8.007  79.560  1.00  0.00    -0.003 C 
ATOM     11  C   UNL     1       9.864   9.466  79.964  1.00  0.00     0.004 C 
ENDBRANCH   9  10
ENDBRANCH   8   9
ENDBRANCH   7   8
ENDBRANCH   1   7
TORSDOF 7
ENDMDL
MODEL 5
REMARK VINA RESULT:    -3.971      1.939      2.378
REMARK INTER + INTRA:          -5.927
REMARK INTER:                  -5.601
REMARK INTRA:                  -0.326
REMARK UNBOUND:                -0.331
REMARK SMILES CCCCCCCCC(=O)[O-]
REMARK SMILES IDX 6 1 7 2 8 3 9 4 10 5 11 6 5 7 4 8 3 9 2 10 1 11
REMARK H PARENT
REMARK Flexibility Score: inf
ROOT
ATOM      1  C   UNL     1       6.341   7.584  80.544  1.00  0.00     0.000 C 
ENDROOT
BRANCH   1   2
ATOM      2  C   UNL     1       7.591   6.827  80.060  1.00  0.00     0.006 C 
BRANCH   2   3
ATOM      3  C   UNL     1       8.368   7.611  78.995  1.00  0.00     0.053 C 
BRANCH   3   4
ATOM      4  C   UNL     1       9.765   7.917  79.441  1.00  0.00     0.041 C 
ATOM      5  O   UNL     1      10.012   8.975  80.076  1.00  0.00    -0.550 OA
ATOM      6  O   UNL     1      10.801   7.048  79.124  1.00  0.00    -0.550 OA
ENDBRANCH   3   4
ENDBRANCH   2   3
ENDBRANCH   1   2
BRANCH   1   7
ATOM      7  C   UNL     1       6.685   8.665  81.592  1.00  0.00     0.000 C 
BRANCH   7   8
ATOM      8  C   UNL     1       5.458   9.433  82.110  1.00  0.00    -0.000 C 
BRANCH   8   9
ATOM      9  C   UNL     1       4.298   8.510  82.507  1.00  0.00    -0.000 C 
BRANCH   9  10
ATOM     10  C   UNL     1       3.118   9.317  83.061  1.00  0.00    -0.003 C 
ATOM     11  C   UNL     1       3.601  10.569  83.788  1.00  0.00     0.004 C 
ENDBRANCH   9  10
ENDBRANCH   8   9
ENDBRANCH   7   8
ENDBRANCH   1   7
TORSDOF 7
ENDMDL
MODEL 6
REMARK VINA RESULT:    -3.928      1.819      2.816
REMARK INTER + INTRA:          -5.867
REMARK INTER:                  -5.404
REMARK INTRA:                  -0.462
REMARK UNBOUND:                -0.331
REMARK SMILES CCCCCCCCC(=O)[O-]
REMARK SMILES IDX 6 1 7 2 8 3 9 4 10 5 11 6 5 7 4 8 3 9 2 10 1 11
REMARK H PARENT
REMARK Flexibility Score: inf
ROOT
ATOM      1  C   UNL     1       5.552   8.617  81.834  1.00  0.00     0.000 C 
ENDROOT
BRANCH   1   2
ATOM      2  C   UNL     1       6.869   8.412  81.065  1.00  0.00     0.006 C 
BRANCH   2   3
ATOM      3  C   UNL     1       6.809   7.204  80.122  1.00  0.00     0.053 C 
BRANCH   3   4
ATOM      4  C   UNL     1       8.174   6.783  79.672  1.00  0.00     0.041 C 
ATOM      5  O   UNL     1       8.960   7.622  79.158  1.00  0.00    -0.550 OA
ATOM      6  O   UNL     1       8.566   5.456  79.789  1.00  0.00    -0.550 OA
ENDBRANCH   3   4
ENDBRANCH   2   3
ENDBRANCH   1   2
BRANCH   1   7
ATOM      7  C   UNL     1       5.437  10.040  82.425  1.00  0.00     0.000 C 
BRANCH   7   8
ATOM      8  C   UNL     1       4.070  10.700  82.180  1.00  0.00    -0.000 C 
BRANCH   8   9
ATOM      9  C   UNL     1       4.087  11.694  81.011  1.00  0.00    -0.000 C 
BRANCH   9  10
ATOM     10  C   UNL     1       5.507  12.204  80.743  1.00  0.00    -0.003 C 
ATOM     11  C   UNL     1       5.866  12.082  79.265  1.00  0.00     0.004 C 
ENDBRANCH   9  10
ENDBRANCH   8   9
ENDBRANCH   7   8
ENDBRANCH   1   7
TORSDOF 7
ENDMDL
MODEL 7
REMARK VINA RESULT:    -3.893      1.806      2.506
REMARK INTER + INTRA:          -5.817
REMARK INTER:                  -5.511
REMARK INTRA:                  -0.305
REMARK UNBOUND:                -0.331
REMARK SMILES CCCCCCCCC(=O)[O-]
REMARK SMILES IDX 6 1 7 2 8 3 9 4 10 5 11 6 5 7 4 8 3 9 2 10 1 11
REMARK H PARENT
REMARK Flexibility Score: inf
ROOT
ATOM      1  C   UNL     1       5.720   8.587  81.814  1.00  0.00     0.000 C 
ENDROOT
BRANCH   1   2
ATOM      2  C   UNL     1       7.018   8.335  81.026  1.00  0.00     0.006 C 
BRANCH   2   3
ATOM      3  C   UNL     1       6.929   7.084  80.144  1.00  0.00     0.053 C 
BRANCH   3   4
ATOM      4  C   UNL     1       8.273   6.670  79.630  1.00  0.00     0.041 C 
ATOM      5  O   UNL     1       8.623   5.461  79.668  1.00  0.00    -0.550 OA
ATOM      6  O   UNL     1       9.155   7.625  79.141  1.00  0.00    -0.550 OA
ENDBRANCH   3   4
ENDBRANCH   2   3
ENDBRANCH   1   2
BRANCH   1   7
ATOM      7  C   UNL     1       5.329  10.081  81.828  1.00  0.00     0.000 C 
BRANCH   7   8
ATOM      8  C   UNL     1       3.983  10.358  82.519  1.00  0.00    -0.000 C 
BRANCH   8   9
ATOM      9  C   UNL     1       3.257   9.077  82.950  1.00  0.00    -0.000 C 
BRANCH   9  10
ATOM     10  C   UNL     1       2.579   9.261  84.313  1.00  0.00    -0.003 C 
ATOM     11  C   UNL     1       3.137  10.479  85.044  1.00  0.00     0.004 C 
ENDBRANCH   9  10
ENDBRANCH   8   9
ENDBRANCH   7   8
ENDBRANCH   1   7
TORSDOF 7
ENDMDL
MODEL 8
REMARK VINA RESULT:    -3.869      7.460      8.369
REMARK INTER + INTRA:          -5.783
REMARK INTER:                  -5.571
REMARK INTRA:                  -0.212
REMARK UNBOUND:                -0.331
REMARK SMILES CCCCCCCCC(=O)[O-]
REMARK SMILES IDX 6 1 7 2 8 3 9 4 10 5 11 6 5 7 4 8 3 9 2 10 1 11
REMARK H PARENT
REMARK Flexibility Score: inf
ROOT
ATOM      1  C   UNL     1       3.021   6.218  85.262  1.00  0.00     0.000 C 
ENDROOT
BRANCH   1   2
ATOM      2  C   UNL     1       2.170   5.177  86.011  1.00  0.00     0.006 C 
BRANCH   2   3
ATOM      3  C   UNL     1       2.950   3.889  86.302  1.00  0.00     0.053 C 
BRANCH   3   4
ATOM      4  C   UNL     1       2.345   3.118  87.434  1.00  0.00     0.041 C 
ATOM      5  O   UNL     1       2.963   2.146  87.942  1.00  0.00    -0.550 OA
ATOM      6  O   UNL     1       1.083   3.453  87.907  1.00  0.00    -0.550 OA
ENDBRANCH   3   4
ENDBRANCH   2   3
ENDBRANCH   1   2
BRANCH   1   7
ATOM      7  C   UNL     1       2.405   7.632  85.330  1.00  0.00     0.000 C 
BRANCH   7   8
ATOM      8  C   UNL     1       2.581   8.316  86.697  1.00  0.00    -0.000 C 
BRANCH   8   9
ATOM      9  C   UNL     1       2.826   9.826  86.583  1.00  0.00    -0.000 C 
BRANCH   9  10
ATOM     10  C   UNL     1       2.095  10.587  87.695  1.00  0.00    -0.003 C 
ATOM     11  C   UNL     1       2.166   9.830  89.018  1.00  0.00     0.004 C 
ENDBRANCH   9  10
ENDBRANCH   8   9
ENDBRANCH   7   8
ENDBRANCH   1   7
TORSDOF 7
ENDMDL
MODEL 9
REMARK VINA RESULT:    -3.791      4.216      6.734
REMARK INTER + INTRA:          -5.673
REMARK INTER:                  -5.488
REMARK INTRA:                  -0.185
REMARK UNBOUND:                -0.331
REMARK SMILES CCCCCCCCC(=O)[O-]
REMARK SMILES IDX 6 1 7 2 8 3 9 4 10 5 11 6 5 7 4 8 3 9 2 10 1 11
REMARK H PARENT
REMARK Flexibility Score: inf
ROOT
ATOM      1  C   UNL     1       5.247  10.171  81.875  1.00  0.00     0.000 C 
ENDROOT
BRANCH   1   2
ATOM      2  C   UNL     1       4.236  10.358  83.020  1.00  0.00     0.006 C 
BRANCH   2   3
ATOM      3  C   UNL     1       3.135   9.290  83.003  1.00  0.00     0.053 C 
BRANCH   3   4
ATOM      4  C   UNL     1       1.778   9.895  82.821  1.00  0.00     0.041 C 
ATOM      5  O   UNL     1       0.793   9.453  83.468  1.00  0.00    -0.550 OA
ATOM      6  O   UNL     1       1.594  10.927  81.909  1.00  0.00    -0.550 OA
ENDBRANCH   3   4
ENDBRANCH   2   3
ENDBRANCH   1   2
BRANCH   1   7
ATOM      7  C   UNL     1       5.886   8.765  81.886  1.00  0.00     0.000 C 
BRANCH   7   8
ATOM      8  C   UNL     1       7.011   8.591  80.852  1.00  0.00    -0.000 C 
BRANCH   8   9
ATOM      9  C   UNL     1       7.040   7.188  80.231  1.00  0.00    -0.000 C 
BRANCH   9  10
ATOM     10  C   UNL     1       8.422   6.875  79.646  1.00  0.00    -0.003 C 
ATOM     11  C   UNL     1       8.667   5.370  79.588  1.00  0.00     0.004 C 
ENDBRANCH   9  10
ENDBRANCH   8   9
ENDBRANCH   7   8
ENDBRANCH   1   7
TORSDOF 7
ENDMDL
