MODEL 1
REMARK VINA RESULT:    49.994      0.000      0.000
REMARK INTER + INTRA:          54.378
REMARK INTER:                  54.378
REMARK INTRA:                   0.000
REMARK UNBOUND:                 0.000
REMARK SMILES Cc1cc(O)c2c(c1)C(=O)c1cc(O)cc(O)c1C2=O
REMARK SMILES IDX 1 1 2 2 8 3 7 4 6 5 4 6 3 7 19 8 20 9 18 10 11 11 9 12 10 13
REMARK SMILES IDX 12 14 13 15 15 16 16 17 5 18 17 20 14 22
REMARK H PARENT 5 19 17 21 14 23
REMARK Flexibility Score: inf
ROOT
ATOM      1  C   UNL     1     -15.642   6.236  -9.243  1.00  0.00     0.044 C 
ATOM      2  C   UNL     1     -15.858   7.693  -8.951  1.00  0.00    -0.047 A 
ATOM      3  C   UNL     1     -16.338   8.546  -9.951  1.00  0.00     0.016 A 
ATOM      4  C   UNL     1     -16.516   9.916  -9.697  1.00  0.00     0.038 A 
ATOM      5  C   UNL     1     -16.208  10.441  -8.422  1.00  0.00     0.076 A 
ATOM      6  C   UNL     1     -15.642   9.587  -7.440  1.00  0.00     0.127 A 
ATOM      7  C   UNL     1     -15.493   8.223  -7.710  1.00  0.00     0.050 A 
ATOM      8  C   UNL     1     -16.549  11.861  -8.145  1.00  0.00     0.201 C 
ATOM      9  O   UNL     1     -16.841  12.218  -6.973  1.00  0.00    -0.288 OA
ATOM     10  C   UNL     1     -16.726  12.810  -9.274  1.00  0.00     0.076 A 
ATOM     11  C   UNL     1     -17.031  12.282 -10.549  1.00  0.00     0.041 A 
ATOM     12  C   UNL     1     -17.019  10.815 -10.763  1.00  0.00     0.194 C 
ATOM     13  O   UNL     1     -17.412  10.334 -11.861  1.00  0.00    -0.289 OA
ATOM     14  C   UNL     1     -17.342  13.150 -11.610  1.00  0.00     0.059 A 
ATOM     15  C   UNL     1     -17.336  14.535 -11.417  1.00  0.00     0.120 A 
ATOM     16  C   UNL     1     -16.996  15.060 -10.172  1.00  0.00     0.093 A 
ATOM     17  C   UNL     1     -16.664  14.218  -9.106  1.00  0.00     0.131 A 
ENDROOT
BRANCH   6  18
ATOM     18  O   UNL     1     -15.184  10.054  -6.207  1.00  0.00    -0.507 OA
ATOM     19  H   UNL     1     -15.676   9.909  -5.337  1.00  0.00     0.293 HD
ENDBRANCH   6  18
BRANCH  17  20
ATOM     20  O   UNL     1     -16.245  14.820  -7.916  1.00  0.00    -0.507 OA
ATOM     21  H   UNL     1     -15.400  14.559  -7.426  1.00  0.00     0.293 HD
ENDBRANCH  17  20
BRANCH  15  22
ATOM     22  O   UNL     1     -17.655  15.397 -12.463  1.00  0.00    -0.508 OA
ATOM     23  H   UNL     1     -17.480  15.148 -13.430  1.00  0.00     0.293 HD
ENDBRANCH  15  22
TORSDOF 3
ENDMDL
MODEL 2
REMARK VINA RESULT:    52.131      2.092      2.828
REMARK INTER + INTRA:          56.703
REMARK INTER:                  56.703
REMARK INTRA:                   0.000
REMARK UNBOUND:                 0.000
REMARK SMILES Cc1cc(O)c2c(c1)C(=O)c1cc(O)cc(O)c1C2=O
REMARK SMILES IDX 1 1 2 2 8 3 7 4 6 5 4 6 3 7 19 8 20 9 18 10 11 11 9 12 10 13
REMARK SMILES IDX 12 14 13 15 15 16 16 17 5 18 17 20 14 22
REMARK H PARENT 5 19 17 21 14 23
REMARK Flexibility Score: inf
ROOT
ATOM      1  C   UNL     1     -17.869   9.143  -6.839  1.00  0.00     0.044 C 
ATOM      2  C   UNL     1     -17.528  10.470  -7.453  1.00  0.00    -0.047 A 
ATOM      3  C   UNL     1     -17.681  10.667  -8.830  1.00  0.00     0.016 A 
ATOM      4  C   UNL     1     -17.337  11.895  -9.419  1.00  0.00     0.038 A 
ATOM      5  C   UNL     1     -16.832  12.942  -8.618  1.00  0.00     0.076 A 
ATOM      6  C   UNL     1     -16.600  12.708  -7.238  1.00  0.00     0.127 A 
ATOM      7  C   UNL     1     -16.969  11.485  -6.671  1.00  0.00     0.050 A 
ATOM      8  C   UNL     1     -16.620  14.271  -9.249  1.00  0.00     0.201 C 
ATOM      9  O   UNL     1     -16.736  15.319  -8.558  1.00  0.00    -0.288 OA
ATOM     10  C   UNL     1     -16.459  14.370 -10.723  1.00  0.00     0.076 A 
ATOM     11  C   UNL     1     -16.963  13.319 -11.522  1.00  0.00     0.041 A 
ATOM     12  C   UNL     1     -17.495  12.094 -10.880  1.00  0.00     0.194 C 
ATOM     13  O   UNL     1     -18.061  11.209 -11.580  1.00  0.00    -0.289 OA
ATOM     14  C   UNL     1     -16.954  13.439 -12.922  1.00  0.00     0.059 A 
ATOM     15  C   UNL     1     -16.435  14.585 -13.532  1.00  0.00     0.120 A 
ATOM     16  C   UNL     1     -15.900  15.606 -12.748  1.00  0.00     0.093 A 
ATOM     17  C   UNL     1     -15.880  15.502 -11.354  1.00  0.00     0.131 A 
ENDROOT
BRANCH   6  18
ATOM     18  O   UNL     1     -15.976  13.642  -6.408  1.00  0.00    -0.507 OA
ATOM     19  H   UNL     1     -16.203  13.759  -5.430  1.00  0.00     0.293 HD
ENDBRANCH   6  18
BRANCH  17  20
ATOM     20  O   UNL     1     -15.245  16.523 -10.641  1.00  0.00    -0.507 OA
ATOM     21  H   UNL     1     -14.512  16.359  -9.964  1.00  0.00     0.293 HD
ENDBRANCH  17  20
BRANCH  15  22
ATOM     22  O   UNL     1     -16.436  14.712 -14.919  1.00  0.00    -0.508 OA
ATOM     23  H   UNL     1     -16.987  14.098 -15.509  1.00  0.00     0.293 HD
ENDBRANCH  15  22
TORSDOF 3
ENDMDL
MODEL 3
REMARK VINA RESULT:    52.177      2.043      5.465
REMARK INTER + INTRA:          56.752
REMARK INTER:                  56.752
REMARK INTRA:                   0.000
REMARK UNBOUND:                 0.000
REMARK SMILES Cc1cc(O)c2c(c1)C(=O)c1cc(O)cc(O)c1C2=O
REMARK SMILES IDX 1 1 2 2 8 3 7 4 6 5 4 6 3 7 19 8 20 9 18 10 11 11 9 12 10 13
REMARK SMILES IDX 12 14 13 15 15 16 16 17 5 18 17 20 14 22
REMARK H PARENT 5 19 17 21 14 23
REMARK Flexibility Score: inf
ROOT
ATOM      1  C   UNL     1     -16.804  15.253 -14.131  1.00  0.00     0.044 C 
ATOM      2  C   UNL     1     -16.741  14.773 -12.709  1.00  0.00    -0.047 A 
ATOM      3  C   UNL     1     -17.032  13.439 -12.404  1.00  0.00     0.016 A 
ATOM      4  C   UNL     1     -17.005  12.988 -11.074  1.00  0.00     0.038 A 
ATOM      5  C   UNL     1     -16.682  13.885 -10.033  1.00  0.00     0.076 A 
ATOM      6  C   UNL     1     -16.472  15.255 -10.340  1.00  0.00     0.127 A 
ATOM      7  C   UNL     1     -16.484  15.676 -11.673  1.00  0.00     0.050 A 
ATOM      8  C   UNL     1     -16.517  13.341  -8.660  1.00  0.00     0.201 C 
ATOM      9  O   UNL     1     -15.721  13.896  -7.856  1.00  0.00    -0.288 OA
ATOM     10  C   UNL     1     -17.145  12.042  -8.302  1.00  0.00     0.076 A 
ATOM     11  C   UNL     1     -17.469  11.147  -9.346  1.00  0.00     0.041 A 
ATOM     12  C   UNL     1     -17.321  11.574 -10.757  1.00  0.00     0.194 C 
ATOM     13  O   UNL     1     -17.487  10.741 -11.690  1.00  0.00    -0.289 OA
ATOM     14  C   UNL     1     -17.936   9.856  -9.041  1.00  0.00     0.059 A 
ATOM     15  C   UNL     1     -18.096   9.457  -7.712  1.00  0.00     0.120 A 
ATOM     16  C   UNL     1     -17.815  10.351  -6.680  1.00  0.00     0.093 A 
ATOM     17  C   UNL     1     -17.369  11.647  -6.957  1.00  0.00     0.131 A 
ENDROOT
BRANCH   6  18
ATOM     18  O   UNL     1     -16.285  16.229  -9.357  1.00  0.00    -0.507 OA
ATOM     19  H   UNL     1     -16.439  17.216  -9.512  1.00  0.00     0.293 HD
ENDBRANCH   6  18
BRANCH  17  20
ATOM     20  O   UNL     1     -17.197  12.514  -5.875  1.00  0.00    -0.507 OA
ATOM     21  H   UNL     1     -16.501  13.247  -5.852  1.00  0.00     0.293 HD
ENDBRANCH  17  20
BRANCH  15  22
ATOM     22  O   UNL     1     -18.545   8.174  -7.406  1.00  0.00    -0.508 OA
ATOM     23  H   UNL     1     -18.245   7.691  -6.567  1.00  0.00     0.293 HD
ENDBRANCH  15  22
TORSDOF 3
ENDMDL
