MODEL 1
REMARK VINA RESULT:    -4.739      0.000      0.000
REMARK INTER + INTRA:          -5.039
REMARK INTER:                  -5.016
REMARK INTRA:                  -0.023
REMARK UNBOUND:                -0.023
REMARK SMILES O=C([O-])c1cccnc1
REMARK SMILES IDX 4 1 5 2 9 3 6 4 8 5 7 6 2 7 1 8 3 9
REMARK H PARENT
REMARK Flexibility Score: inf
ROOT
ATOM      1  C   UNL     1       3.667  -9.264   1.415  1.00  0.00     0.016 A 
ATOM      2  C   UNL     1       2.870  -8.157   1.087  1.00  0.00     0.013 A 
ATOM      3  C   UNL     1       4.244  -9.318   2.697  1.00  0.00     0.120 A 
ATOM      4  C   UNL     1       2.663  -7.140   2.022  1.00  0.00     0.021 A 
ATOM      5  N   UNL     1       4.027  -8.314   3.589  1.00  0.00    -0.264 NA
ATOM      6  C   UNL     1       3.256  -7.237   3.281  1.00  0.00     0.111 A 
ENDROOT
BRANCH   1   7
ATOM      7  C   UNL     1       3.893 -10.347   0.434  1.00  0.00     0.073 C 
ATOM      8  O   UNL     1       4.324 -11.471   0.807  1.00  0.00    -0.545 OA
ATOM      9  O   UNL     1       3.633 -10.139  -0.916  1.00  0.00    -0.545 OA
ENDBRANCH   1   7
TORSDOF 1
ENDMDL
MODEL 2
REMARK VINA RESULT:    -4.604      2.580      3.380
REMARK INTER + INTRA:          -4.896
REMARK INTER:                  -4.871
REMARK INTRA:                  -0.024
REMARK UNBOUND:                -0.023
REMARK SMILES O=C([O-])c1cccnc1
REMARK SMILES IDX 4 1 5 2 9 3 6 4 8 5 7 6 2 7 1 8 3 9
REMARK H PARENT
REMARK Flexibility Score: inf
ROOT
ATOM      1  C   UNL     1       3.371  -9.134   3.469  1.00  0.00     0.016 A 
ATOM      2  C   UNL     1       3.126  -7.758   3.605  1.00  0.00     0.013 A 
ATOM      3  C   UNL     1       3.284  -9.705   2.186  1.00  0.00     0.120 A 
ATOM      4  C   UNL     1       2.806  -6.988   2.485  1.00  0.00     0.021 A 
ATOM      5  N   UNL     1       2.970  -8.933   1.112  1.00  0.00    -0.264 NA
ATOM      6  C   UNL     1       2.732  -7.600   1.233  1.00  0.00     0.111 A 
ENDROOT
BRANCH   1   7
ATOM      7  C   UNL     1       3.710  -9.959   4.648  1.00  0.00     0.073 C 
ATOM      8  O   UNL     1       3.877  -9.426   5.777  1.00  0.00    -0.545 OA
ATOM      9  O   UNL     1       3.852 -11.337   4.525  1.00  0.00    -0.545 OA
ENDBRANCH   1   7
TORSDOF 1
ENDMDL
MODEL 3
REMARK VINA RESULT:    -4.579      2.954      3.673
REMARK INTER + INTRA:          -4.869
REMARK INTER:                  -4.850
REMARK INTRA:                  -0.019
REMARK UNBOUND:                -0.023
REMARK SMILES O=C([O-])c1cccnc1
REMARK SMILES IDX 4 1 5 2 9 3 6 4 8 5 7 6 2 7 1 8 3 9
REMARK H PARENT
REMARK Flexibility Score: inf
ROOT
ATOM      1  C   UNL     1       3.496  -9.375   3.561  1.00  0.00     0.016 A 
ATOM      2  C   UNL     1       2.872  -8.221   3.063  1.00  0.00     0.013 A 
ATOM      3  C   UNL     1       4.187 -10.204   2.658  1.00  0.00     0.120 A 
ATOM      4  C   UNL     1       2.944  -7.915   1.702  1.00  0.00     0.021 A 
ATOM      5  N   UNL     1       4.243  -9.884   1.338  1.00  0.00    -0.264 NA
ATOM      6  C   UNL     1       3.641  -8.768   0.846  1.00  0.00     0.111 A 
ENDROOT
BRANCH   1   7
ATOM      7  C   UNL     1       3.426  -9.709   5.000  1.00  0.00     0.073 C 
ATOM      8  O   UNL     1       3.783  -8.871   5.870  1.00  0.00    -0.545 OA
ATOM      9  O   UNL     1       2.965 -10.955   5.411  1.00  0.00    -0.545 OA
ENDBRANCH   1   7
TORSDOF 1
ENDMDL
MODEL 4
REMARK VINA RESULT:    -4.409      2.504      3.386
REMARK INTER + INTRA:          -4.690
REMARK INTER:                  -4.666
REMARK INTRA:                  -0.024
REMARK UNBOUND:                -0.023
REMARK SMILES O=C([O-])c1cccnc1
REMARK SMILES IDX 4 1 5 2 9 3 6 4 8 5 7 6 2 7 1 8 3 9
REMARK H PARENT
REMARK Flexibility Score: inf
ROOT
ATOM      1  C   UNL     1       3.347  -9.108   3.451  1.00  0.00     0.016 A 
ATOM      2  C   UNL     1       3.260  -9.681   2.173  1.00  0.00     0.013 A 
ATOM      3  C   UNL     1       3.105  -7.728   3.583  1.00  0.00     0.120 A 
ATOM      4  C   UNL     1       2.942  -8.889   1.068  1.00  0.00     0.021 A 
ATOM      5  N   UNL     1       2.797  -6.979   2.492  1.00  0.00    -0.264 NA
ATOM      6  C   UNL     1       2.710  -7.524   1.250  1.00  0.00     0.111 A 
ENDROOT
BRANCH   1   7
ATOM      7  C   UNL     1       3.683  -9.937   4.628  1.00  0.00     0.073 C 
ATOM      8  O   UNL     1       3.864  -9.406   5.756  1.00  0.00    -0.545 OA
ATOM      9  O   UNL     1       3.807 -11.317   4.505  1.00  0.00    -0.545 OA
ENDBRANCH   1   7
TORSDOF 1
ENDMDL
MODEL 5
REMARK VINA RESULT:    -4.286      3.068      3.900
REMARK INTER + INTRA:          -4.560
REMARK INTER:                  -4.543
REMARK INTRA:                  -0.017
REMARK UNBOUND:                -0.023
REMARK SMILES O=C([O-])c1cccnc1
REMARK SMILES IDX 4 1 5 2 9 3 6 4 8 5 7 6 2 7 1 8 3 9
REMARK H PARENT
REMARK Flexibility Score: inf
ROOT
ATOM      1  C   UNL     1       3.341  -9.418   2.865  1.00  0.00     0.016 A 
ATOM      2  C   UNL     1       4.270 -10.291   2.279  1.00  0.00     0.013 A 
ATOM      3  C   UNL     1       2.455  -8.720   2.024  1.00  0.00     0.120 A 
ATOM      4  C   UNL     1       4.303 -10.453   0.893  1.00  0.00     0.021 A 
ATOM      5  N   UNL     1       2.508  -8.896   0.677  1.00  0.00    -0.264 NA
ATOM      6  C   UNL     1       3.404  -9.739   0.099  1.00  0.00     0.111 A 
ENDROOT
BRANCH   1   7
ATOM      7  C   UNL     1       3.297  -9.238   4.333  1.00  0.00     0.073 C 
ATOM      8  O   UNL     1       4.163  -8.535   4.918  1.00  0.00    -0.545 OA
ATOM      9  O   UNL     1       2.297  -9.843   5.086  1.00  0.00    -0.545 OA
ENDBRANCH   1   7
TORSDOF 1
ENDMDL
MODEL 6
REMARK VINA RESULT:    -4.231      2.417      3.007
REMARK INTER + INTRA:          -4.501
REMARK INTER:                  -4.479
REMARK INTRA:                  -0.022
REMARK UNBOUND:                -0.023
REMARK SMILES O=C([O-])c1cccnc1
REMARK SMILES IDX 4 1 5 2 9 3 6 4 8 5 7 6 2 7 1 8 3 9
REMARK H PARENT
REMARK Flexibility Score: inf
ROOT
ATOM      1  C   UNL     1       3.472  -9.203   3.181  1.00  0.00     0.016 A 
ATOM      2  C   UNL     1       3.138  -8.431   4.305  1.00  0.00     0.013 A 
ATOM      3  C   UNL     1       3.836 -10.547   3.376  1.00  0.00     0.120 A 
ATOM      4  C   UNL     1       3.173  -8.998   5.580  1.00  0.00     0.021 A 
ATOM      5  N   UNL     1       3.861 -11.075   4.629  1.00  0.00    -0.264 NA
ATOM      6  C   UNL     1       3.541 -10.337   5.724  1.00  0.00     0.111 A 
ENDROOT
BRANCH   1   7
ATOM      7  C   UNL     1       3.439  -8.613   1.825  1.00  0.00     0.073 C 
ATOM      8  O   UNL     1       4.122  -9.114   0.892  1.00  0.00    -0.545 OA
ATOM      9  O   UNL     1       2.654  -7.496   1.562  1.00  0.00    -0.545 OA
ENDBRANCH   1   7
TORSDOF 1
ENDMDL
MODEL 7
REMARK VINA RESULT:    -4.172      2.313      3.148
REMARK INTER + INTRA:          -4.439
REMARK INTER:                  -4.416
REMARK INTRA:                  -0.023
REMARK UNBOUND:                -0.023
REMARK SMILES O=C([O-])c1cccnc1
REMARK SMILES IDX 4 1 5 2 9 3 6 4 8 5 7 6 2 7 1 8 3 9
REMARK H PARENT
REMARK Flexibility Score: inf
ROOT
ATOM      1  C   UNL     1       3.468  -9.160   3.203  1.00  0.00     0.016 A 
ATOM      2  C   UNL     1       3.828 -10.502   3.403  1.00  0.00     0.013 A 
ATOM      3  C   UNL     1       3.126  -8.385   4.327  1.00  0.00     0.120 A 
ATOM      4  C   UNL     1       3.842 -11.041   4.691  1.00  0.00     0.021 A 
ATOM      5  N   UNL     1       3.148  -8.934   5.571  1.00  0.00    -0.264 NA
ATOM      6  C   UNL     1       3.495 -10.232   5.775  1.00  0.00     0.111 A 
ENDROOT
BRANCH   1   7
ATOM      7  C   UNL     1       3.450  -8.579   1.844  1.00  0.00     0.073 C 
ATOM      8  O   UNL     1       4.145  -9.083   0.922  1.00  0.00    -0.545 OA
ATOM      9  O   UNL     1       2.665  -7.465   1.565  1.00  0.00    -0.545 OA
ENDBRANCH   1   7
TORSDOF 1
ENDMDL
MODEL 8
REMARK VINA RESULT:    -4.063     15.769     16.754
REMARK INTER + INTRA:          -4.324
REMARK INTER:                  -4.304
REMARK INTRA:                  -0.020
REMARK UNBOUND:                -0.023
REMARK SMILES O=C([O-])c1cccnc1
REMARK SMILES IDX 4 1 5 2 9 3 6 4 8 5 7 6 2 7 1 8 3 9
REMARK H PARENT
REMARK Flexibility Score: inf
ROOT
ATOM      1  C   UNL     1      11.755 -20.620  -7.257  1.00  0.00     0.016 A 
ATOM      2  C   UNL     1      10.816 -19.587  -7.396  1.00  0.00     0.013 A 
ATOM      3  C   UNL     1      11.306 -21.877  -6.811  1.00  0.00     0.120 A 
ATOM      4  C   UNL     1       9.471 -19.815  -7.095  1.00  0.00     0.021 A 
ATOM      5  N   UNL     1       9.992 -22.073  -6.526  1.00  0.00    -0.264 NA
ATOM      6  C   UNL     1       9.074 -21.079  -6.657  1.00  0.00     0.111 A 
ENDROOT
BRANCH   1   7
ATOM      7  C   UNL     1      13.181 -20.389  -7.572  1.00  0.00     0.073 C 
ATOM      8  O   UNL     1      13.755 -19.329  -7.207  1.00  0.00    -0.545 OA
ATOM      9  O   UNL     1      13.909 -21.341  -8.277  1.00  0.00    -0.545 OA
ENDBRANCH   1   7
TORSDOF 1
ENDMDL
MODEL 9
REMARK VINA RESULT:    -4.038     15.818     17.220
REMARK INTER + INTRA:          -4.297
REMARK INTER:                  -4.279
REMARK INTRA:                  -0.018
REMARK UNBOUND:                -0.023
REMARK SMILES O=C([O-])c1cccnc1
REMARK SMILES IDX 4 1 5 2 9 3 6 4 8 5 7 6 2 7 1 8 3 9
REMARK H PARENT
REMARK Flexibility Score: inf
ROOT
ATOM      1  C   UNL     1      11.208 -20.675  -7.613  1.00  0.00     0.016 A 
ATOM      2  C   UNL     1      11.576 -20.247  -8.898  1.00  0.00     0.013 A 
ATOM      3  C   UNL     1      12.126 -21.444  -6.875  1.00  0.00     0.120 A 
ATOM      4  C   UNL     1      12.827 -20.585  -9.418  1.00  0.00     0.021 A 
ATOM      5  N   UNL     1      13.338 -21.758  -7.404  1.00  0.00    -0.264 NA
ATOM      6  C   UNL     1      13.704 -21.350  -8.648  1.00  0.00     0.111 A 
ENDROOT
BRANCH   1   7
ATOM      7  C   UNL     1       9.885 -20.324  -7.052  1.00  0.00     0.073 C 
ATOM      8  O   UNL     1       9.531 -19.119  -6.952  1.00  0.00    -0.545 OA
ATOM      9  O   UNL     1       9.015 -21.320  -6.625  1.00  0.00    -0.545 OA
ENDBRANCH   1   7
TORSDOF 1
ENDMDL
