MODEL 1
REMARK VINA RESULT:    -9.266      0.000      0.000
REMARK INTER + INTRA:         -11.395
REMARK INTER:                 -11.162
REMARK INTRA:                  -0.233
REMARK UNBOUND:                -0.233
REMARK SMILES O=c1c(O)c(-c2ccc(O)c(O)c2)oc2cc(O)cc(O)c12
REMARK SMILES IDX 5 1 3 2 2 3 1 4 22 5 20 6 19 7 17 8 16 9 15 10 14 11 6 12
REMARK SMILES IDX 7 13 8 14 9 15 13 16 11 17 10 18 12 20 4 22 21 24 18 26
REMARK H PARENT 10 19 12 21 4 23 21 25 18 27
REMARK Flexibility Score: inf
ROOT
ATOM      1  C   UNL     1      -0.490  44.951   0.545  1.00  0.00     0.180 A 
ATOM      2  C   UNL     1      -1.301  45.190  -0.578  1.00  0.00     0.208 A 
ATOM      3  C   UNL     1      -0.741  45.078  -1.859  1.00  0.00     0.238 A 
ATOM      4  O   UNL     1      -1.459  45.347  -2.859  1.00  0.00    -0.285 OA
ATOM      5  C   UNL     1       0.618  44.712  -2.005  1.00  0.00     0.111 A 
ATOM      6  C   UNL     1       1.280  44.529  -3.257  1.00  0.00     0.134 A 
ATOM      7  C   UNL     1       2.661  44.295  -3.281  1.00  0.00     0.093 A 
ATOM      8  C   UNL     1       3.390  44.171  -2.100  1.00  0.00     0.123 A 
ATOM      9  C   UNL     1       2.743  44.288  -0.869  1.00  0.00     0.094 A 
ATOM     10  C   UNL     1       1.374  44.558  -0.813  1.00  0.00     0.146 A 
ATOM     11  O   UNL     1       0.798  44.672   0.377  1.00  0.00    -0.452 OA
ENDROOT
BRANCH   1  12
ATOM     12  C   UNL     1      -1.015  45.024   1.927  1.00  0.00     0.025 A 
ATOM     13  C   UNL     1      -0.696  46.098   2.776  1.00  0.00     0.016 A 
ATOM     14  C   UNL     1      -1.222  46.158   4.069  1.00  0.00     0.051 A 
ATOM     15  C   UNL     1      -2.085  45.154   4.527  1.00  0.00     0.157 A 
ATOM     16  C   UNL     1      -1.898  44.031   2.385  1.00  0.00     0.062 A 
ATOM     17  C   UNL     1      -2.426  44.091   3.683  1.00  0.00     0.158 A 
BRANCH  15  18
ATOM     18  O   UNL     1      -2.611  45.209   5.816  1.00  0.00    -0.504 OA
ATOM     19  H   UNL     1      -3.433  44.676   6.077  1.00  0.00     0.293 HD
ENDBRANCH  15  18
BRANCH  17  20
ATOM     20  O   UNL     1      -3.291  43.097   4.139  1.00  0.00    -0.504 OA
ATOM     21  H   UNL     1      -3.061  42.522   4.941  1.00  0.00     0.293 HD
ENDBRANCH  17  20
ENDBRANCH   1  12
BRANCH   2  22
ATOM     22  O   UNL     1      -2.635  45.572  -0.411  1.00  0.00    -0.502 OA
ATOM     23  H   UNL     1      -3.360  44.915  -0.146  1.00  0.00     0.293 HD
ENDBRANCH   2  22
BRANCH   6  24
ATOM     24  O   UNL     1       0.628  44.542  -4.493  1.00  0.00    -0.507 OA
ATOM     25  H   UNL     1       0.881  43.965  -5.281  1.00  0.00     0.293 HD
ENDBRANCH   6  24
BRANCH   8  26
ATOM     26  O   UNL     1       4.760  43.921  -2.161  1.00  0.00    -0.508 OA
ATOM     27  H   UNL     1       5.257  43.501  -1.385  1.00  0.00     0.293 HD
ENDBRANCH   8  26
TORSDOF 6
ENDMDL
MODEL 2
REMARK VINA RESULT:    -8.899      1.555      2.597
REMARK INTER + INTRA:         -10.954
REMARK INTER:                 -10.922
REMARK INTRA:                  -0.031
REMARK UNBOUND:                -0.233
REMARK SMILES O=c1c(O)c(-c2ccc(O)c(O)c2)oc2cc(O)cc(O)c12
REMARK SMILES IDX 5 1 3 2 2 3 1 4 22 5 20 6 19 7 17 8 16 9 15 10 14 11 6 12
REMARK SMILES IDX 7 13 8 14 9 15 13 16 11 17 10 18 12 20 4 22 21 24 18 26
REMARK H PARENT 10 19 12 21 4 23 21 25 18 27
REMARK Flexibility Score: inf
ROOT
ATOM      1  C   UNL     1      -1.471  45.144   2.436  1.00  0.00     0.180 A 
ATOM      2  C   UNL     1      -2.370  45.300   1.367  1.00  0.00     0.208 A 
ATOM      3  C   UNL     1      -1.897  45.155   0.054  1.00  0.00     0.238 A 
ATOM      4  O   UNL     1      -2.695  45.349  -0.901  1.00  0.00    -0.285 OA
ATOM      5  C   UNL     1      -0.536  44.839  -0.174  1.00  0.00     0.111 A 
ATOM      6  C   UNL     1       0.042  44.628  -1.463  1.00  0.00     0.134 A 
ATOM      7  C   UNL     1       1.427  44.451  -1.577  1.00  0.00     0.093 A 
ATOM      8  C   UNL     1       2.243  44.409  -0.448  1.00  0.00     0.123 A 
ATOM      9  C   UNL     1       1.680  44.554   0.821  1.00  0.00     0.094 A 
ATOM     10  C   UNL     1       0.308  44.769   0.965  1.00  0.00     0.146 A 
ATOM     11  O   UNL     1      -0.187  44.912   2.188  1.00  0.00    -0.452 OA
ENDROOT
BRANCH   1  12
ATOM     12  C   UNL     1      -1.900  45.258   3.849  1.00  0.00     0.025 A 
ATOM     13  C   UNL     1      -3.003  44.537   4.340  1.00  0.00     0.016 A 
ATOM     14  C   UNL     1      -3.376  44.642   5.682  1.00  0.00     0.051 A 
ATOM     15  C   UNL     1      -2.643  45.455   6.557  1.00  0.00     0.157 A 
ATOM     16  C   UNL     1      -1.157  46.056   4.736  1.00  0.00     0.062 A 
ATOM     17  C   UNL     1      -1.530  46.161   6.083  1.00  0.00     0.158 A 
BRANCH  15  18
ATOM     18  O   UNL     1      -3.011  45.564   7.896  1.00  0.00    -0.504 OA
ATOM     19  H   UNL     1      -2.318  45.601   8.635  1.00  0.00     0.293 HD
ENDBRANCH  15  18
BRANCH  17  20
ATOM     20  O   UNL     1      -0.799  46.964   6.957  1.00  0.00    -0.504 OA
ATOM     21  H   UNL     1      -1.213  47.774   7.404  1.00  0.00     0.293 HD
ENDBRANCH  17  20
ENDBRANCH   1  12
BRANCH   2  22
ATOM     22  O   UNL     1      -3.704  45.633   1.614  1.00  0.00    -0.502 OA
ATOM     23  H   UNL     1      -3.974  46.323   2.305  1.00  0.00     0.293 HD
ENDBRANCH   2  22
BRANCH   6  24
ATOM     24  O   UNL     1      -0.695  44.559  -2.648  1.00  0.00    -0.507 OA
ATOM     25  H   UNL     1      -1.290  45.296  -2.997  1.00  0.00     0.293 HD
ENDBRANCH   6  24
BRANCH   8  26
ATOM     26  O   UNL     1       3.615  44.213  -0.597  1.00  0.00    -0.508 OA
ATOM     27  H   UNL     1       4.227  44.118   0.204  1.00  0.00     0.293 HD
ENDBRANCH   8  26
TORSDOF 6
ENDMDL
MODEL 3
REMARK VINA RESULT:    -8.761      1.934      7.379
REMARK INTER + INTRA:         -10.787
REMARK INTER:                 -10.842
REMARK INTRA:                   0.055
REMARK UNBOUND:                -0.233
REMARK SMILES O=c1c(O)c(-c2ccc(O)c(O)c2)oc2cc(O)cc(O)c12
REMARK SMILES IDX 5 1 3 2 2 3 1 4 22 5 20 6 19 7 17 8 16 9 15 10 14 11 6 12
REMARK SMILES IDX 7 13 8 14 9 15 13 16 11 17 10 18 12 20 4 22 21 24 18 26
REMARK H PARENT 10 19 12 21 4 23 21 25 18 27
REMARK Flexibility Score: inf
ROOT
ATOM      1  C   UNL     1      -1.173  45.219   2.662  1.00  0.00     0.180 A 
ATOM      2  C   UNL     1      -2.436  44.681   2.964  1.00  0.00     0.208 A 
ATOM      3  C   UNL     1      -2.967  44.869   4.250  1.00  0.00     0.238 A 
ATOM      4  O   UNL     1      -4.074  44.339   4.530  1.00  0.00    -0.285 OA
ATOM      5  C   UNL     1      -2.237  45.607   5.212  1.00  0.00     0.111 A 
ATOM      6  C   UNL     1      -2.697  45.895   6.533  1.00  0.00     0.134 A 
ATOM      7  C   UNL     1      -1.835  46.520   7.443  1.00  0.00     0.093 A 
ATOM      8  C   UNL     1      -0.558  46.927   7.062  1.00  0.00     0.123 A 
ATOM      9  C   UNL     1      -0.120  46.706   5.756  1.00  0.00     0.094 A 
ATOM     10  C   UNL     1      -0.942  46.052   4.836  1.00  0.00     0.146 A 
ATOM     11  O   UNL     1      -0.485  45.850   3.606  1.00  0.00    -0.452 OA
ENDROOT
BRANCH   1  12
ATOM     12  C   UNL     1      -0.559  45.084   1.322  1.00  0.00     0.025 A 
ATOM     13  C   UNL     1       0.757  44.618   1.163  1.00  0.00     0.016 A 
ATOM     14  C   UNL     1       1.308  44.477  -0.114  1.00  0.00     0.051 A 
ATOM     15  C   UNL     1       0.547  44.784  -1.249  1.00  0.00     0.157 A 
ATOM     16  C   UNL     1      -1.325  45.371   0.179  1.00  0.00     0.062 A 
ATOM     17  C   UNL     1      -0.772  45.230  -1.103  1.00  0.00     0.158 A 
BRANCH  15  18
ATOM     18  O   UNL     1       1.093  44.646  -2.524  1.00  0.00    -0.504 OA
ATOM     19  H   UNL     1       1.441  43.754  -2.857  1.00  0.00     0.293 HD
ENDBRANCH  15  18
BRANCH  17  20
ATOM     20  O   UNL     1      -1.529  45.529  -2.234  1.00  0.00    -0.504 OA
ATOM     21  H   UNL     1      -1.161  45.394  -3.169  1.00  0.00     0.293 HD
ENDBRANCH  17  20
ENDBRANCH   1  12
BRANCH   2  22
ATOM     22  O   UNL     1      -3.131  43.938   2.006  1.00  0.00    -0.502 OA
ATOM     23  H   UNL     1      -3.919  43.347   2.242  1.00  0.00     0.293 HD
ENDBRANCH   2  22
BRANCH   6  24
ATOM     24  O   UNL     1      -3.987  45.612   6.989  1.00  0.00    -0.507 OA
ATOM     25  H   UNL     1      -4.751  46.272   6.995  1.00  0.00     0.293 HD
ENDBRANCH   6  24
BRANCH   8  26
ATOM     26  O   UNL     1       0.267  47.563   7.989  1.00  0.00    -0.508 OA
ATOM     27  H   UNL     1       0.392  47.196   8.925  1.00  0.00     0.293 HD
ENDBRANCH   8  26
TORSDOF 6
ENDMDL
MODEL 4
REMARK VINA RESULT:    -8.702      1.948      7.324
REMARK INTER + INTRA:         -10.716
REMARK INTER:                 -10.743
REMARK INTRA:                   0.026
REMARK UNBOUND:                -0.233
REMARK SMILES O=c1c(O)c(-c2ccc(O)c(O)c2)oc2cc(O)cc(O)c12
REMARK SMILES IDX 5 1 3 2 2 3 1 4 22 5 20 6 19 7 17 8 16 9 15 10 14 11 6 12
REMARK SMILES IDX 7 13 8 14 9 15 13 16 11 17 10 18 12 20 4 22 21 24 18 26
REMARK H PARENT 10 19 12 21 4 23 21 25 18 27
REMARK Flexibility Score: inf
ROOT
ATOM      1  C   UNL     1      -1.046  45.183   2.476  1.00  0.00     0.180 A 
ATOM      2  C   UNL     1      -2.305  44.655   2.809  1.00  0.00     0.208 A 
ATOM      3  C   UNL     1      -2.816  44.874   4.098  1.00  0.00     0.238 A 
ATOM      4  O   UNL     1      -3.920  44.352   4.408  1.00  0.00    -0.285 OA
ATOM      5  C   UNL     1      -2.070  45.631   5.032  1.00  0.00     0.111 A 
ATOM      6  C   UNL     1      -2.509  45.950   6.353  1.00  0.00     0.134 A 
ATOM      7  C   UNL     1      -1.632  46.594   7.236  1.00  0.00     0.093 A 
ATOM      8  C   UNL     1      -0.360  46.989   6.826  1.00  0.00     0.123 A 
ATOM      9  C   UNL     1       0.058  46.737   5.519  1.00  0.00     0.094 A 
ATOM     10  C   UNL     1      -0.780  46.064   4.627  1.00  0.00     0.146 A 
ATOM     11  O   UNL     1      -0.342  45.834   3.395  1.00  0.00    -0.452 OA
ENDROOT
BRANCH   1  12
ATOM     12  C   UNL     1      -0.453  45.016   1.130  1.00  0.00     0.025 A 
ATOM     13  C   UNL     1      -1.205  45.243  -0.035  1.00  0.00     0.016 A 
ATOM     14  C   UNL     1      -0.617  45.101  -1.295  1.00  0.00     0.051 A 
ATOM     15  C   UNL     1       0.733  44.746  -1.408  1.00  0.00     0.157 A 
ATOM     16  C   UNL     1       0.907  44.679   1.011  1.00  0.00     0.062 A 
ATOM     17  C   UNL     1       1.497  44.537  -0.254  1.00  0.00     0.158 A 
BRANCH  15  18
ATOM     18  O   UNL     1       1.323  44.603  -2.663  1.00  0.00    -0.504 OA
ATOM     19  H   UNL     1       2.119  45.165  -2.941  1.00  0.00     0.293 HD
ENDBRANCH  15  18
BRANCH  17  20
ATOM     20  O   UNL     1       2.842  44.190  -0.369  1.00  0.00    -0.504 OA
ATOM     21  H   UNL     1       3.141  43.416  -0.951  1.00  0.00     0.293 HD
ENDBRANCH  17  20
ENDBRANCH   1  12
BRANCH   2  22
ATOM     22  O   UNL     1      -3.016  43.892   1.879  1.00  0.00    -0.502 OA
ATOM     23  H   UNL     1      -3.490  43.032   2.129  1.00  0.00     0.293 HD
ENDBRANCH   2  22
BRANCH   6  24
ATOM     24  O   UNL     1      -3.793  45.681   6.835  1.00  0.00    -0.507 OA
ATOM     25  H   UNL     1      -4.549  45.309   6.279  1.00  0.00     0.293 HD
ENDBRANCH   6  24
BRANCH   8  26
ATOM     26  O   UNL     1       0.480  47.643   7.726  1.00  0.00    -0.508 OA
ATOM     27  H   UNL     1       0.753  48.609   7.589  1.00  0.00     0.293 HD
ENDBRANCH   8  26
TORSDOF 6
ENDMDL
MODEL 5
REMARK VINA RESULT:    -8.566      1.505      6.762
REMARK INTER + INTRA:         -10.552
REMARK INTER:                 -10.630
REMARK INTRA:                   0.079
REMARK UNBOUND:                -0.233
REMARK SMILES O=c1c(O)c(-c2ccc(O)c(O)c2)oc2cc(O)cc(O)c12
REMARK SMILES IDX 5 1 3 2 2 3 1 4 22 5 20 6 19 7 17 8 16 9 15 10 14 11 6 12
REMARK SMILES IDX 7 13 8 14 9 15 13 16 11 17 10 18 12 20 4 22 21 24 18 26
REMARK H PARENT 10 19 12 21 4 23 21 25 18 27
REMARK Flexibility Score: inf
ROOT
ATOM      1  C   UNL     1      -0.550  44.966   0.472  1.00  0.00     0.180 A 
ATOM      2  C   UNL     1      -1.854  44.542   0.784  1.00  0.00     0.208 A 
ATOM      3  C   UNL     1      -2.338  44.731   2.087  1.00  0.00     0.238 A 
ATOM      4  O   UNL     1      -3.486  44.300   2.374  1.00  0.00    -0.285 OA
ATOM      5  C   UNL     1      -1.521  45.358   3.058  1.00  0.00     0.111 A 
ATOM      6  C   UNL     1      -1.925  45.638   4.399  1.00  0.00     0.134 A 
ATOM      7  C   UNL     1      -0.989  46.142   5.311  1.00  0.00     0.093 A 
ATOM      8  C   UNL     1       0.314  46.438   4.915  1.00  0.00     0.123 A 
ATOM      9  C   UNL     1       0.703  46.225   3.592  1.00  0.00     0.094 A 
ATOM     10  C   UNL     1      -0.197  45.689   2.668  1.00  0.00     0.146 A 
ATOM     11  O   UNL     1       0.215  45.491   1.422  1.00  0.00    -0.452 OA
ENDROOT
BRANCH   1  12
ATOM     12  C   UNL     1       0.021  44.823  -0.886  1.00  0.00     0.025 A 
ATOM     13  C   UNL     1      -0.736  45.114  -2.034  1.00  0.00     0.016 A 
ATOM     14  C   UNL     1      -0.168  44.994  -3.305  1.00  0.00     0.051 A 
ATOM     15  C   UNL     1       1.168  44.597  -3.447  1.00  0.00     0.157 A 
ATOM     16  C   UNL     1       1.367  44.445  -1.033  1.00  0.00     0.062 A 
ATOM     17  C   UNL     1       1.937  44.325  -2.309  1.00  0.00     0.158 A 
BRANCH  15  18
ATOM     18  O   UNL     1       1.738  44.475  -4.713  1.00  0.00    -0.504 OA
ATOM     19  H   UNL     1       2.005  45.289  -5.254  1.00  0.00     0.293 HD
ENDBRANCH  15  18
BRANCH  17  20
ATOM     20  O   UNL     1       3.268  43.936  -2.453  1.00  0.00    -0.504 OA
ATOM     21  H   UNL     1       3.942  44.067  -1.707  1.00  0.00     0.293 HD
ENDBRANCH  17  20
ENDBRANCH   1  12
BRANCH   2  22
ATOM     22  O   UNL     1      -2.636  43.906  -0.185  1.00  0.00    -0.502 OA
ATOM     23  H   UNL     1      -2.922  44.366  -1.041  1.00  0.00     0.293 HD
ENDBRANCH   2  22
BRANCH   6  24
ATOM     24  O   UNL     1      -3.228  45.465   4.874  1.00  0.00    -0.507 OA
ATOM     25  H   UNL     1      -3.465  45.229   5.826  1.00  0.00     0.293 HD
ENDBRANCH   6  24
BRANCH   8  26
ATOM     26  O   UNL     1       1.215  46.955   5.845  1.00  0.00    -0.508 OA
ATOM     27  H   UNL     1       0.902  47.340   6.728  1.00  0.00     0.293 HD
ENDBRANCH   8  26
TORSDOF 6
ENDMDL
MODEL 6
REMARK VINA RESULT:    -8.056      4.418      7.846
REMARK INTER + INTRA:          -9.937
REMARK INTER:                 -10.160
REMARK INTRA:                   0.223
REMARK UNBOUND:                -0.233
REMARK SMILES O=c1c(O)c(-c2ccc(O)c(O)c2)oc2cc(O)cc(O)c12
REMARK SMILES IDX 5 1 3 2 2 3 1 4 22 5 20 6 19 7 17 8 16 9 15 10 14 11 6 12
REMARK SMILES IDX 7 13 8 14 9 15 13 16 11 17 10 18 12 20 4 22 21 24 18 26
REMARK H PARENT 10 19 12 21 4 23 21 25 18 27
REMARK Flexibility Score: inf
ROOT
ATOM      1  C   UNL     1      -0.745  46.573   7.538  1.00  0.00     0.180 A 
ATOM      2  C   UNL     1      -2.081  46.147   7.632  1.00  0.00     0.208 A 
ATOM      3  C   UNL     1      -2.728  45.675   6.479  1.00  0.00     0.238 A 
ATOM      4  O   UNL     1      -3.941  45.346   6.558  1.00  0.00    -0.285 OA
ATOM      5  C   UNL     1      -2.026  45.618   5.251  1.00  0.00     0.111 A 
ATOM      6  C   UNL     1      -2.571  45.119   4.029  1.00  0.00     0.134 A 
ATOM      7  C   UNL     1      -1.829  45.232   2.846  1.00  0.00     0.093 A 
ATOM      8  C   UNL     1      -0.541  45.764   2.852  1.00  0.00     0.123 A 
ATOM      9  C   UNL     1       0.024  46.200   4.050  1.00  0.00     0.094 A 
ATOM     10  C   UNL     1      -0.704  46.134   5.241  1.00  0.00     0.146 A 
ATOM     11  O   UNL     1      -0.135  46.568   6.358  1.00  0.00    -0.452 OA
ENDROOT
BRANCH   1  12
ATOM     12  C   UNL     1       0.012  47.060   8.714  1.00  0.00     0.025 A 
ATOM     13  C   UNL     1       0.902  48.143   8.615  1.00  0.00     0.016 A 
ATOM     14  C   UNL     1       1.588  48.599   9.743  1.00  0.00     0.051 A 
ATOM     15  C   UNL     1       1.383  47.991  10.988  1.00  0.00     0.157 A 
ATOM     16  C   UNL     1      -0.205  46.466   9.969  1.00  0.00     0.062 A 
ATOM     17  C   UNL     1       0.483  46.924  11.102  1.00  0.00     0.158 A 
BRANCH  15  18
ATOM     18  O   UNL     1       2.066  48.442  12.116  1.00  0.00    -0.504 OA
ATOM     19  H   UNL     1       3.059  48.645  12.089  1.00  0.00     0.293 HD
ENDBRANCH  15  18
BRANCH  17  20
ATOM     20  O   UNL     1       0.276  46.325  12.343  1.00  0.00    -0.504 OA
ATOM     21  H   UNL     1      -0.615  45.909  12.589  1.00  0.00     0.293 HD
ENDBRANCH  17  20
ENDBRANCH   1  12
BRANCH   2  22
ATOM     22  O   UNL     1      -2.761  46.232   8.849  1.00  0.00    -0.502 OA
ATOM     23  H   UNL     1      -3.433  45.534   9.147  1.00  0.00     0.293 HD
ENDBRANCH   2  22
BRANCH   6  24
ATOM     24  O   UNL     1      -3.812  44.485   3.928  1.00  0.00    -0.507 OA
ATOM     25  H   UNL     1      -4.611  44.861   3.440  1.00  0.00     0.293 HD
ENDBRANCH   6  24
BRANCH   8  26
ATOM     26  O   UNL     1       0.174  45.846   1.658  1.00  0.00    -0.508 OA
ATOM     27  H   UNL     1      -0.291  46.000   0.772  1.00  0.00     0.293 HD
ENDBRANCH   8  26
TORSDOF 6
ENDMDL
MODEL 7
REMARK VINA RESULT:    -8.014      1.757      7.114
REMARK INTER + INTRA:          -9.887
REMARK INTER:                 -10.015
REMARK INTRA:                   0.127
REMARK UNBOUND:                -0.233
REMARK SMILES O=c1c(O)c(-c2ccc(O)c(O)c2)oc2cc(O)cc(O)c12
REMARK SMILES IDX 5 1 3 2 2 3 1 4 22 5 20 6 19 7 17 8 16 9 15 10 14 11 6 12
REMARK SMILES IDX 7 13 8 14 9 15 13 16 11 17 10 18 12 20 4 22 21 24 18 26
REMARK H PARENT 10 19 12 21 4 23 21 25 18 27
REMARK Flexibility Score: inf
ROOT
ATOM      1  C   UNL     1       1.719  44.474  -1.897  1.00  0.00     0.180 A 
ATOM      2  C   UNL     1       0.515  44.495  -2.620  1.00  0.00     0.208 A 
ATOM      3  C   UNL     1      -0.682  44.774  -1.942  1.00  0.00     0.238 A 
ATOM      4  O   UNL     1      -1.764  44.737  -2.585  1.00  0.00    -0.285 OA
ATOM      5  C   UNL     1      -0.658  45.046  -0.553  1.00  0.00     0.111 A 
ATOM      6  C   UNL     1      -1.805  45.382   0.227  1.00  0.00     0.134 A 
ATOM      7  C   UNL     1      -1.683  45.502   1.618  1.00  0.00     0.093 A 
ATOM      8  C   UNL     1      -0.447  45.365   2.246  1.00  0.00     0.123 A 
ATOM      9  C   UNL     1       0.692  45.096   1.487  1.00  0.00     0.094 A 
ATOM     10  C   UNL     1       0.596  44.935   0.103  1.00  0.00     0.146 A 
ATOM     11  O   UNL     1       1.701  44.670  -0.583  1.00  0.00    -0.452 OA
ENDROOT
BRANCH   1  12
ATOM     12  C   UNL     1       3.024  44.213  -2.546  1.00  0.00     0.025 A 
ATOM     13  C   UNL     1       3.962  43.333  -1.978  1.00  0.00     0.016 A 
ATOM     14  C   UNL     1       5.177  43.084  -2.621  1.00  0.00     0.051 A 
ATOM     15  C   UNL     1       5.467  43.698  -3.846  1.00  0.00     0.157 A 
ATOM     16  C   UNL     1       3.311  44.810  -3.786  1.00  0.00     0.062 A 
ATOM     17  C   UNL     1       4.531  44.560  -4.431  1.00  0.00     0.158 A 
BRANCH  15  18
ATOM     18  O   UNL     1       6.678  43.453  -4.490  1.00  0.00    -0.504 OA
ATOM     19  H   UNL     1       6.718  42.959  -5.375  1.00  0.00     0.293 HD
ENDBRANCH  15  18
BRANCH  17  20
ATOM     20  O   UNL     1       4.819  45.165  -5.653  1.00  0.00    -0.504 OA
ATOM     21  H   UNL     1       5.428  44.723  -6.332  1.00  0.00     0.293 HD
ENDBRANCH  17  20
ENDBRANCH   1  12
BRANCH   2  22
ATOM     22  O   UNL     1       0.511  44.202  -3.987  1.00  0.00    -0.502 OA
ATOM     23  H   UNL     1       0.635  43.261  -4.342  1.00  0.00     0.293 HD
ENDBRANCH   2  22
BRANCH   6  24
ATOM     24  O   UNL     1      -3.071  45.631  -0.312  1.00  0.00    -0.507 OA
ATOM     25  H   UNL     1      -3.729  46.302   0.055  1.00  0.00     0.293 HD
ENDBRANCH   6  24
BRANCH   8  26
ATOM     26  O   UNL     1      -0.360  45.508   3.630  1.00  0.00    -0.508 OA
ATOM     27  H   UNL     1      -0.624  46.370   4.091  1.00  0.00     0.293 HD
ENDBRANCH   8  26
TORSDOF 6
ENDMDL
MODEL 8
REMARK VINA RESULT:    -7.853      5.774     10.447
REMARK INTER + INTRA:          -9.693
REMARK INTER:                  -9.410
REMARK INTRA:                  -0.283
REMARK UNBOUND:                -0.233
REMARK SMILES O=c1c(O)c(-c2ccc(O)c(O)c2)oc2cc(O)cc(O)c12
REMARK SMILES IDX 5 1 3 2 2 3 1 4 22 5 20 6 19 7 17 8 16 9 15 10 14 11 6 12
REMARK SMILES IDX 7 13 8 14 9 15 13 16 11 17 10 18 12 20 4 22 21 24 18 26
REMARK H PARENT 10 19 12 21 4 23 21 25 18 27
REMARK Flexibility Score: inf
ROOT
ATOM      1  C   UNL     1      -0.173  46.931   8.139  1.00  0.00     0.180 A 
ATOM      2  C   UNL     1       0.089  48.288   8.398  1.00  0.00     0.208 A 
ATOM      3  C   UNL     1       0.768  48.637   9.576  1.00  0.00     0.238 A 
ATOM      4  O   UNL     1       0.951  49.857   9.828  1.00  0.00    -0.285 OA
ATOM      5  C   UNL     1       1.191  47.626  10.471  1.00  0.00     0.111 A 
ATOM      6  C   UNL     1       1.923  47.863  11.674  1.00  0.00     0.134 A 
ATOM      7  C   UNL     1       2.174  46.799  12.550  1.00  0.00     0.093 A 
ATOM      8  C   UNL     1       1.780  45.500  12.236  1.00  0.00     0.123 A 
ATOM      9  C   UNL     1       1.118  45.247  11.035  1.00  0.00     0.094 A 
ATOM     10  C   UNL     1       0.820  46.292  10.158  1.00  0.00     0.146 A 
ATOM     11  O   UNL     1       0.179  46.012   9.030  1.00  0.00    -0.452 OA
ENDROOT
BRANCH   1  12
ATOM     12  C   UNL     1      -0.861  46.483   6.907  1.00  0.00     0.025 A 
ATOM     13  C   UNL     1      -0.199  46.454   5.668  1.00  0.00     0.016 A 
ATOM     14  C   UNL     1      -0.862  46.005   4.522  1.00  0.00     0.051 A 
ATOM     15  C   UNL     1      -2.190  45.565   4.601  1.00  0.00     0.157 A 
ATOM     16  C   UNL     1      -2.187  46.021   6.984  1.00  0.00     0.062 A 
ATOM     17  C   UNL     1      -2.852  45.571   5.835  1.00  0.00     0.158 A 
BRANCH  15  18
ATOM     18  O   UNL     1      -2.855  45.118   3.461  1.00  0.00    -0.504 OA
ATOM     19  H   UNL     1      -2.472  44.381   2.879  1.00  0.00     0.293 HD
ENDBRANCH  15  18
BRANCH  17  20
ATOM     20  O   UNL     1      -4.171  45.127   5.912  1.00  0.00    -0.504 OA
ATOM     21  H   UNL     1      -4.776  45.118   5.099  1.00  0.00     0.293 HD
ENDBRANCH  17  20
ENDBRANCH   1  12
BRANCH   2  22
ATOM     22  O   UNL     1      -0.356  49.271   7.511  1.00  0.00    -0.502 OA
ATOM     23  H   UNL     1       0.188  49.568   6.709  1.00  0.00     0.293 HD
ENDBRANCH   2  22
BRANCH   6  24
ATOM     24  O   UNL     1       2.442  49.108  12.040  1.00  0.00    -0.507 OA
ATOM     25  H   UNL     1       2.806  49.332  12.954  1.00  0.00     0.293 HD
ENDBRANCH   6  24
BRANCH   8  26
ATOM     26  O   UNL     1       2.062  44.463  13.124  1.00  0.00    -0.508 OA
ATOM     27  H   UNL     1       2.825  43.817  12.959  1.00  0.00     0.293 HD
ENDBRANCH   8  26
TORSDOF 6
ENDMDL
MODEL 9
REMARK VINA RESULT:    -7.716      9.068     11.390
REMARK INTER + INTRA:          -9.528
REMARK INTER:                  -9.380
REMARK INTRA:                  -0.149
REMARK UNBOUND:                -0.233
REMARK SMILES O=c1c(O)c(-c2ccc(O)c(O)c2)oc2cc(O)cc(O)c12
REMARK SMILES IDX 5 1 3 2 2 3 1 4 22 5 20 6 19 7 17 8 16 9 15 10 14 11 6 12
REMARK SMILES IDX 7 13 8 14 9 15 13 16 11 17 10 18 12 20 4 22 21 24 18 26
REMARK H PARENT 10 19 12 21 4 23 21 25 18 27
REMARK Flexibility Score: inf
ROOT
ATOM      1  C   UNL     1       8.866  47.118  -1.910  1.00  0.00     0.180 A 
ATOM      2  C   UNL     1       8.314  48.345  -1.502  1.00  0.00     0.208 A 
ATOM      3  C   UNL     1       8.580  48.813  -0.206  1.00  0.00     0.238 A 
ATOM      4  O   UNL     1       8.038  49.885   0.172  1.00  0.00    -0.285 OA
ATOM      5  C   UNL     1       9.408  48.059   0.660  1.00  0.00     0.111 A 
ATOM      6  C   UNL     1       9.777  48.458   1.980  1.00  0.00     0.134 A 
ATOM      7  C   UNL     1      10.493  47.571   2.794  1.00  0.00     0.093 A 
ATOM      8  C   UNL     1      10.910  46.331   2.315  1.00  0.00     0.123 A 
ATOM      9  C   UNL     1      10.606  45.955   1.006  1.00  0.00     0.094 A 
ATOM     10  C   UNL     1       9.862  46.802   0.182  1.00  0.00     0.146 A 
ATOM     11  O   UNL     1       9.585  46.403  -1.053  1.00  0.00    -0.452 OA
ENDROOT
BRANCH   1  12
ATOM     12  C   UNL     1       8.652  46.571  -3.270  1.00  0.00     0.025 A 
ATOM     13  C   UNL     1       9.724  46.376  -4.158  1.00  0.00     0.016 A 
ATOM     14  C   UNL     1       9.500  45.837  -5.427  1.00  0.00     0.051 A 
ATOM     15  C   UNL     1       8.207  45.471  -5.822  1.00  0.00     0.157 A 
ATOM     16  C   UNL     1       7.359  46.184  -3.663  1.00  0.00     0.062 A 
ATOM     17  C   UNL     1       7.135  45.643  -4.938  1.00  0.00     0.158 A 
BRANCH  15  18
ATOM     18  O   UNL     1       7.979  44.934  -7.088  1.00  0.00    -0.504 OA
ATOM     19  H   UNL     1       7.807  45.527  -7.892  1.00  0.00     0.293 HD
ENDBRANCH  15  18
BRANCH  17  20
ATOM     20  O   UNL     1       5.850  45.273  -5.330  1.00  0.00    -0.504 OA
ATOM     21  H   UNL     1       5.045  45.852  -5.121  1.00  0.00     0.293 HD
ENDBRANCH  17  20
ENDBRANCH   1  12
BRANCH   2  22
ATOM     22  O   UNL     1       7.482  49.063  -2.365  1.00  0.00    -0.502 OA
ATOM     23  H   UNL     1       6.522  48.793  -2.545  1.00  0.00     0.293 HD
ENDBRANCH   2  22
BRANCH   6  24
ATOM     24  O   UNL     1       9.490  49.713   2.525  1.00  0.00    -0.507 OA
ATOM     25  H   UNL     1       9.293  50.542   1.985  1.00  0.00     0.293 HD
ENDBRANCH   6  24
BRANCH   8  26
ATOM     26  O   UNL     1      11.635  45.480   3.148  1.00  0.00    -0.508 OA
ATOM     27  H   UNL     1      12.610  45.269   2.970  1.00  0.00     0.293 HD
ENDBRANCH   8  26
TORSDOF 6
ENDMDL
