MODEL 1
REMARK VINA RESULT:    -6.219      0.000      0.000
REMARK INTER + INTRA:          -7.813
REMARK INTER:                  -7.491
REMARK INTRA:                  -0.322
REMARK UNBOUND:                -0.322
REMARK SMILES O=c1c(O)c(-c2ccc(O)c(O)c2)oc2cc(O)cc(O)c12
REMARK SMILES IDX 5 1 3 2 2 3 1 4 22 5 20 6 19 7 17 8 16 9 15 10 14 11 6 12
REMARK SMILES IDX 7 13 8 14 9 15 13 16 11 17 10 18 12 20 4 22 21 24 18 26
REMARK H PARENT 10 19 12 21 4 23 21 25 18 27
REMARK Flexibility Score: inf
ROOT
ATOM      1  C   UNL     1      -2.120   5.027   6.382  1.00  0.00     0.180 A 
ATOM      2  C   UNL     1      -3.313   4.610   6.999  1.00  0.00     0.208 A 
ATOM      3  C   UNL     1      -4.518   4.707   6.285  1.00  0.00     0.238 A 
ATOM      4  O   UNL     1      -5.590   4.402   6.868  1.00  0.00    -0.285 OA
ATOM      5  C   UNL     1      -4.509   5.166   4.945  1.00  0.00     0.111 A 
ATOM      6  C   UNL     1      -5.664   5.263   4.112  1.00  0.00     0.134 A 
ATOM      7  C   UNL     1      -5.551   5.833   2.837  1.00  0.00     0.093 A 
ATOM      8  C   UNL     1      -4.313   6.250   2.342  1.00  0.00     0.123 A 
ATOM      9  C   UNL     1      -3.171   6.109   3.126  1.00  0.00     0.094 A 
ATOM     10  C   UNL     1      -3.258   5.580   4.416  1.00  0.00     0.146 A 
ATOM     11  O   UNL     1      -2.147   5.484   5.137  1.00  0.00    -0.452 OA
ENDROOT
BRANCH   1  12
ATOM     12  C   UNL     1      -0.813   4.968   7.076  1.00  0.00     0.025 A 
ATOM     13  C   UNL     1      -0.027   3.802   7.060  1.00  0.00     0.016 A 
ATOM     14  C   UNL     1       1.192   3.763   7.743  1.00  0.00     0.051 A 
ATOM     15  C   UNL     1       1.636   4.881   8.461  1.00  0.00     0.157 A 
ATOM     16  C   UNL     1      -0.373   6.079   7.814  1.00  0.00     0.062 A 
ATOM     17  C   UNL     1       0.851   6.041   8.499  1.00  0.00     0.158 A 
BRANCH  15  18
ATOM     18  O   UNL     1       2.851   4.847   9.141  1.00  0.00    -0.504 OA
ATOM     19  H   UNL     1       2.906   5.012  10.139  1.00  0.00     0.293 HD
ENDBRANCH  15  18
BRANCH  17  20
ATOM     20  O   UNL     1       1.291   7.148   9.221  1.00  0.00    -0.504 OA
ATOM     21  H   UNL     1       1.979   7.789   8.841  1.00  0.00     0.293 HD
ENDBRANCH  17  20
ENDBRANCH   1  12
BRANCH   2  22
ATOM     22  O   UNL     1      -3.290   4.087   8.294  1.00  0.00    -0.502 OA
ATOM     23  H   UNL     1      -4.034   3.505   8.659  1.00  0.00     0.293 HD
ENDBRANCH   2  22
BRANCH   6  24
ATOM     24  O   UNL     1      -6.932   4.797   4.473  1.00  0.00    -0.507 OA
ATOM     25  H   UNL     1      -7.769   4.915   3.924  1.00  0.00     0.293 HD
ENDBRANCH   6  24
BRANCH   8  26
ATOM     26  O   UNL     1      -4.207   6.799   1.065  1.00  0.00    -0.508 OA
ATOM     27  H   UNL     1      -4.030   7.787   0.926  1.00  0.00     0.293 HD
ENDBRANCH   8  26
TORSDOF 6
ENDMDL
MODEL 2
REMARK VINA RESULT:    -6.126      1.149      1.740
REMARK INTER + INTRA:          -7.701
REMARK INTER:                  -7.519
REMARK INTRA:                  -0.182
REMARK UNBOUND:                -0.322
REMARK SMILES O=c1c(O)c(-c2ccc(O)c(O)c2)oc2cc(O)cc(O)c12
REMARK SMILES IDX 5 1 3 2 2 3 1 4 22 5 20 6 19 7 17 8 16 9 15 10 14 11 6 12
REMARK SMILES IDX 7 13 8 14 9 15 13 16 11 17 10 18 12 20 4 22 21 24 18 26
REMARK H PARENT 10 19 12 21 4 23 21 25 18 27
REMARK Flexibility Score: inf
ROOT
ATOM      1  C   UNL     1      -1.403   4.931   7.049  1.00  0.00     0.180 A 
ATOM      2  C   UNL     1      -2.622   4.589   7.662  1.00  0.00     0.208 A 
ATOM      3  C   UNL     1      -3.805   4.658   6.908  1.00  0.00     0.238 A 
ATOM      4  O   UNL     1      -4.900   4.422   7.482  1.00  0.00    -0.285 OA
ATOM      5  C   UNL     1      -3.749   5.012   5.538  1.00  0.00     0.111 A 
ATOM      6  C   UNL     1      -4.879   5.071   4.667  1.00  0.00     0.134 A 
ATOM      7  C   UNL     1      -4.718   5.538   3.356  1.00  0.00     0.093 A 
ATOM      8  C   UNL     1      -3.458   5.888   2.867  1.00  0.00     0.123 A 
ATOM      9  C   UNL     1      -2.341   5.782   3.691  1.00  0.00     0.094 A 
ATOM     10  C   UNL     1      -2.475   5.356   5.015  1.00  0.00     0.146 A 
ATOM     11  O   UNL     1      -1.387   5.292   5.772  1.00  0.00    -0.452 OA
ENDROOT
BRANCH   1  12
ATOM     12  C   UNL     1      -0.117   4.897   7.782  1.00  0.00     0.025 A 
ATOM     13  C   UNL     1       0.617   6.071   8.028  1.00  0.00     0.016 A 
ATOM     14  C   UNL     1       1.841   6.011   8.700  1.00  0.00     0.051 A 
ATOM     15  C   UNL     1       2.355   4.778   9.123  1.00  0.00     0.157 A 
ATOM     16  C   UNL     1       0.413   3.662   8.190  1.00  0.00     0.062 A 
ATOM     17  C   UNL     1       1.641   3.601   8.865  1.00  0.00     0.158 A 
BRANCH  15  18
ATOM     18  O   UNL     1       3.574   4.714   9.795  1.00  0.00    -0.504 OA
ATOM     19  H   UNL     1       4.435   4.490   9.310  1.00  0.00     0.293 HD
ENDBRANCH  15  18
BRANCH  17  20
ATOM     20  O   UNL     1       2.158   2.375   9.280  1.00  0.00    -0.504 OA
ATOM     21  H   UNL     1       2.249   2.143  10.262  1.00  0.00     0.293 HD
ENDBRANCH  17  20
ENDBRANCH   1  12
BRANCH   2  22
ATOM     22  O   UNL     1      -2.646   4.167   8.993  1.00  0.00    -0.502 OA
ATOM     23  H   UNL     1      -2.339   4.757   9.757  1.00  0.00     0.293 HD
ENDBRANCH   2  22
BRANCH   6  24
ATOM     24  O   UNL     1      -6.167   4.661   5.027  1.00  0.00    -0.507 OA
ATOM     25  H   UNL     1      -7.013   4.926   4.546  1.00  0.00     0.293 HD
ENDBRANCH   6  24
BRANCH   8  26
ATOM     26  O   UNL     1      -3.304   6.335   1.555  1.00  0.00    -0.508 OA
ATOM     27  H   UNL     1      -3.486   5.728   0.764  1.00  0.00     0.293 HD
ENDBRANCH   8  26
TORSDOF 6
ENDMDL
MODEL 3
REMARK VINA RESULT:    -5.879      1.565      7.116
REMARK INTER + INTRA:          -7.404
REMARK INTER:                  -7.098
REMARK INTRA:                  -0.306
REMARK UNBOUND:                -0.322
REMARK SMILES O=c1c(O)c(-c2ccc(O)c(O)c2)oc2cc(O)cc(O)c12
REMARK SMILES IDX 5 1 3 2 2 3 1 4 22 5 20 6 19 7 17 8 16 9 15 10 14 11 6 12
REMARK SMILES IDX 7 13 8 14 9 15 13 16 11 17 10 18 12 20 4 22 21 24 18 26
REMARK H PARENT 10 19 12 21 4 23 21 25 18 27
REMARK Flexibility Score: inf
ROOT
ATOM      1  C   UNL     1      -2.277   5.524   6.197  1.00  0.00     0.180 A 
ATOM      2  C   UNL     1      -1.776   6.828   6.365  1.00  0.00     0.208 A 
ATOM      3  C   UNL     1      -0.600   7.014   7.109  1.00  0.00     0.238 A 
ATOM      4  O   UNL     1      -0.199   8.188   7.317  1.00  0.00    -0.285 OA
ATOM      5  C   UNL     1       0.092   5.892   7.628  1.00  0.00     0.111 A 
ATOM      6  C   UNL     1       1.316   5.960   8.358  1.00  0.00     0.134 A 
ATOM      7  C   UNL     1       1.854   4.792   8.915  1.00  0.00     0.093 A 
ATOM      8  C   UNL     1       1.245   3.552   8.714  1.00  0.00     0.123 A 
ATOM      9  C   UNL     1       0.080   3.467   7.956  1.00  0.00     0.094 A 
ATOM     10  C   UNL     1      -0.501   4.620   7.420  1.00  0.00     0.146 A 
ATOM     11  O   UNL     1      -1.624   4.495   6.723  1.00  0.00    -0.452 OA
ENDROOT
BRANCH   1  12
ATOM     12  C   UNL     1      -3.518   5.249   5.438  1.00  0.00     0.025 A 
ATOM     13  C   UNL     1      -3.518   5.180   4.033  1.00  0.00     0.016 A 
ATOM     14  C   UNL     1      -4.707   4.944   3.338  1.00  0.00     0.051 A 
ATOM     15  C   UNL     1      -5.914   4.787   4.033  1.00  0.00     0.157 A 
ATOM     16  C   UNL     1      -4.734   5.112   6.128  1.00  0.00     0.062 A 
ATOM     17  C   UNL     1      -5.928   4.874   5.431  1.00  0.00     0.158 A 
BRANCH  15  18
ATOM     18  O   UNL     1      -7.100   4.549   3.344  1.00  0.00    -0.504 OA
ATOM     19  H   UNL     1      -8.003   4.761   3.753  1.00  0.00     0.293 HD
ENDBRANCH  15  18
BRANCH  17  20
ATOM     20  O   UNL     1      -7.130   4.726   6.120  1.00  0.00    -0.504 OA
ATOM     21  H   UNL     1      -7.991   5.138   5.779  1.00  0.00     0.293 HD
ENDBRANCH  17  20
ENDBRANCH   1  12
BRANCH   2  22
ATOM     22  O   UNL     1      -2.431   7.914   5.779  1.00  0.00    -0.502 OA
ATOM     23  H   UNL     1      -2.237   8.872   6.042  1.00  0.00     0.293 HD
ENDBRANCH   2  22
BRANCH   6  24
ATOM     24  O   UNL     1       2.054   7.133   8.544  1.00  0.00    -0.507 OA
ATOM     25  H   UNL     1       3.036   7.169   8.769  1.00  0.00     0.293 HD
ENDBRANCH   6  24
BRANCH   8  26
ATOM     26  O   UNL     1       1.797   2.393   9.257  1.00  0.00    -0.508 OA
ATOM     27  H   UNL     1       2.718   2.068   8.987  1.00  0.00     0.293 HD
ENDBRANCH   8  26
TORSDOF 6
ENDMDL
MODEL 4
REMARK VINA RESULT:    -5.528     14.902     15.825
REMARK INTER + INTRA:          -6.981
REMARK INTER:                  -7.067
REMARK INTRA:                   0.087
REMARK UNBOUND:                -0.322
REMARK SMILES O=c1c(O)c(-c2ccc(O)c(O)c2)oc2cc(O)cc(O)c12
REMARK SMILES IDX 5 1 3 2 2 3 1 4 22 5 20 6 19 7 17 8 16 9 15 10 14 11 6 12
REMARK SMILES IDX 7 13 8 14 9 15 13 16 11 17 10 18 12 20 4 22 21 24 18 26
REMARK H PARENT 10 19 12 21 4 23 21 25 18 27
REMARK Flexibility Score: inf
ROOT
ATOM      1  C   UNL     1      -4.987  -8.564  -0.092  1.00  0.00     0.180 A 
ATOM      2  C   UNL     1      -3.721  -9.070  -0.436  1.00  0.00     0.208 A 
ATOM      3  C   UNL     1      -3.112  -8.630  -1.623  1.00  0.00     0.238 A 
ATOM      4  O   UNL     1      -2.014  -9.141  -1.962  1.00  0.00    -0.285 OA
ATOM      5  C   UNL     1      -3.750  -7.649  -2.422  1.00  0.00     0.111 A 
ATOM      6  C   UNL     1      -3.206  -7.098  -3.621  1.00  0.00     0.134 A 
ATOM      7  C   UNL     1      -3.975  -6.211  -4.385  1.00  0.00     0.093 A 
ATOM      8  C   UNL     1      -5.243  -5.808  -3.961  1.00  0.00     0.123 A 
ATOM      9  C   UNL     1      -5.761  -6.297  -2.765  1.00  0.00     0.094 A 
ATOM     10  C   UNL     1      -5.033  -7.212  -1.999  1.00  0.00     0.146 A 
ATOM     11  O   UNL     1      -5.575  -7.670  -0.877  1.00  0.00    -0.452 OA
ENDROOT
BRANCH   1  12
ATOM     12  C   UNL     1      -5.698  -8.990   1.135  1.00  0.00     0.025 A 
ATOM     13  C   UNL     1      -7.067  -9.309   1.115  1.00  0.00     0.016 A 
ATOM     14  C   UNL     1      -7.722  -9.684   2.291  1.00  0.00     0.051 A 
ATOM     15  C   UNL     1      -7.023  -9.733   3.505  1.00  0.00     0.157 A 
ATOM     16  C   UNL     1      -5.008  -9.020   2.358  1.00  0.00     0.062 A 
ATOM     17  C   UNL     1      -5.664  -9.398   3.539  1.00  0.00     0.158 A 
BRANCH  15  18
ATOM     18  O   UNL     1      -7.672 -10.109   4.678  1.00  0.00    -0.504 OA
ATOM     19  H   UNL     1      -7.188 -10.609   5.416  1.00  0.00     0.293 HD
ENDBRANCH  15  18
BRANCH  17  20
ATOM     20  O   UNL     1      -4.973  -9.440   4.748  1.00  0.00    -0.504 OA
ATOM     21  H   UNL     1      -4.390  -8.669   5.053  1.00  0.00     0.293 HD
ENDBRANCH  17  20
ENDBRANCH   1  12
BRANCH   2  22
ATOM     22  O   UNL     1      -3.073  -9.978   0.404  1.00  0.00    -0.502 OA
ATOM     23  H   UNL     1      -2.215  -9.752   0.892  1.00  0.00     0.293 HD
ENDBRANCH   2  22
BRANCH   6  24
ATOM     24  O   UNL     1      -1.916  -7.364  -4.090  1.00  0.00    -0.507 OA
ATOM     25  H   UNL     1      -1.078  -7.324  -3.530  1.00  0.00     0.293 HD
ENDBRANCH   6  24
BRANCH   8  26
ATOM     26  O   UNL     1      -5.994  -4.912  -4.719  1.00  0.00    -0.508 OA
ATOM     27  H   UNL     1      -6.051  -4.989  -5.728  1.00  0.00     0.293 HD
ENDBRANCH   8  26
TORSDOF 6
ENDMDL
MODEL 5
REMARK VINA RESULT:    -5.516     14.883     15.447
REMARK INTER + INTRA:          -6.966
REMARK INTER:                  -7.375
REMARK INTRA:                   0.409
REMARK UNBOUND:                -0.322
REMARK SMILES O=c1c(O)c(-c2ccc(O)c(O)c2)oc2cc(O)cc(O)c12
REMARK SMILES IDX 5 1 3 2 2 3 1 4 22 5 20 6 19 7 17 8 16 9 15 10 14 11 6 12
REMARK SMILES IDX 7 13 8 14 9 15 13 16 11 17 10 18 12 20 4 22 21 24 18 26
REMARK H PARENT 10 19 12 21 4 23 21 25 18 27
REMARK Flexibility Score: inf
ROOT
ATOM      1  C   UNL     1      -5.764  -7.855  -0.357  1.00  0.00     0.180 A 
ATOM      2  C   UNL     1      -6.885  -7.222  -0.923  1.00  0.00     0.208 A 
ATOM      3  C   UNL     1      -6.771  -6.652  -2.201  1.00  0.00     0.238 A 
ATOM      4  O   UNL     1      -7.755  -6.024  -2.670  1.00  0.00    -0.285 OA
ATOM      5  C   UNL     1      -5.558  -6.771  -2.921  1.00  0.00     0.111 A 
ATOM      6  C   UNL     1      -5.344  -6.270  -4.241  1.00  0.00     0.134 A 
ATOM      7  C   UNL     1      -4.067  -6.352  -4.813  1.00  0.00     0.093 A 
ATOM      8  C   UNL     1      -3.014  -6.972  -4.137  1.00  0.00     0.123 A 
ATOM      9  C   UNL     1      -3.226  -7.512  -2.871  1.00  0.00     0.094 A 
ATOM     10  C   UNL     1      -4.478  -7.412  -2.259  1.00  0.00     0.146 A 
ATOM     11  O   UNL     1      -4.630  -7.922  -1.042  1.00  0.00    -0.452 OA
ENDROOT
BRANCH   1  12
ATOM     12  C   UNL     1      -5.802  -8.467   0.991  1.00  0.00     0.025 A 
ATOM     13  C   UNL     1      -7.021  -8.758   1.630  1.00  0.00     0.016 A 
ATOM     14  C   UNL     1      -7.031  -9.312   2.913  1.00  0.00     0.051 A 
ATOM     15  C   UNL     1      -5.826  -9.570   3.580  1.00  0.00     0.157 A 
ATOM     16  C   UNL     1      -4.599  -8.708   1.674  1.00  0.00     0.062 A 
ATOM     17  C   UNL     1      -4.608  -9.265   2.961  1.00  0.00     0.158 A 
BRANCH  15  18
ATOM     18  O   UNL     1      -5.833 -10.125   4.858  1.00  0.00    -0.504 OA
ATOM     19  H   UNL     1      -6.271  -9.651   5.640  1.00  0.00     0.293 HD
ENDBRANCH  15  18
BRANCH  17  20
ATOM     20  O   UNL     1      -3.412  -9.516   3.631  1.00  0.00    -0.504 OA
ATOM     21  H   UNL     1      -2.648  -8.849   3.620  1.00  0.00     0.293 HD
ENDBRANCH  17  20
ENDBRANCH   1  12
BRANCH   2  22
ATOM     22  O   UNL     1      -8.097  -7.184  -0.228  1.00  0.00    -0.502 OA
ATOM     23  H   UNL     1      -8.242  -6.592   0.581  1.00  0.00     0.293 HD
ENDBRANCH   2  22
BRANCH   6  24
ATOM     24  O   UNL     1      -6.347  -5.712  -5.039  1.00  0.00    -0.507 OA
ATOM     25  H   UNL     1      -6.186  -5.139  -5.853  1.00  0.00     0.293 HD
ENDBRANCH   6  24
BRANCH   8  26
ATOM     26  O   UNL     1      -1.752  -7.064  -4.721  1.00  0.00    -0.508 OA
ATOM     27  H   UNL     1      -1.596  -6.809  -5.689  1.00  0.00     0.293 HD
ENDBRANCH   8  26
TORSDOF 6
ENDMDL
MODEL 6
REMARK VINA RESULT:    -5.492      1.704      6.599
REMARK INTER + INTRA:          -6.938
REMARK INTER:                  -6.622
REMARK INTRA:                  -0.316
REMARK UNBOUND:                -0.322
REMARK SMILES O=c1c(O)c(-c2ccc(O)c(O)c2)oc2cc(O)cc(O)c12
REMARK SMILES IDX 5 1 3 2 2 3 1 4 22 5 20 6 19 7 17 8 16 9 15 10 14 11 6 12
REMARK SMILES IDX 7 13 8 14 9 15 13 16 11 17 10 18 12 20 4 22 21 24 18 26
REMARK H PARENT 10 19 12 21 4 23 21 25 18 27
REMARK Flexibility Score: inf
ROOT
ATOM      1  C   UNL     1      -3.398   5.007   6.322  1.00  0.00     0.180 A 
ATOM      2  C   UNL     1      -3.984   4.723   7.568  1.00  0.00     0.208 A 
ATOM      3  C   UNL     1      -3.164   4.300   8.627  1.00  0.00     0.238 A 
ATOM      4  O   UNL     1      -3.704   3.979   9.716  1.00  0.00    -0.285 OA
ATOM      5  C   UNL     1      -1.762   4.220   8.443  1.00  0.00     0.111 A 
ATOM      6  C   UNL     1      -0.830   3.846   9.458  1.00  0.00     0.134 A 
ATOM      7  C   UNL     1       0.525   3.698   9.132  1.00  0.00     0.093 A 
ATOM      8  C   UNL     1       0.989   3.971   7.843  1.00  0.00     0.123 A 
ATOM      9  C   UNL     1       0.097   4.389   6.860  1.00  0.00     0.094 A 
ATOM     10  C   UNL     1      -1.266   4.510   7.145  1.00  0.00     0.146 A 
ATOM     11  O   UNL     1      -2.084   4.890   6.171  1.00  0.00    -0.452 OA
ENDROOT
BRANCH   1  12
ATOM     12  C   UNL     1      -4.198   5.443   5.156  1.00  0.00     0.025 A 
ATOM     13  C   UNL     1      -4.884   4.517   4.350  1.00  0.00     0.016 A 
ATOM     14  C   UNL     1      -5.613   4.951   3.239  1.00  0.00     0.051 A 
ATOM     15  C   UNL     1      -5.657   6.313   2.910  1.00  0.00     0.157 A 
ATOM     16  C   UNL     1      -4.228   6.804   4.809  1.00  0.00     0.062 A 
ATOM     17  C   UNL     1      -4.960   7.241   3.695  1.00  0.00     0.158 A 
BRANCH  15  18
ATOM     18  O   UNL     1      -6.384   6.750   1.806  1.00  0.00    -0.504 OA
ATOM     19  H   UNL     1      -5.944   7.262   1.049  1.00  0.00     0.293 HD
ENDBRANCH  15  18
BRANCH  17  20
ATOM     20  O   UNL     1      -4.999   8.593   3.362  1.00  0.00    -0.504 OA
ATOM     21  H   UNL     1      -4.154   9.151   3.312  1.00  0.00     0.293 HD
ENDBRANCH  17  20
ENDBRANCH   1  12
BRANCH   2  22
ATOM     22  O   UNL     1      -5.360   4.884   7.751  1.00  0.00    -0.502 OA
ATOM     23  H   UNL     1      -5.822   5.779   7.647  1.00  0.00     0.293 HD
ENDBRANCH   2  22
BRANCH   6  24
ATOM     24  O   UNL     1      -1.173   3.636  10.797  1.00  0.00    -0.507 OA
ATOM     25  H   UNL     1      -1.750   4.252  11.349  1.00  0.00     0.293 HD
ENDBRANCH   6  24
BRANCH   8  26
ATOM     26  O   UNL     1       2.341   3.837   7.533  1.00  0.00    -0.508 OA
ATOM     27  H   UNL     1       2.981   4.620   7.604  1.00  0.00     0.293 HD
ENDBRANCH   8  26
TORSDOF 6
ENDMDL
MODEL 7
REMARK VINA RESULT:    -5.476      1.721      7.066
REMARK INTER + INTRA:          -6.918
REMARK INTER:                  -6.754
REMARK INTRA:                  -0.164
REMARK UNBOUND:                -0.322
REMARK SMILES O=c1c(O)c(-c2ccc(O)c(O)c2)oc2cc(O)cc(O)c12
REMARK SMILES IDX 5 1 3 2 2 3 1 4 22 5 20 6 19 7 17 8 16 9 15 10 14 11 6 12
REMARK SMILES IDX 7 13 8 14 9 15 13 16 11 17 10 18 12 20 4 22 21 24 18 26
REMARK H PARENT 10 19 12 21 4 23 21 25 18 27
REMARK Flexibility Score: inf
ROOT
ATOM      1  C   UNL     1      -1.719   5.317   7.296  1.00  0.00     0.180 A 
ATOM      2  C   UNL     1      -1.883   6.156   8.412  1.00  0.00     0.208 A 
ATOM      3  C   UNL     1      -0.847   6.242   9.357  1.00  0.00     0.238 A 
ATOM      4  O   UNL     1      -1.029   6.938  10.389  1.00  0.00    -0.285 OA
ATOM      5  C   UNL     1       0.361   5.533   9.145  1.00  0.00     0.111 A 
ATOM      6  C   UNL     1       1.494   5.582  10.013  1.00  0.00     0.134 A 
ATOM      7  C   UNL     1       2.595   4.754   9.758  1.00  0.00     0.093 A 
ATOM      8  C   UNL     1       2.629   3.927   8.633  1.00  0.00     0.123 A 
ATOM      9  C   UNL     1       1.552   3.913   7.751  1.00  0.00     0.094 A 
ATOM     10  C   UNL     1       0.424   4.700   7.998  1.00  0.00     0.146 A 
ATOM     11  O   UNL     1      -0.589   4.638   7.142  1.00  0.00    -0.452 OA
ENDROOT
BRANCH   1  12
ATOM     12  C   UNL     1      -2.772   5.162   6.266  1.00  0.00     0.025 A 
ATOM     13  C   UNL     1      -4.034   4.629   6.582  1.00  0.00     0.016 A 
ATOM     14  C   UNL     1      -5.003   4.469   5.588  1.00  0.00     0.051 A 
ATOM     15  C   UNL     1      -4.720   4.828   4.263  1.00  0.00     0.157 A 
ATOM     16  C   UNL     1      -2.488   5.500   4.933  1.00  0.00     0.062 A 
ATOM     17  C   UNL     1      -3.460   5.342   3.934  1.00  0.00     0.158 A 
BRANCH  15  18
ATOM     18  O   UNL     1      -5.684   4.673   3.269  1.00  0.00    -0.504 OA
ATOM     19  H   UNL     1      -5.474   4.851   2.293  1.00  0.00     0.293 HD
ENDBRANCH  15  18
BRANCH  17  20
ATOM     20  O   UNL     1      -3.179   5.690   2.614  1.00  0.00    -0.504 OA
ATOM     21  H   UNL     1      -2.995   6.651   2.347  1.00  0.00     0.293 HD
ENDBRANCH  17  20
ENDBRANCH   1  12
BRANCH   2  22
ATOM     22  O   UNL     1      -3.051   6.908   8.563  1.00  0.00    -0.502 OA
ATOM     23  H   UNL     1      -3.518   7.349   7.780  1.00  0.00     0.293 HD
ENDBRANCH   2  22
BRANCH   6  24
ATOM     24  O   UNL     1       1.600   6.436  11.115  1.00  0.00    -0.507 OA
ATOM     25  H   UNL     1       0.926   7.142  11.366  1.00  0.00     0.293 HD
ENDBRANCH   6  24
BRANCH   8  26
ATOM     26  O   UNL     1       3.737   3.120   8.378  1.00  0.00    -0.508 OA
ATOM     27  H   UNL     1       3.651   2.114   8.292  1.00  0.00     0.293 HD
ENDBRANCH   8  26
TORSDOF 6
ENDMDL
MODEL 8
REMARK VINA RESULT:    -5.393      7.620     11.869
REMARK INTER + INTRA:          -6.819
REMARK INTER:                  -6.734
REMARK INTRA:                  -0.084
REMARK UNBOUND:                -0.322
REMARK SMILES O=c1c(O)c(-c2ccc(O)c(O)c2)oc2cc(O)cc(O)c12
REMARK SMILES IDX 5 1 3 2 2 3 1 4 22 5 20 6 19 7 17 8 16 9 15 10 14 11 6 12
REMARK SMILES IDX 7 13 8 14 9 15 13 16 11 17 10 18 12 20 4 22 21 24 18 26
REMARK H PARENT 10 19 12 21 4 23 21 25 18 27
REMARK Flexibility Score: inf
ROOT
ATOM      1  C   UNL     1       4.723  -0.556  10.158  1.00  0.00     0.180 A 
ATOM      2  C   UNL     1       6.108  -0.792  10.103  1.00  0.00     0.208 A 
ATOM      3  C   UNL     1       6.577  -2.114  10.180  1.00  0.00     0.238 A 
ATOM      4  O   UNL     1       7.819  -2.312  10.204  1.00  0.00    -0.285 OA
ATOM      5  C   UNL     1       5.654  -3.186  10.253  1.00  0.00     0.111 A 
ATOM      6  C   UNL     1       6.015  -4.567  10.290  1.00  0.00     0.134 A 
ATOM      7  C   UNL     1       5.020  -5.536  10.471  1.00  0.00     0.093 A 
ATOM      8  C   UNL     1       3.672  -5.178  10.552  1.00  0.00     0.123 A 
ATOM      9  C   UNL     1       3.305  -3.838  10.462  1.00  0.00     0.094 A 
ATOM     10  C   UNL     1       4.278  -2.845  10.320  1.00  0.00     0.146 A 
ATOM     11  O   UNL     1       3.884  -1.579  10.261  1.00  0.00    -0.452 OA
ENDROOT
BRANCH   1  12
ATOM     12  C   UNL     1       4.154   0.810  10.098  1.00  0.00     0.025 A 
ATOM     13  C   UNL     1       3.326   1.305  11.122  1.00  0.00     0.016 A 
ATOM     14  C   UNL     1       2.780   2.588  11.030  1.00  0.00     0.051 A 
ATOM     15  C   UNL     1       3.043   3.389   9.911  1.00  0.00     0.157 A 
ATOM     16  C   UNL     1       4.396   1.610   8.969  1.00  0.00     0.062 A 
ATOM     17  C   UNL     1       3.850   2.898   8.877  1.00  0.00     0.158 A 
BRANCH  15  18
ATOM     18  O   UNL     1       2.503   4.670   9.817  1.00  0.00    -0.504 OA
ATOM     19  H   UNL     1       3.043   5.493  10.058  1.00  0.00     0.293 HD
ENDBRANCH  15  18
BRANCH  17  20
ATOM     20  O   UNL     1       4.103   3.694   7.762  1.00  0.00    -0.504 OA
ATOM     21  H   UNL     1       4.522   3.312   6.922  1.00  0.00     0.293 HD
ENDBRANCH  17  20
ENDBRANCH   1  12
BRANCH   2  22
ATOM     22  O   UNL     1       6.998   0.274   9.953  1.00  0.00    -0.502 OA
ATOM     23  H   UNL     1       6.863   1.003   9.262  1.00  0.00     0.293 HD
ENDBRANCH   2  22
BRANCH   6  24
ATOM     24  O   UNL     1       7.321  -5.039  10.130  1.00  0.00    -0.507 OA
ATOM     25  H   UNL     1       7.733  -5.311   9.251  1.00  0.00     0.293 HD
ENDBRANCH   6  24
BRANCH   8  26
ATOM     26  O   UNL     1       2.688  -6.152  10.714  1.00  0.00    -0.508 OA
ATOM     27  H   UNL     1       2.030  -6.369   9.974  1.00  0.00     0.293 HD
ENDBRANCH   8  26
TORSDOF 6
ENDMDL
MODEL 9
REMARK VINA RESULT:    -5.226      1.874      3.057
REMARK INTER + INTRA:          -6.617
REMARK INTER:                  -6.325
REMARK INTRA:                  -0.292
REMARK UNBOUND:                -0.322
REMARK SMILES O=c1c(O)c(-c2ccc(O)c(O)c2)oc2cc(O)cc(O)c12
REMARK SMILES IDX 5 1 3 2 2 3 1 4 22 5 20 6 19 7 17 8 16 9 15 10 14 11 6 12
REMARK SMILES IDX 7 13 8 14 9 15 13 16 11 17 10 18 12 20 4 22 21 24 18 26
REMARK H PARENT 10 19 12 21 4 23 21 25 18 27
REMARK Flexibility Score: inf
ROOT
ATOM      1  C   UNL     1      -2.330   5.869   5.800  1.00  0.00     0.180 A 
ATOM      2  C   UNL     1      -1.927   7.061   5.171  1.00  0.00     0.208 A 
ATOM      3  C   UNL     1      -2.742   7.610   4.168  1.00  0.00     0.238 A 
ATOM      4  O   UNL     1      -2.340   8.635   3.560  1.00  0.00    -0.285 OA
ATOM      5  C   UNL     1      -3.976   6.994   3.846  1.00  0.00     0.111 A 
ATOM      6  C   UNL     1      -4.902   7.488   2.878  1.00  0.00     0.134 A 
ATOM      7  C   UNL     1      -6.042   6.736   2.565  1.00  0.00     0.093 A 
ATOM      8  C   UNL     1      -6.321   5.541   3.232  1.00  0.00     0.123 A 
ATOM      9  C   UNL     1      -5.452   5.078   4.217  1.00  0.00     0.094 A 
ATOM     10  C   UNL     1      -4.287   5.786   4.523  1.00  0.00     0.146 A 
ATOM     11  O   UNL     1      -3.476   5.296   5.453  1.00  0.00    -0.452 OA
ENDROOT
BRANCH   1  12
ATOM     12  C   UNL     1      -1.518   5.222   6.856  1.00  0.00     0.025 A 
ATOM     13  C   UNL     1      -0.374   4.467   6.541  1.00  0.00     0.016 A 
ATOM     14  C   UNL     1       0.362   3.845   7.553  1.00  0.00     0.051 A 
ATOM     15  C   UNL     1      -0.041   3.956   8.890  1.00  0.00     0.157 A 
ATOM     16  C   UNL     1      -1.929   5.312   8.196  1.00  0.00     0.062 A 
ATOM     17  C   UNL     1      -1.190   4.689   9.212  1.00  0.00     0.158 A 
BRANCH  15  18
ATOM     18  O   UNL     1       0.692   3.339   9.902  1.00  0.00    -0.504 OA
ATOM     19  H   UNL     1       0.483   2.396  10.208  1.00  0.00     0.293 HD
ENDBRANCH  15  18
BRANCH  17  20
ATOM     20  O   UNL     1      -1.593   4.792  10.542  1.00  0.00    -0.504 OA
ATOM     21  H   UNL     1      -0.922   4.928  11.290  1.00  0.00     0.293 HD
ENDBRANCH  17  20
ENDBRANCH   1  12
BRANCH   2  22
ATOM     22  O   UNL     1      -0.744   7.695   5.559  1.00  0.00    -0.502 OA
ATOM     23  H   UNL     1       0.115   7.616   5.028  1.00  0.00     0.293 HD
ENDBRANCH   2  22
BRANCH   6  24
ATOM     24  O   UNL     1      -4.765   8.713   2.217  1.00  0.00    -0.507 OA
ATOM     25  H   UNL     1      -5.467   9.133   1.628  1.00  0.00     0.293 HD
ENDBRANCH   6  24
BRANCH   8  26
ATOM     26  O   UNL     1      -7.467   4.808   2.927  1.00  0.00    -0.508 OA
ATOM     27  H   UNL     1      -8.183   5.177   2.312  1.00  0.00     0.293 HD
ENDBRANCH   8  26
TORSDOF 6
ENDMDL
