MODEL 1
REMARK VINA RESULT:    -4.085      0.000      0.000
REMARK INTER + INTRA:          -4.849
REMARK INTER:                  -4.801
REMARK INTRA:                  -0.048
REMARK UNBOUND:                -0.048
REMARK SMILES CCCCC(=O)[O-]
REMARK SMILES IDX 4 1 5 2 6 3 7 4 3 5 2 6 1 7
REMARK H PARENT
REMARK Flexibility Score: inf
ROOT
ATOM      1  C   UNL     1     -20.746   0.575   9.116  1.00  0.00     0.053 C 
ENDROOT
BRANCH   1   2
ATOM      2  C   UNL     1     -21.409   1.613   9.965  1.00  0.00     0.041 C 
ATOM      3  O   UNL     1     -21.900   2.645   9.437  1.00  0.00    -0.550 OA
ATOM      4  O   UNL     1     -21.528   1.418  11.336  1.00  0.00    -0.550 OA
ENDBRANCH   1   2
BRANCH   1   5
ATOM      5  C   UNL     1     -20.368   1.160   7.752  1.00  0.00     0.006 C 
BRANCH   5   6
ATOM      6  C   UNL     1     -20.324   0.066   6.679  1.00  0.00    -0.003 C 
ATOM      7  C   UNL     1     -20.303  -1.324   7.309  1.00  0.00     0.004 C 
ENDBRANCH   5   6
ENDBRANCH   1   5
TORSDOF 3
ENDMDL
MODEL 2
REMARK VINA RESULT:    -4.085      2.671      3.446
REMARK INTER + INTRA:          -4.849
REMARK INTER:                  -4.803
REMARK INTRA:                  -0.045
REMARK UNBOUND:                -0.048
REMARK SMILES CCCCC(=O)[O-]
REMARK SMILES IDX 4 1 5 2 6 3 7 4 3 5 2 6 1 7
REMARK H PARENT
REMARK Flexibility Score: inf
ROOT
ATOM      1  C   UNL     1     -20.390  -0.685   9.104  1.00  0.00     0.053 C 
ENDROOT
BRANCH   1   2
ATOM      2  C   UNL     1     -19.879  -1.826   9.926  1.00  0.00     0.041 C 
ATOM      3  O   UNL     1     -19.970  -1.793  11.182  1.00  0.00    -0.550 OA
ATOM      4  O   UNL     1     -19.345  -2.947   9.304  1.00  0.00    -0.550 OA
ENDBRANCH   1   2
BRANCH   1   5
ATOM      5  C   UNL     1     -20.379  -1.049   7.617  1.00  0.00     0.006 C 
BRANCH   5   6
ATOM      6  C   UNL     1     -20.352   0.210   6.743  1.00  0.00    -0.003 C 
ATOM      7  C   UNL     1     -20.355   1.475   7.599  1.00  0.00     0.004 C 
ENDBRANCH   5   6
ENDBRANCH   1   5
TORSDOF 3
ENDMDL
MODEL 3
REMARK VINA RESULT:    -3.568      0.770      1.873
REMARK INTER + INTRA:          -4.242
REMARK INTER:                  -4.198
REMARK INTRA:                  -0.044
REMARK UNBOUND:                -0.048
REMARK SMILES CCCCC(=O)[O-]
REMARK SMILES IDX 4 1 5 2 6 3 7 4 3 5 2 6 1 7
REMARK H PARENT
REMARK Flexibility Score: inf
ROOT
ATOM      1  C   UNL     1     -20.743   0.734   8.900  1.00  0.00     0.053 C 
ENDROOT
BRANCH   1   2
ATOM      2  C   UNL     1     -21.425   1.717   9.798  1.00  0.00     0.041 C 
ATOM      3  O   UNL     1     -21.563   1.466  11.024  1.00  0.00    -0.550 OA
ATOM      4  O   UNL     1     -21.864   2.934   9.291  1.00  0.00    -0.550 OA
ENDBRANCH   1   2
BRANCH   1   5
ATOM      5  C   UNL     1     -20.408  -0.549   9.666  1.00  0.00     0.006 C 
BRANCH   5   6
ATOM      6  C   UNL     1     -20.034  -1.682   8.704  1.00  0.00    -0.003 C 
ATOM      7  C   UNL     1     -20.315  -1.290   7.255  1.00  0.00     0.004 C 
ENDBRANCH   5   6
ENDBRANCH   1   5
TORSDOF 3
ENDMDL
MODEL 4
REMARK VINA RESULT:    -3.559      2.900      3.761
REMARK INTER + INTRA:          -4.231
REMARK INTER:                  -4.189
REMARK INTRA:                  -0.043
REMARK UNBOUND:                -0.048
REMARK SMILES CCCCC(=O)[O-]
REMARK SMILES IDX 4 1 5 2 6 3 7 4 3 5 2 6 1 7
REMARK H PARENT
REMARK Flexibility Score: inf
ROOT
ATOM      1  C   UNL     1     -20.471  -0.422   9.248  1.00  0.00     0.053 C 
ENDROOT
BRANCH   1   2
ATOM      2  C   UNL     1     -20.055  -1.630   8.471  1.00  0.00     0.041 C 
ATOM      3  O   UNL     1     -20.219  -1.669   7.223  1.00  0.00    -0.550 OA
ATOM      4  O   UNL     1     -19.439  -2.695   9.117  1.00  0.00    -0.550 OA
ENDBRANCH   1   2
BRANCH   1   5
ATOM      5  C   UNL     1     -20.555   0.802   8.331  1.00  0.00     0.006 C 
BRANCH   5   6
ATOM      6  C   UNL     1     -21.301   1.952   9.017  1.00  0.00    -0.003 C 
ATOM      7  C   UNL     1     -21.621   1.613  10.470  1.00  0.00     0.004 C 
ENDBRANCH   5   6
ENDBRANCH   1   5
TORSDOF 3
ENDMDL
MODEL 5
REMARK VINA RESULT:    -3.504      1.736      2.371
REMARK INTER + INTRA:          -4.166
REMARK INTER:                  -4.126
REMARK INTRA:                  -0.040
REMARK UNBOUND:                -0.048
REMARK SMILES CCCCC(=O)[O-]
REMARK SMILES IDX 4 1 5 2 6 3 7 4 3 5 2 6 1 7
REMARK H PARENT
REMARK Flexibility Score: inf
ROOT
ATOM      1  C   UNL     1     -20.611   0.305   9.173  1.00  0.00     0.053 C 
ENDROOT
BRANCH   1   2
ATOM      2  C   UNL     1     -20.962   1.579   8.474  1.00  0.00     0.041 C 
ATOM      3  O   UNL     1     -20.595   1.771   7.284  1.00  0.00    -0.550 OA
ATOM      4  O   UNL     1     -21.736   2.537   9.118  1.00  0.00    -0.550 OA
ENDBRANCH   1   2
BRANCH   1   5
ATOM      5  C   UNL     1     -20.456  -0.836   8.163  1.00  0.00     0.006 C 
BRANCH   5   6
ATOM      6  C   UNL     1     -19.906  -2.097   8.839  1.00  0.00    -0.003 C 
ATOM      7  C   UNL     1     -19.883  -1.944  10.357  1.00  0.00     0.004 C 
ENDBRANCH   5   6
ENDBRANCH   1   5
TORSDOF 3
ENDMDL
MODEL 6
REMARK VINA RESULT:    -3.390      2.670      3.917
REMARK INTER + INTRA:          -4.032
REMARK INTER:                  -3.994
REMARK INTRA:                  -0.038
REMARK UNBOUND:                -0.048
REMARK SMILES CCCCC(=O)[O-]
REMARK SMILES IDX 4 1 5 2 6 3 7 4 3 5 2 6 1 7
REMARK H PARENT
REMARK Flexibility Score: inf
ROOT
ATOM      1  C   UNL     1     -20.550   0.022   8.929  1.00  0.00     0.053 C 
ENDROOT
BRANCH   1   2
ATOM      2  C   UNL     1     -20.210  -0.702   7.666  1.00  0.00     0.041 C 
ATOM      3  O   UNL     1     -19.985  -1.941   7.686  1.00  0.00    -0.550 OA
ATOM      4  O   UNL     1     -20.188  -0.018   6.456  1.00  0.00    -0.550 OA
ENDBRANCH   1   2
BRANCH   1   5
ATOM      5  C   UNL     1     -20.943   1.471   8.628  1.00  0.00     0.006 C 
BRANCH   5   6
ATOM      6  C   UNL     1     -21.689   2.096   9.813  1.00  0.00    -0.003 C 
ATOM      7  C   UNL     1     -21.464   1.293  11.091  1.00  0.00     0.004 C 
ENDBRANCH   5   6
ENDBRANCH   1   5
TORSDOF 3
ENDMDL
MODEL 7
REMARK VINA RESULT:    -2.902     16.608     17.587
REMARK INTER + INTRA:          -3.458
REMARK INTER:                  -3.348
REMARK INTRA:                  -0.110
REMARK UNBOUND:                -0.048
REMARK SMILES CCCCC(=O)[O-]
REMARK SMILES IDX 4 1 5 2 6 3 7 4 3 5 2 6 1 7
REMARK H PARENT
REMARK Flexibility Score: inf
ROOT
ATOM      1  C   UNL     1     -11.494  10.501  -3.100  1.00  0.00     0.053 C 
ENDROOT
BRANCH   1   2
ATOM      2  C   UNL     1     -11.183   9.079  -3.448  1.00  0.00     0.041 C 
ATOM      3  O   UNL     1      -9.988   8.705  -3.578  1.00  0.00    -0.550 OA
ATOM      4  O   UNL     1     -12.212   8.155  -3.580  1.00  0.00    -0.550 OA
ENDBRANCH   1   2
BRANCH   1   5
ATOM      5  C   UNL     1     -10.655  10.955  -1.901  1.00  0.00     0.006 C 
BRANCH   5   6
ATOM      6  C   UNL     1     -11.142  10.292  -0.608  1.00  0.00    -0.003 C 
ATOM      7  C   UNL     1     -12.545  10.768  -0.239  1.00  0.00     0.004 C 
ENDBRANCH   5   6
ENDBRANCH   1   5
TORSDOF 3
ENDMDL
MODEL 8
REMARK VINA RESULT:    -2.737     11.417     12.386
REMARK INTER + INTRA:          -3.264
REMARK INTER:                  -3.238
REMARK INTRA:                  -0.026
REMARK UNBOUND:                -0.048
REMARK SMILES CCCCC(=O)[O-]
REMARK SMILES IDX 4 1 5 2 6 3 7 4 3 5 2 6 1 7
REMARK H PARENT
REMARK Flexibility Score: inf
ROOT
ATOM      1  C   UNL     1     -15.059   9.993  12.060  1.00  0.00     0.053 C 
ENDROOT
BRANCH   1   2
ATOM      2  C   UNL     1     -15.181   9.950  10.569  1.00  0.00     0.041 C 
ATOM      3  O   UNL     1     -14.378  10.599   9.849  1.00  0.00    -0.550 OA
ATOM      4  O   UNL     1     -16.153   9.155   9.973  1.00  0.00    -0.550 OA
ENDBRANCH   1   2
BRANCH   1   5
ATOM      5  C   UNL     1     -14.064  11.077  12.485  1.00  0.00     0.006 C 
BRANCH   5   6
ATOM      6  C   UNL     1     -13.560  10.831  13.911  1.00  0.00    -0.003 C 
ATOM      7  C   UNL     1     -12.077  10.471  13.918  1.00  0.00     0.004 C 
ENDBRANCH   5   6
ENDBRANCH   1   5
TORSDOF 3
ENDMDL
