MODEL 1
REMARK VINA RESULT:    -4.247      0.000      0.000
REMARK INTER + INTRA:          -4.972
REMARK INTER:                  -4.868
REMARK INTRA:                  -0.105
REMARK UNBOUND:                -0.105
REMARK SMILES COc1cc(C(C)=O)ccc1O
REMARK SMILES IDX 5 1 4 2 3 3 11 4 10 5 9 6 6 7 7 8 8 9 2 10 1 11 12 12
REMARK H PARENT 12 13
REMARK Flexibility Score: inf
ROOT
ATOM      1  C   UNL     1      26.848  36.532  20.387  1.00  0.00     0.021 A 
ATOM      2  C   UNL     1      25.905  37.029  21.310  1.00  0.00     0.062 A 
ATOM      3  C   UNL     1      24.530  37.054  20.999  1.00  0.00     0.161 A 
ATOM      4  C   UNL     1      24.099  36.576  19.749  1.00  0.00     0.157 A 
ATOM      5  C   UNL     1      25.030  36.083  18.832  1.00  0.00     0.051 A 
ATOM      6  C   UNL     1      26.389  36.060  19.143  1.00  0.00     0.016 A 
ENDROOT
BRANCH   1   7
ATOM      7  C   UNL     1      28.301  36.499  20.702  1.00  0.00     0.159 C 
ATOM      8  C   UNL     1      28.950  35.303  21.335  1.00  0.00     0.093 C 
ATOM      9  O   UNL     1      29.022  37.499  20.436  1.00  0.00    -0.295 OA
ENDBRANCH   1   7
BRANCH   3  10
ATOM     10  O   UNL     1      23.573  37.543  21.902  1.00  0.00    -0.493 OA
ATOM     11  C   UNL     1      23.148  38.901  21.976  1.00  0.00     0.278 C 
ENDBRANCH   3  10
BRANCH   4  12
ATOM     12  O   UNL     1      22.749  36.583  19.401  1.00  0.00    -0.504 OA
ATOM     13  H   UNL     1      22.401  37.089  18.595  1.00  0.00     0.293 HD
ENDBRANCH   4  12
TORSDOF 3
ENDMDL
MODEL 2
REMARK VINA RESULT:    -4.160      6.170      7.918
REMARK INTER + INTRA:          -4.873
REMARK INTER:                  -4.767
REMARK INTRA:                  -0.106
REMARK UNBOUND:                -0.105
REMARK SMILES COc1cc(C(C)=O)ccc1O
REMARK SMILES IDX 5 1 4 2 3 3 11 4 10 5 9 6 6 7 7 8 8 9 2 10 1 11 12 12
REMARK H PARENT 12 13
REMARK Flexibility Score: inf
ROOT
ATOM      1  C   UNL     1      28.423  30.404  25.072  1.00  0.00     0.021 A 
ATOM      2  C   UNL     1      28.459  31.804  24.910  1.00  0.00     0.062 A 
ATOM      3  C   UNL     1      28.691  32.381  23.645  1.00  0.00     0.161 A 
ATOM      4  C   UNL     1      28.890  31.544  22.533  1.00  0.00     0.157 A 
ATOM      5  C   UNL     1      28.857  30.157  22.690  1.00  0.00     0.051 A 
ATOM      6  C   UNL     1      28.626  29.590  23.943  1.00  0.00     0.016 A 
ENDROOT
BRANCH   1   7
ATOM      7  C   UNL     1      28.179  29.782  26.401  1.00  0.00     0.159 C 
ATOM      8  C   UNL     1      28.766  30.345  27.661  1.00  0.00     0.093 C 
ATOM      9  O   UNL     1      27.459  28.750  26.486  1.00  0.00    -0.295 OA
ENDBRANCH   1   7
BRANCH   3  10
ATOM     10  O   UNL     1      28.730  33.773  23.458  1.00  0.00    -0.493 OA
ATOM     11  C   UNL     1      27.648  34.658  23.730  1.00  0.00     0.278 C 
ENDBRANCH   3  10
BRANCH   4  12
ATOM     12  O   UNL     1      29.124  32.074  21.265  1.00  0.00    -0.504 OA
ATOM     13  H   UNL     1      29.712  31.607  20.584  1.00  0.00     0.293 HD
ENDBRANCH   4  12
TORSDOF 3
ENDMDL
MODEL 3
REMARK VINA RESULT:    -4.091     10.134     11.602
REMARK INTER + INTRA:          -4.794
REMARK INTER:                  -4.681
REMARK INTRA:                  -0.113
REMARK UNBOUND:                -0.105
REMARK SMILES COc1cc(C(C)=O)ccc1O
REMARK SMILES IDX 5 1 4 2 3 3 11 4 10 5 9 6 6 7 7 8 8 9 2 10 1 11 12 12
REMARK H PARENT 12 13
REMARK Flexibility Score: inf
ROOT
ATOM      1  C   UNL     1      27.333  28.386  25.391  1.00  0.00     0.021 A 
ATOM      2  C   UNL     1      26.710  27.535  26.327  1.00  0.00     0.062 A 
ATOM      3  C   UNL     1      27.283  26.293  26.670  1.00  0.00     0.161 A 
ATOM      4  C   UNL     1      28.491  25.903  26.067  1.00  0.00     0.157 A 
ATOM      5  C   UNL     1      29.110  26.742  25.138  1.00  0.00     0.051 A 
ATOM      6  C   UNL     1      28.541  27.971  24.802  1.00  0.00     0.016 A 
ENDROOT
BRANCH   1   7
ATOM      7  C   UNL     1      26.740  29.700  25.021  1.00  0.00     0.159 C 
ATOM      8  C   UNL     1      27.591  30.876  24.643  1.00  0.00     0.093 C 
ATOM      9  O   UNL     1      25.488  29.843  25.020  1.00  0.00    -0.295 OA
ENDBRANCH   1   7
BRANCH   3  10
ATOM     10  O   UNL     1      26.682  25.429  27.600  1.00  0.00    -0.493 OA
ATOM     11  C   UNL     1      25.285  25.374  27.869  1.00  0.00     0.278 C 
ENDBRANCH   3  10
BRANCH   4  12
ATOM     12  O   UNL     1      29.090  24.683  26.377  1.00  0.00    -0.504 OA
ATOM     13  H   UNL     1      28.552  23.833  26.501  1.00  0.00     0.293 HD
ENDBRANCH   4  12
TORSDOF 3
ENDMDL
MODEL 4
REMARK VINA RESULT:    -4.052      2.875      4.491
REMARK INTER + INTRA:          -4.749
REMARK INTER:                  -4.659
REMARK INTRA:                  -0.090
REMARK UNBOUND:                -0.105
REMARK SMILES COc1cc(C(C)=O)ccc1O
REMARK SMILES IDX 5 1 4 2 3 3 11 4 10 5 9 6 6 7 7 8 8 9 2 10 1 11 12 12
REMARK H PARENT 12 13
REMARK Flexibility Score: inf
ROOT
ATOM      1  C   UNL     1      25.301  38.281  20.603  1.00  0.00     0.021 A 
ATOM      2  C   UNL     1      25.773  39.609  20.588  1.00  0.00     0.062 A 
ATOM      3  C   UNL     1      26.703  40.036  19.619  1.00  0.00     0.161 A 
ATOM      4  C   UNL     1      27.163  39.120  18.657  1.00  0.00     0.157 A 
ATOM      5  C   UNL     1      26.699  37.804  18.669  1.00  0.00     0.051 A 
ATOM      6  C   UNL     1      25.778  37.385  19.629  1.00  0.00     0.016 A 
ENDROOT
BRANCH   1   7
ATOM      7  C   UNL     1      24.319  37.817  21.620  1.00  0.00     0.159 C 
ATOM      8  C   UNL     1      23.112  38.629  21.986  1.00  0.00     0.093 C 
ATOM      9  O   UNL     1      24.494  36.711  22.200  1.00  0.00    -0.295 OA
ENDBRANCH   1   7
BRANCH   3  10
ATOM     10  O   UNL     1      27.188  41.354  19.583  1.00  0.00    -0.493 OA
ATOM     11  C   UNL     1      26.722  42.411  20.416  1.00  0.00     0.278 C 
ENDBRANCH   3  10
BRANCH   4  12
ATOM     12  O   UNL     1      28.084  39.501  17.681  1.00  0.00    -0.504 OA
ATOM     13  H   UNL     1      28.991  39.888  17.915  1.00  0.00     0.293 HD
ENDBRANCH   4  12
TORSDOF 3
ENDMDL
MODEL 5
REMARK VINA RESULT:    -4.008      6.644      8.227
REMARK INTER + INTRA:          -4.699
REMARK INTER:                  -4.616
REMARK INTRA:                  -0.083
REMARK UNBOUND:                -0.105
REMARK SMILES COc1cc(C(C)=O)ccc1O
REMARK SMILES IDX 5 1 4 2 3 3 11 4 10 5 9 6 6 7 7 8 8 9 2 10 1 11 12 12
REMARK H PARENT 12 13
REMARK Flexibility Score: inf
ROOT
ATOM      1  C   UNL     1      28.451  31.730  23.571  1.00  0.00     0.021 A 
ATOM      2  C   UNL     1      27.937  31.256  24.795  1.00  0.00     0.062 A 
ATOM      3  C   UNL     1      28.015  29.889  25.132  1.00  0.00     0.161 A 
ATOM      4  C   UNL     1      28.613  28.991  24.230  1.00  0.00     0.157 A 
ATOM      5  C   UNL     1      29.122  29.457  23.016  1.00  0.00     0.051 A 
ATOM      6  C   UNL     1      29.044  30.810  22.687  1.00  0.00     0.016 A 
ENDROOT
BRANCH   1   7
ATOM      7  C   UNL     1      28.377  33.169  23.202  1.00  0.00     0.159 C 
ATOM      8  C   UNL     1      29.044  33.710  21.972  1.00  0.00     0.093 C 
ATOM      9  O   UNL     1      27.738  33.971  23.937  1.00  0.00    -0.295 OA
ENDBRANCH   1   7
BRANCH   3  10
ATOM     10  O   UNL     1      27.511  29.393  26.345  1.00  0.00    -0.493 OA
ATOM     11  C   UNL     1      26.242  28.766  26.500  1.00  0.00     0.278 C 
ENDBRANCH   3  10
BRANCH   4  12
ATOM     12  O   UNL     1      28.709  27.632  24.524  1.00  0.00    -0.504 OA
ATOM     13  H   UNL     1      29.449  27.048  24.150  1.00  0.00     0.293 HD
ENDBRANCH   4  12
TORSDOF 3
ENDMDL
MODEL 6
REMARK VINA RESULT:    -4.001      2.437      2.966
REMARK INTER + INTRA:          -4.691
REMARK INTER:                  -4.584
REMARK INTRA:                  -0.107
REMARK UNBOUND:                -0.105
REMARK SMILES COc1cc(C(C)=O)ccc1O
REMARK SMILES IDX 5 1 4 2 3 3 11 4 10 5 9 6 6 7 7 8 8 9 2 10 1 11 12 12
REMARK H PARENT 12 13
REMARK Flexibility Score: inf
ROOT
ATOM      1  C   UNL     1      26.718  37.012  19.576  1.00  0.00     0.021 A 
ATOM      2  C   UNL     1      25.704  37.396  20.477  1.00  0.00     0.062 A 
ATOM      3  C   UNL     1      25.486  38.754  20.785  1.00  0.00     0.161 A 
ATOM      4  C   UNL     1      26.294  39.734  20.184  1.00  0.00     0.157 A 
ATOM      5  C   UNL     1      27.300  39.358  19.292  1.00  0.00     0.051 A 
ATOM      6  C   UNL     1      27.513  38.013  18.989  1.00  0.00     0.016 A 
ENDROOT
BRANCH   1   7
ATOM      7  C   UNL     1      26.959  35.582  19.241  1.00  0.00     0.159 C 
ATOM      8  C   UNL     1      28.279  34.918  19.499  1.00  0.00     0.093 C 
ATOM      9  O   UNL     1      26.036  34.896  18.725  1.00  0.00    -0.295 OA
ENDBRANCH   1   7
BRANCH   3  10
ATOM     10  O   UNL     1      24.482  39.162  21.679  1.00  0.00    -0.493 OA
ATOM     11  C   UNL     1      23.189  38.572  21.768  1.00  0.00     0.278 C 
ENDBRANCH   3  10
BRANCH   4  12
ATOM     12  O   UNL     1      26.113  41.088  20.462  1.00  0.00    -0.504 OA
ATOM     13  H   UNL     1      26.875  41.756  20.423  1.00  0.00     0.293 HD
ENDBRANCH   4  12
TORSDOF 3
ENDMDL
MODEL 7
REMARK VINA RESULT:    -3.965      9.224     10.449
REMARK INTER + INTRA:          -4.649
REMARK INTER:                  -4.538
REMARK INTRA:                  -0.111
REMARK UNBOUND:                -0.105
REMARK SMILES COc1cc(C(C)=O)ccc1O
REMARK SMILES IDX 5 1 4 2 3 3 11 4 10 5 9 6 6 7 7 8 8 9 2 10 1 11 12 12
REMARK H PARENT 12 13
REMARK Flexibility Score: inf
ROOT
ATOM      1  C   UNL     1      27.822  28.974  24.918  1.00  0.00     0.021 A 
ATOM      2  C   UNL     1      26.691  28.839  25.749  1.00  0.00     0.062 A 
ATOM      3  C   UNL     1      26.498  27.677  26.525  1.00  0.00     0.161 A 
ATOM      4  C   UNL     1      27.448  26.644  26.464  1.00  0.00     0.157 A 
ATOM      5  C   UNL     1      28.569  26.774  25.641  1.00  0.00     0.051 A 
ATOM      6  C   UNL     1      28.757  27.924  24.876  1.00  0.00     0.016 A 
ENDROOT
BRANCH   1   7
ATOM      7  C   UNL     1      28.039  30.194  24.094  1.00  0.00     0.159 C 
ATOM      8  C   UNL     1      28.769  30.148  22.784  1.00  0.00     0.093 C 
ATOM      9  O   UNL     1      27.603  31.307  24.496  1.00  0.00    -0.295 OA
ENDBRANCH   1   7
BRANCH   3  10
ATOM     10  O   UNL     1      25.380  27.519  27.360  1.00  0.00    -0.493 OA
ATOM     11  C   UNL     1      24.440  28.546  27.659  1.00  0.00     0.278 C 
ENDBRANCH   3  10
BRANCH   4  12
ATOM     12  O   UNL     1      27.295  25.478  27.214  1.00  0.00    -0.504 OA
ATOM     13  H   UNL     1      27.953  24.710  27.160  1.00  0.00     0.293 HD
ENDBRANCH   4  12
TORSDOF 3
ENDMDL
MODEL 8
REMARK VINA RESULT:    -3.965      2.963      4.256
REMARK INTER + INTRA:          -4.649
REMARK INTER:                  -4.537
REMARK INTRA:                  -0.112
REMARK UNBOUND:                -0.105
REMARK SMILES COc1cc(C(C)=O)ccc1O
REMARK SMILES IDX 5 1 4 2 3 3 11 4 10 5 9 6 6 7 7 8 8 9 2 10 1 11 12 12
REMARK H PARENT 12 13
REMARK Flexibility Score: inf
ROOT
ATOM      1  C   UNL     1      26.122  37.420  19.644  1.00  0.00     0.021 A 
ATOM      2  C   UNL     1      26.815  38.447  18.971  1.00  0.00     0.062 A 
ATOM      3  C   UNL     1      26.763  39.778  19.431  1.00  0.00     0.161 A 
ATOM      4  C   UNL     1      26.008  40.080  20.578  1.00  0.00     0.157 A 
ATOM      5  C   UNL     1      25.320  39.066  21.248  1.00  0.00     0.051 A 
ATOM      6  C   UNL     1      25.374  37.750  20.789  1.00  0.00     0.016 A 
ENDROOT
BRANCH   1   7
ATOM      7  C   UNL     1      26.168  36.011  19.169  1.00  0.00     0.159 C 
ATOM      8  C   UNL     1      27.400  35.166  19.310  1.00  0.00     0.093 C 
ATOM      9  O   UNL     1      25.150  35.498  18.630  1.00  0.00    -0.295 OA
ENDBRANCH   1   7
BRANCH   3  10
ATOM     10  O   UNL     1      27.445  40.818  18.778  1.00  0.00    -0.493 OA
ATOM     11  C   UNL     1      28.854  41.017  18.824  1.00  0.00     0.278 C 
ENDBRANCH   3  10
BRANCH   4  12
ATOM     12  O   UNL     1      25.930  41.384  21.067  1.00  0.00    -0.504 OA
ATOM     13  H   UNL     1      25.644  42.163  20.485  1.00  0.00     0.293 HD
ENDBRANCH   4  12
TORSDOF 3
ENDMDL
MODEL 9
REMARK VINA RESULT:    -3.953      3.757      4.608
REMARK INTER + INTRA:          -4.636
REMARK INTER:                  -4.506
REMARK INTRA:                  -0.130
REMARK UNBOUND:                -0.105
REMARK SMILES COc1cc(C(C)=O)ccc1O
REMARK SMILES IDX 5 1 4 2 3 3 11 4 10 5 9 6 6 7 7 8 8 9 2 10 1 11 12 12
REMARK H PARENT 12 13
REMARK Flexibility Score: inf
ROOT
ATOM      1  C   UNL     1      26.481  41.020  20.555  1.00  0.00     0.021 A 
ATOM      2  C   UNL     1      25.866  39.940  21.221  1.00  0.00     0.062 A 
ATOM      3  C   UNL     1      25.902  38.639  20.677  1.00  0.00     0.161 A 
ATOM      4  C   UNL     1      26.561  38.423  19.455  1.00  0.00     0.157 A 
ATOM      5  C   UNL     1      27.170  39.490  18.792  1.00  0.00     0.051 A 
ATOM      6  C   UNL     1      27.133  40.776  19.332  1.00  0.00     0.016 A 
ENDROOT
BRANCH   1   7
ATOM      7  C   UNL     1      26.451  42.398  21.117  1.00  0.00     0.159 C 
ATOM      8  C   UNL     1      26.439  43.613  20.238  1.00  0.00     0.093 C 
ATOM      9  O   UNL     1      26.436  42.563  22.367  1.00  0.00    -0.295 OA
ENDBRANCH   1   7
BRANCH   3  10
ATOM     10  O   UNL     1      25.298  37.548  21.322  1.00  0.00    -0.493 OA
ATOM     11  C   UNL     1      23.895  37.394  21.512  1.00  0.00     0.278 C 
ENDBRANCH   3  10
BRANCH   4  12
ATOM     12  O   UNL     1      26.619  37.153  18.882  1.00  0.00    -0.504 OA
ATOM     13  H   UNL     1      25.785  36.635  18.631  1.00  0.00     0.293 HD
ENDBRANCH   4  12
TORSDOF 3
ENDMDL
