MODEL 1
REMARK VINA RESULT:    -4.183      0.000      0.000
REMARK INTER + INTRA:          -4.183
REMARK INTER:                  -4.183
REMARK INTRA:                   0.000
REMARK UNBOUND:                 0.000
REMARK SMILES CC(C)=C1CC[C@H](C)CC1=O
REMARK SMILES IDX 8 1 7 2 6 3 5 4 4 5 2 6 1 7 3 8 10 9 11 10 9 11
REMARK H PARENT
REMARK Flexibility Score: inf
ROOT
ATOM      1  C   UNL     1      14.880  51.123  37.240  1.00  0.00     0.008 C 
ATOM      2  C   UNL     1      15.086  52.330  36.316  1.00  0.00    -0.006 C 
ATOM      3  C   UNL     1      14.508  53.604  36.953  1.00  0.00     0.008 C 
ATOM      4  C   UNL     1      14.613  54.801  35.999  1.00  0.00     0.039 C 
ATOM      5  C   UNL     1      16.026  55.001  35.468  1.00  0.00    -0.006 C 
ATOM      6  C   UNL     1      16.503  56.246  35.171  1.00  0.00    -0.070 C 
ATOM      7  C   UNL     1      15.641  57.476  35.342  1.00  0.00     0.039 C 
ATOM      8  C   UNL     1      17.921  56.463  34.697  1.00  0.00     0.039 C 
ATOM      9  C   UNL     1      16.803  53.758  35.184  1.00  0.00     0.159 C 
ATOM     10  O   UNL     1      17.649  53.713  34.252  1.00  0.00    -0.295 OA
ATOM     11  C   UNL     1      16.578  52.526  36.011  1.00  0.00     0.084 C 
ENDROOT
TORSDOF 0
ENDMDL
MODEL 2
REMARK VINA RESULT:    -4.113      1.745      4.276
REMARK INTER + INTRA:          -4.113
REMARK INTER:                  -4.113
REMARK INTRA:                   0.000
REMARK UNBOUND:                 0.000
REMARK SMILES CC(C)=C1CC[C@H](C)CC1=O
REMARK SMILES IDX 8 1 7 2 6 3 5 4 4 5 2 6 1 7 3 8 10 9 11 10 9 11
REMARK H PARENT
REMARK Flexibility Score: inf
ROOT
ATOM      1  C   UNL     1      19.969  54.460  33.491  1.00  0.00     0.008 C 
ATOM      2  C   UNL     1      18.597  53.897  33.878  1.00  0.00    -0.006 C 
ATOM      3  C   UNL     1      18.714  52.984  35.110  1.00  0.00     0.008 C 
ATOM      4  C   UNL     1      17.368  52.330  35.449  1.00  0.00     0.039 C 
ATOM      5  C   UNL     1      16.242  53.348  35.578  1.00  0.00    -0.006 C 
ATOM      6  C   UNL     1      15.201  53.148  36.441  1.00  0.00    -0.070 C 
ATOM      7  C   UNL     1      15.116  51.900  37.290  1.00  0.00     0.039 C 
ATOM      8  C   UNL     1      14.108  54.175  36.620  1.00  0.00     0.039 C 
ATOM      9  C   UNL     1      16.287  54.501  34.632  1.00  0.00     0.159 C 
ATOM     10  O   UNL     1      15.231  55.041  34.206  1.00  0.00    -0.295 OA
ATOM     11  C   UNL     1      17.608  55.037  34.162  1.00  0.00     0.084 C 
ENDROOT
TORSDOF 0
ENDMDL
MODEL 3
REMARK VINA RESULT:    -4.106      1.849      3.091
REMARK INTER + INTRA:          -4.106
REMARK INTER:                  -4.106
REMARK INTRA:                   0.000
REMARK UNBOUND:                 0.000
REMARK SMILES CC(C)=C1CC[C@H](C)CC1=O
REMARK SMILES IDX 8 1 7 2 6 3 5 4 4 5 2 6 1 7 3 8 10 9 11 10 9 11
REMARK H PARENT
REMARK Flexibility Score: inf
ROOT
ATOM      1  C   UNL     1      15.173  51.859  36.337  1.00  0.00     0.008 C 
ATOM      2  C   UNL     1      16.377  52.776  36.088  1.00  0.00    -0.006 C 
ATOM      3  C   UNL     1      17.352  52.130  35.091  1.00  0.00     0.008 C 
ATOM      4  C   UNL     1      18.612  52.987  34.909  1.00  0.00     0.039 C 
ATOM      5  C   UNL     1      18.288  54.433  34.558  1.00  0.00    -0.006 C 
ATOM      6  C   UNL     1      19.118  55.173  33.764  1.00  0.00    -0.070 C 
ATOM      7  C   UNL     1      20.401  54.592  33.215  1.00  0.00     0.039 C 
ATOM      8  C   UNL     1      18.779  56.590  33.362  1.00  0.00     0.039 C 
ATOM      9  C   UNL     1      17.086  55.016  35.223  1.00  0.00     0.159 C 
ATOM     10  O   UNL     1      17.030  56.240  35.520  1.00  0.00    -0.295 OA
ATOM     11  C   UNL     1      15.913  54.141  35.559  1.00  0.00     0.084 C 
ENDROOT
TORSDOF 0
ENDMDL
MODEL 4
REMARK VINA RESULT:    -4.093      2.762      4.783
REMARK INTER + INTRA:          -4.093
REMARK INTER:                  -4.093
REMARK INTRA:                   0.000
REMARK UNBOUND:                 0.000
REMARK SMILES CC(C)=C1CC[C@H](C)CC1=O
REMARK SMILES IDX 8 1 7 2 6 3 5 4 4 5 2 6 1 7 3 8 10 9 11 10 9 11
REMARK H PARENT
REMARK Flexibility Score: inf
ROOT
ATOM      1  C   UNL     1      20.271  54.274  32.928  1.00  0.00     0.008 C 
ATOM      2  C   UNL     1      19.251  53.267  33.474  1.00  0.00    -0.006 C 
ATOM      3  C   UNL     1      18.818  53.652  34.898  1.00  0.00     0.008 C 
ATOM      4  C   UNL     1      17.877  52.600  35.498  1.00  0.00     0.039 C 
ATOM      5  C   UNL     1      16.694  52.290  34.590  1.00  0.00    -0.006 C 
ATOM      6  C   UNL     1      15.478  51.938  35.104  1.00  0.00    -0.070 C 
ATOM      7  C   UNL     1      15.261  51.825  36.596  1.00  0.00     0.039 C 
ATOM      8  C   UNL     1      14.283  51.684  34.216  1.00  0.00     0.039 C 
ATOM      9  C   UNL     1      16.977  52.281  33.124  1.00  0.00     0.159 C 
ATOM     10  O   UNL     1      16.355  51.512  32.342  1.00  0.00    -0.295 OA
ATOM     11  C   UNL     1      18.024  53.193  32.554  1.00  0.00     0.084 C 
ENDROOT
TORSDOF 0
ENDMDL
MODEL 5
REMARK VINA RESULT:    -4.089     14.407     16.111
REMARK INTER + INTRA:          -4.089
REMARK INTER:                  -4.089
REMARK INTRA:                   0.000
REMARK UNBOUND:                 0.000
REMARK SMILES CC(C)=C1CC[C@H](C)CC1=O
REMARK SMILES IDX 8 1 7 2 6 3 5 4 4 5 2 6 1 7 3 8 10 9 11 10 9 11
REMARK H PARENT
REMARK Flexibility Score: inf
ROOT
ATOM      1  C   UNL     1      12.650  62.222  20.222  1.00  0.00     0.008 C 
ATOM      2  C   UNL     1      13.843  61.260  20.184  1.00  0.00    -0.006 C 
ATOM      3  C   UNL     1      15.084  61.910  20.819  1.00  0.00     0.008 C 
ATOM      4  C   UNL     1      16.314  61.001  20.697  1.00  0.00     0.039 C 
ATOM      5  C   UNL     1      16.054  59.596  21.224  1.00  0.00    -0.006 C 
ATOM      6  C   UNL     1      17.050  58.859  21.801  1.00  0.00    -0.070 C 
ATOM      7  C   UNL     1      18.455  59.403  21.924  1.00  0.00     0.039 C 
ATOM      8  C   UNL     1      16.793  57.487  22.378  1.00  0.00     0.039 C 
ATOM      9  C   UNL     1      14.693  59.039  20.966  1.00  0.00     0.159 C 
ATOM     10  O   UNL     1      14.514  57.805  20.783  1.00  0.00    -0.295 OA
ATOM     11  C   UNL     1      13.504  59.953  20.915  1.00  0.00     0.084 C 
ENDROOT
TORSDOF 0
ENDMDL
MODEL 6
REMARK VINA RESULT:    -4.073     14.290     15.840
REMARK INTER + INTRA:          -4.073
REMARK INTER:                  -4.073
REMARK INTRA:                   0.000
REMARK UNBOUND:                 0.000
REMARK SMILES CC(C)=C1CC[C@H](C)CC1=O
REMARK SMILES IDX 8 1 7 2 6 3 5 4 4 5 2 6 1 7 3 8 10 9 11 10 9 11
REMARK H PARENT
REMARK Flexibility Score: inf
ROOT
ATOM      1  C   UNL     1      18.631  59.492  22.357  1.00  0.00     0.008 C 
ATOM      2  C   UNL     1      17.541  60.522  22.036  1.00  0.00    -0.006 C 
ATOM      3  C   UNL     1      16.743  60.096  20.792  1.00  0.00     0.008 C 
ATOM      4  C   UNL     1      15.716  61.165  20.396  1.00  0.00     0.039 C 
ATOM      5  C   UNL     1      14.818  61.569  21.557  1.00  0.00    -0.006 C 
ATOM      6  C   UNL     1      13.524  61.956  21.352  1.00  0.00    -0.070 C 
ATOM      7  C   UNL     1      12.935  62.014  19.961  1.00  0.00     0.039 C 
ATOM      8  C   UNL     1      12.606  62.306  22.501  1.00  0.00     0.039 C 
ATOM      9  C   UNL     1      15.468  61.630  22.900  1.00  0.00     0.159 C 
ATOM     10  O   UNL     1      15.096  62.460  23.772  1.00  0.00    -0.295 OA
ATOM     11  C   UNL     1      16.594  60.694  23.232  1.00  0.00     0.084 C 
ENDROOT
TORSDOF 0
ENDMDL
MODEL 7
REMARK VINA RESULT:    -4.071     14.896     16.421
REMARK INTER + INTRA:          -4.071
REMARK INTER:                  -4.071
REMARK INTRA:                   0.000
REMARK UNBOUND:                 0.000
REMARK SMILES CC(C)=C1CC[C@H](C)CC1=O
REMARK SMILES IDX 8 1 7 2 6 3 5 4 4 5 2 6 1 7 3 8 10 9 11 10 9 11
REMARK H PARENT
REMARK Flexibility Score: inf
ROOT
ATOM      1  C   UNL     1      12.362  62.894  19.712  1.00  0.00     0.008 C 
ATOM      2  C   UNL     1      12.822  61.696  20.552  1.00  0.00    -0.006 C 
ATOM      3  C   UNL     1      11.938  60.469  20.275  1.00  0.00     0.008 C 
ATOM      4  C   UNL     1      12.318  59.291  21.182  1.00  0.00     0.039 C 
ATOM      5  C   UNL     1      13.805  58.967  21.124  1.00  0.00    -0.006 C 
ATOM      6  C   UNL     1      14.259  57.689  21.285  1.00  0.00    -0.070 C 
ATOM      7  C   UNL     1      13.304  56.546  21.544  1.00  0.00     0.039 C 
ATOM      8  C   UNL     1      15.726  57.346  21.173  1.00  0.00     0.039 C 
ATOM      9  C   UNL     1      14.727  60.135  21.001  1.00  0.00     0.159 C 
ATOM     10  O   UNL     1      15.876  60.120  21.518  1.00  0.00    -0.295 OA
ATOM     11  C   UNL     1      14.291  61.362  20.255  1.00  0.00     0.084 C 
ENDROOT
TORSDOF 0
ENDMDL
MODEL 8
REMARK VINA RESULT:    -3.935     15.485     16.353
REMARK INTER + INTRA:          -3.935
REMARK INTER:                  -3.935
REMARK INTRA:                   0.000
REMARK UNBOUND:                 0.000
REMARK SMILES CC(C)=C1CC[C@H](C)CC1=O
REMARK SMILES IDX 8 1 7 2 6 3 5 4 4 5 2 6 1 7 3 8 10 9 11 10 9 11
REMARK H PARENT
REMARK Flexibility Score: inf
ROOT
ATOM      1  C   UNL     1      11.561  53.098  20.377  1.00  0.00     0.008 C 
ATOM      2  C   UNL     1      11.106  51.641  20.524  1.00  0.00    -0.006 C 
ATOM      3  C   UNL     1      12.314  50.690  20.481  1.00  0.00     0.008 C 
ATOM      4  C   UNL     1      11.869  49.222  20.523  1.00  0.00     0.039 C 
ATOM      5  C   UNL     1      10.934  48.930  21.689  1.00  0.00    -0.006 C 
ATOM      6  C   UNL     1      10.923  47.708  22.301  1.00  0.00    -0.070 C 
ATOM      7  C   UNL     1      11.827  46.590  21.834  1.00  0.00     0.039 C 
ATOM      8  C   UNL     1      10.041  47.423  23.494  1.00  0.00     0.039 C 
ATOM      9  C   UNL     1       9.962  50.008  22.038  1.00  0.00     0.159 C 
ATOM     10  O   UNL     1       8.821  49.738  22.498  1.00  0.00    -0.295 OA
ATOM     11  C   UNL     1      10.333  51.449  21.836  1.00  0.00     0.084 C 
ENDROOT
TORSDOF 0
ENDMDL
MODEL 9
REMARK VINA RESULT:    -3.885     14.458     15.683
REMARK INTER + INTRA:          -3.885
REMARK INTER:                  -3.885
REMARK INTRA:                   0.000
REMARK UNBOUND:                 0.000
REMARK SMILES CC(C)=C1CC[C@H](C)CC1=O
REMARK SMILES IDX 8 1 7 2 6 3 5 4 4 5 2 6 1 7 3 8 10 9 11 10 9 11
REMARK H PARENT
REMARK Flexibility Score: inf
ROOT
ATOM      1  C   UNL     1      17.401  56.561  21.985  1.00  0.00     0.008 C 
ATOM      2  C   UNL     1      16.407  57.455  21.236  1.00  0.00    -0.006 C 
ATOM      3  C   UNL     1      14.973  57.207  21.734  1.00  0.00     0.008 C 
ATOM      4  C   UNL     1      13.953  58.019  20.925  1.00  0.00     0.039 C 
ATOM      5  C   UNL     1      14.304  59.499  20.863  1.00  0.00    -0.006 C 
ATOM      6  C   UNL     1      13.331  60.456  20.795  1.00  0.00    -0.070 C 
ATOM      7  C   UNL     1      11.866  60.083  20.761  1.00  0.00     0.039 C 
ATOM      8  C   UNL     1      13.664  61.930  20.790  1.00  0.00     0.039 C 
ATOM      9  C   UNL     1      15.757  59.827  20.763  1.00  0.00     0.159 C 
ATOM     10  O   UNL     1      16.158  60.842  20.133  1.00  0.00    -0.295 OA
ATOM     11  C   UNL     1      16.774  58.935  21.413  1.00  0.00     0.084 C 
ENDROOT
TORSDOF 0
ENDMDL
