MODEL 1
REMARK VINA RESULT:    -0.421      0.000      0.000
REMARK INTER + INTRA:          -0.201
REMARK INTER:                  -0.692
REMARK INTRA:                   0.491
REMARK UNBOUND:                 0.491
REMARK SMILES COc1ccc([C@H]2CC(=O)c3c(O)cc(O[C@@H]4O[C@@H](CO[C@H]5O[C@H](C)[C@@H](O)[C@@H](O)[C@@H]5O)[C@@H](O)[C@H](O)[C@@H]4O)cc3O2)cc1O
REMARK SMILES IDX 19 1 32 2 34 3 36 4 17 5 18 6 20 7 21 8 22 9 25 10 24 11
REMARK SMILES IDX 26 12 23 13 28 14 30 15 27 16 29 18 31 20 33 22 35 24 16 26
REMARK SMILES IDX 15 27 14 28 38 29 12 30 39 31 11 32 40 33 9 34 7 35 10 36
REMARK SMILES IDX 8 37 13 38 6 40 41 41 5 42 42 43 4 44 3 45 43 46 2 48 1 49
REMARK SMILES IDX 37 50
REMARK H PARENT 27 17 29 19 31 21 33 23 35 25 13 39 43 47 37 51
REMARK Flexibility Score: inf
ROOT
ATOM      1  C   UNL     1     -34.997  12.150  56.346  1.00  0.00     0.180 C 
ATOM      2  C   UNL     1     -36.049  11.321  55.550  1.00  0.00     0.177 C 
ATOM      3  C   UNL     1     -36.566  12.118  54.337  1.00  0.00     0.180 C 
ATOM      4  C   UNL     1     -36.906  13.578  54.715  1.00  0.00     0.214 C 
ATOM      5  C   UNL     1     -35.821  14.224  55.618  1.00  0.00     0.339 C 
ATOM      6  O   UNL     1     -35.542  13.397  56.739  1.00  0.00    -0.332 OA
ENDROOT
BRANCH   1   7
ATOM      7  C   UNL     1     -34.525  11.388  57.599  1.00  0.00     0.198 C 
BRANCH   7   8
ATOM      8  O   UNL     1     -33.918  12.301  58.491  1.00  0.00    -0.347 OA
BRANCH   8   9
ATOM      9  C   UNL     1     -34.706  13.437  58.839  1.00  0.00     0.281 C 
ATOM     10  C   UNL     1     -36.580  12.913  61.971  1.00  0.00     0.041 C 
ATOM     11  C   UNL     1     -35.398  13.368  61.110  1.00  0.00     0.150 C 
ATOM     12  C   UNL     1     -35.130  14.864  61.327  1.00  0.00     0.174 C 
ATOM     13  O   UNL     1     -35.736  13.114  59.762  1.00  0.00    -0.344 OA
ATOM     14  C   UNL     1     -33.887  15.286  60.542  1.00  0.00     0.179 C 
ATOM     15  C   UNL     1     -33.952  14.799  59.067  1.00  0.00     0.202 C 
BRANCH  12  16
ATOM     16  O   UNL     1     -34.951  15.122  62.698  1.00  0.00    -0.388 OA
ATOM     17  H   UNL     1     -34.146  14.618  62.980  1.00  0.00     0.211 HD
ENDBRANCH  12  16
BRANCH  14  18
ATOM     18  O   UNL     1     -32.733  14.810  61.189  1.00  0.00    -0.387 OA
ATOM     19  H   UNL     1     -32.311  14.163  60.565  1.00  0.00     0.211 HD
ENDBRANCH  14  18
BRANCH  15  20
ATOM     20  O   UNL     1     -34.537  15.810  58.275  1.00  0.00    -0.385 OA
ATOM     21  H   UNL     1     -34.472  16.664  58.783  1.00  0.00     0.211 HD
ENDBRANCH  15  20
ENDBRANCH   8   9
ENDBRANCH   7   8
ENDBRANCH   1   7
BRANCH   2  22
ATOM     22  O   UNL     1     -37.125  10.917  56.366  1.00  0.00    -0.387 OA
ATOM     23  H   UNL     1     -36.761  10.390  57.127  1.00  0.00     0.211 HD
ENDBRANCH   2  22
BRANCH   3  24
ATOM     24  O   UNL     1     -35.669  12.053  53.255  1.00  0.00    -0.387 OA
ATOM     25  H   UNL     1     -36.147  11.681  52.475  1.00  0.00     0.211 HD
ENDBRANCH   3  24
BRANCH   5  26
ATOM     26  O   UNL     1     -34.609  14.516  54.907  1.00  0.00    -0.462 OA
BRANCH  26  27
ATOM     27  C   UNL     1     -33.392  14.944  55.457  1.00  0.00     0.130 A 
ATOM     28  C   UNL     1     -32.378  13.998  55.598  1.00  0.00     0.093 A 
ATOM     29  C   UNL     1     -33.154  16.266  55.872  1.00  0.00     0.094 A 
ATOM     30  C   UNL     1     -31.122  14.346  56.111  1.00  0.00     0.133 A 
ATOM     31  C   UNL     1     -31.891  16.649  56.334  1.00  0.00     0.138 A 
ATOM     32  C   UNL     1     -30.851  15.699  56.445  1.00  0.00     0.102 A 
ATOM     33  O   UNL     1     -31.672  17.993  56.681  1.00  0.00    -0.484 OA
ATOM     34  C   UNL     1     -29.531  16.202  56.889  1.00  0.00     0.174 C 
ATOM     35  C   UNL     1     -30.355  18.548  56.793  1.00  0.00     0.211 C 
ATOM     36  O   UNL     1     -28.474  15.555  56.676  1.00  0.00    -0.294 OA
ATOM     37  C   UNL     1     -29.438  17.553  57.535  1.00  0.00     0.131 C 
BRANCH  30  38
ATOM     38  O   UNL     1     -30.198  13.315  56.301  1.00  0.00    -0.507 OA
ATOM     39  H   UNL     1     -30.364  12.356  56.037  1.00  0.00     0.293 HD
ENDBRANCH  30  38
BRANCH  35  40
ATOM     40  C   UNL     1     -30.427  19.937  57.416  1.00  0.00    -0.003 A 
ATOM     41  C   UNL     1     -30.691  20.155  58.784  1.00  0.00     0.057 A 
ATOM     42  C   UNL     1     -30.120  21.049  56.608  1.00  0.00     0.011 A 
ATOM     43  C   UNL     1     -30.651  21.448  59.328  1.00  0.00     0.158 A 
ATOM     44  C   UNL     1     -30.090  22.337  57.148  1.00  0.00     0.051 A 
ATOM     45  C   UNL     1     -30.349  22.548  58.514  1.00  0.00     0.160 A 
BRANCH  43  46
ATOM     46  O   UNL     1     -30.909  21.644  60.685  1.00  0.00    -0.504 OA
ATOM     47  H   UNL     1     -31.223  20.885  61.281  1.00  0.00     0.293 HD
ENDBRANCH  43  46
BRANCH  45  48
ATOM     48  O   UNL     1     -30.312  23.826  59.090  1.00  0.00    -0.493 OA
ATOM     49  C   UNL     1     -31.423  24.715  59.159  1.00  0.00     0.278 C 
ENDBRANCH  45  48
ENDBRANCH  35  40
ENDBRANCH  26  27
ENDBRANCH   5  26
BRANCH   4  50
ATOM     50  O   UNL     1     -37.124  14.348  53.565  1.00  0.00    -0.384 OA
ATOM     51  H   UNL     1     -37.745  15.079  53.823  1.00  0.00     0.211 HD
ENDBRANCH   4  50
TORSDOF 15
ENDMDL
MODEL 2
REMARK VINA RESULT:     0.819      1.634      3.120
REMARK INTER + INTRA:           1.837
REMARK INTER:                   1.675
REMARK INTRA:                   0.161
REMARK UNBOUND:                 0.491
REMARK SMILES COc1ccc([C@H]2CC(=O)c3c(O)cc(O[C@@H]4O[C@@H](CO[C@H]5O[C@H](C)[C@@H](O)[C@@H](O)[C@@H]5O)[C@@H](O)[C@H](O)[C@@H]4O)cc3O2)cc1O
REMARK SMILES IDX 19 1 32 2 34 3 36 4 17 5 18 6 20 7 21 8 22 9 25 10 24 11
REMARK SMILES IDX 26 12 23 13 28 14 30 15 27 16 29 18 31 20 33 22 35 24 16 26
REMARK SMILES IDX 15 27 14 28 38 29 12 30 39 31 11 32 40 33 9 34 7 35 10 36
REMARK SMILES IDX 8 37 13 38 6 40 41 41 5 42 42 43 4 44 3 45 43 46 2 48 1 49
REMARK SMILES IDX 37 50
REMARK H PARENT 27 17 29 19 31 21 33 23 35 25 13 39 43 47 37 51
REMARK Flexibility Score: inf
ROOT
ATOM      1  C   UNL     1     -33.926  13.160  55.632  1.00  0.00     0.180 C 
ATOM      2  C   UNL     1     -33.579  11.661  55.878  1.00  0.00     0.177 C 
ATOM      3  C   UNL     1     -32.122  11.510  56.352  1.00  0.00     0.180 C 
ATOM      4  C   UNL     1     -31.152  12.365  55.504  1.00  0.00     0.214 C 
ATOM      5  C   UNL     1     -31.700  13.792  55.238  1.00  0.00     0.339 C 
ATOM      6  O   UNL     1     -33.017  13.736  54.710  1.00  0.00    -0.332 OA
ENDROOT
BRANCH   1   7
ATOM      7  C   UNL     1     -35.360  13.316  55.092  1.00  0.00     0.198 C 
BRANCH   7   8
ATOM      8  O   UNL     1     -36.273  13.176  56.162  1.00  0.00    -0.347 OA
BRANCH   8   9
ATOM      9  C   UNL     1     -36.296  14.253  57.095  1.00  0.00     0.281 C 
ATOM     10  C   UNL     1     -36.746  13.075  60.560  1.00  0.00     0.041 C 
ATOM     11  C   UNL     1     -35.953  13.501  59.321  1.00  0.00     0.150 C 
ATOM     12  C   UNL     1     -35.023  14.673  59.666  1.00  0.00     0.174 C 
ATOM     13  O   UNL     1     -36.887  13.881  58.332  1.00  0.00    -0.344 OA
ATOM     14  C   UNL     1     -34.162  15.025  58.452  1.00  0.00     0.179 C 
ATOM     15  C   UNL     1     -35.023  15.177  57.167  1.00  0.00     0.202 C 
BRANCH  12  16
ATOM     16  O   UNL     1     -34.206  14.330  60.758  1.00  0.00    -0.388 OA
ATOM     17  H   UNL     1     -33.415  13.864  60.387  1.00  0.00     0.211 HD
ENDBRANCH  12  16
BRANCH  14  18
ATOM     18  O   UNL     1     -33.158  14.055  58.284  1.00  0.00    -0.387 OA
ATOM     19  H   UNL     1     -33.488  13.233  58.735  1.00  0.00     0.211 HD
ENDBRANCH  14  18
BRANCH  15  20
ATOM     20  O   UNL     1     -35.403  16.529  57.024  1.00  0.00    -0.385 OA
ATOM     21  H   UNL     1     -35.336  16.758  56.058  1.00  0.00     0.211 HD
ENDBRANCH  15  20
ENDBRANCH   8   9
ENDBRANCH   7   8
ENDBRANCH   1   7
BRANCH   2  22
ATOM     22  O   UNL     1     -33.805  10.877  54.729  1.00  0.00    -0.387 OA
ATOM     23  H   UNL     1     -34.648  11.183  54.299  1.00  0.00     0.211 HD
ENDBRANCH   2  22
BRANCH   3  24
ATOM     24  O   UNL     1     -31.994  11.782  57.726  1.00  0.00    -0.387 OA
ATOM     25  H   UNL     1     -32.332  11.005  58.232  1.00  0.00     0.211 HD
ENDBRANCH   3  24
BRANCH   5  26
ATOM     26  O   UNL     1     -31.673  14.623  56.408  1.00  0.00    -0.462 OA
BRANCH  26  27
ATOM     27  C   UNL     1     -30.726  15.612  56.718  1.00  0.00     0.130 A 
ATOM     28  C   UNL     1     -29.381  15.250  56.686  1.00  0.00     0.093 A 
ATOM     29  C   UNL     1     -31.070  16.931  57.059  1.00  0.00     0.094 A 
ATOM     30  C   UNL     1     -28.369  16.180  56.954  1.00  0.00     0.133 A 
ATOM     31  C   UNL     1     -30.077  17.891  57.275  1.00  0.00     0.138 A 
ATOM     32  C   UNL     1     -28.711  17.535  57.209  1.00  0.00     0.102 A 
ATOM     33  O   UNL     1     -30.457  19.215  57.554  1.00  0.00    -0.484 OA
ATOM     34  C   UNL     1     -27.726  18.625  57.394  1.00  0.00     0.174 C 
ATOM     35  C   UNL     1     -29.551  20.316  57.413  1.00  0.00     0.211 C 
ATOM     36  O   UNL     1     -26.537  18.513  57.002  1.00  0.00    -0.294 OA
ATOM     37  C   UNL     1     -28.173  19.927  57.990  1.00  0.00     0.131 C 
BRANCH  30  38
ATOM     38  O   UNL     1     -27.054  15.708  56.987  1.00  0.00    -0.507 OA
ATOM     39  H   UNL     1     -26.780  14.789  56.677  1.00  0.00     0.293 HD
ENDBRANCH  30  38
BRANCH  35  40
ATOM     40  C   UNL     1     -30.164  21.575  58.014  1.00  0.00    -0.003 A 
ATOM     41  C   UNL     1     -30.648  21.639  59.338  1.00  0.00     0.057 A 
ATOM     42  C   UNL     1     -30.159  22.755  57.246  1.00  0.00     0.011 A 
ATOM     43  C   UNL     1     -31.114  22.848  59.876  1.00  0.00     0.158 A 
ATOM     44  C   UNL     1     -30.633  23.956  57.779  1.00  0.00     0.051 A 
ATOM     45  C   UNL     1     -31.109  24.016  59.101  1.00  0.00     0.160 A 
BRANCH  43  46
ATOM     46  O   UNL     1     -31.583  22.894  61.189  1.00  0.00    -0.504 OA
ATOM     47  H   UNL     1     -31.596  22.067  61.778  1.00  0.00     0.293 HD
ENDBRANCH  43  46
BRANCH  45  48
ATOM     48  O   UNL     1     -31.577  25.208  59.670  1.00  0.00    -0.493 OA
ATOM     49  C   UNL     1     -30.743  26.229  60.212  1.00  0.00     0.278 C 
ENDBRANCH  45  48
ENDBRANCH  35  40
ENDBRANCH  26  27
ENDBRANCH   5  26
BRANCH   4  50
ATOM     50  O   UNL     1     -29.887  12.417  56.103  1.00  0.00    -0.384 OA
ATOM     51  H   UNL     1     -29.781  11.577  56.624  1.00  0.00     0.211 HD
ENDBRANCH   4  50
TORSDOF 15
ENDMDL
MODEL 3
REMARK VINA RESULT:     0.900      3.147      5.821
REMARK INTER + INTRA:           1.969
REMARK INTER:                   2.357
REMARK INTRA:                  -0.388
REMARK UNBOUND:                 0.491
REMARK SMILES COc1ccc([C@H]2CC(=O)c3c(O)cc(O[C@@H]4O[C@@H](CO[C@H]5O[C@H](C)[C@@H](O)[C@@H](O)[C@@H]5O)[C@@H](O)[C@H](O)[C@@H]4O)cc3O2)cc1O
REMARK SMILES IDX 19 1 32 2 34 3 36 4 17 5 18 6 20 7 21 8 22 9 25 10 24 11
REMARK SMILES IDX 26 12 23 13 28 14 30 15 27 16 29 18 31 20 33 22 35 24 16 26
REMARK SMILES IDX 15 27 14 28 38 29 12 30 39 31 11 32 40 33 9 34 7 35 10 36
REMARK SMILES IDX 8 37 13 38 6 40 41 41 5 42 42 43 4 44 3 45 43 46 2 48 1 49
REMARK SMILES IDX 37 50
REMARK H PARENT 27 17 29 19 31 21 33 23 35 25 13 39 43 47 37 51
REMARK Flexibility Score: inf
ROOT
ATOM      1  C   UNL     1     -33.483  12.947  58.048  1.00  0.00     0.180 C 
ATOM      2  C   UNL     1     -34.776  12.853  58.911  1.00  0.00     0.177 C 
ATOM      3  C   UNL     1     -35.049  14.186  59.632  1.00  0.00     0.180 C 
ATOM      4  C   UNL     1     -33.767  14.760  60.279  1.00  0.00     0.214 C 
ATOM      5  C   UNL     1     -32.536  14.664  59.340  1.00  0.00     0.339 C 
ATOM      6  O   UNL     1     -32.380  13.340  58.847  1.00  0.00    -0.332 OA
ENDROOT
BRANCH   1   7
ATOM      7  C   UNL     1     -33.164  11.597  57.378  1.00  0.00     0.198 C 
BRANCH   7   8
ATOM      8  O   UNL     1     -34.083  11.377  56.326  1.00  0.00    -0.347 OA
BRANCH   8   9
ATOM      9  C   UNL     1     -33.905  12.197  55.174  1.00  0.00     0.281 C 
ATOM     10  C   UNL     1     -37.124  13.229  53.700  1.00  0.00     0.041 C 
ATOM     11  C   UNL     1     -35.895  13.362  54.604  1.00  0.00     0.150 C 
ATOM     12  C   UNL     1     -35.146  14.665  54.291  1.00  0.00     0.174 C 
ATOM     13  O   UNL     1     -35.069  12.242  54.361  1.00  0.00    -0.344 OA
ATOM     14  C   UNL     1     -33.980  14.838  55.265  1.00  0.00     0.179 C 
ATOM     15  C   UNL     1     -33.119  13.548  55.360  1.00  0.00     0.202 C 
BRANCH  12  16
ATOM     16  O   UNL     1     -36.027  15.757  54.386  1.00  0.00    -0.388 OA
ATOM     17  H   UNL     1     -36.669  15.671  53.636  1.00  0.00     0.211 HD
ENDBRANCH  12  16
BRANCH  14  18
ATOM     18  O   UNL     1     -34.469  15.223  56.527  1.00  0.00    -0.387 OA
ATOM     19  H   UNL     1     -35.297  15.745  56.356  1.00  0.00     0.211 HD
ENDBRANCH  14  18
BRANCH  15  20
ATOM     20  O   UNL     1     -32.069  13.625  54.420  1.00  0.00    -0.385 OA
ATOM     21  H   UNL     1     -32.349  14.265  53.711  1.00  0.00     0.211 HD
ENDBRANCH  15  20
ENDBRANCH   8   9
ENDBRANCH   7   8
ENDBRANCH   1   7
BRANCH   2  22
ATOM     22  O   UNL     1     -34.709  11.797  59.842  1.00  0.00    -0.387 OA
ATOM     23  H   UNL     1     -33.755  11.537  59.955  1.00  0.00     0.211 HD
ENDBRANCH   2  22
BRANCH   3  24
ATOM     24  O   UNL     1     -35.665  15.119  58.777  1.00  0.00    -0.387 OA
ATOM     25  H   UNL     1     -35.553  14.812  57.846  1.00  0.00     0.211 HD
ENDBRANCH   3  24
BRANCH   5  26
ATOM     26  O   UNL     1     -32.598  15.592  58.247  1.00  0.00    -0.462 OA
BRANCH  26  27
ATOM     27  C   UNL     1     -31.806  16.736  58.067  1.00  0.00     0.130 A 
ATOM     28  C   UNL     1     -31.721  17.636  59.128  1.00  0.00     0.093 A 
ATOM     29  C   UNL     1     -31.108  17.015  56.879  1.00  0.00     0.094 A 
ATOM     30  C   UNL     1     -30.931  18.789  59.045  1.00  0.00     0.133 A 
ATOM     31  C   UNL     1     -30.269  18.130  56.793  1.00  0.00     0.138 A 
ATOM     32  C   UNL     1     -30.153  19.025  57.880  1.00  0.00     0.102 A 
ATOM     33  O   UNL     1     -29.539  18.343  55.611  1.00  0.00    -0.484 OA
ATOM     34  C   UNL     1     -29.199  20.146  57.724  1.00  0.00     0.174 C 
ATOM     35  C   UNL     1     -28.397  19.208  55.564  1.00  0.00     0.211 C 
ATOM     36  O   UNL     1     -28.746  20.769  58.718  1.00  0.00    -0.294 OA
ATOM     37  C   UNL     1     -28.696  20.499  56.356  1.00  0.00     0.131 C 
BRANCH  30  38
ATOM     38  O   UNL     1     -30.976  19.678  60.122  1.00  0.00    -0.507 OA
ATOM     39  H   UNL     1     -30.307  20.419  60.267  1.00  0.00     0.293 HD
ENDBRANCH  30  38
BRANCH  35  40
ATOM     40  C   UNL     1     -27.971  19.430  54.118  1.00  0.00    -0.003 A 
ATOM     41  C   UNL     1     -28.854  19.884  53.116  1.00  0.00     0.057 A 
ATOM     42  C   UNL     1     -26.612  19.266  53.788  1.00  0.00     0.011 A 
ATOM     43  C   UNL     1     -28.391  20.164  51.822  1.00  0.00     0.158 A 
ATOM     44  C   UNL     1     -26.154  19.536  52.496  1.00  0.00     0.051 A 
ATOM     45  C   UNL     1     -27.037  19.994  51.502  1.00  0.00     0.160 A 
BRANCH  43  46
ATOM     46  O   UNL     1     -29.278  20.619  50.845  1.00  0.00    -0.504 OA
ATOM     47  H   UNL     1     -29.660  21.559  50.870  1.00  0.00     0.293 HD
ENDBRANCH  43  46
BRANCH  45  48
ATOM     48  O   UNL     1     -26.606  20.288  50.201  1.00  0.00    -0.493 OA
ATOM     49  C   UNL     1     -25.993  21.513  49.809  1.00  0.00     0.278 C 
ENDBRANCH  45  48
ENDBRANCH  35  40
ENDBRANCH  26  27
ENDBRANCH   5  26
BRANCH   4  50
ATOM     50  O   UNL     1     -33.974  16.079  60.700  1.00  0.00    -0.384 OA
ATOM     51  H   UNL     1     -34.725  16.439  60.157  1.00  0.00     0.211 HD
ENDBRANCH   4  50
TORSDOF 15
ENDMDL
MODEL 4
REMARK VINA RESULT:     1.131      1.478      4.285
REMARK INTER + INTRA:           2.348
REMARK INTER:                   3.345
REMARK INTRA:                  -0.997
REMARK UNBOUND:                 0.491
REMARK SMILES COc1ccc([C@H]2CC(=O)c3c(O)cc(O[C@@H]4O[C@@H](CO[C@H]5O[C@H](C)[C@@H](O)[C@@H](O)[C@@H]5O)[C@@H](O)[C@H](O)[C@@H]4O)cc3O2)cc1O
REMARK SMILES IDX 19 1 32 2 34 3 36 4 17 5 18 6 20 7 21 8 22 9 25 10 24 11
REMARK SMILES IDX 26 12 23 13 28 14 30 15 27 16 29 18 31 20 33 22 35 24 16 26
REMARK SMILES IDX 15 27 14 28 38 29 12 30 39 31 11 32 40 33 9 34 7 35 10 36
REMARK SMILES IDX 8 37 13 38 6 40 41 41 5 42 42 43 4 44 3 45 43 46 2 48 1 49
REMARK SMILES IDX 37 50
REMARK H PARENT 27 17 29 19 31 21 33 23 35 25 13 39 43 47 37 51
REMARK Flexibility Score: inf
ROOT
ATOM      1  C   UNL     1     -35.219  13.190  58.233  1.00  0.00     0.180 C 
ATOM      2  C   UNL     1     -35.797  13.809  59.540  1.00  0.00     0.177 C 
ATOM      3  C   UNL     1     -34.809  14.824  60.145  1.00  0.00     0.180 C 
ATOM      4  C   UNL     1     -33.364  14.277  60.162  1.00  0.00     0.214 C 
ATOM      5  C   UNL     1     -32.982  13.574  58.832  1.00  0.00     0.339 C 
ATOM      6  O   UNL     1     -33.954  12.600  58.479  1.00  0.00    -0.332 OA
ENDROOT
BRANCH   1   7
ATOM      7  C   UNL     1     -36.170  12.124  57.657  1.00  0.00     0.198 C 
BRANCH   7   8
ATOM      8  O   UNL     1     -37.106  12.753  56.805  1.00  0.00    -0.347 OA
BRANCH   8   9
ATOM      9  C   UNL     1     -36.614  13.122  55.519  1.00  0.00     0.281 C 
ATOM     10  C   UNL     1     -34.839  16.353  55.590  1.00  0.00     0.041 C 
ATOM     11  C   UNL     1     -34.969  14.828  55.659  1.00  0.00     0.150 C 
ATOM     12  C   UNL     1     -34.074  14.173  54.597  1.00  0.00     0.174 C 
ATOM     13  O   UNL     1     -36.326  14.509  55.431  1.00  0.00    -0.344 OA
ATOM     14  C   UNL     1     -34.132  12.651  54.740  1.00  0.00     0.179 C 
ATOM     15  C   UNL     1     -35.598  12.142  54.823  1.00  0.00     0.202 C 
BRANCH  12  16
ATOM     16  O   UNL     1     -32.750  14.625  54.743  1.00  0.00    -0.388 OA
ATOM     17  H   UNL     1     -32.168  13.825  54.694  1.00  0.00     0.211 HD
ENDBRANCH  12  16
BRANCH  14  18
ATOM     18  O   UNL     1     -33.386  12.251  55.863  1.00  0.00    -0.387 OA
ATOM     19  H   UNL     1     -32.895  13.058  56.172  1.00  0.00     0.211 HD
ENDBRANCH  14  18
BRANCH  15  20
ATOM     20  O   UNL     1     -36.050  11.826  53.523  1.00  0.00    -0.385 OA
ATOM     21  H   UNL     1     -35.622  10.967  53.259  1.00  0.00     0.211 HD
ENDBRANCH  15  20
ENDBRANCH   8   9
ENDBRANCH   7   8
ENDBRANCH   1   7
BRANCH   2  22
ATOM     22  O   UNL     1     -36.125  12.819  60.488  1.00  0.00    -0.387 OA
ATOM     23  H   UNL     1     -36.077  13.224  61.395  1.00  0.00     0.211 HD
ENDBRANCH   2  22
BRANCH   3  24
ATOM     24  O   UNL     1     -34.888  16.071  59.499  1.00  0.00    -0.387 OA
ATOM     25  H   UNL     1     -34.986  15.915  58.529  1.00  0.00     0.211 HD
ENDBRANCH   3  24
BRANCH   5  26
ATOM     26  O   UNL     1     -32.795  14.499  57.750  1.00  0.00    -0.462 OA
BRANCH  26  27
ATOM     27  C   UNL     1     -31.764  15.440  57.615  1.00  0.00     0.130 A 
ATOM     28  C   UNL     1     -30.523  14.981  57.176  1.00  0.00     0.093 A 
ATOM     29  C   UNL     1     -31.922  16.807  57.903  1.00  0.00     0.094 A 
ATOM     30  C   UNL     1     -29.447  15.857  56.986  1.00  0.00     0.133 A 
ATOM     31  C   UNL     1     -30.880  17.708  57.667  1.00  0.00     0.138 A 
ATOM     32  C   UNL     1     -29.632  17.250  57.189  1.00  0.00     0.102 A 
ATOM     33  O   UNL     1     -31.095  19.076  57.908  1.00  0.00    -0.484 OA
ATOM     34  C   UNL     1     -28.603  18.279  56.913  1.00  0.00     0.174 C 
ATOM     35  C   UNL     1     -30.250  20.092  57.351  1.00  0.00     0.211 C 
ATOM     36  O   UNL     1     -27.622  18.045  56.161  1.00  0.00    -0.294 OA
ATOM     37  C   UNL     1     -28.773  19.659  57.475  1.00  0.00     0.131 C 
BRANCH  30  38
ATOM     38  O   UNL     1     -28.217  15.296  56.632  1.00  0.00    -0.507 OA
ATOM     39  H   UNL     1     -28.120  14.421  56.140  1.00  0.00     0.293 HD
ENDBRANCH  30  38
BRANCH  35  40
ATOM     40  C   UNL     1     -30.575  21.441  57.979  1.00  0.00    -0.003 A 
ATOM     41  C   UNL     1     -30.949  21.592  59.331  1.00  0.00     0.057 A 
ATOM     42  C   UNL     1     -30.401  22.602  57.200  1.00  0.00     0.011 A 
ATOM     43  C   UNL     1     -31.145  22.865  59.886  1.00  0.00     0.158 A 
ATOM     44  C   UNL     1     -30.606  23.868  57.751  1.00  0.00     0.051 A 
ATOM     45  C   UNL     1     -30.973  24.013  59.101  1.00  0.00     0.160 A 
BRANCH  43  46
ATOM     46  O   UNL     1     -31.508  22.995  61.227  1.00  0.00    -0.504 OA
ATOM     47  H   UNL     1     -30.850  23.321  61.927  1.00  0.00     0.293 HD
ENDBRANCH  43  46
BRANCH  45  48
ATOM     48  O   UNL     1     -31.172  25.271  59.687  1.00  0.00    -0.493 OA
ATOM     49  C   UNL     1     -30.128  26.177  60.032  1.00  0.00     0.278 C 
ENDBRANCH  45  48
ENDBRANCH  35  40
ENDBRANCH  26  27
ENDBRANCH   5  26
BRANCH   4  50
ATOM     50  O   UNL     1     -32.453  15.295  60.470  1.00  0.00    -0.384 OA
ATOM     51  H   UNL     1     -32.984  16.124  60.604  1.00  0.00     0.211 HD
ENDBRANCH   4  50
TORSDOF 15
ENDMDL
MODEL 5
REMARK VINA RESULT:     1.815      3.208      5.976
REMARK INTER + INTRA:           3.472
REMARK INTER:                   2.796
REMARK INTRA:                   0.677
REMARK UNBOUND:                 0.491
REMARK SMILES COc1ccc([C@H]2CC(=O)c3c(O)cc(O[C@@H]4O[C@@H](CO[C@H]5O[C@H](C)[C@@H](O)[C@@H](O)[C@@H]5O)[C@@H](O)[C@H](O)[C@@H]4O)cc3O2)cc1O
REMARK SMILES IDX 19 1 32 2 34 3 36 4 17 5 18 6 20 7 21 8 22 9 25 10 24 11
REMARK SMILES IDX 26 12 23 13 28 14 30 15 27 16 29 18 31 20 33 22 35 24 16 26
REMARK SMILES IDX 15 27 14 28 38 29 12 30 39 31 11 32 40 33 9 34 7 35 10 36
REMARK SMILES IDX 8 37 13 38 6 40 41 41 5 42 42 43 4 44 3 45 43 46 2 48 1 49
REMARK SMILES IDX 37 50
REMARK H PARENT 27 17 29 19 31 21 33 23 35 25 13 39 43 47 37 51
REMARK Flexibility Score: inf
ROOT
ATOM      1  C   UNL     1     -35.408  14.438  58.242  1.00  0.00     0.180 C 
ATOM      2  C   UNL     1     -35.243  13.888  59.689  1.00  0.00     0.177 C 
ATOM      3  C   UNL     1     -33.928  14.389  60.316  1.00  0.00     0.180 C 
ATOM      4  C   UNL     1     -32.741  14.260  59.335  1.00  0.00     0.214 C 
ATOM      5  C   UNL     1     -33.104  14.729  57.901  1.00  0.00     0.339 C 
ATOM      6  O   UNL     1     -34.288  14.089  57.446  1.00  0.00    -0.332 OA
ENDROOT
BRANCH   1   7
ATOM      7  C   UNL     1     -36.686  13.886  57.582  1.00  0.00     0.198 C 
BRANCH   7   8
ATOM      8  O   UNL     1     -36.696  14.255  56.217  1.00  0.00    -0.347 OA
BRANCH   8   9
ATOM      9  C   UNL     1     -36.241  13.257  55.307  1.00  0.00     0.281 C 
ATOM     10  C   UNL     1     -32.612  13.490  54.697  1.00  0.00     0.041 C 
ATOM     11  C   UNL     1     -33.882  12.993  55.393  1.00  0.00     0.150 C 
ATOM     12  C   UNL     1     -33.964  11.461  55.315  1.00  0.00     0.174 C 
ATOM     13  O   UNL     1     -34.984  13.584  54.734  1.00  0.00    -0.344 OA
ATOM     14  C   UNL     1     -35.181  10.968  56.099  1.00  0.00     0.179 C 
ATOM     15  C   UNL     1     -36.465  11.752  55.712  1.00  0.00     0.202 C 
BRANCH  12  16
ATOM     16  O   UNL     1     -32.787  10.894  55.835  1.00  0.00    -0.388 OA
ATOM     17  H   UNL     1     -32.380  10.363  55.104  1.00  0.00     0.211 HD
ENDBRANCH  12  16
BRANCH  14  18
ATOM     18  O   UNL     1     -34.923  11.055  57.479  1.00  0.00    -0.387 OA
ATOM     19  H   UNL     1     -35.625  11.648  57.856  1.00  0.00     0.211 HD
ENDBRANCH  14  18
BRANCH  15  20
ATOM     20  O   UNL     1     -37.125  11.068  54.668  1.00  0.00    -0.385 OA
ATOM     21  H   UNL     1     -38.094  11.041  54.894  1.00  0.00     0.211 HD
ENDBRANCH  15  20
ENDBRANCH   8   9
ENDBRANCH   7   8
ENDBRANCH   1   7
BRANCH   2  22
ATOM     22  O   UNL     1     -35.297  12.479  59.724  1.00  0.00    -0.387 OA
ATOM     23  H   UNL     1     -34.786  12.126  58.946  1.00  0.00     0.211 HD
ENDBRANCH   2  22
BRANCH   3  24
ATOM     24  O   UNL     1     -34.058  15.700  60.810  1.00  0.00    -0.387 OA
ATOM     25  H   UNL     1     -33.155  16.072  60.951  1.00  0.00     0.211 HD
ENDBRANCH   3  24
BRANCH   5  26
ATOM     26  O   UNL     1     -33.245  16.154  57.803  1.00  0.00    -0.462 OA
BRANCH  26  27
ATOM     27  C   UNL     1     -32.211  17.100  57.731  1.00  0.00     0.130 A 
ATOM     28  C   UNL     1     -31.887  17.793  58.897  1.00  0.00     0.093 A 
ATOM     29  C   UNL     1     -31.500  17.381  56.551  1.00  0.00     0.094 A 
ATOM     30  C   UNL     1     -30.850  18.733  58.922  1.00  0.00     0.133 A 
ATOM     31  C   UNL     1     -30.425  18.274  56.565  1.00  0.00     0.138 A 
ATOM     32  C   UNL     1     -30.072  18.951  57.754  1.00  0.00     0.102 A 
ATOM     33  O   UNL     1     -29.698  18.484  55.380  1.00  0.00    -0.484 OA
ATOM     34  C   UNL     1     -28.885  19.835  57.693  1.00  0.00     0.174 C 
ATOM     35  C   UNL     1     -28.387  19.062  55.381  1.00  0.00     0.211 C 
ATOM     36  O   UNL     1     -28.271  20.186  58.732  1.00  0.00    -0.294 OA
ATOM     37  C   UNL     1     -28.351  20.258  56.356  1.00  0.00     0.131 C 
BRANCH  30  38
ATOM     38  O   UNL     1     -30.655  19.443  60.109  1.00  0.00    -0.507 OA
ATOM     39  H   UNL     1     -30.222  19.053  60.932  1.00  0.00     0.293 HD
ENDBRANCH  30  38
BRANCH  35  40
ATOM     40  C   UNL     1     -27.961  19.387  53.955  1.00  0.00    -0.003 A 
ATOM     41  C   UNL     1     -28.872  19.759  52.944  1.00  0.00     0.057 A 
ATOM     42  C   UNL     1     -26.585  19.413  53.656  1.00  0.00     0.011 A 
ATOM     43  C   UNL     1     -28.421  20.142  51.673  1.00  0.00     0.158 A 
ATOM     44  C   UNL     1     -26.136  19.785  52.387  1.00  0.00     0.051 A 
ATOM     45  C   UNL     1     -27.049  20.160  51.385  1.00  0.00     0.160 A 
BRANCH  43  46
ATOM     46  O   UNL     1     -29.337  20.513  50.688  1.00  0.00    -0.504 OA
ATOM     47  H   UNL     1     -30.029  21.238  50.851  1.00  0.00     0.293 HD
ENDBRANCH  43  46
BRANCH  45  48
ATOM     48  O   UNL     1     -26.631  20.553  50.106  1.00  0.00    -0.493 OA
ATOM     49  C   UNL     1     -25.806  21.683  49.835  1.00  0.00     0.278 C 
ENDBRANCH  45  48
ENDBRANCH  35  40
ENDBRANCH  26  27
ENDBRANCH   5  26
BRANCH   4  50
ATOM     50  O   UNL     1     -31.622  14.950  59.820  1.00  0.00    -0.384 OA
ATOM     51  H   UNL     1     -30.829  14.384  59.623  1.00  0.00     0.211 HD
ENDBRANCH   4  50
TORSDOF 15
ENDMDL
MODEL 6
REMARK VINA RESULT:     1.970      1.560      2.695
REMARK INTER + INTRA:           3.728
REMARK INTER:                   3.399
REMARK INTRA:                   0.329
REMARK UNBOUND:                 0.491
REMARK SMILES COc1ccc([C@H]2CC(=O)c3c(O)cc(O[C@@H]4O[C@@H](CO[C@H]5O[C@H](C)[C@@H](O)[C@@H](O)[C@@H]5O)[C@@H](O)[C@H](O)[C@@H]4O)cc3O2)cc1O
REMARK SMILES IDX 19 1 32 2 34 3 36 4 17 5 18 6 20 7 21 8 22 9 25 10 24 11
REMARK SMILES IDX 26 12 23 13 28 14 30 15 27 16 29 18 31 20 33 22 35 24 16 26
REMARK SMILES IDX 15 27 14 28 38 29 12 30 39 31 11 32 40 33 9 34 7 35 10 36
REMARK SMILES IDX 8 37 13 38 6 40 41 41 5 42 42 43 4 44 3 45 43 46 2 48 1 49
REMARK SMILES IDX 37 50
REMARK H PARENT 27 17 29 19 31 21 33 23 35 25 13 39 43 47 37 51
REMARK Flexibility Score: inf
ROOT
ATOM      1  C   UNL     1     -35.498  13.701  56.489  1.00  0.00     0.180 C 
ATOM      2  C   UNL     1     -35.331  12.579  55.422  1.00  0.00     0.177 C 
ATOM      3  C   UNL     1     -33.951  12.670  54.745  1.00  0.00     0.180 C 
ATOM      4  C   UNL     1     -33.601  14.124  54.352  1.00  0.00     0.214 C 
ATOM      5  C   UNL     1     -33.945  15.140  55.473  1.00  0.00     0.339 C 
ATOM      6  O   UNL     1     -35.289  14.976  55.906  1.00  0.00    -0.332 OA
ENDROOT
BRANCH   1   7
ATOM      7  C   UNL     1     -36.901  13.660  57.122  1.00  0.00     0.198 C 
BRANCH   7   8
ATOM      8  O   UNL     1     -37.024  12.483  57.895  1.00  0.00    -0.347 OA
BRANCH   8   9
ATOM      9  C   UNL     1     -36.179  12.410  59.041  1.00  0.00     0.281 C 
ATOM     10  C   UNL     1     -32.664  11.766  58.130  1.00  0.00     0.041 C 
ATOM     11  C   UNL     1     -33.886  12.628  58.462  1.00  0.00     0.150 C 
ATOM     12  C   UNL     1     -33.581  13.539  59.659  1.00  0.00     0.174 C 
ATOM     13  O   UNL     1     -34.952  11.751  58.763  1.00  0.00    -0.344 OA
ATOM     14  C   UNL     1     -34.769  14.466  59.920  1.00  0.00     0.179 C 
ATOM     15  C   UNL     1     -36.107  13.678  59.970  1.00  0.00     0.202 C 
BRANCH  12  16
ATOM     16  O   UNL     1     -32.421  14.293  59.402  1.00  0.00    -0.388 OA
ATOM     17  H   UNL     1     -31.806  13.705  58.895  1.00  0.00     0.211 HD
ENDBRANCH  12  16
BRANCH  14  18
ATOM     18  O   UNL     1     -34.805  15.477  58.942  1.00  0.00    -0.387 OA
ATOM     19  H   UNL     1     -35.165  15.053  58.118  1.00  0.00     0.211 HD
ENDBRANCH  14  18
BRANCH  15  20
ATOM     20  O   UNL     1     -36.373  13.309  61.307  1.00  0.00    -0.385 OA
ATOM     21  H   UNL     1     -35.881  12.463  61.487  1.00  0.00     0.211 HD
ENDBRANCH  15  20
ENDBRANCH   8   9
ENDBRANCH   7   8
ENDBRANCH   1   7
BRANCH   2  22
ATOM     22  O   UNL     1     -36.355  12.621  54.454  1.00  0.00    -0.387 OA
ATOM     23  H   UNL     1     -36.122  13.313  53.779  1.00  0.00     0.211 HD
ENDBRANCH   2  22
BRANCH   3  24
ATOM     24  O   UNL     1     -32.946  12.088  55.540  1.00  0.00    -0.387 OA
ATOM     25  H   UNL     1     -32.508  12.802  56.062  1.00  0.00     0.211 HD
ENDBRANCH   3  24
BRANCH   5  26
ATOM     26  O   UNL     1     -33.052  15.053  56.593  1.00  0.00    -0.462 OA
BRANCH  26  27
ATOM     27  C   UNL     1     -31.957  15.887  56.863  1.00  0.00     0.130 A 
ATOM     28  C   UNL     1     -30.683  15.328  56.778  1.00  0.00     0.093 A 
ATOM     29  C   UNL     1     -32.084  17.241  57.217  1.00  0.00     0.094 A 
ATOM     30  C   UNL     1     -29.533  16.094  57.004  1.00  0.00     0.133 A 
ATOM     31  C   UNL     1     -30.951  18.040  57.392  1.00  0.00     0.138 A 
ATOM     32  C   UNL     1     -29.657  17.484  57.271  1.00  0.00     0.102 A 
ATOM     33  O   UNL     1     -31.117  19.405  57.684  1.00  0.00    -0.484 OA
ATOM     34  C   UNL     1     -28.514  18.413  57.415  1.00  0.00     0.174 C 
ATOM     35  C   UNL     1     -30.062  20.359  57.505  1.00  0.00     0.211 C 
ATOM     36  O   UNL     1     -27.371  18.125  56.975  1.00  0.00    -0.294 OA
ATOM     37  C   UNL     1     -28.736  19.765  58.027  1.00  0.00     0.131 C 
BRANCH  30  38
ATOM     38  O   UNL     1     -28.304  15.430  56.985  1.00  0.00    -0.507 OA
ATOM     39  H   UNL     1     -27.461  15.798  57.398  1.00  0.00     0.293 HD
ENDBRANCH  30  38
BRANCH  35  40
ATOM     40  C   UNL     1     -30.454  21.692  58.130  1.00  0.00    -0.003 A 
ATOM     41  C   UNL     1     -30.848  21.825  59.478  1.00  0.00     0.057 A 
ATOM     42  C   UNL     1     -30.325  22.859  57.353  1.00  0.00     0.011 A 
ATOM     43  C   UNL     1     -31.107  23.088  60.031  1.00  0.00     0.158 A 
ATOM     44  C   UNL     1     -30.593  24.115  57.901  1.00  0.00     0.051 A 
ATOM     45  C   UNL     1     -30.979  24.243  59.247  1.00  0.00     0.160 A 
BRANCH  43  46
ATOM     46  O   UNL     1     -31.489  23.201  61.368  1.00  0.00    -0.504 OA
ATOM     47  H   UNL     1     -32.296  23.750  61.646  1.00  0.00     0.293 HD
ENDBRANCH  43  46
BRANCH  45  48
ATOM     48  O   UNL     1     -31.240  25.490  59.832  1.00  0.00    -0.493 OA
ATOM     49  C   UNL     1     -30.246  26.351  60.380  1.00  0.00     0.278 C 
ENDBRANCH  45  48
ENDBRANCH  35  40
ENDBRANCH  26  27
ENDBRANCH   5  26
BRANCH   4  50
ATOM     50  O   UNL     1     -32.255  14.225  53.980  1.00  0.00    -0.384 OA
ATOM     51  H   UNL     1     -32.162  13.757  53.109  1.00  0.00     0.211 HD
ENDBRANCH   4  50
TORSDOF 15
ENDMDL
MODEL 7
REMARK VINA RESULT:     2.207      3.085      5.289
REMARK INTER + INTRA:           4.117
REMARK INTER:                   3.017
REMARK INTRA:                   1.100
REMARK UNBOUND:                 0.491
REMARK SMILES COc1ccc([C@H]2CC(=O)c3c(O)cc(O[C@@H]4O[C@@H](CO[C@H]5O[C@H](C)[C@@H](O)[C@@H](O)[C@@H]5O)[C@@H](O)[C@H](O)[C@@H]4O)cc3O2)cc1O
REMARK SMILES IDX 19 1 32 2 34 3 36 4 17 5 18 6 20 7 21 8 22 9 25 10 24 11
REMARK SMILES IDX 26 12 23 13 28 14 30 15 27 16 29 18 31 20 33 22 35 24 16 26
REMARK SMILES IDX 15 27 14 28 38 29 12 30 39 31 11 32 40 33 9 34 7 35 10 36
REMARK SMILES IDX 8 37 13 38 6 40 41 41 5 42 42 43 4 44 3 45 43 46 2 48 1 49
REMARK SMILES IDX 37 50
REMARK H PARENT 27 17 29 19 31 21 33 23 35 25 13 39 43 47 37 51
REMARK Flexibility Score: inf
ROOT
ATOM      1  C   UNL     1     -34.556  14.502  57.502  1.00  0.00     0.180 C 
ATOM      2  C   UNL     1     -35.815  14.174  56.646  1.00  0.00     0.177 C 
ATOM      3  C   UNL     1     -35.815  14.990  55.341  1.00  0.00     0.180 C 
ATOM      4  C   UNL     1     -35.457  16.473  55.592  1.00  0.00     0.214 C 
ATOM      5  C   UNL     1     -34.262  16.636  56.569  1.00  0.00     0.339 C 
ATOM      6  O   UNL     1     -34.480  15.894  57.761  1.00  0.00    -0.332 OA
ENDROOT
BRANCH   1   7
ATOM      7  C   UNL     1     -34.583  13.742  58.842  1.00  0.00     0.198 C 
BRANCH   7   8
ATOM      8  O   UNL     1     -33.370  13.031  58.992  1.00  0.00    -0.347 OA
BRANCH   8   9
ATOM      9  C   UNL     1     -33.233  11.871  58.173  1.00  0.00     0.281 C 
ATOM     10  C   UNL     1     -36.433  10.875  56.636  1.00  0.00     0.041 C 
ATOM     11  C   UNL     1     -35.085  11.598  56.712  1.00  0.00     0.150 C 
ATOM     12  C   UNL     1     -34.199  11.192  55.525  1.00  0.00     0.174 C 
ATOM     13  O   UNL     1     -34.478  11.232  57.934  1.00  0.00    -0.344 OA
ATOM     14  C   UNL     1     -32.897  11.993  55.554  1.00  0.00     0.179 C 
ATOM     15  C   UNL     1     -32.235  11.955  56.959  1.00  0.00     0.202 C 
BRANCH  12  16
ATOM     16  O   UNL     1     -34.885  11.419  54.318  1.00  0.00    -0.388 OA
ATOM     17  H   UNL     1     -35.003  10.535  53.887  1.00  0.00     0.211 HD
ENDBRANCH  12  16
BRANCH  14  18
ATOM     18  O   UNL     1     -33.143  13.314  55.138  1.00  0.00    -0.387 OA
ATOM     19  H   UNL     1     -32.579  13.896  55.712  1.00  0.00     0.211 HD
ENDBRANCH  14  18
BRANCH  15  20
ATOM     20  O   UNL     1     -31.325  10.877  57.011  1.00  0.00    -0.385 OA
ATOM     21  H   UNL     1     -31.791  10.076  56.648  1.00  0.00     0.211 HD
ENDBRANCH  15  20
ENDBRANCH   8   9
ENDBRANCH   7   8
ENDBRANCH   1   7
BRANCH   2  22
ATOM     22  O   UNL     1     -37.009  14.396  57.363  1.00  0.00    -0.387 OA
ATOM     23  H   UNL     1     -37.762  14.433  56.715  1.00  0.00     0.211 HD
ENDBRANCH   2  22
BRANCH   3  24
ATOM     24  O   UNL     1     -34.980  14.410  54.368  1.00  0.00    -0.387 OA
ATOM     25  H   UNL     1     -34.114  14.883  54.377  1.00  0.00     0.211 HD
ENDBRANCH   3  24
BRANCH   5  26
ATOM     26  O   UNL     1     -33.008  16.263  55.978  1.00  0.00    -0.462 OA
BRANCH  26  27
ATOM     27  C   UNL     1     -31.851  17.051  55.888  1.00  0.00     0.130 A 
ATOM     28  C   UNL     1     -31.778  17.976  54.848  1.00  0.00     0.093 A 
ATOM     29  C   UNL     1     -30.774  16.947  56.785  1.00  0.00     0.094 A 
ATOM     30  C   UNL     1     -30.672  18.823  54.701  1.00  0.00     0.133 A 
ATOM     31  C   UNL     1     -29.685  17.819  56.693  1.00  0.00     0.138 A 
ATOM     32  C   UNL     1     -29.625  18.782  55.660  1.00  0.00     0.102 A 
ATOM     33  O   UNL     1     -28.656  17.727  57.645  1.00  0.00    -0.484 OA
ATOM     34  C   UNL     1     -28.465  19.702  55.671  1.00  0.00     0.174 C 
ATOM     35  C   UNL     1     -27.719  18.790  57.862  1.00  0.00     0.211 C 
ATOM     36  O   UNL     1     -28.487  20.797  55.053  1.00  0.00    -0.294 OA
ATOM     37  C   UNL     1     -27.264  19.362  56.502  1.00  0.00     0.131 C 
BRANCH  30  38
ATOM     38  O   UNL     1     -30.645  19.655  53.579  1.00  0.00    -0.507 OA
ATOM     39  H   UNL     1     -30.754  19.325  52.633  1.00  0.00     0.293 HD
ENDBRANCH  30  38
BRANCH  35  40
ATOM     40  C   UNL     1     -26.588  18.311  58.764  1.00  0.00    -0.003 A 
ATOM     41  C   UNL     1     -25.794  17.183  58.470  1.00  0.00     0.057 A 
ATOM     42  C   UNL     1     -26.258  19.085  59.893  1.00  0.00     0.011 A 
ATOM     43  C   UNL     1     -24.703  16.839  59.283  1.00  0.00     0.158 A 
ATOM     44  C   UNL     1     -25.179  18.737  60.707  1.00  0.00     0.051 A 
ATOM     45  C   UNL     1     -24.386  17.614  60.407  1.00  0.00     0.160 A 
BRANCH  43  46
ATOM     46  O   UNL     1     -23.924  15.723  58.973  1.00  0.00    -0.504 OA
ATOM     47  H   UNL     1     -23.118  15.466  59.533  1.00  0.00     0.293 HD
ENDBRANCH  43  46
BRANCH  45  48
ATOM     48  O   UNL     1     -23.287  17.247  61.195  1.00  0.00    -0.493 OA
ATOM     49  C   UNL     1     -21.925  17.458  60.835  1.00  0.00     0.278 C 
ENDBRANCH  45  48
ENDBRANCH  35  40
ENDBRANCH  26  27
ENDBRANCH   5  26
BRANCH   4  50
ATOM     50  O   UNL     1     -35.210  17.134  54.383  1.00  0.00    -0.384 OA
ATOM     51  H   UNL     1     -34.233  17.069  54.215  1.00  0.00     0.211 HD
ENDBRANCH   4  50
TORSDOF 15
ENDMDL
MODEL 8
REMARK VINA RESULT:     2.437      3.685      6.078
REMARK INTER + INTRA:           4.495
REMARK INTER:                   1.164
REMARK INTRA:                   3.331
REMARK UNBOUND:                 0.491
REMARK SMILES COc1ccc([C@H]2CC(=O)c3c(O)cc(O[C@@H]4O[C@@H](CO[C@H]5O[C@H](C)[C@@H](O)[C@@H](O)[C@@H]5O)[C@@H](O)[C@H](O)[C@@H]4O)cc3O2)cc1O
REMARK SMILES IDX 19 1 32 2 34 3 36 4 17 5 18 6 20 7 21 8 22 9 25 10 24 11
REMARK SMILES IDX 26 12 23 13 28 14 30 15 27 16 29 18 31 20 33 22 35 24 16 26
REMARK SMILES IDX 15 27 14 28 38 29 12 30 39 31 11 32 40 33 9 34 7 35 10 36
REMARK SMILES IDX 8 37 13 38 6 40 41 41 5 42 42 43 4 44 3 45 43 46 2 48 1 49
REMARK SMILES IDX 37 50
REMARK H PARENT 27 17 29 19 31 21 33 23 35 25 13 39 43 47 37 51
REMARK Flexibility Score: inf
ROOT
ATOM      1  C   UNL     1     -33.011  14.532  58.256  1.00  0.00     0.180 C 
ATOM      2  C   UNL     1     -32.209  13.686  57.222  1.00  0.00     0.177 C 
ATOM      3  C   UNL     1     -31.307  14.590  56.361  1.00  0.00     0.180 C 
ATOM      4  C   UNL     1     -32.060  15.845  55.865  1.00  0.00     0.214 C 
ATOM      5  C   UNL     1     -32.916  16.501  56.981  1.00  0.00     0.339 C 
ATOM      6  O   UNL     1     -33.760  15.540  57.599  1.00  0.00    -0.332 OA
ENDROOT
BRANCH   1   7
ATOM      7  C   UNL     1     -33.967  13.646  59.075  1.00  0.00     0.198 C 
BRANCH   7   8
ATOM      8  O   UNL     1     -35.269  14.195  59.015  1.00  0.00    -0.347 OA
BRANCH   8   9
ATOM      9  C   UNL     1     -36.265  13.352  58.441  1.00  0.00     0.281 C 
ATOM     10  C   UNL     1     -36.804  14.080  54.867  1.00  0.00     0.041 C 
ATOM     11  C   UNL     1     -36.175  13.368  56.068  1.00  0.00     0.150 C 
ATOM     12  C   UNL     1     -36.402  11.853  55.963  1.00  0.00     0.174 C 
ATOM     13  O   UNL     1     -36.788  13.883  57.233  1.00  0.00    -0.344 OA
ATOM     14  C   UNL     1     -35.685  11.141  57.112  1.00  0.00     0.179 C 
ATOM     15  C   UNL     1     -36.011  11.799  58.482  1.00  0.00     0.202 C 
BRANCH  12  16
ATOM     16  O   UNL     1     -35.925  11.384  54.726  1.00  0.00    -0.388 OA
ATOM     17  H   UNL     1     -36.582  10.717  54.402  1.00  0.00     0.211 HD
ENDBRANCH  12  16
BRANCH  14  18
ATOM     18  O   UNL     1     -34.300  11.124  56.868  1.00  0.00    -0.387 OA
ATOM     19  H   UNL     1     -34.104  11.930  56.321  1.00  0.00     0.211 HD
ENDBRANCH  14  18
BRANCH  15  20
ATOM     20  O   UNL     1     -37.125  11.145  59.052  1.00  0.00    -0.385 OA
ATOM     21  H   UNL     1     -37.717  11.846  59.439  1.00  0.00     0.211 HD
ENDBRANCH  15  20
ENDBRANCH   8   9
ENDBRANCH   7   8
ENDBRANCH   1   7
BRANCH   2  22
ATOM     22  O   UNL     1     -33.060  12.919  56.402  1.00  0.00    -0.387 OA
ATOM     23  H   UNL     1     -33.988  12.994  56.752  1.00  0.00     0.211 HD
ENDBRANCH   2  22
BRANCH   3  24
ATOM     24  O   UNL     1     -30.118  14.925  57.035  1.00  0.00    -0.387 OA
ATOM     25  H   UNL     1     -29.723  14.099  57.403  1.00  0.00     0.211 HD
ENDBRANCH   3  24
BRANCH   5  26
ATOM     26  O   UNL     1     -32.120  17.168  57.972  1.00  0.00    -0.462 OA
BRANCH  26  27
ATOM     27  C   UNL     1     -31.006  17.989  57.744  1.00  0.00     0.130 A 
ATOM     28  C   UNL     1     -30.347  18.508  58.858  1.00  0.00     0.093 A 
ATOM     29  C   UNL     1     -30.534  18.314  56.460  1.00  0.00     0.094 A 
ATOM     30  C   UNL     1     -29.210  19.313  58.723  1.00  0.00     0.133 A 
ATOM     31  C   UNL     1     -29.368  19.069  56.302  1.00  0.00     0.138 A 
ATOM     32  C   UNL     1     -28.678  19.566  57.431  1.00  0.00     0.102 A 
ATOM     33  O   UNL     1     -28.891  19.322  55.004  1.00  0.00    -0.484 OA
ATOM     34  C   UNL     1     -27.422  20.307  57.173  1.00  0.00     0.174 C 
ATOM     35  C   UNL     1     -27.543  19.740  54.754  1.00  0.00     0.211 C 
ATOM     36  O   UNL     1     -26.557  20.469  58.071  1.00  0.00    -0.294 OA
ATOM     37  C   UNL     1     -27.134  20.809  55.789  1.00  0.00     0.131 C 
BRANCH  30  38
ATOM     38  O   UNL     1     -28.668  19.861  59.889  1.00  0.00    -0.507 OA
ATOM     39  H   UNL     1     -27.889  20.501  59.899  1.00  0.00     0.293 HD
ENDBRANCH  30  38
BRANCH  35  40
ATOM     40  C   UNL     1     -27.393  20.169  53.299  1.00  0.00    -0.003 A 
ATOM     41  C   UNL     1     -26.224  20.772  52.791  1.00  0.00     0.057 A 
ATOM     42  C   UNL     1     -28.432  19.862  52.400  1.00  0.00     0.011 A 
ATOM     43  C   UNL     1     -26.099  21.060  51.423  1.00  0.00     0.158 A 
ATOM     44  C   UNL     1     -28.311  20.158  51.041  1.00  0.00     0.051 A 
ATOM     45  C   UNL     1     -27.140  20.754  50.538  1.00  0.00     0.160 A 
BRANCH  43  46
ATOM     46  O   UNL     1     -24.931  21.650  50.938  1.00  0.00    -0.504 OA
ATOM     47  H   UNL     1     -24.348  21.187  50.248  1.00  0.00     0.293 HD
ENDBRANCH  43  46
BRANCH  45  48
ATOM     48  O   UNL     1     -26.982  21.050  49.177  1.00  0.00    -0.493 OA
ATOM     49  C   UNL     1     -26.225  22.146  48.670  1.00  0.00     0.278 C 
ENDBRANCH  45  48
ENDBRANCH  35  40
ENDBRANCH  26  27
ENDBRANCH   5  26
BRANCH   4  50
ATOM     50  O   UNL     1     -31.167  16.770  55.310  1.00  0.00    -0.384 OA
ATOM     51  H   UNL     1     -31.654  17.634  55.242  1.00  0.00     0.211 HD
ENDBRANCH   4  50
TORSDOF 15
ENDMDL
