MODEL 1
REMARK VINA RESULT:    -5.084      0.000      0.000
REMARK INTER + INTRA:          -6.108
REMARK INTER:                  -5.976
REMARK INTRA:                  -0.132
REMARK UNBOUND:                -0.132
REMARK SMILES O=C([O-])C=Cc1ccc(O)c(O)c1
REMARK SMILES IDX 6 1 13 2 7 3 11 4 8 5 9 6 5 7 4 8 2 9 1 10 3 11 12 12 10 14
REMARK H PARENT 12 13 10 15
REMARK Flexibility Score: inf
ROOT
ATOM      1  C   UNL     1    -119.196  -2.687  77.104  1.00  0.00    -0.022 A 
ATOM      2  C   UNL     1    -117.878  -2.254  76.882  1.00  0.00     0.058 A 
ATOM      3  C   UNL     1    -119.645  -2.846  78.429  1.00  0.00     0.012 A 
ATOM      4  C   UNL     1    -117.013  -2.008  77.955  1.00  0.00     0.157 A 
ATOM      5  C   UNL     1    -118.784  -2.599  79.502  1.00  0.00     0.051 A 
ATOM      6  C   UNL     1    -117.467  -2.183  79.272  1.00  0.00     0.157 A 
ENDROOT
BRANCH   1   7
ATOM      7  C   UNL     1    -120.073  -2.924  75.930  1.00  0.00     0.010 C 
ATOM      8  C   UNL     1    -120.739  -4.066  75.715  1.00  0.00     0.025 C 
BRANCH   8   9
ATOM      9  C   UNL     1    -121.588  -4.261  74.530  1.00  0.00     0.064 C 
ATOM     10  O   UNL     1    -121.081  -4.171  73.382  1.00  0.00    -0.545 OA
ATOM     11  O   UNL     1    -122.943  -4.548  74.656  1.00  0.00    -0.545 OA
ENDBRANCH   8   9
ENDBRANCH   1   7
BRANCH   4  12
ATOM     12  O   UNL     1    -115.710  -1.589  77.691  1.00  0.00    -0.504 OA
ATOM     13  H   UNL     1    -115.440  -1.198  76.796  1.00  0.00     0.293 HD
ENDBRANCH   4  12
BRANCH   6  14
ATOM     14  O   UNL     1    -116.610  -1.941  80.344  1.00  0.00    -0.504 OA
ATOM     15  H   UNL     1    -115.695  -1.525  80.209  1.00  0.00     0.293 HD
ENDBRANCH   6  14
TORSDOF 4
ENDMDL
MODEL 2
REMARK VINA RESULT:    -4.907      1.299      5.651
REMARK INTER + INTRA:          -5.899
REMARK INTER:                  -5.774
REMARK INTRA:                  -0.126
REMARK UNBOUND:                -0.132
REMARK SMILES O=C([O-])C=Cc1ccc(O)c(O)c1
REMARK SMILES IDX 6 1 13 2 7 3 11 4 8 5 9 6 5 7 4 8 2 9 1 10 3 11 12 12 10 14
REMARK H PARENT 12 13 10 15
REMARK Flexibility Score: inf
ROOT
ATOM      1  C   UNL     1    -119.039  -2.679  76.908  1.00  0.00    -0.022 A 
ATOM      2  C   UNL     1    -119.199  -2.882  75.527  1.00  0.00     0.058 A 
ATOM      3  C   UNL     1    -119.930  -3.311  77.797  1.00  0.00     0.012 A 
ATOM      4  C   UNL     1    -120.241  -3.678  75.036  1.00  0.00     0.157 A 
ATOM      5  C   UNL     1    -120.970  -4.107  77.309  1.00  0.00     0.051 A 
ATOM      6  C   UNL     1    -121.133  -4.292  75.930  1.00  0.00     0.157 A 
ENDROOT
BRANCH   1   7
ATOM      7  C   UNL     1    -117.911  -1.834  77.375  1.00  0.00     0.010 C 
ATOM      8  C   UNL     1    -116.623  -2.184  77.268  1.00  0.00     0.025 C 
BRANCH   8   9
ATOM      9  C   UNL     1    -115.538  -1.319  77.757  1.00  0.00     0.064 C 
ATOM     10  O   UNL     1    -114.729  -0.813  76.936  1.00  0.00    -0.545 OA
ATOM     11  O   UNL     1    -115.393  -1.046  79.113  1.00  0.00    -0.545 OA
ENDBRANCH   8   9
ENDBRANCH   1   7
BRANCH   4  12
ATOM     12  O   UNL     1    -120.372  -3.847  73.658  1.00  0.00    -0.504 OA
ATOM     13  H   UNL     1    -119.769  -4.467  73.131  1.00  0.00     0.293 HD
ENDBRANCH   4  12
BRANCH   6  14
ATOM     14  O   UNL     1    -122.172  -5.084  75.446  1.00  0.00    -0.504 OA
ATOM     15  H   UNL     1    -122.970  -4.680  74.969  1.00  0.00     0.293 HD
ENDBRANCH   6  14
TORSDOF 4
ENDMDL
MODEL 3
REMARK VINA RESULT:    -4.708      2.194      5.663
REMARK INTER + INTRA:          -5.665
REMARK INTER:                  -5.539
REMARK INTRA:                  -0.127
REMARK UNBOUND:                -0.132
REMARK SMILES O=C([O-])C=Cc1ccc(O)c(O)c1
REMARK SMILES IDX 6 1 13 2 7 3 11 4 8 5 9 6 5 7 4 8 2 9 1 10 3 11 12 12 10 14
REMARK H PARENT 12 13 10 15
REMARK Flexibility Score: inf
ROOT
ATOM      1  C   UNL     1    -117.501  -1.874  77.805  1.00  0.00    -0.022 A 
ATOM      2  C   UNL     1    -118.207  -2.294  76.666  1.00  0.00     0.058 A 
ATOM      3  C   UNL     1    -118.027  -2.168  79.078  1.00  0.00     0.012 A 
ATOM      4  C   UNL     1    -119.426  -2.971  76.786  1.00  0.00     0.157 A 
ATOM      5  C   UNL     1    -119.243  -2.845  79.201  1.00  0.00     0.051 A 
ATOM      6  C   UNL     1    -119.949  -3.246  78.060  1.00  0.00     0.157 A 
ENDROOT
BRANCH   1   7
ATOM      7  C   UNL     1    -116.208  -1.168  77.620  1.00  0.00     0.010 C 
ATOM      8  C   UNL     1    -115.151  -1.702  76.993  1.00  0.00     0.025 C 
BRANCH   8   9
ATOM      9  C   UNL     1    -113.884  -0.969  76.844  1.00  0.00     0.064 C 
ATOM     10  O   UNL     1    -113.112  -0.856  77.832  1.00  0.00    -0.545 OA
ATOM     11  O   UNL     1    -113.521  -0.403  75.627  1.00  0.00    -0.545 OA
ENDBRANCH   8   9
ENDBRANCH   1   7
BRANCH   4  12
ATOM     12  O   UNL     1    -120.101  -3.362  75.630  1.00  0.00    -0.504 OA
ATOM     13  H   UNL     1    -120.366  -2.699  74.911  1.00  0.00     0.293 HD
ENDBRANCH   4  12
BRANCH   6  14
ATOM     14  O   UNL     1    -121.163  -3.919  78.186  1.00  0.00    -0.504 OA
ATOM     15  H   UNL     1    -121.957  -3.499  78.655  1.00  0.00     0.293 HD
ENDBRANCH   6  14
TORSDOF 4
ENDMDL
MODEL 4
REMARK VINA RESULT:    -4.687      8.745     10.630
REMARK INTER + INTRA:          -5.641
REMARK INTER:                  -5.508
REMARK INTRA:                  -0.133
REMARK UNBOUND:                -0.132
REMARK SMILES O=C([O-])C=Cc1ccc(O)c(O)c1
REMARK SMILES IDX 6 1 13 2 7 3 11 4 8 5 9 6 5 7 4 8 2 9 1 10 3 11 12 12 10 14
REMARK H PARENT 12 13 10 15
REMARK Flexibility Score: inf
ROOT
ATOM      1  C   UNL     1    -109.424  -2.271  73.728  1.00  0.00    -0.022 A 
ATOM      2  C   UNL     1    -109.530  -3.519  73.092  1.00  0.00     0.058 A 
ATOM      3  C   UNL     1    -108.172  -1.871  74.236  1.00  0.00     0.012 A 
ATOM      4  C   UNL     1    -108.421  -4.366  72.985  1.00  0.00     0.157 A 
ATOM      5  C   UNL     1    -107.064  -2.715  74.129  1.00  0.00     0.051 A 
ATOM      6  C   UNL     1    -107.181  -3.964  73.508  1.00  0.00     0.157 A 
ENDROOT
BRANCH   1   7
ATOM      7  C   UNL     1    -110.629  -1.408  73.806  1.00  0.00     0.010 C 
ATOM      8  C   UNL     1    -111.865  -1.824  73.497  1.00  0.00     0.025 C 
BRANCH   8   9
ATOM      9  C   UNL     1    -113.029  -0.928  73.577  1.00  0.00     0.064 C 
ATOM     10  O   UNL     1    -113.479  -0.593  74.703  1.00  0.00    -0.545 OA
ATOM     11  O   UNL     1    -113.640  -0.441  72.426  1.00  0.00    -0.545 OA
ENDBRANCH   8   9
ENDBRANCH   1   7
BRANCH   4  12
ATOM     12  O   UNL     1    -108.571  -5.601  72.355  1.00  0.00    -0.504 OA
ATOM     13  H   UNL     1    -109.048  -5.698  71.466  1.00  0.00     0.293 HD
ENDBRANCH   4  12
BRANCH   6  14
ATOM     14  O   UNL     1    -106.074  -4.804  73.404  1.00  0.00    -0.504 OA
ATOM     15  H   UNL     1    -106.176  -5.802  73.257  1.00  0.00     0.293 HD
ENDBRANCH   6  14
TORSDOF 4
ENDMDL
MODEL 5
REMARK VINA RESULT:    -4.684      2.363      6.408
REMARK INTER + INTRA:          -5.638
REMARK INTER:                  -5.499
REMARK INTRA:                  -0.139
REMARK UNBOUND:                -0.132
REMARK SMILES O=C([O-])C=Cc1ccc(O)c(O)c1
REMARK SMILES IDX 6 1 13 2 7 3 11 4 8 5 9 6 5 7 4 8 2 9 1 10 3 11 12 12 10 14
REMARK H PARENT 12 13 10 15
REMARK Flexibility Score: inf
ROOT
ATOM      1  C   UNL     1    -118.080  -1.805  78.573  1.00  0.00    -0.022 A 
ATOM      2  C   UNL     1    -118.940  -2.796  79.075  1.00  0.00     0.058 A 
ATOM      3  C   UNL     1    -118.227  -1.390  77.235  1.00  0.00     0.012 A 
ATOM      4  C   UNL     1    -119.912  -3.383  78.256  1.00  0.00     0.157 A 
ATOM      5  C   UNL     1    -119.198  -1.974  76.417  1.00  0.00     0.051 A 
ATOM      6  C   UNL     1    -120.041  -2.972  76.920  1.00  0.00     0.157 A 
ENDROOT
BRANCH   1   7
ATOM      7  C   UNL     1    -117.074  -1.209  79.487  1.00  0.00     0.010 C 
ATOM      8  C   UNL     1    -116.281  -0.180  79.155  1.00  0.00     0.025 C 
BRANCH   8   9
ATOM      9  C   UNL     1    -115.288   0.370  80.090  1.00  0.00     0.064 C 
ATOM     10  O   UNL     1    -115.675   0.919  81.155  1.00  0.00    -0.545 OA
ATOM     11  O   UNL     1    -113.926   0.290  79.820  1.00  0.00    -0.545 OA
ENDBRANCH   8   9
ENDBRANCH   1   7
BRANCH   4  12
ATOM     12  O   UNL     1    -120.739  -4.371  78.790  1.00  0.00    -0.504 OA
ATOM     13  H   UNL     1    -120.389  -5.087  79.415  1.00  0.00     0.293 HD
ENDBRANCH   4  12
BRANCH   6  14
ATOM     14  O   UNL     1    -121.006  -3.554  76.100  1.00  0.00    -0.504 OA
ATOM     15  H   UNL     1    -121.528  -3.008  75.424  1.00  0.00     0.293 HD
ENDBRANCH   6  14
TORSDOF 4
ENDMDL
MODEL 6
REMARK VINA RESULT:    -4.615      8.751     10.399
REMARK INTER + INTRA:          -5.556
REMARK INTER:                  -5.416
REMARK INTRA:                  -0.140
REMARK UNBOUND:                -0.132
REMARK SMILES O=C([O-])C=Cc1ccc(O)c(O)c1
REMARK SMILES IDX 6 1 13 2 7 3 11 4 8 5 9 6 5 7 4 8 2 9 1 10 3 11 12 12 10 14
REMARK H PARENT 12 13 10 15
REMARK Flexibility Score: inf
ROOT
ATOM      1  C   UNL     1    -112.562  -9.034  77.052  1.00  0.00    -0.022 A 
ATOM      2  C   UNL     1    -113.489  -9.817  76.344  1.00  0.00     0.058 A 
ATOM      3  C   UNL     1    -112.883  -8.614  78.358  1.00  0.00     0.012 A 
ATOM      4  C   UNL     1    -114.723 -10.157  76.912  1.00  0.00     0.157 A 
ATOM      5  C   UNL     1    -114.114  -8.953  78.927  1.00  0.00     0.051 A 
ATOM      6  C   UNL     1    -115.039  -9.721  78.209  1.00  0.00     0.157 A 
ENDROOT
BRANCH   1   7
ATOM      7  C   UNL     1    -111.265  -8.711  76.406  1.00  0.00     0.010 C 
ATOM      8  C   UNL     1    -110.310  -7.968  76.982  1.00  0.00     0.025 C 
BRANCH   8   9
ATOM      9  C   UNL     1    -109.044  -7.663  76.299  1.00  0.00     0.064 C 
ATOM     10  O   UNL     1    -108.097  -7.146  76.947  1.00  0.00    -0.545 OA
ATOM     11  O   UNL     1    -108.872  -7.941  74.947  1.00  0.00    -0.545 OA
ENDBRANCH   8   9
ENDBRANCH   1   7
BRANCH   4  12
ATOM     12  O   UNL     1    -115.619 -10.928  76.172  1.00  0.00    -0.504 OA
ATOM     13  H   UNL     1    -115.622 -10.927  75.159  1.00  0.00     0.293 HD
ENDBRANCH   4  12
BRANCH   6  14
ATOM     14  O   UNL     1    -116.266 -10.056  78.779  1.00  0.00    -0.504 OA
ATOM     15  H   UNL     1    -116.343 -10.778  79.486  1.00  0.00     0.293 HD
ENDBRANCH   6  14
TORSDOF 4
ENDMDL
MODEL 7
REMARK VINA RESULT:    -4.594     10.267     12.316
REMARK INTER + INTRA:          -5.532
REMARK INTER:                  -5.401
REMARK INTRA:                  -0.131
REMARK UNBOUND:                -0.132
REMARK SMILES O=C([O-])C=Cc1ccc(O)c(O)c1
REMARK SMILES IDX 6 1 13 2 7 3 11 4 8 5 9 6 5 7 4 8 2 9 1 10 3 11 12 12 10 14
REMARK H PARENT 12 13 10 15
REMARK Flexibility Score: inf
ROOT
ATOM      1  C   UNL     1    -107.507  -2.476  74.005  1.00  0.00    -0.022 A 
ATOM      2  C   UNL     1    -107.540  -3.873  73.858  1.00  0.00     0.058 A 
ATOM      3  C   UNL     1    -106.270  -1.810  73.901  1.00  0.00     0.012 A 
ATOM      4  C   UNL     1    -106.364  -4.599  73.637  1.00  0.00     0.157 A 
ATOM      5  C   UNL     1    -105.095  -2.533  73.679  1.00  0.00     0.051 A 
ATOM      6  C   UNL     1    -105.134  -3.927  73.549  1.00  0.00     0.157 A 
ENDROOT
BRANCH   1   7
ATOM      7  C   UNL     1    -108.785  -1.755  74.227  1.00  0.00     0.010 C 
ATOM      8  C   UNL     1    -109.903  -1.984  73.524  1.00  0.00     0.025 C 
BRANCH   8   9
ATOM      9  C   UNL     1    -111.144  -1.235  73.771  1.00  0.00     0.064 C 
ATOM     10  O   UNL     1    -111.339  -0.709  74.899  1.00  0.00    -0.545 OA
ATOM     11  O   UNL     1    -112.107  -1.092  72.778  1.00  0.00    -0.545 OA
ENDBRANCH   8   9
ENDBRANCH   1   7
BRANCH   4  12
ATOM     12  O   UNL     1    -106.439  -5.985  73.507  1.00  0.00    -0.504 OA
ATOM     13  H   UNL     1    -106.896  -6.428  72.719  1.00  0.00     0.293 HD
ENDBRANCH   4  12
BRANCH   6  14
ATOM     14  O   UNL     1    -103.960  -4.645  73.331  1.00  0.00    -0.504 OA
ATOM     15  H   UNL     1    -103.492  -4.636  72.432  1.00  0.00     0.293 HD
ENDBRANCH   6  14
TORSDOF 4
ENDMDL
MODEL 8
REMARK VINA RESULT:    -4.575     16.403     16.809
REMARK INTER + INTRA:          -5.509
REMARK INTER:                  -5.378
REMARK INTRA:                  -0.131
REMARK UNBOUND:                -0.132
REMARK SMILES O=C([O-])C=Cc1ccc(O)c(O)c1
REMARK SMILES IDX 6 1 13 2 7 3 11 4 8 5 9 6 5 7 4 8 2 9 1 10 3 11 12 12 10 14
REMARK H PARENT 12 13 10 15
REMARK Flexibility Score: inf
ROOT
ATOM      1  C   UNL     1    -114.106 -18.850  78.283  1.00  0.00    -0.022 A 
ATOM      2  C   UNL     1    -113.899 -18.736  76.899  1.00  0.00     0.058 A 
ATOM      3  C   UNL     1    -112.987 -18.904  79.137  1.00  0.00     0.012 A 
ATOM      4  C   UNL     1    -112.604 -18.704  76.368  1.00  0.00     0.157 A 
ATOM      5  C   UNL     1    -111.694 -18.870  78.609  1.00  0.00     0.051 A 
ATOM      6  C   UNL     1    -111.495 -18.773  77.226  1.00  0.00     0.157 A 
ENDROOT
BRANCH   1   7
ATOM      7  C   UNL     1    -115.500 -18.870  78.793  1.00  0.00     0.010 C 
ATOM      8  C   UNL     1    -116.080 -17.837  79.419  1.00  0.00     0.025 C 
BRANCH   8   9
ATOM      9  C   UNL     1    -117.462 -17.907  79.919  1.00  0.00     0.064 C 
ATOM     10  O   UNL     1    -118.181 -18.896  79.623  1.00  0.00    -0.545 OA
ATOM     11  O   UNL     1    -117.987 -16.898  80.720  1.00  0.00    -0.545 OA
ENDBRANCH   8   9
ENDBRANCH   1   7
BRANCH   4  12
ATOM     12  O   UNL     1    -112.441 -18.601  74.987  1.00  0.00    -0.504 OA
ATOM     13  H   UNL     1    -111.611 -18.941  74.515  1.00  0.00     0.293 HD
ENDBRANCH   4  12
BRANCH   6  14
ATOM     14  O   UNL     1    -110.204 -18.742  76.703  1.00  0.00    -0.504 OA
ATOM     15  H   UNL     1    -109.962 -19.242  75.855  1.00  0.00     0.293 HD
ENDBRANCH   6  14
TORSDOF 4
ENDMDL
MODEL 9
REMARK VINA RESULT:    -4.408     10.350     12.202
REMARK INTER + INTRA:          -5.313
REMARK INTER:                  -5.187
REMARK INTRA:                  -0.126
REMARK UNBOUND:                -0.132
REMARK SMILES O=C([O-])C=Cc1ccc(O)c(O)c1
REMARK SMILES IDX 6 1 13 2 7 3 11 4 8 5 9 6 5 7 4 8 2 9 1 10 3 11 12 12 10 14
REMARK H PARENT 12 13 10 15
REMARK Flexibility Score: inf
ROOT
ATOM      1  C   UNL     1    -107.780  -3.446  73.954  1.00  0.00    -0.022 A 
ATOM      2  C   UNL     1    -106.767  -2.574  73.521  1.00  0.00     0.058 A 
ATOM      3  C   UNL     1    -107.462  -4.800  74.179  1.00  0.00     0.012 A 
ATOM      4  C   UNL     1    -105.468  -3.043  73.289  1.00  0.00     0.157 A 
ATOM      5  C   UNL     1    -106.166  -5.269  73.949  1.00  0.00     0.051 A 
ATOM      6  C   UNL     1    -105.166  -4.397  73.502  1.00  0.00     0.157 A 
ENDROOT
BRANCH   1   7
ATOM      7  C   UNL     1    -109.137  -2.894  74.194  1.00  0.00     0.010 C 
ATOM      8  C   UNL     1    -109.994  -2.571  73.217  1.00  0.00     0.025 C 
BRANCH   8   9
ATOM      9  C   UNL     1    -111.325  -2.015  73.501  1.00  0.00     0.064 C 
ATOM     10  O   UNL     1    -111.803  -1.129  72.746  1.00  0.00    -0.545 OA
ATOM     11  O   UNL     1    -112.070  -2.455  74.591  1.00  0.00    -0.545 OA
ENDBRANCH   8   9
ENDBRANCH   1   7
BRANCH   4  12
ATOM     12  O   UNL     1    -104.494  -2.147  72.849  1.00  0.00    -0.504 OA
ATOM     13  H   UNL     1    -104.440  -1.841  71.885  1.00  0.00     0.293 HD
ENDBRANCH   4  12
BRANCH   6  14
ATOM     14  O   UNL     1    -103.875  -4.869  73.272  1.00  0.00    -0.504 OA
ATOM     15  H   UNL     1    -103.393  -5.449  73.950  1.00  0.00     0.293 HD
ENDBRANCH   6  14
TORSDOF 4
ENDMDL
