MODEL 1
REMARK VINA RESULT:    -3.958      0.000      0.000
REMARK INTER + INTRA:          -6.030
REMARK INTER:                  -5.809
REMARK INTRA:                  -0.221
REMARK UNBOUND:                -0.221
REMARK SMILES O=C([O-])CCCCCCCC(=O)[O-]
REMARK SMILES IDX 7 1 6 2 5 3 4 4 2 5 1 6 3 7 8 8 9 9 10 10 11 11 12 12 13 13
REMARK H PARENT
REMARK Flexibility Score: inf
ROOT
ATOM      1  C   UNL     1     -30.456 -20.742  13.043  1.00  0.00     0.000 C 
ENDROOT
BRANCH   1   2
ATOM      2  C   UNL     1     -31.040 -22.136  13.320  1.00  0.00     0.000 C 
BRANCH   2   3
ATOM      3  C   UNL     1     -30.840 -22.583  14.777  1.00  0.00     0.006 C 
BRANCH   3   4
ATOM      4  C   UNL     1     -31.121 -24.077  14.980  1.00  0.00     0.053 C 
BRANCH   4   5
ATOM      5  C   UNL     1     -30.113 -24.676  15.908  1.00  0.00     0.041 C 
ATOM      6  O   UNL     1     -29.624 -23.988  16.844  1.00  0.00    -0.550 OA
ATOM      7  O   UNL     1     -29.747 -26.009  15.770  1.00  0.00    -0.550 OA
ENDBRANCH   4   5
ENDBRANCH   3   4
ENDBRANCH   2   3
ENDBRANCH   1   2
BRANCH   1   8
ATOM      8  C   UNL     1     -30.700 -19.799  14.227  1.00  0.00     0.000 C 
BRANCH   8   9
ATOM      9  C   UNL     1     -31.125 -18.408  13.745  1.00  0.00     0.006 C 
BRANCH   9  10
ATOM     10  C   UNL     1     -29.986 -17.397  13.913  1.00  0.00     0.053 C 
BRANCH  10  11
ATOM     11  C   UNL     1     -30.408 -16.048  13.421  1.00  0.00     0.041 C 
ATOM     12  O   UNL     1     -30.806 -15.901  12.236  1.00  0.00    -0.550 OA
ATOM     13  O   UNL     1     -30.315 -14.943  14.257  1.00  0.00    -0.550 OA
ENDBRANCH  10  11
ENDBRANCH   9  10
ENDBRANCH   8   9
ENDBRANCH   1   8
TORSDOF 8
ENDMDL
MODEL 2
REMARK VINA RESULT:    -3.927      3.048      4.603
REMARK INTER + INTRA:          -5.985
REMARK INTER:                  -5.826
REMARK INTRA:                  -0.159
REMARK UNBOUND:                -0.221
REMARK SMILES O=C([O-])CCCCCCCC(=O)[O-]
REMARK SMILES IDX 7 1 6 2 5 3 4 4 2 5 1 6 3 7 8 8 9 9 10 10 11 11 12 12 13 13
REMARK H PARENT
REMARK Flexibility Score: inf
ROOT
ATOM      1  C   UNL     1     -30.118 -16.296  13.071  1.00  0.00     0.000 C 
ENDROOT
BRANCH   1   2
ATOM      2  C   UNL     1     -30.133 -17.541  13.970  1.00  0.00     0.000 C 
BRANCH   2   3
ATOM      3  C   UNL     1     -30.623 -18.798  13.233  1.00  0.00     0.006 C 
BRANCH   3   4
ATOM      4  C   UNL     1     -31.125 -19.886  14.190  1.00  0.00     0.053 C 
BRANCH   4   5
ATOM      5  C   UNL     1     -30.769 -21.242  13.670  1.00  0.00     0.041 C 
ATOM      6  O   UNL     1     -30.797 -22.243  14.436  1.00  0.00    -0.550 OA
ATOM      7  O   UNL     1     -30.452 -21.412  12.329  1.00  0.00    -0.550 OA
ENDBRANCH   4   5
ENDBRANCH   3   4
ENDBRANCH   2   3
ENDBRANCH   1   2
BRANCH   1   8
ATOM      8  C   UNL     1     -30.467 -15.035  13.871  1.00  0.00     0.000 C 
BRANCH   8   9
ATOM      9  C   UNL     1     -30.997 -13.929  12.954  1.00  0.00     0.006 C 
BRANCH   9  10
ATOM     10  C   UNL     1     -30.981 -12.571  13.664  1.00  0.00     0.053 C 
BRANCH  10  11
ATOM     11  C   UNL     1     -30.562 -11.491  12.718  1.00  0.00     0.041 C 
ATOM     12  O   UNL     1     -31.106 -10.357  12.769  1.00  0.00    -0.550 OA
ATOM     13  O   UNL     1     -29.603 -11.750  11.747  1.00  0.00    -0.550 OA
ENDBRANCH  10  11
ENDBRANCH   9  10
ENDBRANCH   8   9
ENDBRANCH   1   8
TORSDOF 8
ENDMDL
MODEL 3
REMARK VINA RESULT:    -3.641      3.239      8.988
REMARK INTER + INTRA:          -5.565
REMARK INTER:                  -5.347
REMARK INTRA:                  -0.218
REMARK UNBOUND:                -0.221
REMARK SMILES O=C([O-])CCCCCCCC(=O)[O-]
REMARK SMILES IDX 7 1 6 2 5 3 4 4 2 5 1 6 3 7 8 8 9 9 10 10 11 11 12 12 13 13
REMARK H PARENT
REMARK Flexibility Score: inf
ROOT
ATOM      1  C   UNL     1     -29.972 -15.669  13.857  1.00  0.00     0.000 C 
ENDROOT
BRANCH   1   2
ATOM      2  C   UNL     1     -31.125 -14.681  14.092  1.00  0.00     0.000 C 
BRANCH   2   3
ATOM      3  C   UNL     1     -31.119 -13.516  13.090  1.00  0.00     0.006 C 
BRANCH   3   4
ATOM      4  C   UNL     1     -30.517 -12.233  13.679  1.00  0.00     0.053 C 
BRANCH   4   5
ATOM      5  C   UNL     1     -30.340 -11.202  12.610  1.00  0.00     0.041 C 
ATOM      6  O   UNL     1     -31.053 -10.164  12.606  1.00  0.00    -0.550 OA
ATOM      7  O   UNL     1     -29.353 -11.363  11.646  1.00  0.00    -0.550 OA
ENDBRANCH   4   5
ENDBRANCH   3   4
ENDBRANCH   2   3
ENDBRANCH   1   2
BRANCH   1   8
ATOM      8  C   UNL     1     -30.393 -16.788  12.898  1.00  0.00     0.000 C 
BRANCH   8   9
ATOM      9  C   UNL     1     -31.103 -17.920  13.648  1.00  0.00     0.006 C 
BRANCH   9  10
ATOM     10  C   UNL     1     -30.119 -19.033  14.023  1.00  0.00     0.053 C 
BRANCH  10  11
ATOM     11  C   UNL     1     -30.732 -20.376  13.783  1.00  0.00     0.041 C 
ATOM     12  O   UNL     1     -30.926 -21.166  14.744  1.00  0.00    -0.550 OA
ATOM     13  O   UNL     1     -31.046 -20.776  12.491  1.00  0.00    -0.550 OA
ENDBRANCH  10  11
ENDBRANCH   9  10
ENDBRANCH   8   9
ENDBRANCH   1   8
TORSDOF 8
ENDMDL
MODEL 4
REMARK VINA RESULT:    -3.402      2.682      8.144
REMARK INTER + INTRA:          -5.213
REMARK INTER:                  -4.938
REMARK INTRA:                  -0.275
REMARK UNBOUND:                -0.221
REMARK SMILES O=C([O-])CCCCCCCC(=O)[O-]
REMARK SMILES IDX 7 1 6 2 5 3 4 4 2 5 1 6 3 7 8 8 9 9 10 10 11 11 12 12 13 13
REMARK H PARENT
REMARK Flexibility Score: inf
ROOT
ATOM      1  C   UNL     1     -29.604 -16.970  13.418  1.00  0.00     0.000 C 
ENDROOT
BRANCH   1   2
ATOM      2  C   UNL     1     -31.006 -16.366  13.250  1.00  0.00     0.000 C 
BRANCH   2   3
ATOM      3  C   UNL     1     -31.113 -14.947  13.831  1.00  0.00     0.006 C 
BRANCH   3   4
ATOM      4  C   UNL     1     -30.765 -13.861  12.805  1.00  0.00     0.053 C 
BRANCH   4   5
ATOM      5  C   UNL     1     -30.799 -12.509  13.445  1.00  0.00     0.041 C 
ATOM      6  O   UNL     1     -31.114 -12.390  14.659  1.00  0.00    -0.550 OA
ATOM      7  O   UNL     1     -30.436 -11.385  12.714  1.00  0.00    -0.550 OA
ENDBRANCH   4   5
ENDBRANCH   3   4
ENDBRANCH   2   3
ENDBRANCH   1   2
BRANCH   1   8
ATOM      8  C   UNL     1     -29.672 -18.326  14.131  1.00  0.00     0.000 C 
BRANCH   8   9
ATOM      9  C   UNL     1     -31.101 -18.879  14.129  1.00  0.00     0.006 C 
BRANCH   9  10
ATOM     10  C   UNL     1     -31.125 -20.341  14.587  1.00  0.00     0.053 C 
BRANCH  10  11
ATOM     11  C   UNL     1     -31.031 -21.260  13.411  1.00  0.00     0.041 C 
ATOM     12  O   UNL     1     -31.087 -20.799  12.240  1.00  0.00    -0.550 OA
ATOM     13  O   UNL     1     -30.930 -22.631  13.605  1.00  0.00    -0.550 OA
ENDBRANCH  10  11
ENDBRANCH   9  10
ENDBRANCH   8   9
ENDBRANCH   1   8
TORSDOF 8
ENDMDL
MODEL 5
REMARK VINA RESULT:    -3.355     18.050     18.762
REMARK INTER + INTRA:          -5.145
REMARK INTER:                  -4.829
REMARK INTRA:                  -0.316
REMARK UNBOUND:                -0.221
REMARK SMILES O=C([O-])CCCCCCCC(=O)[O-]
REMARK SMILES IDX 7 1 6 2 5 3 4 4 2 5 1 6 3 7 8 8 9 9 10 10 11 11 12 12 13 13
REMARK H PARENT
REMARK Flexibility Score: inf
ROOT
ATOM      1  C   UNL     1     -11.137 -16.672  17.584  1.00  0.00     0.000 C 
ENDROOT
BRANCH   1   2
ATOM      2  C   UNL     1     -11.237 -17.616  18.791  1.00  0.00     0.000 C 
BRANCH   2   3
ATOM      3  C   UNL     1     -12.535 -18.439  18.794  1.00  0.00     0.006 C 
BRANCH   3   4
ATOM      4  C   UNL     1     -13.021 -18.770  20.211  1.00  0.00     0.053 C 
BRANCH   4   5
ATOM      5  C   UNL     1     -13.563 -20.163  20.263  1.00  0.00     0.041 C 
ATOM      6  O   UNL     1     -13.938 -20.657  21.360  1.00  0.00    -0.550 OA
ATOM      7  O   UNL     1     -13.701 -20.900  19.094  1.00  0.00    -0.550 OA
ENDBRANCH   4   5
ENDBRANCH   3   4
ENDBRANCH   2   3
ENDBRANCH   1   2
BRANCH   1   8
ATOM      8  C   UNL     1     -11.682 -17.342  16.316  1.00  0.00     0.000 C 
BRANCH   8   9
ATOM      9  C   UNL     1     -11.738 -16.350  15.149  1.00  0.00     0.006 C 
BRANCH   9  10
ATOM     10  C   UNL     1     -11.672 -14.905  15.652  1.00  0.00     0.053 C 
BRANCH  10  11
ATOM     11  C   UNL     1     -12.373 -13.987  14.701  1.00  0.00     0.041 C 
ATOM     12  O   UNL     1     -12.740 -12.843  15.077  1.00  0.00    -0.550 OA
ATOM     13  O   UNL     1     -12.665 -14.413  13.412  1.00  0.00    -0.550 OA
ENDBRANCH  10  11
ENDBRANCH   9  10
ENDBRANCH   8   9
ENDBRANCH   1   8
TORSDOF 8
ENDMDL
MODEL 6
REMARK VINA RESULT:    -3.276     15.119     17.032
REMARK INTER + INTRA:          -5.030
REMARK INTER:                  -4.627
REMARK INTRA:                  -0.402
REMARK UNBOUND:                -0.221
REMARK SMILES O=C([O-])CCCCCCCC(=O)[O-]
REMARK SMILES IDX 7 1 6 2 5 3 4 4 2 5 1 6 3 7 8 8 9 9 10 10 11 11 12 12 13 13
REMARK H PARENT
REMARK Flexibility Score: inf
ROOT
ATOM      1  C   UNL     1     -15.837 -26.656  12.355  1.00  0.00     0.000 C 
ENDROOT
BRANCH   1   2
ATOM      2  C   UNL     1     -14.332 -26.848  12.117  1.00  0.00     0.000 C 
BRANCH   2   3
ATOM      3  C   UNL     1     -13.777 -28.102  12.812  1.00  0.00     0.006 C 
BRANCH   3   4
ATOM      4  C   UNL     1     -12.293 -27.968  13.176  1.00  0.00     0.053 C 
BRANCH   4   5
ATOM      5  C   UNL     1     -12.123 -27.923  14.661  1.00  0.00     0.041 C 
ATOM      6  O   UNL     1     -10.971 -27.977  15.169  1.00  0.00    -0.550 OA
ATOM      7  O   UNL     1     -13.231 -27.772  15.484  1.00  0.00    -0.550 OA
ENDBRANCH   4   5
ENDBRANCH   3   4
ENDBRANCH   2   3
ENDBRANCH   1   2
BRANCH   1   8
ATOM      8  C   UNL     1     -16.628 -26.844  11.055  1.00  0.00     0.000 C 
BRANCH   8   9
ATOM      9  C   UNL     1     -17.760 -27.859  11.241  1.00  0.00     0.006 C 
BRANCH   9  10
ATOM     10  C   UNL     1     -18.147 -27.987  12.718  1.00  0.00     0.053 C 
BRANCH  10  11
ATOM     11  C   UNL     1     -19.589 -27.638  12.913  1.00  0.00     0.041 C 
ATOM     12  O   UNL     1     -20.296 -27.291  11.931  1.00  0.00    -0.550 OA
ATOM     13  O   UNL     1     -20.140 -27.649  14.188  1.00  0.00    -0.550 OA
ENDBRANCH  10  11
ENDBRANCH   9  10
ENDBRANCH   8   9
ENDBRANCH   1   8
TORSDOF 8
ENDMDL
MODEL 7
REMARK VINA RESULT:    -3.252     18.217     18.803
REMARK INTER + INTRA:          -4.993
REMARK INTER:                  -4.678
REMARK INTRA:                  -0.315
REMARK UNBOUND:                -0.221
REMARK SMILES O=C([O-])CCCCCCCC(=O)[O-]
REMARK SMILES IDX 7 1 6 2 5 3 4 4 2 5 1 6 3 7 8 8 9 9 10 10 11 11 12 12 13 13
REMARK H PARENT
REMARK Flexibility Score: inf
ROOT
ATOM      1  C   UNL     1     -11.982 -18.090  18.057  1.00  0.00     0.000 C 
ENDROOT
BRANCH   1   2
ATOM      2  C   UNL     1     -11.407 -19.437  17.594  1.00  0.00     0.000 C 
BRANCH   2   3
ATOM      3  C   UNL     1     -11.510 -20.527  18.673  1.00  0.00     0.006 C 
BRANCH   3   4
ATOM      4  C   UNL     1     -12.920 -21.121  18.781  1.00  0.00     0.053 C 
BRANCH   4   5
ATOM      5  C   UNL     1     -13.435 -20.989  20.179  1.00  0.00     0.041 C 
ATOM      6  O   UNL     1     -13.445 -21.987  20.948  1.00  0.00    -0.550 OA
ATOM      7  O   UNL     1     -13.860 -19.753  20.650  1.00  0.00    -0.550 OA
ENDBRANCH   4   5
ENDBRANCH   3   4
ENDBRANCH   2   3
ENDBRANCH   1   2
BRANCH   1   8
ATOM      8  C   UNL     1     -11.339 -16.926  17.294  1.00  0.00     0.000 C 
BRANCH   8   9
ATOM      9  C   UNL     1     -11.383 -17.167  15.781  1.00  0.00     0.006 C 
BRANCH   9  10
ATOM     10  C   UNL     1     -12.134 -16.040  15.066  1.00  0.00     0.053 C 
BRANCH  10  11
ATOM     11  C   UNL     1     -11.937 -16.136  13.586  1.00  0.00     0.041 C 
ATOM     12  O   UNL     1     -11.316 -17.113  13.091  1.00  0.00    -0.550 OA
ATOM     13  O   UNL     1     -12.396 -15.122  12.757  1.00  0.00    -0.550 OA
ENDBRANCH  10  11
ENDBRANCH   9  10
ENDBRANCH   8   9
ENDBRANCH   1   8
TORSDOF 8
ENDMDL
MODEL 8
REMARK VINA RESULT:    -3.231     18.384     19.902
REMARK INTER + INTRA:          -4.963
REMARK INTER:                  -4.659
REMARK INTRA:                  -0.305
REMARK UNBOUND:                -0.221
REMARK SMILES O=C([O-])CCCCCCCC(=O)[O-]
REMARK SMILES IDX 7 1 6 2 5 3 4 4 2 5 1 6 3 7 8 8 9 9 10 10 11 11 12 12 13 13
REMARK H PARENT
REMARK Flexibility Score: inf
ROOT
ATOM      1  C   UNL     1     -11.058 -18.754  17.223  1.00  0.00     0.000 C 
ENDROOT
BRANCH   1   2
ATOM      2  C   UNL     1     -11.831 -17.457  16.941  1.00  0.00     0.000 C 
BRANCH   2   3
ATOM      3  C   UNL     1     -11.102 -16.536  15.950  1.00  0.00     0.006 C 
BRANCH   3   4
ATOM      4  C   UNL     1     -11.734 -16.554  14.553  1.00  0.00     0.053 C 
BRANCH   4   5
ATOM      5  C   UNL     1     -12.184 -15.181  14.167  1.00  0.00     0.041 C 
ATOM      6  O   UNL     1     -12.061 -14.222  14.974  1.00  0.00    -0.550 OA
ATOM      7  O   UNL     1     -12.697 -14.949  12.897  1.00  0.00    -0.550 OA
ENDBRANCH   4   5
ENDBRANCH   3   4
ENDBRANCH   2   3
ENDBRANCH   1   2
BRANCH   1   8
ATOM      8  C   UNL     1     -11.675 -19.517  18.401  1.00  0.00     0.000 C 
BRANCH   8   9
ATOM      9  C   UNL     1     -12.749 -18.677  19.101  1.00  0.00     0.006 C 
BRANCH   9  10
ATOM     10  C   UNL     1     -13.471 -19.494  20.177  1.00  0.00     0.053 C 
BRANCH  10  11
ATOM     11  C   UNL     1     -13.084 -19.020  21.542  1.00  0.00     0.041 C 
ATOM     12  O   UNL     1     -13.116 -19.812  22.521  1.00  0.00    -0.550 OA
ATOM     13  O   UNL     1     -12.733 -17.692  21.743  1.00  0.00    -0.550 OA
ENDBRANCH  10  11
ENDBRANCH   9  10
ENDBRANCH   8   9
ENDBRANCH   1   8
TORSDOF 8
ENDMDL
MODEL 9
REMARK VINA RESULT:    -3.222     18.204     19.797
REMARK INTER + INTRA:          -4.950
REMARK INTER:                  -4.716
REMARK INTRA:                  -0.233
REMARK UNBOUND:                -0.221
REMARK SMILES O=C([O-])CCCCCCCC(=O)[O-]
REMARK SMILES IDX 7 1 6 2 5 3 4 4 2 5 1 6 3 7 8 8 9 9 10 10 11 11 12 12 13 13
REMARK H PARENT
REMARK Flexibility Score: inf
ROOT
ATOM      1  C   UNL     1     -11.176 -16.986  17.946  1.00  0.00     0.000 C 
ENDROOT
BRANCH   1   2
ATOM      2  C   UNL     1     -11.671 -17.354  16.539  1.00  0.00     0.000 C 
BRANCH   2   3
ATOM      3  C   UNL     1     -11.234 -16.338  15.473  1.00  0.00     0.006 C 
BRANCH   3   4
ATOM      4  C   UNL     1     -12.341 -16.036  14.455  1.00  0.00     0.053 C 
BRANCH   4   5
ATOM      5  C   UNL     1     -11.784 -16.024  13.067  1.00  0.00     0.041 C 
ATOM      6  O   UNL     1     -11.821 -14.970  12.378  1.00  0.00    -0.550 OA
ATOM      7  O   UNL     1     -11.180 -17.163  12.550  1.00  0.00    -0.550 OA
ENDBRANCH   4   5
ENDBRANCH   3   4
ENDBRANCH   2   3
ENDBRANCH   1   2
BRANCH   1   8
ATOM      8  C   UNL     1     -11.349 -18.162  18.915  1.00  0.00     0.000 C 
BRANCH   8   9
ATOM      9  C   UNL     1     -12.808 -18.627  18.962  1.00  0.00     0.006 C 
BRANCH   9  10
ATOM     10  C   UNL     1     -13.211 -19.031  20.384  1.00  0.00     0.053 C 
BRANCH  10  11
ATOM     11  C   UNL     1     -13.642 -20.463  20.419  1.00  0.00     0.041 C 
ATOM     12  O   UNL     1     -13.724 -21.127  19.353  1.00  0.00    -0.550 OA
ATOM     13  O   UNL     1     -13.999 -21.052  21.625  1.00  0.00    -0.550 OA
ENDBRANCH  10  11
ENDBRANCH   9  10
ENDBRANCH   8   9
ENDBRANCH   1   8
TORSDOF 8
ENDMDL
