MODEL 1
REMARK VINA RESULT:    -2.314      0.000      0.000
REMARK INTER + INTRA:          -2.314
REMARK INTER:                  -2.314
REMARK INTRA:                   0.000
REMARK UNBOUND:                 0.000
REMARK SMILES CC(=O)[O-]
REMARK SMILES IDX 1 1 2 2 3 3 4 4
REMARK H PARENT
REMARK Flexibility Score: inf
ROOT
ATOM      1  C   UNL     1     118.994  87.921  24.646  1.00  0.00     0.063 C 
ATOM      2  C   UNL     1     118.390  87.434  23.372  1.00  0.00     0.038 C 
ATOM      3  O   UNL     1     117.197  87.720  23.089  1.00  0.00    -0.550 OA
ATOM      4  O   UNL     1     119.125  86.621  22.519  1.00  0.00    -0.550 OA
ENDROOT
TORSDOF 0
ENDMDL
MODEL 2
REMARK VINA RESULT:    -1.969      3.114      3.686
REMARK INTER + INTRA:          -1.969
REMARK INTER:                  -1.969
REMARK INTRA:                   0.000
REMARK UNBOUND:                 0.000
REMARK SMILES CC(=O)[O-]
REMARK SMILES IDX 1 1 2 2 3 3 4 4
REMARK H PARENT
REMARK Flexibility Score: inf
ROOT
ATOM      1  C   UNL     1     118.365  88.006  24.845  1.00  0.00     0.063 C 
ATOM      2  C   UNL     1     118.394  87.701  26.305  1.00  0.00     0.038 C 
ATOM      3  O   UNL     1     119.121  86.770  26.740  1.00  0.00    -0.550 OA
ATOM      4  O   UNL     1     117.581  88.408  27.181  1.00  0.00    -0.550 OA
ENDROOT
TORSDOF 0
ENDMDL
MODEL 3
REMARK VINA RESULT:    -1.793     14.306     14.654
REMARK INTER + INTRA:          -1.793
REMARK INTER:                  -1.793
REMARK INTRA:                   0.000
REMARK UNBOUND:                 0.000
REMARK SMILES CC(=O)[O-]
REMARK SMILES IDX 1 1 2 2 3 3 4 4
REMARK H PARENT
REMARK Flexibility Score: inf
ROOT
ATOM      1  C   UNL     1     104.506  82.660  26.352  1.00  0.00     0.063 C 
ATOM      2  C   UNL     1     105.138  83.204  27.589  1.00  0.00     0.038 C 
ATOM      3  O   UNL     1     104.682  84.248  28.124  1.00  0.00    -0.550 OA
ATOM      4  O   UNL     1     106.262  82.589  28.125  1.00  0.00    -0.550 OA
ENDROOT
TORSDOF 0
ENDMDL
MODEL 4
REMARK VINA RESULT:    -1.786     13.839     14.291
REMARK INTER + INTRA:          -1.786
REMARK INTER:                  -1.786
REMARK INTRA:                   0.000
REMARK UNBOUND:                 0.000
REMARK SMILES CC(=O)[O-]
REMARK SMILES IDX 1 1 2 2 3 3 4 4
REMARK H PARENT
REMARK Flexibility Score: inf
ROOT
ATOM      1  C   UNL     1     105.983  95.860  27.055  1.00  0.00     0.063 C 
ATOM      2  C   UNL     1     106.641  94.897  26.125  1.00  0.00     0.038 C 
ATOM      3  O   UNL     1     106.156  93.747  25.961  1.00  0.00    -0.550 OA
ATOM      4  O   UNL     1     107.819  95.248  25.478  1.00  0.00    -0.550 OA
ENDROOT
TORSDOF 0
ENDMDL
MODEL 5
REMARK VINA RESULT:    -1.782     13.952     14.556
REMARK INTER + INTRA:          -1.782
REMARK INTER:                  -1.782
REMARK INTRA:                   0.000
REMARK UNBOUND:                 0.000
REMARK SMILES CC(=O)[O-]
REMARK SMILES IDX 1 1 2 2 3 3 4 4
REMARK H PARENT
REMARK Flexibility Score: inf
ROOT
ATOM      1  C   UNL     1     105.981  95.435  26.677  1.00  0.00     0.063 C 
ATOM      2  C   UNL     1     105.919  94.218  25.816  1.00  0.00     0.038 C 
ATOM      3  O   UNL     1     106.724  93.269  26.005  1.00  0.00    -0.550 OA
ATOM      4  O   UNL     1     105.006  94.150  24.771  1.00  0.00    -0.550 OA
ENDROOT
TORSDOF 0
ENDMDL
MODEL 6
REMARK VINA RESULT:    -1.739     14.225     14.678
REMARK INTER + INTRA:          -1.739
REMARK INTER:                  -1.739
REMARK INTRA:                   0.000
REMARK UNBOUND:                 0.000
REMARK SMILES CC(=O)[O-]
REMARK SMILES IDX 1 1 2 2 3 3 4 4
REMARK H PARENT
REMARK Flexibility Score: inf
ROOT
ATOM      1  C   UNL     1     106.002  94.127  25.876  1.00  0.00     0.063 C 
ATOM      2  C   UNL     1     106.574  95.395  26.414  1.00  0.00     0.038 C 
ATOM      3  O   UNL     1     106.038  95.959  27.404  1.00  0.00    -0.550 OA
ATOM      4  O   UNL     1     107.667  95.985  25.792  1.00  0.00    -0.550 OA
ENDROOT
TORSDOF 0
ENDMDL
MODEL 7
REMARK VINA RESULT:    -1.682     14.618     15.155
REMARK INTER + INTRA:          -1.682
REMARK INTER:                  -1.682
REMARK INTRA:                   0.000
REMARK UNBOUND:                 0.000
REMARK SMILES CC(=O)[O-]
REMARK SMILES IDX 1 1 2 2 3 3 4 4
REMARK H PARENT
REMARK Flexibility Score: inf
ROOT
ATOM      1  C   UNL     1     105.500  83.316  28.070  1.00  0.00     0.063 C 
ATOM      2  C   UNL     1     104.456  83.075  27.031  1.00  0.00     0.038 C 
ATOM      3  O   UNL     1     104.788  82.929  25.826  1.00  0.00    -0.550 OA
ATOM      4  O   UNL     1     103.113  83.061  27.384  1.00  0.00    -0.550 OA
ENDROOT
TORSDOF 0
ENDMDL
MODEL 8
REMARK VINA RESULT:    -1.672     10.357     10.833
REMARK INTER + INTRA:          -1.672
REMARK INTER:                  -1.672
REMARK INTRA:                   0.000
REMARK UNBOUND:                 0.000
REMARK SMILES CC(=O)[O-]
REMARK SMILES IDX 1 1 2 2 3 3 4 4
REMARK H PARENT
REMARK Flexibility Score: inf
ROOT
ATOM      1  C   UNL     1     110.550  92.746  24.850  1.00  0.00     0.063 C 
ATOM      2  C   UNL     1     109.883  93.946  24.264  1.00  0.00     0.038 C 
ATOM      3  O   UNL     1     109.545  94.905  25.006  1.00  0.00    -0.550 OA
ATOM      4  O   UNL     1     109.587  93.985  22.908  1.00  0.00    -0.550 OA
ENDROOT
TORSDOF 0
ENDMDL
MODEL 9
REMARK VINA RESULT:    -1.665     10.223     10.779
REMARK INTER + INTRA:          -1.665
REMARK INTER:                  -1.665
REMARK INTRA:                   0.000
REMARK UNBOUND:                 0.000
REMARK SMILES CC(=O)[O-]
REMARK SMILES IDX 1 1 2 2 3 3 4 4
REMARK H PARENT
REMARK Flexibility Score: inf
ROOT
ATOM      1  C   UNL     1     110.498  92.660  24.757  1.00  0.00     0.063 C 
ATOM      2  C   UNL     1     109.985  93.891  24.089  1.00  0.00     0.038 C 
ATOM      3  O   UNL     1     109.853  93.921  22.838  1.00  0.00    -0.550 OA
ATOM      4  O   UNL     1     109.701  95.024  24.841  1.00  0.00    -0.550 OA
ENDROOT
TORSDOF 0
ENDMDL
