MODEL 1
REMARK VINA RESULT:    -3.676      0.000      0.000
REMARK INTER + INTRA:          -7.960
REMARK INTER:                  -6.469
REMARK INTRA:                  -1.491
REMARK UNBOUND:                -1.491
REMARK SMILES CCCCCCCCCCCCCCC(=O)[O-]
REMARK SMILES IDX 9 1 10 2 11 3 12 4 13 5 14 6 15 7 16 8 17 9 8 10 7 11 6 12
REMARK SMILES IDX 5 13 4 14 3 15 2 16 1 17
REMARK H PARENT
REMARK Flexibility Score: inf
ROOT
ATOM      1  C   UNL     1     -18.251  21.399  45.561  1.00  0.00     0.000 C 
ENDROOT
BRANCH   1   2
ATOM      2  C   UNL     1     -19.705  21.001  45.886  1.00  0.00     0.000 C 
BRANCH   2   3
ATOM      3  C   UNL     1     -20.653  22.179  46.186  1.00  0.00     0.000 C 
BRANCH   3   4
ATOM      4  C   UNL     1     -20.443  23.427  45.303  1.00  0.00     0.000 C 
BRANCH   4   5
ATOM      5  C   UNL     1     -21.422  24.584  45.571  1.00  0.00     0.006 C 
BRANCH   5   6
ATOM      6  C   UNL     1     -22.446  24.770  44.445  1.00  0.00     0.053 C 
BRANCH   6   7
ATOM      7  C   UNL     1     -23.833  24.534  44.956  1.00  0.00     0.041 C 
ATOM      8  O   UNL     1     -24.434  23.463  44.683  1.00  0.00    -0.550 OA
ATOM      9  O   UNL     1     -24.442  25.477  45.775  1.00  0.00    -0.550 OA
ENDBRANCH   6   7
ENDBRANCH   5   6
ENDBRANCH   4   5
ENDBRANCH   3   4
ENDBRANCH   2   3
ENDBRANCH   1   2
BRANCH   1  10
ATOM     10  C   UNL     1     -17.654  20.727  44.312  1.00  0.00     0.000 C 
BRANCH  10  11
ATOM     11  C   UNL     1     -17.017  21.735  43.339  1.00  0.00    -0.000 C 
BRANCH  11  12
ATOM     12  C   UNL     1     -18.065  22.458  42.478  1.00  0.00    -0.000 C 
BRANCH  12  13
ATOM     13  C   UNL     1     -17.831  23.977  42.413  1.00  0.00    -0.000 C 
BRANCH  13  14
ATOM     14  C   UNL     1     -19.150  24.764  42.256  1.00  0.00    -0.000 C 
BRANCH  14  15
ATOM     15  C   UNL     1     -18.956  26.293  42.208  1.00  0.00    -0.000 C 
BRANCH  15  16
ATOM     16  C   UNL     1     -19.841  27.083  43.186  1.00  0.00    -0.003 C 
ATOM     17  C   UNL     1     -21.056  27.714  42.509  1.00  0.00     0.004 C 
ENDBRANCH  15  16
ENDBRANCH  14  15
ENDBRANCH  13  14
ENDBRANCH  12  13
ENDBRANCH  11  12
ENDBRANCH  10  11
ENDBRANCH   1  10
TORSDOF 13
ENDMDL
MODEL 2
REMARK VINA RESULT:    -3.520      1.981      4.129
REMARK INTER + INTRA:          -7.686
REMARK INTER:                  -5.946
REMARK INTRA:                  -1.740
REMARK UNBOUND:                -1.491
REMARK SMILES CCCCCCCCCCCCCCC(=O)[O-]
REMARK SMILES IDX 9 1 10 2 11 3 12 4 13 5 14 6 15 7 16 8 17 9 8 10 7 11 6 12
REMARK SMILES IDX 5 13 4 14 3 15 2 16 1 17
REMARK H PARENT
REMARK Flexibility Score: inf
ROOT
ATOM      1  C   UNL     1     -16.921  21.677  43.253  1.00  0.00     0.000 C 
ENDROOT
BRANCH   1   2
ATOM      2  C   UNL     1     -18.005  22.455  42.480  1.00  0.00     0.000 C 
BRANCH   2   3
ATOM      3  C   UNL     1     -17.855  23.989  42.511  1.00  0.00     0.000 C 
BRANCH   3   4
ATOM      4  C   UNL     1     -19.160  24.777  42.273  1.00  0.00     0.000 C 
BRANCH   4   5
ATOM      5  C   UNL     1     -19.056  26.293  42.513  1.00  0.00     0.006 C 
BRANCH   5   6
ATOM      6  C   UNL     1     -20.415  27.000  42.456  1.00  0.00     0.053 C 
BRANCH   6   7
ATOM      7  C   UNL     1     -20.486  28.079  43.492  1.00  0.00     0.041 C 
ATOM      8  O   UNL     1     -19.429  28.590  43.946  1.00  0.00    -0.550 OA
ATOM      9  O   UNL     1     -21.720  28.553  43.919  1.00  0.00    -0.550 OA
ENDBRANCH   6   7
ENDBRANCH   5   6
ENDBRANCH   4   5
ENDBRANCH   3   4
ENDBRANCH   2   3
ENDBRANCH   1   2
BRANCH   1  10
ATOM     10  C   UNL     1     -17.199  21.490  44.755  1.00  0.00     0.000 C 
BRANCH  10  11
ATOM     11  C   UNL     1     -18.235  20.389  45.038  1.00  0.00    -0.000 C 
BRANCH  11  12
ATOM     12  C   UNL     1     -19.519  20.944  45.675  1.00  0.00    -0.000 C 
BRANCH  12  13
ATOM     13  C   UNL     1     -19.479  22.472  45.852  1.00  0.00    -0.000 C 
BRANCH  13  14
ATOM     14  C   UNL     1     -20.826  23.137  45.495  1.00  0.00    -0.000 C 
BRANCH  14  15
ATOM     15  C   UNL     1     -20.793  24.676  45.564  1.00  0.00    -0.000 C 
BRANCH  15  16
ATOM     16  C   UNL     1     -22.167  25.353  45.433  1.00  0.00    -0.003 C 
ATOM     17  C   UNL     1     -22.950  24.876  44.210  1.00  0.00     0.004 C 
ENDBRANCH  15  16
ENDBRANCH  14  15
ENDBRANCH  13  14
ENDBRANCH  12  13
ENDBRANCH  11  12
ENDBRANCH  10  11
ENDBRANCH   1  10
TORSDOF 13
ENDMDL
MODEL 3
REMARK VINA RESULT:    -3.493      2.905      5.818
REMARK INTER + INTRA:          -7.639
REMARK INTER:                  -6.381
REMARK INTRA:                  -1.258
REMARK UNBOUND:                -1.491
REMARK SMILES CCCCCCCCCCCCCCC(=O)[O-]
REMARK SMILES IDX 9 1 10 2 11 3 12 4 13 5 14 6 15 7 16 8 17 9 8 10 7 11 6 12
REMARK SMILES IDX 5 13 4 14 3 15 2 16 1 17
REMARK H PARENT
REMARK Flexibility Score: inf
ROOT
ATOM      1  C   UNL     1     -19.697  22.027  45.831  1.00  0.00     0.000 C 
ENDROOT
BRANCH   1   2
ATOM      2  C   UNL     1     -19.250  20.552  45.876  1.00  0.00     0.000 C 
BRANCH   2   3
ATOM      3  C   UNL     1     -18.219  20.148  44.804  1.00  0.00     0.000 C 
BRANCH   3   4
ATOM      4  C   UNL     1     -16.911  20.968  44.816  1.00  0.00     0.000 C 
BRANCH   4   5
ATOM      5  C   UNL     1     -16.563  21.653  43.483  1.00  0.00     0.006 C 
BRANCH   5   6
ATOM      6  C   UNL     1     -17.797  22.202  42.755  1.00  0.00     0.053 C 
BRANCH   6   7
ATOM      7  C   UNL     1     -17.777  23.698  42.749  1.00  0.00     0.041 C 
ATOM      8  O   UNL     1     -18.673  24.341  42.142  1.00  0.00    -0.550 OA
ATOM      9  O   UNL     1     -16.795  24.383  43.454  1.00  0.00    -0.550 OA
ENDBRANCH   6   7
ENDBRANCH   5   6
ENDBRANCH   4   5
ENDBRANCH   3   4
ENDBRANCH   2   3
ENDBRANCH   1   2
BRANCH   1  10
ATOM     10  C   UNL     1     -20.863  22.385  46.770  1.00  0.00     0.000 C 
BRANCH  10  11
ATOM     11  C   UNL     1     -21.898  21.254  46.895  1.00  0.00    -0.000 C 
BRANCH  11  12
ATOM     12  C   UNL     1     -23.288  21.775  47.294  1.00  0.00    -0.000 C 
BRANCH  12  13
ATOM     13  C   UNL     1     -24.426  21.050  46.553  1.00  0.00    -0.000 C 
BRANCH  13  14
ATOM     14  C   UNL     1     -25.095  21.949  45.491  1.00  0.00    -0.000 C 
BRANCH  14  15
ATOM     15  C   UNL     1     -24.703  23.435  45.603  1.00  0.00    -0.000 C 
BRANCH  15  16
ATOM     16  C   UNL     1     -23.946  23.993  44.387  1.00  0.00    -0.003 C 
ATOM     17  C   UNL     1     -22.749  24.858  44.778  1.00  0.00     0.004 C 
ENDBRANCH  15  16
ENDBRANCH  14  15
ENDBRANCH  13  14
ENDBRANCH  12  13
ENDBRANCH  11  12
ENDBRANCH  10  11
ENDBRANCH   1  10
TORSDOF 13
ENDMDL
MODEL 4
REMARK VINA RESULT:    -3.485      1.545      2.344
REMARK INTER + INTRA:          -7.626
REMARK INTER:                  -5.507
REMARK INTRA:                  -2.119
REMARK UNBOUND:                -1.491
REMARK SMILES CCCCCCCCCCCCCCC(=O)[O-]
REMARK SMILES IDX 9 1 10 2 11 3 12 4 13 5 14 6 15 7 16 8 17 9 8 10 7 11 6 12
REMARK SMILES IDX 5 13 4 14 3 15 2 16 1 17
REMARK H PARENT
REMARK Flexibility Score: inf
ROOT
ATOM      1  C   UNL     1     -18.505  20.290  45.096  1.00  0.00     0.000 C 
ENDROOT
BRANCH   1   2
ATOM      2  C   UNL     1     -19.568  20.939  46.005  1.00  0.00     0.000 C 
BRANCH   2   3
ATOM      3  C   UNL     1     -19.503  22.478  46.090  1.00  0.00     0.000 C 
BRANCH   3   4
ATOM      4  C   UNL     1     -20.740  23.214  45.536  1.00  0.00     0.000 C 
BRANCH   4   5
ATOM      5  C   UNL     1     -20.483  24.662  45.081  1.00  0.00     0.006 C 
BRANCH   5   6
ATOM      6  C   UNL     1     -21.517  25.158  44.062  1.00  0.00     0.053 C 
BRANCH   6   7
ATOM      7  C   UNL     1     -22.894  25.095  44.643  1.00  0.00     0.041 C 
ATOM      8  O   UNL     1     -23.759  24.330  44.140  1.00  0.00    -0.550 OA
ATOM      9  O   UNL     1     -23.209  25.843  45.770  1.00  0.00    -0.550 OA
ENDBRANCH   6   7
ENDBRANCH   5   6
ENDBRANCH   4   5
ENDBRANCH   3   4
ENDBRANCH   2   3
ENDBRANCH   1   2
BRANCH   1  10
ATOM     10  C   UNL     1     -17.110  20.938  45.158  1.00  0.00     0.000 C 
BRANCH  10  11
ATOM     11  C   UNL     1     -16.595  21.378  43.777  1.00  0.00    -0.000 C 
BRANCH  11  12
ATOM     12  C   UNL     1     -17.739  21.686  42.797  1.00  0.00    -0.000 C 
BRANCH  12  13
ATOM     13  C   UNL     1     -18.031  23.192  42.684  1.00  0.00    -0.000 C 
BRANCH  13  14
ATOM     14  C   UNL     1     -16.742  24.041  42.719  1.00  0.00    -0.000 C 
BRANCH  14  15
ATOM     15  C   UNL     1     -16.866  25.319  43.571  1.00  0.00    -0.000 C 
BRANCH  15  16
ATOM     16  C   UNL     1     -16.873  25.079  45.089  1.00  0.00    -0.003 C 
ATOM     17  C   UNL     1     -15.606  24.385  45.586  1.00  0.00     0.004 C 
ENDBRANCH  15  16
ENDBRANCH  14  15
ENDBRANCH  13  14
ENDBRANCH  12  13
ENDBRANCH  11  12
ENDBRANCH  10  11
ENDBRANCH   1  10
TORSDOF 13
ENDMDL
MODEL 5
REMARK VINA RESULT:    -3.457      1.237      2.233
REMARK INTER + INTRA:          -7.576
REMARK INTER:                  -6.411
REMARK INTRA:                  -1.166
REMARK UNBOUND:                -1.491
REMARK SMILES CCCCCCCCCCCCCCC(=O)[O-]
REMARK SMILES IDX 9 1 10 2 11 3 12 4 13 5 14 6 15 7 16 8 17 9 8 10 7 11 6 12
REMARK SMILES IDX 5 13 4 14 3 15 2 16 1 17
REMARK H PARENT
REMARK Flexibility Score: inf
ROOT
ATOM      1  C   UNL     1     -20.301  21.209  46.251  1.00  0.00     0.000 C 
ENDROOT
BRANCH   1   2
ATOM      2  C   UNL     1     -20.079  22.611  45.648  1.00  0.00     0.000 C 
BRANCH   2   3
ATOM      3  C   UNL     1     -21.334  23.505  45.593  1.00  0.00     0.000 C 
BRANCH   3   4
ATOM      4  C   UNL     1     -22.587  22.912  46.272  1.00  0.00     0.000 C 
BRANCH   4   5
ATOM      5  C   UNL     1     -23.874  22.981  45.431  1.00  0.00     0.006 C 
BRANCH   5   6
ATOM      6  C   UNL     1     -24.086  24.352  44.777  1.00  0.00     0.053 C 
BRANCH   6   7
ATOM      7  C   UNL     1     -24.385  25.385  45.817  1.00  0.00     0.041 C 
ATOM      8  O   UNL     1     -25.398  25.267  46.554  1.00  0.00    -0.550 OA
ATOM      9  O   UNL     1     -23.518  26.455  46.004  1.00  0.00    -0.550 OA
ENDBRANCH   6   7
ENDBRANCH   5   6
ENDBRANCH   4   5
ENDBRANCH   3   4
ENDBRANCH   2   3
ENDBRANCH   1   2
BRANCH   1  10
ATOM     10  C   UNL     1     -19.188  20.188  45.954  1.00  0.00     0.000 C 
BRANCH  10  11
ATOM     11  C   UNL     1     -17.879  20.850  45.490  1.00  0.00    -0.000 C 
BRANCH  11  12
ATOM     12  C   UNL     1     -17.608  20.624  43.993  1.00  0.00    -0.000 C 
BRANCH  12  13
ATOM     13  C   UNL     1     -16.997  21.859  43.309  1.00  0.00    -0.000 C 
BRANCH  13  14
ATOM     14  C   UNL     1     -18.042  22.651  42.494  1.00  0.00    -0.000 C 
BRANCH  14  15
ATOM     15  C   UNL     1     -17.754  24.163  42.423  1.00  0.00    -0.000 C 
BRANCH  15  16
ATOM     16  C   UNL     1     -18.866  25.056  42.998  1.00  0.00    -0.003 C 
ATOM     17  C   UNL     1     -19.443  26.023  41.965  1.00  0.00     0.004 C 
ENDBRANCH  15  16
ENDBRANCH  14  15
ENDBRANCH  13  14
ENDBRANCH  12  13
ENDBRANCH  11  12
ENDBRANCH  10  11
ENDBRANCH   1  10
TORSDOF 13
ENDMDL
MODEL 6
REMARK VINA RESULT:    -3.438      2.889      4.690
REMARK INTER + INTRA:          -7.542
REMARK INTER:                  -5.706
REMARK INTRA:                  -1.836
REMARK UNBOUND:                -1.491
REMARK SMILES CCCCCCCCCCCCCCC(=O)[O-]
REMARK SMILES IDX 9 1 10 2 11 3 12 4 13 5 14 6 15 7 16 8 17 9 8 10 7 11 6 12
REMARK SMILES IDX 5 13 4 14 3 15 2 16 1 17
REMARK H PARENT
REMARK Flexibility Score: inf
ROOT
ATOM      1  C   UNL     1     -20.206  23.145  45.368  1.00  0.00     0.000 C 
ENDROOT
BRANCH   1   2
ATOM      2  C   UNL     1     -20.031  24.451  46.169  1.00  0.00     0.000 C 
BRANCH   2   3
ATOM      3  C   UNL     1     -20.049  25.742  45.326  1.00  0.00     0.000 C 
BRANCH   3   4
ATOM      4  C   UNL     1     -20.970  25.700  44.088  1.00  0.00     0.000 C 
BRANCH   4   5
ATOM      5  C   UNL     1     -20.536  26.609  42.925  1.00  0.00     0.006 C 
BRANCH   5   6
ATOM      6  C   UNL     1     -19.553  27.703  43.359  1.00  0.00     0.053 C 
BRANCH   6   7
ATOM      7  C   UNL     1     -19.239  28.608  42.209  1.00  0.00     0.041 C 
ATOM      8  O   UNL     1     -19.892  29.671  42.043  1.00  0.00    -0.550 OA
ATOM      9  O   UNL     1     -18.192  28.301  41.349  1.00  0.00    -0.550 OA
ENDBRANCH   6   7
ENDBRANCH   5   6
ENDBRANCH   4   5
ENDBRANCH   3   4
ENDBRANCH   2   3
ENDBRANCH   1   2
BRANCH   1  10
ATOM     10  C   UNL     1     -20.517  21.898  46.214  1.00  0.00     0.000 C 
BRANCH  10  11
ATOM     11  C   UNL     1     -19.595  20.710  45.888  1.00  0.00    -0.000 C 
BRANCH  11  12
ATOM     12  C   UNL     1     -18.149  21.152  45.609  1.00  0.00    -0.000 C 
BRANCH  12  13
ATOM     13  C   UNL     1     -17.614  20.612  44.271  1.00  0.00    -0.000 C 
BRANCH  13  14
ATOM     14  C   UNL     1     -17.013  21.728  43.390  1.00  0.00    -0.000 C 
BRANCH  14  15
ATOM     15  C   UNL     1     -18.030  22.366  42.422  1.00  0.00    -0.000 C 
BRANCH  15  16
ATOM     16  C   UNL     1     -18.063  23.903  42.448  1.00  0.00    -0.003 C 
ATOM     17  C   UNL     1     -17.056  24.502  43.429  1.00  0.00     0.004 C 
ENDBRANCH  15  16
ENDBRANCH  14  15
ENDBRANCH  13  14
ENDBRANCH  12  13
ENDBRANCH  11  12
ENDBRANCH  10  11
ENDBRANCH   1  10
TORSDOF 13
ENDMDL
MODEL 7
REMARK VINA RESULT:    -3.436      2.417      3.719
REMARK INTER + INTRA:          -7.539
REMARK INTER:                  -5.843
REMARK INTRA:                  -1.696
REMARK UNBOUND:                -1.491
REMARK SMILES CCCCCCCCCCCCCCC(=O)[O-]
REMARK SMILES IDX 9 1 10 2 11 3 12 4 13 5 14 6 15 7 16 8 17 9 8 10 7 11 6 12
REMARK SMILES IDX 5 13 4 14 3 15 2 16 1 17
REMARK H PARENT
REMARK Flexibility Score: inf
ROOT
ATOM      1  C   UNL     1     -18.441  21.576  45.528  1.00  0.00     0.000 C 
ENDROOT
BRANCH   1   2
ATOM      2  C   UNL     1     -19.942  21.486  45.871  1.00  0.00     0.000 C 
BRANCH   2   3
ATOM      3  C   UNL     1     -20.692  22.833  45.879  1.00  0.00     0.000 C 
BRANCH   3   4
ATOM      4  C   UNL     1     -19.960  23.991  45.169  1.00  0.00     0.000 C 
BRANCH   4   5
ATOM      5  C   UNL     1     -20.875  24.966  44.407  1.00  0.00     0.006 C 
BRANCH   5   6
ATOM      6  C   UNL     1     -20.161  25.667  43.244  1.00  0.00     0.053 C 
BRANCH   6   7
ATOM      7  C   UNL     1     -20.493  27.126  43.231  1.00  0.00     0.041 C 
ATOM      8  O   UNL     1     -21.372  27.568  42.446  1.00  0.00    -0.550 OA
ATOM      9  O   UNL     1     -19.865  27.990  44.119  1.00  0.00    -0.550 OA
ENDBRANCH   6   7
ENDBRANCH   5   6
ENDBRANCH   4   5
ENDBRANCH   3   4
ENDBRANCH   2   3
ENDBRANCH   1   2
BRANCH   1  10
ATOM     10  C   UNL     1     -17.978  20.660  44.381  1.00  0.00     0.000 C 
BRANCH  10  11
ATOM     11  C   UNL     1     -17.148  21.404  43.320  1.00  0.00    -0.000 C 
BRANCH  11  12
ATOM     12  C   UNL     1     -17.989  22.416  42.524  1.00  0.00    -0.000 C 
BRANCH  12  13
ATOM     13  C   UNL     1     -17.285  23.775  42.366  1.00  0.00    -0.000 C 
BRANCH  13  14
ATOM     14  C   UNL     1     -16.492  24.171  43.629  1.00  0.00    -0.000 C 
BRANCH  14  15
ATOM     15  C   UNL     1     -15.181  24.923  43.326  1.00  0.00    -0.000 C 
BRANCH  15  16
ATOM     16  C   UNL     1     -14.370  24.350  42.152  1.00  0.00    -0.003 C 
ATOM     17  C   UNL     1     -13.648  23.051  42.508  1.00  0.00     0.004 C 
ENDBRANCH  15  16
ENDBRANCH  14  15
ENDBRANCH  13  14
ENDBRANCH  12  13
ENDBRANCH  11  12
ENDBRANCH  10  11
ENDBRANCH   1  10
TORSDOF 13
ENDMDL
MODEL 8
REMARK VINA RESULT:    -3.425      2.000      3.735
REMARK INTER + INTRA:          -7.518
REMARK INTER:                  -5.642
REMARK INTRA:                  -1.877
REMARK UNBOUND:                -1.491
REMARK SMILES CCCCCCCCCCCCCCC(=O)[O-]
REMARK SMILES IDX 9 1 10 2 11 3 12 4 13 5 14 6 15 7 16 8 17 9 8 10 7 11 6 12
REMARK SMILES IDX 5 13 4 14 3 15 2 16 1 17
REMARK H PARENT
REMARK Flexibility Score: inf
ROOT
ATOM      1  C   UNL     1     -17.909  21.194  45.098  1.00  0.00     0.000 C 
ENDROOT
BRANCH   1   2
ATOM      2  C   UNL     1     -19.137  20.392  45.577  1.00  0.00     0.000 C 
BRANCH   2   3
ATOM      3  C   UNL     1     -20.249  21.232  46.236  1.00  0.00     0.000 C 
BRANCH   3   4
ATOM      4  C   UNL     1     -20.050  22.760  46.152  1.00  0.00     0.000 C 
BRANCH   4   5
ATOM      5  C   UNL     1     -21.210  23.531  45.499  1.00  0.00     0.006 C 
BRANCH   5   6
ATOM      6  C   UNL     1     -20.737  24.737  44.679  1.00  0.00     0.053 C 
BRANCH   6   7
ATOM      7  C   UNL     1     -21.901  25.412  44.024  1.00  0.00     0.041 C 
ATOM      8  O   UNL     1     -23.032  24.859  44.018  1.00  0.00    -0.550 OA
ATOM      9  O   UNL     1     -21.748  26.674  43.463  1.00  0.00    -0.550 OA
ENDBRANCH   6   7
ENDBRANCH   5   6
ENDBRANCH   4   5
ENDBRANCH   3   4
ENDBRANCH   2   3
ENDBRANCH   1   2
BRANCH   1  10
ATOM     10  C   UNL     1     -17.619  21.104  43.589  1.00  0.00     0.000 C 
BRANCH  10  11
ATOM     11  C   UNL     1     -17.960  22.401  42.837  1.00  0.00    -0.000 C 
BRANCH  11  12
ATOM     12  C   UNL     1     -17.425  23.651  43.555  1.00  0.00    -0.000 C 
BRANCH  12  13
ATOM     13  C   UNL     1     -16.296  24.345  42.774  1.00  0.00    -0.000 C 
BRANCH  13  14
ATOM     14  C   UNL     1     -14.922  24.168  43.454  1.00  0.00    -0.000 C 
BRANCH  14  15
ATOM     15  C   UNL     1     -15.005  23.556  44.866  1.00  0.00    -0.000 C 
BRANCH  15  16
ATOM     16  C   UNL     1     -14.265  22.219  45.032  1.00  0.00    -0.003 C 
ATOM     17  C   UNL     1     -13.964  21.538  43.697  1.00  0.00     0.004 C 
ENDBRANCH  15  16
ENDBRANCH  14  15
ENDBRANCH  13  14
ENDBRANCH  12  13
ENDBRANCH  11  12
ENDBRANCH  10  11
ENDBRANCH   1  10
TORSDOF 13
ENDMDL
MODEL 9
REMARK VINA RESULT:    -3.420      2.835      4.929
REMARK INTER + INTRA:          -7.511
REMARK INTER:                  -5.628
REMARK INTRA:                  -1.883
REMARK UNBOUND:                -1.491
REMARK SMILES CCCCCCCCCCCCCCC(=O)[O-]
REMARK SMILES IDX 9 1 10 2 11 3 12 4 13 5 14 6 15 7 16 8 17 9 8 10 7 11 6 12
REMARK SMILES IDX 5 13 4 14 3 15 2 16 1 17
REMARK H PARENT
REMARK Flexibility Score: inf
ROOT
ATOM      1  C   UNL     1     -18.568  21.543  44.838  1.00  0.00     0.000 C 
ENDROOT
BRANCH   1   2
ATOM      2  C   UNL     1     -18.743  22.821  43.994  1.00  0.00     0.000 C 
BRANCH   2   3
ATOM      3  C   UNL     1     -18.042  22.798  42.620  1.00  0.00     0.000 C 
BRANCH   3   4
ATOM      4  C   UNL     1     -17.519  24.165  42.132  1.00  0.00     0.000 C 
BRANCH   4   5
ATOM      5  C   UNL     1     -17.395  25.240  43.226  1.00  0.00     0.006 C 
BRANCH   5   6
ATOM      6  C   UNL     1     -18.057  26.567  42.835  1.00  0.00     0.053 C 
BRANCH   6   7
ATOM      7  C   UNL     1     -19.515  26.543  43.174  1.00  0.00     0.041 C 
ATOM      8  O   UNL     1     -20.371  26.868  42.309  1.00  0.00    -0.550 OA
ATOM      9  O   UNL     1     -19.930  26.116  44.428  1.00  0.00    -0.550 OA
ENDBRANCH   6   7
ENDBRANCH   5   6
ENDBRANCH   4   5
ENDBRANCH   3   4
ENDBRANCH   2   3
ENDBRANCH   1   2
BRANCH   1  10
ATOM     10  C   UNL     1     -17.471  20.581  44.346  1.00  0.00     0.000 C 
BRANCH  10  11
ATOM     11  C   UNL     1     -16.490  20.175  45.459  1.00  0.00    -0.000 C 
BRANCH  11  12
ATOM     12  C   UNL     1     -15.030  20.489  45.095  1.00  0.00    -0.000 C 
BRANCH  12  13
ATOM     13  C   UNL     1     -14.913  21.507  43.946  1.00  0.00    -0.000 C 
BRANCH  13  14
ATOM     14  C   UNL     1     -14.693  22.945  44.461  1.00  0.00    -0.000 C 
BRANCH  14  15
ATOM     15  C   UNL     1     -13.907  23.839  43.482  1.00  0.00    -0.000 C 
BRANCH  15  16
ATOM     16  C   UNL     1     -13.530  23.160  42.155  1.00  0.00    -0.003 C 
ATOM     17  C   UNL     1     -13.334  24.157  41.014  1.00  0.00     0.004 C 
ENDBRANCH  15  16
ENDBRANCH  14  15
ENDBRANCH  13  14
ENDBRANCH  12  13
ENDBRANCH  11  12
ENDBRANCH  10  11
ENDBRANCH   1  10
TORSDOF 13
ENDMDL
