MODEL 1
REMARK VINA RESULT:    22.333      0.000      0.000
REMARK INTER + INTRA:          26.563
REMARK INTER:                  26.903
REMARK INTRA:                  -0.341
REMARK UNBOUND:                -0.341
REMARK SMILES COc1ccc([C@H]2CC(=O)c3c(O)cc(O)cc3O2)cc1O
REMARK SMILES IDX 7 1 8 2 9 3 10 4 11 5 12 6 14 7 15 8 17 9 18 10 19 11 6 12
REMARK SMILES IDX 3 13 21 14 4 15 20 16 5 17 2 18 1 19 22 20 13 22 16 24
REMARK H PARENT 22 21 13 23 16 25
REMARK Flexibility Score: inf
ROOT
ATOM      1  C   UNL     1      -6.344  -7.907  16.829  1.00  0.00     0.211 C 
ATOM      2  C   UNL     1      -6.574  -8.917  17.965  1.00  0.00     0.131 C 
ATOM      3  C   UNL     1      -6.127 -10.285  17.536  1.00  0.00     0.174 C 
ATOM      4  O   UNL     1      -5.642 -11.073  18.392  1.00  0.00    -0.294 OA
ATOM      5  C   UNL     1      -6.320 -10.706  16.127  1.00  0.00     0.102 A 
ATOM      6  C   UNL     1      -6.142 -12.039  15.696  1.00  0.00     0.133 A 
ATOM      7  C   UNL     1      -6.390 -12.375  14.358  1.00  0.00     0.093 A 
ATOM      8  C   UNL     1      -6.819 -11.404  13.448  1.00  0.00     0.123 A 
ATOM      9  C   UNL     1      -6.993 -10.082  13.873  1.00  0.00     0.093 A 
ATOM     10  C   UNL     1      -6.731  -9.729  15.200  1.00  0.00     0.138 A 
ATOM     11  O   UNL     1      -6.888  -8.398  15.601  1.00  0.00    -0.484 OA
ENDROOT
BRANCH   1  12
ATOM     12  C   UNL     1      -6.957  -6.571  17.171  1.00  0.00    -0.003 A 
ATOM     13  C   UNL     1      -8.044  -4.056  17.847  1.00  0.00     0.160 A 
ATOM     14  C   UNL     1      -8.307  -5.181  18.649  1.00  0.00     0.158 A 
ATOM     15  C   UNL     1      -7.225  -4.200  16.712  1.00  0.00     0.051 A 
ATOM     16  C   UNL     1      -7.762  -6.426  18.313  1.00  0.00     0.057 A 
ATOM     17  C   UNL     1      -6.683  -5.445  16.381  1.00  0.00     0.011 A 
BRANCH  13  18
ATOM     18  O   UNL     1      -8.605  -2.820  18.207  1.00  0.00    -0.493 OA
ATOM     19  C   UNL     1      -9.720  -2.220  17.556  1.00  0.00     0.278 C 
ENDBRANCH  13  18
BRANCH  14  20
ATOM     20  O   UNL     1      -9.107  -5.084  19.787  1.00  0.00    -0.504 OA
ATOM     21  H   UNL     1      -9.146  -4.242  20.349  1.00  0.00     0.293 HD
ENDBRANCH  14  20
ENDBRANCH   1  12
BRANCH   6  22
ATOM     22  O   UNL     1      -5.731 -13.027  16.591  1.00  0.00    -0.507 OA
ATOM     23  H   UNL     1      -5.310 -13.891  16.272  1.00  0.00     0.293 HD
ENDBRANCH   6  22
BRANCH   8  24
ATOM     24  O   UNL     1      -7.069 -11.763  12.126  1.00  0.00    -0.508 OA
ATOM     25  H   UNL     1      -7.765 -11.282  11.569  1.00  0.00     0.293 HD
ENDBRANCH   8  24
TORSDOF 5
ENDMDL
MODEL 2
REMARK VINA RESULT:    24.958      2.259      3.689
REMARK INTER + INTRA:          29.724
REMARK INTER:                  30.021
REMARK INTRA:                  -0.297
REMARK UNBOUND:                -0.341
REMARK SMILES COc1ccc([C@H]2CC(=O)c3c(O)cc(O)cc3O2)cc1O
REMARK SMILES IDX 7 1 8 2 9 3 10 4 11 5 12 6 14 7 15 8 17 9 18 10 19 11 6 12
REMARK SMILES IDX 3 13 21 14 4 15 20 16 5 17 2 18 1 19 22 20 13 22 16 24
REMARK H PARENT 22 21 13 23 16 25
REMARK Flexibility Score: inf
ROOT
ATOM      1  C   UNL     1      -6.823  -7.679  16.167  1.00  0.00     0.211 C 
ATOM      2  C   UNL     1      -7.229  -7.866  14.696  1.00  0.00     0.131 C 
ATOM      3  C   UNL     1      -7.698  -9.274  14.465  1.00  0.00     0.174 C 
ATOM      4  O   UNL     1      -8.604  -9.491  13.616  1.00  0.00    -0.294 OA
ATOM      5  C   UNL     1      -7.046 -10.387  15.195  1.00  0.00     0.102 A 
ATOM      6  C   UNL     1      -7.265 -11.745  14.873  1.00  0.00     0.133 A 
ATOM      7  C   UNL     1      -6.575 -12.745  15.574  1.00  0.00     0.093 A 
ATOM      8  C   UNL     1      -5.668 -12.409  16.583  1.00  0.00     0.123 A 
ATOM      9  C   UNL     1      -5.452 -11.065  16.906  1.00  0.00     0.093 A 
ATOM     10  C   UNL     1      -6.146 -10.059  16.228  1.00  0.00     0.138 A 
ATOM     11  O   UNL     1      -5.935  -8.721  16.580  1.00  0.00    -0.484 OA
ENDROOT
BRANCH   1  12
ATOM     12  C   UNL     1      -6.175  -6.332  16.375  1.00  0.00    -0.003 A 
ATOM     13  C   UNL     1      -4.982  -3.795  16.697  1.00  0.00     0.160 A 
ATOM     14  C   UNL     1      -4.220  -4.884  16.239  1.00  0.00     0.158 A 
ATOM     15  C   UNL     1      -6.347  -3.986  16.982  1.00  0.00     0.051 A 
ATOM     16  C   UNL     1      -4.816  -6.140  16.076  1.00  0.00     0.057 A 
ATOM     17  C   UNL     1      -6.938  -5.241  16.817  1.00  0.00     0.011 A 
BRANCH  13  18
ATOM     18  O   UNL     1      -4.357  -2.547  16.854  1.00  0.00    -0.493 OA
ATOM     19  C   UNL     1      -4.097  -1.635  15.792  1.00  0.00     0.278 C 
ENDBRANCH  13  18
BRANCH  14  20
ATOM     20  O   UNL     1      -2.865  -4.739  15.938  1.00  0.00    -0.504 OA
ATOM     21  H   UNL     1      -2.451  -3.839  15.730  1.00  0.00     0.293 HD
ENDBRANCH  14  20
ENDBRANCH   1  12
BRANCH   6  22
ATOM     22  O   UNL     1      -8.152 -12.100  13.858  1.00  0.00    -0.507 OA
ATOM     23  H   UNL     1      -8.477 -13.053  13.746  1.00  0.00     0.293 HD
ENDBRANCH   6  22
BRANCH   8  24
ATOM     24  O   UNL     1      -4.987 -13.419  17.259  1.00  0.00    -0.508 OA
ATOM     25  H   UNL     1      -3.976 -13.474  17.251  1.00  0.00     0.293 HD
ENDBRANCH   8  24
TORSDOF 5
ENDMDL
