MODEL 1
REMARK VINA RESULT:    -3.527      0.000      0.000
REMARK INTER + INTRA:          -4.750
REMARK INTER:                  -4.558
REMARK INTRA:                  -0.191
REMARK UNBOUND:                -0.191
REMARK SMILES CCCCCCC(=O)[O-]
REMARK SMILES IDX 5 1 6 2 7 3 8 4 9 5 4 6 3 7 2 8 1 9
REMARK H PARENT
REMARK Flexibility Score: inf
ROOT
ATOM      1  C   UNL     1       8.202 -17.875  32.953  1.00  0.00     0.006 C 
ENDROOT
BRANCH   1   2
ATOM      2  C   UNL     1       9.393 -17.185  33.633  1.00  0.00     0.053 C 
BRANCH   2   3
ATOM      3  C   UNL     1       9.157 -16.981  35.098  1.00  0.00     0.041 C 
ATOM      4  O   UNL     1      10.047 -16.452  35.815  1.00  0.00    -0.550 OA
ATOM      5  O   UNL     1       7.966 -17.401  35.678  1.00  0.00    -0.550 OA
ENDBRANCH   2   3
ENDBRANCH   1   2
BRANCH   1   6
ATOM      6  C   UNL     1       8.648 -18.838  31.840  1.00  0.00     0.000 C 
BRANCH   6   7
ATOM      7  C   UNL     1      10.175 -18.894  31.684  1.00  0.00    -0.000 C 
BRANCH   7   8
ATOM      8  C   UNL     1      10.651 -20.160  30.957  1.00  0.00    -0.003 C 
ATOM      9  C   UNL     1       9.572 -20.691  30.016  1.00  0.00     0.004 C 
ENDBRANCH   7   8
ENDBRANCH   6   7
ENDBRANCH   1   6
TORSDOF 5
ENDMDL
MODEL 2
REMARK VINA RESULT:    -3.524      4.154      5.809
REMARK INTER + INTRA:          -4.746
REMARK INTER:                  -4.508
REMARK INTRA:                  -0.238
REMARK UNBOUND:                -0.191
REMARK SMILES CCCCCCC(=O)[O-]
REMARK SMILES IDX 5 1 6 2 7 3 8 4 9 5 4 6 3 7 2 8 1 9
REMARK H PARENT
REMARK Flexibility Score: inf
ROOT
ATOM      1  C   UNL     1      10.481 -20.358  30.609  1.00  0.00     0.006 C 
ENDROOT
BRANCH   1   2
ATOM      2  C   UNL     1       9.338 -20.890  29.733  1.00  0.00     0.053 C 
BRANCH   2   3
ATOM      3  C   UNL     1       9.443 -20.400  28.321  1.00  0.00     0.041 C 
ATOM      4  O   UNL     1       8.794 -19.385  27.953  1.00  0.00    -0.550 OA
ATOM      5  O   UNL     1      10.232 -21.082  27.403  1.00  0.00    -0.550 OA
ENDBRANCH   2   3
ENDBRANCH   1   2
BRANCH   1   6
ATOM      6  C   UNL     1      10.041 -19.167  31.477  1.00  0.00     0.000 C 
BRANCH   6   7
ATOM      7  C   UNL     1       8.515 -19.086  31.638  1.00  0.00    -0.000 C 
BRANCH   7   8
ATOM      8  C   UNL     1       8.083 -18.041  32.677  1.00  0.00    -0.003 C 
ATOM      9  C   UNL     1       9.286 -17.511  33.454  1.00  0.00     0.004 C 
ENDBRANCH   7   8
ENDBRANCH   6   7
ENDBRANCH   1   6
TORSDOF 5
ENDMDL
MODEL 3
REMARK VINA RESULT:    -3.521      1.341      1.913
REMARK INTER + INTRA:          -4.741
REMARK INTER:                  -4.594
REMARK INTRA:                  -0.147
REMARK UNBOUND:                -0.191
REMARK SMILES CCCCCCC(=O)[O-]
REMARK SMILES IDX 5 1 6 2 7 3 8 4 9 5 4 6 3 7 2 8 1 9
REMARK H PARENT
REMARK Flexibility Score: inf
ROOT
ATOM      1  C   UNL     1       8.606 -17.226  33.795  1.00  0.00     0.006 C 
ENDROOT
BRANCH   1   2
ATOM      2  C   UNL     1       9.382 -17.161  35.118  1.00  0.00     0.053 C 
BRANCH   2   3
ATOM      3  C   UNL     1      10.033 -15.827  35.319  1.00  0.00     0.041 C 
ATOM      4  O   UNL     1       9.834 -15.180  36.382  1.00  0.00    -0.550 OA
ATOM      5  O   UNL     1      10.833 -15.284  34.322  1.00  0.00    -0.550 OA
ENDBRANCH   2   3
ENDBRANCH   1   2
BRANCH   1   6
ATOM      6  C   UNL     1       9.365 -18.014  32.715  1.00  0.00     0.000 C 
BRANCH   6   7
ATOM      7  C   UNL     1       8.424 -18.792  31.781  1.00  0.00    -0.000 C 
BRANCH   7   8
ATOM      8  C   UNL     1       9.170 -19.797  30.891  1.00  0.00    -0.003 C 
ATOM      9  C   UNL     1      10.679 -19.714  31.114  1.00  0.00     0.004 C 
ENDBRANCH   7   8
ENDBRANCH   6   7
ENDBRANCH   1   6
TORSDOF 5
ENDMDL
MODEL 4
REMARK VINA RESULT:    -3.442      4.495      6.040
REMARK INTER + INTRA:          -4.639
REMARK INTER:                  -4.406
REMARK INTRA:                  -0.233
REMARK UNBOUND:                -0.191
REMARK SMILES CCCCCCC(=O)[O-]
REMARK SMILES IDX 5 1 6 2 7 3 8 4 9 5 4 6 3 7 2 8 1 9
REMARK H PARENT
REMARK Flexibility Score: inf
ROOT
ATOM      1  C   UNL     1       8.826 -20.591  30.115  1.00  0.00     0.006 C 
ENDROOT
BRANCH   1   2
ATOM      2  C   UNL     1       8.572 -21.136  28.703  1.00  0.00     0.053 C 
BRANCH   2   3
ATOM      3  C   UNL     1       9.446 -20.471  27.683  1.00  0.00     0.041 C 
ATOM      4  O   UNL     1       9.371 -19.227  27.499  1.00  0.00    -0.550 OA
ATOM      5  O   UNL     1      10.321 -21.229  26.915  1.00  0.00    -0.550 OA
ENDBRANCH   2   3
ENDBRANCH   1   2
BRANCH   1   6
ATOM      6  C   UNL     1      10.317 -20.621  30.490  1.00  0.00     0.000 C 
BRANCH   6   7
ATOM      7  C   UNL     1      10.751 -19.380  31.286  1.00  0.00    -0.000 C 
BRANCH   7   8
ATOM      8  C   UNL     1       9.575 -18.691  31.996  1.00  0.00    -0.003 C 
ATOM      9  C   UNL     1       9.925 -17.252  32.366  1.00  0.00     0.004 C 
ENDBRANCH   7   8
ENDBRANCH   6   7
ENDBRANCH   1   6
TORSDOF 5
ENDMDL
MODEL 5
REMARK VINA RESULT:    -3.337      2.315      3.343
REMARK INTER + INTRA:          -4.504
REMARK INTER:                  -4.284
REMARK INTRA:                  -0.220
REMARK UNBOUND:                -0.191
REMARK SMILES CCCCCCC(=O)[O-]
REMARK SMILES IDX 5 1 6 2 7 3 8 4 9 5 4 6 3 7 2 8 1 9
REMARK H PARENT
REMARK Flexibility Score: inf
ROOT
ATOM      1  C   UNL     1      10.759 -19.759  31.239  1.00  0.00     0.006 C 
ENDROOT
BRANCH   1   2
ATOM      2  C   UNL     1      10.924 -18.274  30.886  1.00  0.00     0.053 C 
BRANCH   2   3
ATOM      3  C   UNL     1      10.405 -17.382  31.971  1.00  0.00     0.041 C 
ATOM      4  O   UNL     1       9.663 -17.850  32.876  1.00  0.00    -0.550 OA
ATOM      5  O   UNL     1      10.715 -16.027  31.969  1.00  0.00    -0.550 OA
ENDBRANCH   2   3
ENDBRANCH   1   2
BRANCH   1   6
ATOM      6  C   UNL     1       9.803 -20.482  30.275  1.00  0.00     0.000 C 
BRANCH   6   7
ATOM      7  C   UNL     1       8.328 -20.150  30.548  1.00  0.00    -0.000 C 
BRANCH   7   8
ATOM      8  C   UNL     1       7.364 -21.022  29.729  1.00  0.00    -0.003 C 
ATOM      9  C   UNL     1       8.127 -22.022  28.864  1.00  0.00     0.004 C 
ENDBRANCH   7   8
ENDBRANCH   6   7
ENDBRANCH   1   6
TORSDOF 5
ENDMDL
MODEL 6
REMARK VINA RESULT:    -3.324      1.600      2.285
REMARK INTER + INTRA:          -4.487
REMARK INTER:                  -4.297
REMARK INTRA:                  -0.190
REMARK UNBOUND:                -0.191
REMARK SMILES CCCCCCC(=O)[O-]
REMARK SMILES IDX 5 1 6 2 7 3 8 4 9 5 4 6 3 7 2 8 1 9
REMARK H PARENT
REMARK Flexibility Score: inf
ROOT
ATOM      1  C   UNL     1      10.629 -17.116  31.704  1.00  0.00     0.006 C 
ENDROOT
BRANCH   1   2
ATOM      2  C   UNL     1       9.879 -15.986  32.422  1.00  0.00     0.053 C 
BRANCH   2   3
ATOM      3  C   UNL     1      10.467 -15.693  33.769  1.00  0.00     0.041 C 
ATOM      4  O   UNL     1       9.907 -16.126  34.811  1.00  0.00    -0.550 OA
ATOM      5  O   UNL     1      11.615 -14.918  33.875  1.00  0.00    -0.550 OA
ENDBRANCH   2   3
ENDBRANCH   1   2
BRANCH   1   6
ATOM      6  C   UNL     1      10.020 -18.497  31.999  1.00  0.00     0.000 C 
BRANCH   6   7
ATOM      7  C   UNL     1      10.712 -19.626  31.221  1.00  0.00    -0.000 C 
BRANCH   7   8
ATOM      8  C   UNL     1       9.739 -20.420  30.337  1.00  0.00    -0.003 C 
ATOM      9  C   UNL     1       8.293 -20.006  30.602  1.00  0.00     0.004 C 
ENDBRANCH   7   8
ENDBRANCH   6   7
ENDBRANCH   1   6
TORSDOF 5
ENDMDL
MODEL 7
REMARK VINA RESULT:    -3.307      3.596      5.042
REMARK INTER + INTRA:          -4.465
REMARK INTER:                  -4.032
REMARK INTRA:                  -0.433
REMARK UNBOUND:                -0.191
REMARK SMILES CCCCCCC(=O)[O-]
REMARK SMILES IDX 5 1 6 2 7 3 8 4 9 5 4 6 3 7 2 8 1 9
REMARK H PARENT
REMARK Flexibility Score: inf
ROOT
ATOM      1  C   UNL     1      10.078 -20.442  30.120  1.00  0.00     0.006 C 
ENDROOT
BRANCH   1   2
ATOM      2  C   UNL     1       8.546 -20.443  30.204  1.00  0.00     0.053 C 
BRANCH   2   3
ATOM      3  C   UNL     1       7.932 -19.478  29.237  1.00  0.00     0.041 C 
ATOM      4  O   UNL     1       7.802 -18.265  29.550  1.00  0.00    -0.550 OA
ATOM      5  O   UNL     1       7.478 -19.923  28.001  1.00  0.00    -0.550 OA
ENDBRANCH   2   3
ENDBRANCH   1   2
BRANCH   1   6
ATOM      6  C   UNL     1      10.723 -19.685  31.293  1.00  0.00     0.000 C 
BRANCH   6   7
ATOM      7  C   UNL     1      11.093 -18.238  30.929  1.00  0.00    -0.000 C 
BRANCH   7   8
ATOM      8  C   UNL     1      10.370 -17.204  31.805  1.00  0.00    -0.003 C 
ATOM      9  C   UNL     1       9.442 -17.886  32.808  1.00  0.00     0.004 C 
ENDBRANCH   7   8
ENDBRANCH   6   7
ENDBRANCH   1   6
TORSDOF 5
ENDMDL
MODEL 8
REMARK VINA RESULT:    -3.295      4.322      5.726
REMARK INTER + INTRA:          -4.449
REMARK INTER:                  -4.038
REMARK INTRA:                  -0.412
REMARK UNBOUND:                -0.191
REMARK SMILES CCCCCCC(=O)[O-]
REMARK SMILES IDX 5 1 6 2 7 3 8 4 9 5 4 6 3 7 2 8 1 9
REMARK H PARENT
REMARK Flexibility Score: inf
ROOT
ATOM      1  C   UNL     1       9.955 -20.546  28.484  1.00  0.00     0.006 C 
ENDROOT
BRANCH   1   2
ATOM      2  C   UNL     1       8.952 -19.565  27.862  1.00  0.00     0.053 C 
BRANCH   2   3
ATOM      3  C   UNL     1       9.587 -18.246  27.542  1.00  0.00     0.041 C 
ATOM      4  O   UNL     1      10.113 -17.558  28.457  1.00  0.00    -0.550 OA
ATOM      5  O   UNL     1       9.571 -17.762  26.240  1.00  0.00    -0.550 OA
ENDBRANCH   2   3
ENDBRANCH   1   2
BRANCH   1   6
ATOM      6  C   UNL     1       9.660 -20.813  29.970  1.00  0.00     0.000 C 
BRANCH   6   7
ATOM      7  C   UNL     1      10.694 -20.164  30.903  1.00  0.00    -0.000 C 
BRANCH   7   8
ATOM      8  C   UNL     1      10.121 -18.973  31.685  1.00  0.00    -0.003 C 
ATOM      9  C   UNL     1       8.595 -18.997  31.681  1.00  0.00     0.004 C 
ENDBRANCH   7   8
ENDBRANCH   6   7
ENDBRANCH   1   6
TORSDOF 5
ENDMDL
MODEL 9
REMARK VINA RESULT:    -3.291      7.611      8.498
REMARK INTER + INTRA:          -4.445
REMARK INTER:                  -4.044
REMARK INTRA:                  -0.401
REMARK UNBOUND:                -0.191
REMARK SMILES CCCCCCC(=O)[O-]
REMARK SMILES IDX 5 1 6 2 7 3 8 4 9 5 4 6 3 7 2 8 1 9
REMARK H PARENT
REMARK Flexibility Score: inf
ROOT
ATOM      1  C   UNL     1       8.113 -21.632  38.665  1.00  0.00     0.006 C 
ENDROOT
BRANCH   1   2
ATOM      2  C   UNL     1       7.761 -20.765  39.882  1.00  0.00     0.053 C 
BRANCH   2   3
ATOM      3  C   UNL     1       8.289 -21.351  41.155  1.00  0.00     0.041 C 
ATOM      4  O   UNL     1       7.496 -21.833  42.008  1.00  0.00    -0.550 OA
ATOM      5  O   UNL     1       9.654 -21.338  41.415  1.00  0.00    -0.550 OA
ENDBRANCH   2   3
ENDBRANCH   1   2
BRANCH   1   6
ATOM      6  C   UNL     1       6.882 -22.357  38.093  1.00  0.00     0.000 C 
BRANCH   6   7
ATOM      7  C   UNL     1       6.998 -23.885  38.195  1.00  0.00    -0.000 C 
BRANCH   7   8
ATOM      8  C   UNL     1       6.674 -24.410  39.602  1.00  0.00    -0.003 C 
ATOM      9  C   UNL     1       7.918 -24.992  40.270  1.00  0.00     0.004 C 
ENDBRANCH   7   8
ENDBRANCH   6   7
ENDBRANCH   1   6
TORSDOF 5
ENDMDL
