MODEL 1
REMARK VINA RESULT:    -3.718      0.000      0.000
REMARK INTER + INTRA:          -8.792
REMARK INTER:                  -6.760
REMARK INTRA:                  -2.032
REMARK UNBOUND:                -2.032
REMARK SMILES CCCCCCCCCCCCCCCC(=O)[O-]
REMARK SMILES IDX 9 1 10 2 11 3 12 4 13 5 14 6 15 7 16 8 17 9 18 10 8 11 7 12
REMARK SMILES IDX 6 13 5 14 4 15 3 16 2 17 1 18
REMARK H PARENT
REMARK Flexibility Score: inf
ROOT
ATOM      1  C   UNL     1      29.069 160.209 117.309  1.00  0.00     0.000 C 
ENDROOT
BRANCH   1   2
ATOM      2  C   UNL     1      29.786 160.259 118.667  1.00  0.00     0.000 C 
BRANCH   2   3
ATOM      3  C   UNL     1      28.954 161.036 119.699  1.00  0.00     0.000 C 
BRANCH   3   4
ATOM      4  C   UNL     1      28.576 160.188 120.927  1.00  0.00     0.000 C 
BRANCH   4   5
ATOM      5  C   UNL     1      28.796 158.673 120.766  1.00  0.00     0.000 C 
BRANCH   5   6
ATOM      6  C   UNL     1      29.463 158.031 121.990  1.00  0.00     0.006 C 
BRANCH   6   7
ATOM      7  C   UNL     1      30.655 157.164 121.574  1.00  0.00     0.053 C 
BRANCH   7   8
ATOM      8  C   UNL     1      31.846 158.018 121.275  1.00  0.00     0.041 C 
ATOM      9  O   UNL     1      32.086 159.036 121.977  1.00  0.00    -0.550 OA
ATOM     10  O   UNL     1      32.718 157.663 120.254  1.00  0.00    -0.550 OA
ENDBRANCH   7   8
ENDBRANCH   6   7
ENDBRANCH   5   6
ENDBRANCH   4   5
ENDBRANCH   3   4
ENDBRANCH   2   3
ENDBRANCH   1   2
BRANCH   1  11
ATOM     11  C   UNL     1      27.574 160.547 117.417  1.00  0.00     0.000 C 
BRANCH  11  12
ATOM     12  C   UNL     1      26.704 159.683 116.491  1.00  0.00    -0.000 C 
BRANCH  12  13
ATOM     13  C   UNL     1      25.864 158.685 117.304  1.00  0.00    -0.000 C 
BRANCH  13  14
ATOM     14  C   UNL     1      25.825 159.023 118.802  1.00  0.00    -0.000 C 
BRANCH  14  15
ATOM     15  C   UNL     1      25.373 157.834 119.668  1.00  0.00    -0.000 C 
BRANCH  15  16
ATOM     16  C   UNL     1      25.583 156.481 118.955  1.00  0.00    -0.000 C 
BRANCH  16  17
ATOM     17  C   UNL     1      26.272 155.424 119.834  1.00  0.00    -0.003 C 
ATOM     18  C   UNL     1      26.491 155.890 121.271  1.00  0.00     0.004 C 
ENDBRANCH  16  17
ENDBRANCH  15  16
ENDBRANCH  14  15
ENDBRANCH  13  14
ENDBRANCH  12  13
ENDBRANCH  11  12
ENDBRANCH   1  11
TORSDOF 14
ENDMDL
MODEL 2
REMARK VINA RESULT:    -3.689      2.803      5.160
REMARK INTER + INTRA:          -8.740
REMARK INTER:                  -6.738
REMARK INTRA:                  -2.002
REMARK UNBOUND:                -2.032
REMARK SMILES CCCCCCCCCCCCCCCC(=O)[O-]
REMARK SMILES IDX 9 1 10 2 11 3 12 4 13 5 14 6 15 7 16 8 17 9 18 10 8 11 7 12
REMARK SMILES IDX 6 13 5 14 4 15 3 16 2 17 1 18
REMARK H PARENT
REMARK Flexibility Score: inf
ROOT
ATOM      1  C   UNL     1      32.304 158.031 120.578  1.00  0.00     0.000 C 
ENDROOT
BRANCH   1   2
ATOM      2  C   UNL     1      31.011 157.559 121.259  1.00  0.00     0.000 C 
BRANCH   2   3
ATOM      3  C   UNL     1      29.971 158.689 121.306  1.00  0.00     0.000 C 
BRANCH   3   4
ATOM      4  C   UNL     1      28.528 158.189 121.109  1.00  0.00     0.000 C 
BRANCH   4   5
ATOM      5  C   UNL     1      28.197 156.864 121.819  1.00  0.00     0.000 C 
BRANCH   5   6
ATOM      6  C   UNL     1      26.754 156.398 121.575  1.00  0.00     0.006 C 
BRANCH   6   7
ATOM      7  C   UNL     1      26.149 157.104 120.359  1.00  0.00     0.053 C 
BRANCH   7   8
ATOM      8  C   UNL     1      25.886 156.123 119.260  1.00  0.00     0.041 C 
ATOM      9  O   UNL     1      26.039 154.889 119.463  1.00  0.00    -0.550 OA
ATOM     10  O   UNL     1      25.426 156.566 118.027  1.00  0.00    -0.550 OA
ENDBRANCH   7   8
ENDBRANCH   6   7
ENDBRANCH   5   6
ENDBRANCH   4   5
ENDBRANCH   3   4
ENDBRANCH   2   3
ENDBRANCH   1   2
BRANCH   1  11
ATOM     11  C   UNL     1      32.211 159.478 120.069  1.00  0.00     0.000 C 
BRANCH  11  12
ATOM     12  C   UNL     1      32.492 159.595 118.563  1.00  0.00    -0.000 C 
BRANCH  12  13
ATOM     13  C   UNL     1      31.302 160.237 117.833  1.00  0.00    -0.000 C 
BRANCH  13  14
ATOM     14  C   UNL     1      30.562 161.269 118.697  1.00  0.00    -0.000 C 
BRANCH  14  15
ATOM     15  C   UNL     1      29.033 161.188 118.540  1.00  0.00    -0.000 C 
BRANCH  15  16
ATOM     16  C   UNL     1      28.606 160.069 117.566  1.00  0.00    -0.000 C 
BRANCH  16  17
ATOM     17  C   UNL     1      27.153 159.607 117.759  1.00  0.00    -0.003 C 
ATOM     18  C   UNL     1      26.431 160.354 118.878  1.00  0.00     0.004 C 
ENDBRANCH  16  17
ENDBRANCH  15  16
ENDBRANCH  14  15
ENDBRANCH  13  14
ENDBRANCH  12  13
ENDBRANCH  11  12
ENDBRANCH   1  11
TORSDOF 14
ENDMDL
MODEL 3
REMARK VINA RESULT:    -3.623      2.872      4.954
REMARK INTER + INTRA:          -8.620
REMARK INTER:                  -6.939
REMARK INTRA:                  -1.682
REMARK UNBOUND:                -2.032
REMARK SMILES CCCCCCCCCCCCCCCC(=O)[O-]
REMARK SMILES IDX 9 1 10 2 11 3 12 4 13 5 14 6 15 7 16 8 17 9 18 10 8 11 7 12
REMARK SMILES IDX 6 13 5 14 4 15 3 16 2 17 1 18
REMARK H PARENT
REMARK Flexibility Score: inf
ROOT
ATOM      1  C   UNL     1      32.380 158.027 120.384  1.00  0.00     0.000 C 
ENDROOT
BRANCH   1   2
ATOM      2  C   UNL     1      32.586 159.513 120.051  1.00  0.00     0.000 C 
BRANCH   2   3
ATOM      3  C   UNL     1      32.352 159.777 118.556  1.00  0.00     0.000 C 
BRANCH   3   4
ATOM      4  C   UNL     1      31.174 160.733 118.291  1.00  0.00     0.000 C 
BRANCH   4   5
ATOM      5  C   UNL     1      29.973 160.101 117.565  1.00  0.00     0.000 C 
BRANCH   5   6
ATOM      6  C   UNL     1      28.630 160.723 117.974  1.00  0.00     0.006 C 
BRANCH   6   7
ATOM      7  C   UNL     1      27.568 159.642 118.192  1.00  0.00     0.053 C 
BRANCH   7   8
ATOM      8  C   UNL     1      26.643 159.572 117.018  1.00  0.00     0.041 C 
ATOM      9  O   UNL     1      26.569 160.537 116.213  1.00  0.00    -0.550 OA
ATOM     10  O   UNL     1      25.898 158.423 116.787  1.00  0.00    -0.550 OA
ENDBRANCH   7   8
ENDBRANCH   6   7
ENDBRANCH   5   6
ENDBRANCH   4   5
ENDBRANCH   3   4
ENDBRANCH   2   3
ENDBRANCH   1   2
BRANCH   1  11
ATOM     11  C   UNL     1      31.235 157.798 121.383  1.00  0.00     0.000 C 
BRANCH  11  12
ATOM     12  C   UNL     1      30.323 159.026 121.530  1.00  0.00    -0.000 C 
BRANCH  12  13
ATOM     13  C   UNL     1      28.843 158.614 121.508  1.00  0.00    -0.000 C 
BRANCH  13  14
ATOM     14  C   UNL     1      28.651 157.090 121.493  1.00  0.00    -0.000 C 
BRANCH  14  15
ATOM     15  C   UNL     1      27.187 156.673 121.724  1.00  0.00    -0.000 C 
BRANCH  15  16
ATOM     16  C   UNL     1      26.206 157.482 120.849  1.00  0.00    -0.000 C 
BRANCH  16  17
ATOM     17  C   UNL     1      25.587 156.666 119.703  1.00  0.00    -0.003 C 
ATOM     18  C   UNL     1      26.199 155.274 119.561  1.00  0.00     0.004 C 
ENDBRANCH  16  17
ENDBRANCH  15  16
ENDBRANCH  14  15
ENDBRANCH  13  14
ENDBRANCH  12  13
ENDBRANCH  11  12
ENDBRANCH   1  11
TORSDOF 14
ENDMDL
MODEL 4
REMARK VINA RESULT:    -3.555      2.358      5.135
REMARK INTER + INTRA:          -8.496
REMARK INTER:                  -6.673
REMARK INTRA:                  -1.824
REMARK UNBOUND:                -2.032
REMARK SMILES CCCCCCCCCCCCCCCC(=O)[O-]
REMARK SMILES IDX 9 1 10 2 11 3 12 4 13 5 14 6 15 7 16 8 17 9 18 10 8 11 7 12
REMARK SMILES IDX 6 13 5 14 4 15 3 16 2 17 1 18
REMARK H PARENT
REMARK Flexibility Score: inf
ROOT
ATOM      1  C   UNL     1      28.966 160.244 117.628  1.00  0.00     0.000 C 
ENDROOT
BRANCH   1   2
ATOM      2  C   UNL     1      27.559 160.721 117.238  1.00  0.00     0.000 C 
BRANCH   2   3
ATOM      3  C   UNL     1      26.835 159.662 116.393  1.00  0.00     0.000 C 
BRANCH   3   4
ATOM      4  C   UNL     1      25.891 158.772 117.223  1.00  0.00     0.000 C 
BRANCH   4   5
ATOM      5  C   UNL     1      25.647 159.250 118.665  1.00  0.00     0.000 C 
BRANCH   5   6
ATOM      6  C   UNL     1      25.490 158.092 119.662  1.00  0.00     0.006 C 
BRANCH   6   7
ATOM      7  C   UNL     1      25.578 156.740 118.949  1.00  0.00     0.053 C 
BRANCH   7   8
ATOM      8  C   UNL     1      26.130 155.697 119.869  1.00  0.00     0.041 C 
ATOM      9  O   UNL     1      26.355 154.533 119.443  1.00  0.00    -0.550 OA
ATOM     10  O   UNL     1      26.442 156.023 121.182  1.00  0.00    -0.550 OA
ENDBRANCH   7   8
ENDBRANCH   6   7
ENDBRANCH   5   6
ENDBRANCH   4   5
ENDBRANCH   3   4
ENDBRANCH   2   3
ENDBRANCH   1   2
BRANCH   1  11
ATOM     11  C   UNL     1      29.557 161.040 118.802  1.00  0.00     0.000 C 
BRANCH  11  12
ATOM     12  C   UNL     1      28.952 160.637 120.155  1.00  0.00    -0.000 C 
BRANCH  12  13
ATOM     13  C   UNL     1      28.785 159.113 120.248  1.00  0.00    -0.000 C 
BRANCH  13  14
ATOM     14  C   UNL     1      28.855 158.595 121.693  1.00  0.00    -0.000 C 
BRANCH  14  15
ATOM     15  C   UNL     1      29.800 157.389 121.847  1.00  0.00    -0.000 C 
BRANCH  15  16
ATOM     16  C   UNL     1      31.272 157.821 122.012  1.00  0.00    -0.000 C 
BRANCH  16  17
ATOM     17  C   UNL     1      32.094 157.714 120.717  1.00  0.00    -0.003 C 
ATOM     18  C   UNL     1      32.482 159.073 120.140  1.00  0.00     0.004 C 
ENDBRANCH  16  17
ENDBRANCH  15  16
ENDBRANCH  14  15
ENDBRANCH  13  14
ENDBRANCH  12  13
ENDBRANCH  11  12
ENDBRANCH   1  11
TORSDOF 14
ENDMDL
MODEL 5
REMARK VINA RESULT:    -3.539      2.609      5.264
REMARK INTER + INTRA:          -8.468
REMARK INTER:                  -6.258
REMARK INTRA:                  -2.209
REMARK UNBOUND:                -2.032
REMARK SMILES CCCCCCCCCCCCCCCC(=O)[O-]
REMARK SMILES IDX 9 1 10 2 11 3 12 4 13 5 14 6 15 7 16 8 17 9 18 10 8 11 7 12
REMARK SMILES IDX 6 13 5 14 4 15 3 16 2 17 1 18
REMARK H PARENT
REMARK Flexibility Score: inf
ROOT
ATOM      1  C   UNL     1      30.416 160.192 117.791  1.00  0.00     0.000 C 
ENDROOT
BRANCH   1   2
ATOM      2  C   UNL     1      29.672 161.079 118.800  1.00  0.00     0.000 C 
BRANCH   2   3
ATOM      3  C   UNL     1      28.168 161.121 118.489  1.00  0.00     0.000 C 
BRANCH   3   4
ATOM      4  C   UNL     1      27.641 159.805 117.887  1.00  0.00     0.000 C 
BRANCH   4   5
ATOM      5  C   UNL     1      26.200 159.439 118.285  1.00  0.00     0.000 C 
BRANCH   5   6
ATOM      6  C   UNL     1      25.971 157.923 118.380  1.00  0.00     0.006 C 
BRANCH   6   7
ATOM      7  C   UNL     1      25.560 157.519 119.799  1.00  0.00     0.053 C 
BRANCH   7   8
ATOM      8  C   UNL     1      26.011 156.124 120.098  1.00  0.00     0.041 C 
ATOM      9  O   UNL     1      26.016 155.252 119.189  1.00  0.00    -0.550 OA
ATOM     10  O   UNL     1      26.473 155.800 121.367  1.00  0.00    -0.550 OA
ENDBRANCH   7   8
ENDBRANCH   6   7
ENDBRANCH   5   6
ENDBRANCH   4   5
ENDBRANCH   3   4
ENDBRANCH   2   3
ENDBRANCH   1   2
BRANCH   1  11
ATOM     11  C   UNL     1      31.857 159.882 118.225  1.00  0.00     0.000 C 
BRANCH  11  12
ATOM     12  C   UNL     1      32.310 160.729 119.424  1.00  0.00    -0.000 C 
BRANCH  12  13
ATOM     13  C   UNL     1      32.465 159.859 120.682  1.00  0.00    -0.000 C 
BRANCH  13  14
ATOM     14  C   UNL     1      32.600 158.364 120.356  1.00  0.00    -0.000 C 
BRANCH  14  15
ATOM     15  C   UNL     1      31.521 157.507 121.042  1.00  0.00    -0.000 C 
BRANCH  15  16
ATOM     16  C   UNL     1      30.489 158.368 121.800  1.00  0.00    -0.000 C 
BRANCH  16  17
ATOM     17  C   UNL     1      29.071 158.293 121.208  1.00  0.00    -0.003 C 
ATOM     18  C   UNL     1      28.135 159.365 121.761  1.00  0.00     0.004 C 
ENDBRANCH  16  17
ENDBRANCH  15  16
ENDBRANCH  14  15
ENDBRANCH  13  14
ENDBRANCH  12  13
ENDBRANCH  11  12
ENDBRANCH   1  11
TORSDOF 14
ENDMDL
MODEL 6
REMARK VINA RESULT:    -3.519      1.305      2.176
REMARK INTER + INTRA:          -8.431
REMARK INTER:                  -6.658
REMARK INTRA:                  -1.772
REMARK UNBOUND:                -2.032
REMARK SMILES CCCCCCCCCCCCCCCC(=O)[O-]
REMARK SMILES IDX 9 1 10 2 11 3 12 4 13 5 14 6 15 7 16 8 17 9 18 10 8 11 7 12
REMARK SMILES IDX 6 13 5 14 4 15 3 16 2 17 1 18
REMARK H PARENT
REMARK Flexibility Score: inf
ROOT
ATOM      1  C   UNL     1      29.368 160.128 118.484  1.00  0.00     0.000 C 
ENDROOT
BRANCH   1   2
ATOM      2  C   UNL     1      28.986 160.264 119.966  1.00  0.00     0.000 C 
BRANCH   2   3
ATOM      3  C   UNL     1      28.840 158.884 120.623  1.00  0.00     0.000 C 
BRANCH   3   4
ATOM      4  C   UNL     1      29.830 158.661 121.781  1.00  0.00     0.000 C 
BRANCH   4   5
ATOM      5  C   UNL     1      30.763 157.448 121.614  1.00  0.00     0.000 C 
BRANCH   5   6
ATOM      6  C   UNL     1      31.950 157.729 120.681  1.00  0.00     0.006 C 
BRANCH   6   7
ATOM      7  C   UNL     1      32.633 159.051 121.045  1.00  0.00     0.053 C 
BRANCH   7   8
ATOM      8  C   UNL     1      32.696 159.955 119.855  1.00  0.00     0.041 C 
ATOM      9  O   UNL     1      32.710 159.470 118.693  1.00  0.00    -0.550 OA
ATOM     10  O   UNL     1      32.689 161.333 120.027  1.00  0.00    -0.550 OA
ENDBRANCH   7   8
ENDBRANCH   6   7
ENDBRANCH   5   6
ENDBRANCH   4   5
ENDBRANCH   3   4
ENDBRANCH   2   3
ENDBRANCH   1   2
BRANCH   1  11
ATOM     11  C   UNL     1      28.142 160.043 117.561  1.00  0.00     0.000 C 
BRANCH  11  12
ATOM     12  C   UNL     1      26.913 160.759 118.142  1.00  0.00    -0.000 C 
BRANCH  12  13
ATOM     13  C   UNL     1      25.771 159.765 118.401  1.00  0.00    -0.000 C 
BRANCH  13  14
ATOM     14  C   UNL     1      25.752 158.607 117.391  1.00  0.00    -0.000 C 
BRANCH  14  15
ATOM     15  C   UNL     1      25.566 157.235 118.064  1.00  0.00    -0.000 C 
BRANCH  15  16
ATOM     16  C   UNL     1      25.511 157.344 119.603  1.00  0.00    -0.000 C 
BRANCH  16  17
ATOM     17  C   UNL     1      26.244 156.203 120.328  1.00  0.00    -0.003 C 
ATOM     18  C   UNL     1      26.195 154.881 119.565  1.00  0.00     0.004 C 
ENDBRANCH  16  17
ENDBRANCH  15  16
ENDBRANCH  14  15
ENDBRANCH  13  14
ENDBRANCH  12  13
ENDBRANCH  11  12
ENDBRANCH   1  11
TORSDOF 14
ENDMDL
MODEL 7
REMARK VINA RESULT:    -3.451      1.385      2.600
REMARK INTER + INTRA:          -8.308
REMARK INTER:                  -6.555
REMARK INTRA:                  -1.753
REMARK UNBOUND:                -2.032
REMARK SMILES CCCCCCCCCCCCCCCC(=O)[O-]
REMARK SMILES IDX 9 1 10 2 11 3 12 4 13 5 14 6 15 7 16 8 17 9 18 10 8 11 7 12
REMARK SMILES IDX 6 13 5 14 4 15 3 16 2 17 1 18
REMARK H PARENT
REMARK Flexibility Score: inf
ROOT
ATOM      1  C   UNL     1      26.289 159.862 116.866  1.00  0.00     0.000 C 
ENDROOT
BRANCH   1   2
ATOM      2  C   UNL     1      27.462 160.851 116.937  1.00  0.00     0.000 C 
BRANCH   2   3
ATOM      3  C   UNL     1      28.807 160.112 116.865  1.00  0.00     0.000 C 
BRANCH   3   4
ATOM      4  C   UNL     1      29.612 160.197 118.175  1.00  0.00     0.000 C 
BRANCH   4   5
ATOM      5  C   UNL     1      31.141 160.190 118.000  1.00  0.00     0.000 C 
BRANCH   5   6
ATOM      6  C   UNL     1      31.893 159.942 119.316  1.00  0.00     0.006 C 
BRANCH   6   7
ATOM      7  C   UNL     1      31.010 159.195 120.320  1.00  0.00     0.053 C 
BRANCH   7   8
ATOM      8  C   UNL     1      31.680 157.937 120.774  1.00  0.00     0.041 C 
ATOM      9  O   UNL     1      31.092 157.159 121.570  1.00  0.00    -0.550 OA
ATOM     10  O   UNL     1      32.934 157.600 120.280  1.00  0.00    -0.550 OA
ENDBRANCH   7   8
ENDBRANCH   6   7
ENDBRANCH   5   6
ENDBRANCH   4   5
ENDBRANCH   3   4
ENDBRANCH   2   3
ENDBRANCH   1   2
BRANCH   1  11
ATOM     11  C   UNL     1      25.081 160.314 117.702  1.00  0.00     0.000 C 
BRANCH  11  12
ATOM     12  C   UNL     1      25.492 161.077 118.971  1.00  0.00    -0.000 C 
BRANCH  12  13
ATOM     13  C   UNL     1      25.573 160.130 120.178  1.00  0.00    -0.000 C 
BRANCH  13  14
ATOM     14  C   UNL     1      27.012 159.699 120.498  1.00  0.00    -0.000 C 
BRANCH  14  15
ATOM     15  C   UNL     1      27.156 158.173 120.646  1.00  0.00    -0.000 C 
BRANCH  15  16
ATOM     16  C   UNL     1      25.822 157.436 120.403  1.00  0.00    -0.000 C 
BRANCH  16  17
ATOM     17  C   UNL     1      25.836 156.533 119.158  1.00  0.00    -0.003 C 
ATOM     18  C   UNL     1      26.095 155.065 119.488  1.00  0.00     0.004 C 
ENDBRANCH  16  17
ENDBRANCH  15  16
ENDBRANCH  14  15
ENDBRANCH  13  14
ENDBRANCH  12  13
ENDBRANCH  11  12
ENDBRANCH   1  11
TORSDOF 14
ENDMDL
MODEL 8
REMARK VINA RESULT:    -3.397      2.720      6.384
REMARK INTER + INTRA:          -8.209
REMARK INTER:                  -6.686
REMARK INTRA:                  -1.523
REMARK UNBOUND:                -2.032
REMARK SMILES CCCCCCCCCCCCCCCC(=O)[O-]
REMARK SMILES IDX 9 1 10 2 11 3 12 4 13 5 14 6 15 7 16 8 17 9 18 10 8 11 7 12
REMARK SMILES IDX 6 13 5 14 4 15 3 16 2 17 1 18
REMARK H PARENT
REMARK Flexibility Score: inf
ROOT
ATOM      1  C   UNL     1      27.363 157.996 121.420  1.00  0.00     0.000 C 
ENDROOT
BRANCH   1   2
ATOM      2  C   UNL     1      27.133 156.494 121.641  1.00  0.00     0.000 C 
BRANCH   2   3
ATOM      3  C   UNL     1      26.249 155.905 120.531  1.00  0.00     0.000 C 
BRANCH   3   4
ATOM      4  C   UNL     1      25.464 156.977 119.754  1.00  0.00     0.000 C 
BRANCH   4   5
ATOM      5  C   UNL     1      25.621 156.918 118.224  1.00  0.00     0.000 C 
BRANCH   5   6
ATOM      6  C   UNL     1      25.646 158.307 117.569  1.00  0.00     0.006 C 
BRANCH   6   7
ATOM      7  C   UNL     1      26.874 159.103 118.018  1.00  0.00     0.053 C 
BRANCH   7   8
ATOM      8  C   UNL     1      27.177 160.195 117.042  1.00  0.00     0.041 C 
ATOM      9  O   UNL     1      26.471 160.332 116.007  1.00  0.00    -0.550 OA
ATOM     10  O   UNL     1      28.206 161.092 117.298  1.00  0.00    -0.550 OA
ENDBRANCH   7   8
ENDBRANCH   6   7
ENDBRANCH   5   6
ENDBRANCH   4   5
ENDBRANCH   3   4
ENDBRANCH   2   3
ENDBRANCH   1   2
BRANCH   1  11
ATOM     11  C   UNL     1      28.837 158.400 121.579  1.00  0.00     0.000 C 
BRANCH  11  12
ATOM     12  C   UNL     1      29.778 157.187 121.652  1.00  0.00    -0.000 C 
BRANCH  12  13
ATOM     13  C   UNL     1      31.217 157.629 121.962  1.00  0.00    -0.000 C 
BRANCH  13  14
ATOM     14  C   UNL     1      32.031 157.931 120.695  1.00  0.00    -0.000 C 
BRANCH  14  15
ATOM     15  C   UNL     1      32.818 159.250 120.795  1.00  0.00    -0.000 C 
BRANCH  15  16
ATOM     16  C   UNL     1      32.055 160.432 120.161  1.00  0.00    -0.000 C 
BRANCH  16  17
ATOM     17  C   UNL     1      31.163 160.025 118.977  1.00  0.00    -0.003 C 
ATOM     18  C   UNL     1      31.870 160.138 117.628  1.00  0.00     0.004 C 
ENDBRANCH  16  17
ENDBRANCH  15  16
ENDBRANCH  14  15
ENDBRANCH  13  14
ENDBRANCH  12  13
ENDBRANCH  11  12
ENDBRANCH   1  11
TORSDOF 14
ENDMDL
MODEL 9
REMARK VINA RESULT:    -3.320      1.456      4.039
REMARK INTER + INTRA:          -8.068
REMARK INTER:                  -5.954
REMARK INTRA:                  -2.114
REMARK UNBOUND:                -2.032
REMARK SMILES CCCCCCCCCCCCCCCC(=O)[O-]
REMARK SMILES IDX 9 1 10 2 11 3 12 4 13 5 14 6 15 7 16 8 17 9 18 10 8 11 7 12
REMARK SMILES IDX 6 13 5 14 4 15 3 16 2 17 1 18
REMARK H PARENT
REMARK Flexibility Score: inf
ROOT
ATOM      1  C   UNL     1      28.060 156.876 121.438  1.00  0.00     0.000 C 
ENDROOT
BRANCH   1   2
ATOM      2  C   UNL     1      28.148 158.334 121.914  1.00  0.00     0.000 C 
BRANCH   2   3
ATOM      3  C   UNL     1      29.147 159.130 121.060  1.00  0.00     0.000 C 
BRANCH   3   4
ATOM      4  C   UNL     1      28.475 159.902 119.911  1.00  0.00     0.000 C 
BRANCH   4   5
ATOM      5  C   UNL     1      29.174 159.775 118.545  1.00  0.00     0.000 C 
BRANCH   5   6
ATOM      6  C   UNL     1      30.257 160.841 118.325  1.00  0.00     0.006 C 
BRANCH   6   7
ATOM      7  C   UNL     1      31.603 160.194 117.987  1.00  0.00     0.053 C 
BRANCH   7   8
ATOM      8  C   UNL     1      32.370 159.897 119.237  1.00  0.00     0.041 C 
ATOM      9  O   UNL     1      32.930 160.830 119.872  1.00  0.00    -0.550 OA
ATOM     10  O   UNL     1      32.426 158.599 119.727  1.00  0.00    -0.550 OA
ENDBRANCH   7   8
ENDBRANCH   6   7
ENDBRANCH   5   6
ENDBRANCH   4   5
ENDBRANCH   3   4
ENDBRANCH   2   3
ENDBRANCH   1   2
BRANCH   1  11
ATOM     11  C   UNL     1      26.633 156.469 121.036  1.00  0.00     0.000 C 
BRANCH  11  12
ATOM     12  C   UNL     1      25.610 157.591 121.270  1.00  0.00    -0.000 C 
BRANCH  12  13
ATOM     13  C   UNL     1      25.153 158.203 119.936  1.00  0.00    -0.000 C 
BRANCH  13  14
ATOM     14  C   UNL     1      25.575 157.361 118.722  1.00  0.00    -0.000 C 
BRANCH  14  15
ATOM     15  C   UNL     1      25.861 158.217 117.476  1.00  0.00    -0.000 C 
BRANCH  15  16
ATOM     16  C   UNL     1      25.390 159.676 117.651  1.00  0.00    -0.000 C 
BRANCH  16  17
ATOM     17  C   UNL     1      26.088 160.666 116.704  1.00  0.00    -0.003 C 
ATOM     18  C   UNL     1      26.996 159.981 115.686  1.00  0.00     0.004 C 
ENDBRANCH  16  17
ENDBRANCH  15  16
ENDBRANCH  14  15
ENDBRANCH  13  14
ENDBRANCH  12  13
ENDBRANCH  11  12
ENDBRANCH   1  11
TORSDOF 14
ENDMDL
