MODEL 1
REMARK VINA RESULT:    -4.657      0.000      0.000
REMARK INTER + INTRA:          -8.707
REMARK INTER:                  -7.380
REMARK INTRA:                  -1.327
REMARK UNBOUND:                -1.327
REMARK SMILES CCCCCCCCCCCC(=O)[O-]
REMARK SMILES IDX 7 1 8 2 9 3 10 4 11 5 12 6 13 7 14 8 6 9 5 10 4 11 3 12 2 13
REMARK SMILES IDX 1 14
REMARK H PARENT
REMARK Flexibility Score: inf
ROOT
ATOM      1  C   UNL     1    -105.014 -87.170  37.794  1.00  0.00     0.000 C 
ENDROOT
BRANCH   1   2
ATOM      2  C   UNL     1    -104.699 -87.524  36.331  1.00  0.00     0.000 C 
BRANCH   2   3
ATOM      3  C   UNL     1    -105.488 -86.661  35.330  1.00  0.00     0.000 C 
BRANCH   3   4
ATOM      4  C   UNL     1    -104.995 -85.206  35.290  1.00  0.00     0.006 C 
BRANCH   4   5
ATOM      5  C   UNL     1    -103.478 -85.099  35.081  1.00  0.00     0.053 C 
BRANCH   5   6
ATOM      6  C   UNL     1    -102.879 -84.161  36.081  1.00  0.00     0.041 C 
ATOM      7  O   UNL     1    -103.361 -83.008  36.236  1.00  0.00    -0.550 OA
ATOM      8  O   UNL     1    -101.819 -84.577  36.877  1.00  0.00    -0.550 OA
ENDBRANCH   5   6
ENDBRANCH   4   5
ENDBRANCH   3   4
ENDBRANCH   2   3
ENDBRANCH   1   2
BRANCH   1   9
ATOM      9  C   UNL     1    -103.746 -87.042  38.657  1.00  0.00     0.000 C 
BRANCH   9  10
ATOM     10  C   UNL     1    -103.767 -85.795  39.556  1.00  0.00    -0.000 C 
BRANCH  10  11
ATOM     11  C   UNL     1    -105.074 -84.995  39.427  1.00  0.00    -0.000 C 
BRANCH  11  12
ATOM     12  C   UNL     1    -104.840 -83.475  39.439  1.00  0.00    -0.000 C 
BRANCH  12  13
ATOM     13  C   UNL     1    -103.396 -83.100  39.805  1.00  0.00    -0.003 C 
ATOM     14  C   UNL     1    -103.105 -81.642  39.464  1.00  0.00     0.004 C 
ENDBRANCH  12  13
ENDBRANCH  11  12
ENDBRANCH  10  11
ENDBRANCH   9  10
ENDBRANCH   1   9
TORSDOF 10
ENDMDL
MODEL 2
REMARK VINA RESULT:    -4.640      2.080      3.277
REMARK INTER + INTRA:          -8.680
REMARK INTER:                  -7.613
REMARK INTRA:                  -1.067
REMARK UNBOUND:                -1.327
REMARK SMILES CCCCCCCCCCCC(=O)[O-]
REMARK SMILES IDX 7 1 8 2 9 3 10 4 11 5 12 6 13 7 14 8 6 9 5 10 4 11 3 12 2 13
REMARK SMILES IDX 1 14
REMARK H PARENT
REMARK Flexibility Score: inf
ROOT
ATOM      1  C   UNL     1    -104.630 -85.561  39.890  1.00  0.00     0.000 C 
ENDROOT
BRANCH   1   2
ATOM      2  C   UNL     1    -103.760 -86.040  38.715  1.00  0.00     0.000 C 
BRANCH   2   3
ATOM      3  C   UNL     1    -104.042 -87.502  38.327  1.00  0.00     0.000 C 
BRANCH   3   4
ATOM      4  C   UNL     1    -104.992 -87.620  37.123  1.00  0.00     0.006 C 
BRANCH   4   5
ATOM      5  C   UNL     1    -105.094 -86.316  36.319  1.00  0.00     0.053 C 
BRANCH   5   6
ATOM      6  C   UNL     1    -105.405 -86.611  34.886  1.00  0.00     0.041 C 
ATOM      7  O   UNL     1    -106.349 -87.388  34.589  1.00  0.00    -0.550 OA
ATOM      8  O   UNL     1    -104.682 -85.988  33.876  1.00  0.00    -0.550 OA
ENDBRANCH   5   6
ENDBRANCH   4   5
ENDBRANCH   3   4
ENDBRANCH   2   3
ENDBRANCH   1   2
BRANCH   1   9
ATOM      9  C   UNL     1    -105.518 -84.361  39.517  1.00  0.00     0.000 C 
BRANCH   9  10
ATOM     10  C   UNL     1    -104.734 -83.244  38.807  1.00  0.00    -0.000 C 
BRANCH  10  11
ATOM     11  C   UNL     1    -104.631 -81.964  39.655  1.00  0.00    -0.000 C 
BRANCH  11  12
ATOM     12  C   UNL     1    -103.176 -81.574  39.960  1.00  0.00    -0.000 C 
BRANCH  12  13
ATOM     13  C   UNL     1    -102.188 -82.722  39.706  1.00  0.00    -0.003 C 
ATOM     14  C   UNL     1    -101.773 -83.389  41.015  1.00  0.00     0.004 C 
ENDBRANCH  12  13
ENDBRANCH  11  12
ENDBRANCH  10  11
ENDBRANCH   9  10
ENDBRANCH   1   9
TORSDOF 10
ENDMDL
MODEL 3
REMARK VINA RESULT:    -4.636      1.658      2.400
REMARK INTER + INTRA:          -8.673
REMARK INTER:                  -7.734
REMARK INTRA:                  -0.939
REMARK UNBOUND:                -1.327
REMARK SMILES CCCCCCCCCCCC(=O)[O-]
REMARK SMILES IDX 7 1 8 2 9 3 10 4 11 5 12 6 13 7 14 8 6 9 5 10 4 11 3 12 2 13
REMARK SMILES IDX 1 14
REMARK H PARENT
REMARK Flexibility Score: inf
ROOT
ATOM      1  C   UNL     1    -103.764 -86.140  38.662  1.00  0.00     0.000 C 
ENDROOT
BRANCH   1   2
ATOM      2  C   UNL     1    -104.216 -87.489  38.080  1.00  0.00     0.000 C 
BRANCH   2   3
ATOM      3  C   UNL     1    -105.154 -87.328  36.870  1.00  0.00     0.000 C 
BRANCH   3   4
ATOM      4  C   UNL     1    -104.995 -85.965  36.178  1.00  0.00     0.006 C 
BRANCH   4   5
ATOM      5  C   UNL     1    -105.651 -85.923  34.791  1.00  0.00     0.053 C 
BRANCH   5   6
ATOM      6  C   UNL     1    -105.686 -84.521  34.272  1.00  0.00     0.041 C 
ATOM      7  O   UNL     1    -106.621 -84.147  33.517  1.00  0.00    -0.550 OA
ATOM      8  O   UNL     1    -104.711 -83.611  34.664  1.00  0.00    -0.550 OA
ENDBRANCH   5   6
ENDBRANCH   4   5
ENDBRANCH   3   4
ENDBRANCH   2   3
ENDBRANCH   1   2
BRANCH   1   9
ATOM      9  C   UNL     1    -104.605 -85.709  39.876  1.00  0.00     0.000 C 
BRANCH   9  10
ATOM     10  C   UNL     1    -105.521 -84.513  39.566  1.00  0.00    -0.000 C 
BRANCH  10  11
ATOM     11  C   UNL     1    -104.776 -83.362  38.870  1.00  0.00    -0.000 C 
BRANCH  11  12
ATOM     12  C   UNL     1    -104.385 -82.237  39.843  1.00  0.00    -0.000 C 
BRANCH  12  13
ATOM     13  C   UNL     1    -102.877 -81.945  39.837  1.00  0.00    -0.003 C 
ATOM     14  C   UNL     1    -102.084 -83.147  40.344  1.00  0.00     0.004 C 
ENDBRANCH  12  13
ENDBRANCH  11  12
ENDBRANCH  10  11
ENDBRANCH   9  10
ENDBRANCH   1   9
TORSDOF 10
ENDMDL
MODEL 4
REMARK VINA RESULT:    -4.577      1.142      3.996
REMARK INTER + INTRA:          -8.580
REMARK INTER:                  -7.316
REMARK INTRA:                  -1.264
REMARK UNBOUND:                -1.327
REMARK SMILES CCCCCCCCCCCC(=O)[O-]
REMARK SMILES IDX 7 1 8 2 9 3 10 4 11 5 12 6 13 7 14 8 6 9 5 10 4 11 3 12 2 13
REMARK SMILES IDX 1 14
REMARK H PARENT
REMARK Flexibility Score: inf
ROOT
ATOM      1  C   UNL     1    -104.048 -85.769  39.694  1.00  0.00     0.000 C 
ENDROOT
BRANCH   1   2
ATOM      2  C   UNL     1    -105.267 -84.848  39.518  1.00  0.00     0.000 C 
BRANCH   2   3
ATOM      3  C   UNL     1    -104.869 -83.395  39.201  1.00  0.00     0.000 C 
BRANCH   3   4
ATOM      4  C   UNL     1    -103.462 -83.287  38.594  1.00  0.00     0.006 C 
BRANCH   4   5
ATOM      5  C   UNL     1    -103.453 -83.509  37.074  1.00  0.00     0.053 C 
BRANCH   5   6
ATOM      6  C   UNL     1    -102.255 -84.309  36.671  1.00  0.00     0.041 C 
ATOM      7  O   UNL     1    -101.476 -84.770  37.547  1.00  0.00    -0.550 OA
ATOM      8  O   UNL     1    -102.025 -84.588  35.330  1.00  0.00    -0.550 OA
ENDBRANCH   5   6
ENDBRANCH   4   5
ENDBRANCH   3   4
ENDBRANCH   2   3
ENDBRANCH   1   2
BRANCH   1   9
ATOM      9  C   UNL     1    -104.071 -86.968  38.729  1.00  0.00     0.000 C 
BRANCH   9  10
ATOM     10  C   UNL     1    -105.134 -86.820  37.628  1.00  0.00    -0.000 C 
BRANCH  10  11
ATOM     11  C   UNL     1    -104.600 -87.196  36.235  1.00  0.00    -0.000 C 
BRANCH  11  12
ATOM     12  C   UNL     1    -105.581 -86.834  35.109  1.00  0.00    -0.000 C 
BRANCH  12  13
ATOM     13  C   UNL     1    -104.952 -85.920  34.046  1.00  0.00    -0.003 C 
ATOM     14  C   UNL     1    -105.502 -84.500  34.148  1.00  0.00     0.004 C 
ENDBRANCH  12  13
ENDBRANCH  11  12
ENDBRANCH  10  11
ENDBRANCH   9  10
ENDBRANCH   1   9
TORSDOF 10
ENDMDL
MODEL 5
REMARK VINA RESULT:    -4.563      1.619      4.192
REMARK INTER + INTRA:          -8.558
REMARK INTER:                  -7.188
REMARK INTRA:                  -1.370
REMARK UNBOUND:                -1.327
REMARK SMILES CCCCCCCCCCCC(=O)[O-]
REMARK SMILES IDX 7 1 8 2 9 3 10 4 11 5 12 6 13 7 14 8 6 9 5 10 4 11 3 12 2 13
REMARK SMILES IDX 1 14
REMARK H PARENT
REMARK Flexibility Score: inf
ROOT
ATOM      1  C   UNL     1    -105.103 -87.627  36.157  1.00  0.00     0.000 C 
ENDROOT
BRANCH   1   2
ATOM      2  C   UNL     1    -105.134 -86.715  37.395  1.00  0.00     0.000 C 
BRANCH   2   3
ATOM      3  C   UNL     1    -104.018 -87.045  38.402  1.00  0.00     0.000 C 
BRANCH   3   4
ATOM      4  C   UNL     1    -103.921 -86.011  39.535  1.00  0.00     0.006 C 
BRANCH   4   5
ATOM      5  C   UNL     1    -105.088 -85.012  39.527  1.00  0.00     0.053 C 
BRANCH   5   6
ATOM      6  C   UNL     1    -104.571 -83.609  39.477  1.00  0.00     0.041 C 
ATOM      7  O   UNL     1    -103.380 -83.360  39.797  1.00  0.00    -0.550 OA
ATOM      8  O   UNL     1    -105.394 -82.581  39.031  1.00  0.00    -0.550 OA
ENDBRANCH   5   6
ENDBRANCH   4   5
ENDBRANCH   3   4
ENDBRANCH   2   3
ENDBRANCH   1   2
BRANCH   1   9
ATOM      9  C   UNL     1    -105.947 -87.075  34.995  1.00  0.00     0.000 C 
BRANCH   9  10
ATOM     10  C   UNL     1    -105.627 -85.605  34.678  1.00  0.00    -0.000 C 
BRANCH  10  11
ATOM     11  C   UNL     1    -104.294 -85.438  33.928  1.00  0.00    -0.000 C 
BRANCH  11  12
ATOM     12  C   UNL     1    -103.559 -84.143  34.311  1.00  0.00    -0.000 C 
BRANCH  12  13
ATOM     13  C   UNL     1    -103.597 -83.864  35.821  1.00  0.00    -0.003 C 
ATOM     14  C   UNL     1    -102.332 -84.375  36.505  1.00  0.00     0.004 C 
ENDBRANCH  12  13
ENDBRANCH  11  12
ENDBRANCH  10  11
ENDBRANCH   9  10
ENDBRANCH   1   9
TORSDOF 10
ENDMDL
MODEL 6
REMARK VINA RESULT:    -4.498      2.129      3.295
REMARK INTER + INTRA:          -8.455
REMARK INTER:                  -7.084
REMARK INTRA:                  -1.371
REMARK UNBOUND:                -1.327
REMARK SMILES CCCCCCCCCCCC(=O)[O-]
REMARK SMILES IDX 7 1 8 2 9 3 10 4 11 5 12 6 13 7 14 8 6 9 5 10 4 11 3 12 2 13
REMARK SMILES IDX 1 14
REMARK H PARENT
REMARK Flexibility Score: inf
ROOT
ATOM      1  C   UNL     1    -102.604 -85.655  39.137  1.00  0.00     0.000 C 
ENDROOT
BRANCH   1   2
ATOM      2  C   UNL     1    -103.974 -85.602  39.834  1.00  0.00     0.000 C 
BRANCH   2   3
ATOM      3  C   UNL     1    -105.134 -85.386  38.845  1.00  0.00     0.000 C 
BRANCH   3   4
ATOM      4  C   UNL     1    -104.979 -86.221  37.563  1.00  0.00     0.006 C 
BRANCH   4   5
ATOM      5  C   UNL     1    -104.824 -85.354  36.306  1.00  0.00     0.053 C 
BRANCH   5   6
ATOM      6  C   UNL     1    -105.169 -86.144  35.083  1.00  0.00     0.041 C 
ATOM      7  O   UNL     1    -104.701 -85.813  33.962  1.00  0.00    -0.550 OA
ATOM      8  O   UNL     1    -105.969 -87.275  35.189  1.00  0.00    -0.550 OA
ENDBRANCH   5   6
ENDBRANCH   4   5
ENDBRANCH   3   4
ENDBRANCH   2   3
ENDBRANCH   1   2
BRANCH   1   9
ATOM      9  C   UNL     1    -102.016 -84.255  38.884  1.00  0.00     0.000 C 
BRANCH   9  10
ATOM     10  C   UNL     1    -102.254 -83.293  40.059  1.00  0.00    -0.000 C 
BRANCH  10  11
ATOM     11  C   UNL     1    -102.901 -81.969  39.618  1.00  0.00    -0.000 C 
BRANCH  11  12
ATOM     12  C   UNL     1    -104.381 -81.871  40.024  1.00  0.00    -0.000 C 
BRANCH  12  13
ATOM     13  C   UNL     1    -105.306 -81.586  38.832  1.00  0.00    -0.003 C 
ATOM     14  C   UNL     1    -104.586 -81.831  37.508  1.00  0.00     0.004 C 
ENDBRANCH  12  13
ENDBRANCH  11  12
ENDBRANCH  10  11
ENDBRANCH   9  10
ENDBRANCH   1   9
TORSDOF 10
ENDMDL
MODEL 7
REMARK VINA RESULT:    -4.479      1.813      4.385
REMARK INTER + INTRA:          -8.425
REMARK INTER:                  -7.461
REMARK INTRA:                  -0.964
REMARK UNBOUND:                -1.327
REMARK SMILES CCCCCCCCCCCC(=O)[O-]
REMARK SMILES IDX 7 1 8 2 9 3 10 4 11 5 12 6 13 7 14 8 6 9 5 10 4 11 3 12 2 13
REMARK SMILES IDX 1 14
REMARK H PARENT
REMARK Flexibility Score: inf
ROOT
ATOM      1  C   UNL     1    -104.357 -87.565  38.002  1.00  0.00     0.000 C 
ENDROOT
BRANCH   1   2
ATOM      2  C   UNL     1    -103.692 -86.242  38.417  1.00  0.00     0.000 C 
BRANCH   2   3
ATOM      3  C   UNL     1    -104.204 -85.721  39.771  1.00  0.00     0.000 C 
BRANCH   3   4
ATOM      4  C   UNL     1    -105.201 -84.560  39.618  1.00  0.00     0.006 C 
BRANCH   4   5
ATOM      5  C   UNL     1    -104.616 -83.376  38.836  1.00  0.00     0.053 C 
BRANCH   5   6
ATOM      6  C   UNL     1    -103.894 -82.447  39.760  1.00  0.00     0.041 C 
ATOM      7  O   UNL     1    -102.745 -82.739  40.183  1.00  0.00    -0.550 OA
ATOM      8  O   UNL     1    -104.470 -81.234  40.117  1.00  0.00    -0.550 OA
ENDBRANCH   5   6
ENDBRANCH   4   5
ENDBRANCH   3   4
ENDBRANCH   2   3
ENDBRANCH   1   2
BRANCH   1   9
ATOM      9  C   UNL     1    -105.146 -87.443  36.687  1.00  0.00     0.000 C 
BRANCH   9  10
ATOM     10  C   UNL     1    -105.230 -85.993  36.181  1.00  0.00    -0.000 C 
BRANCH  10  11
ATOM     11  C   UNL     1    -105.356 -85.908  34.650  1.00  0.00    -0.000 C 
BRANCH  11  12
ATOM     12  C   UNL     1    -104.147 -85.222  33.995  1.00  0.00    -0.000 C 
BRANCH  12  13
ATOM     13  C   UNL     1    -103.039 -84.883  35.004  1.00  0.00    -0.003 C 
ATOM     14  C   UNL     1    -101.752 -84.480  34.290  1.00  0.00     0.004 C 
ENDBRANCH  12  13
ENDBRANCH  11  12
ENDBRANCH  10  11
ENDBRANCH   9  10
ENDBRANCH   1   9
TORSDOF 10
ENDMDL
MODEL 8
REMARK VINA RESULT:    -4.478      1.653      2.616
REMARK INTER + INTRA:          -8.423
REMARK INTER:                  -6.844
REMARK INTRA:                  -1.578
REMARK UNBOUND:                -1.327
REMARK SMILES CCCCCCCCCCCC(=O)[O-]
REMARK SMILES IDX 7 1 8 2 9 3 10 4 11 5 12 6 13 7 14 8 6 9 5 10 4 11 3 12 2 13
REMARK SMILES IDX 1 14
REMARK H PARENT
REMARK Flexibility Score: inf
ROOT
ATOM      1  C   UNL     1    -103.795 -87.214  38.538  1.00  0.00     0.000 C 
ENDROOT
BRANCH   1   2
ATOM      2  C   UNL     1    -105.057 -87.209  37.660  1.00  0.00     0.000 C 
BRANCH   2   3
ATOM      3  C   UNL     1    -104.733 -87.146  36.157  1.00  0.00     0.000 C 
BRANCH   3   4
ATOM      4  C   UNL     1    -105.483 -86.012  35.439  1.00  0.00     0.006 C 
BRANCH   4   5
ATOM      5  C   UNL     1    -104.828 -85.620  34.107  1.00  0.00     0.053 C 
BRANCH   5   6
ATOM      6  C   UNL     1    -105.205 -84.221  33.733  1.00  0.00     0.041 C 
ATOM      7  O   UNL     1    -104.319 -83.334  33.621  1.00  0.00    -0.550 OA
ATOM      8  O   UNL     1    -106.532 -83.907  33.462  1.00  0.00    -0.550 OA
ENDBRANCH   5   6
ENDBRANCH   4   5
ENDBRANCH   3   4
ENDBRANCH   2   3
ENDBRANCH   1   2
BRANCH   1   9
ATOM      9  C   UNL     1    -103.774 -86.054  39.550  1.00  0.00     0.000 C 
BRANCH   9  10
ATOM     10  C   UNL     1    -105.075 -85.233  39.534  1.00  0.00    -0.000 C 
BRANCH  10  11
ATOM     11  C   UNL     1    -104.865 -83.802  39.010  1.00  0.00    -0.000 C 
BRANCH  11  12
ATOM     12  C   UNL     1    -103.420 -83.547  38.553  1.00  0.00    -0.000 C 
BRANCH  12  13
ATOM     13  C   UNL     1    -103.296 -83.408  37.028  1.00  0.00    -0.003 C 
ATOM     14  C   UNL     1    -102.252 -84.373  36.472  1.00  0.00     0.004 C 
ENDBRANCH  12  13
ENDBRANCH  11  12
ENDBRANCH  10  11
ENDBRANCH   9  10
ENDBRANCH   1   9
TORSDOF 10
ENDMDL
MODEL 9
REMARK VINA RESULT:    -4.438      1.494      4.050
REMARK INTER + INTRA:          -8.360
REMARK INTER:                  -6.800
REMARK INTRA:                  -1.560
REMARK UNBOUND:                -1.327
REMARK SMILES CCCCCCCCCCCC(=O)[O-]
REMARK SMILES IDX 7 1 8 2 9 3 10 4 11 5 12 6 13 7 14 8 6 9 5 10 4 11 3 12 2 13
REMARK SMILES IDX 1 14
REMARK H PARENT
REMARK Flexibility Score: inf
ROOT
ATOM      1  C   UNL     1    -103.426 -86.896  38.660  1.00  0.00     0.000 C 
ENDROOT
BRANCH   1   2
ATOM      2  C   UNL     1    -103.638 -85.635  39.514  1.00  0.00     0.000 C 
BRANCH   2   3
ATOM      3  C   UNL     1    -105.123 -85.250  39.642  1.00  0.00     0.000 C 
BRANCH   3   4
ATOM      4  C   UNL     1    -105.378 -83.769  39.317  1.00  0.00     0.006 C 
BRANCH   4   5
ATOM      5  C   UNL     1    -104.282 -82.844  39.865  1.00  0.00     0.053 C 
BRANCH   5   6
ATOM      6  C   UNL     1    -104.259 -81.556  39.105  1.00  0.00     0.041 C 
ATOM      7  O   UNL     1    -103.489 -81.417  38.118  1.00  0.00    -0.550 OA
ATOM      8  O   UNL     1    -105.123 -80.526  39.455  1.00  0.00    -0.550 OA
ENDBRANCH   5   6
ENDBRANCH   4   5
ENDBRANCH   3   4
ENDBRANCH   2   3
ENDBRANCH   1   2
BRANCH   1   9
ATOM      9  C   UNL     1    -104.740 -87.442  38.076  1.00  0.00     0.000 C 
BRANCH   9  10
ATOM     10  C   UNL     1    -104.727 -87.497  36.539  1.00  0.00    -0.000 C 
BRANCH  10  11
ATOM     11  C   UNL     1    -105.499 -86.331  35.899  1.00  0.00    -0.000 C 
BRANCH  11  12
ATOM     12  C   UNL     1    -104.585 -85.383  35.106  1.00  0.00    -0.000 C 
BRANCH  12  13
ATOM     13  C   UNL     1    -104.086 -84.198  35.947  1.00  0.00    -0.003 C 
ATOM     14  C   UNL     1    -102.585 -84.301  36.202  1.00  0.00     0.004 C 
ENDBRANCH  12  13
ENDBRANCH  11  12
ENDBRANCH  10  11
ENDBRANCH   9  10
ENDBRANCH   1   9
TORSDOF 10
ENDMDL
