MODEL 1
REMARK VINA RESULT:    -4.180      0.000      0.000
REMARK INTER + INTRA:          -4.443
REMARK INTER:                  -4.424
REMARK INTRA:                  -0.019
REMARK UNBOUND:                -0.019
REMARK SMILES O=C([O-])c1cccnc1
REMARK SMILES IDX 4 1 5 2 9 3 6 4 8 5 7 6 2 7 1 8 3 9
REMARK H PARENT
REMARK Flexibility Score: inf
ROOT
ATOM      1  C   UNL     1      37.898  18.131  10.813  1.00  0.00     0.016 A 
ATOM      2  C   UNL     1      38.258  18.320  12.157  1.00  0.00     0.013 A 
ATOM      3  C   UNL     1      36.533  18.141  10.478  1.00  0.00     0.120 A 
ATOM      4  C   UNL     1      37.273  18.512  13.126  1.00  0.00     0.021 A 
ATOM      5  N   UNL     1      35.592  18.331  11.442  1.00  0.00    -0.264 NA
ATOM      6  C   UNL     1      35.929  18.516  12.746  1.00  0.00     0.111 A 
ENDROOT
BRANCH   1   7
ATOM      7  C   UNL     1      38.934  17.925   9.777  1.00  0.00     0.073 C 
ATOM      8  O   UNL     1      38.810  17.011   8.919  1.00  0.00    -0.545 OA
ATOM      9  O   UNL     1      40.060  18.739   9.736  1.00  0.00    -0.545 OA
ENDBRANCH   1   7
TORSDOF 1
ENDMDL
MODEL 2
REMARK VINA RESULT:    -4.170      2.779      3.776
REMARK INTER + INTRA:          -4.433
REMARK INTER:                  -4.415
REMARK INTRA:                  -0.019
REMARK UNBOUND:                -0.019
REMARK SMILES O=C([O-])c1cccnc1
REMARK SMILES IDX 4 1 5 2 9 3 6 4 8 5 7 6 2 7 1 8 3 9
REMARK H PARENT
REMARK Flexibility Score: inf
ROOT
ATOM      1  C   UNL     1      38.360  18.241  11.482  1.00  0.00     0.016 A 
ATOM      2  C   UNL     1      39.674  18.223  11.976  1.00  0.00     0.013 A 
ATOM      3  C   UNL     1      38.162  18.498  10.115  1.00  0.00     0.120 A 
ATOM      4  C   UNL     1      40.749  18.455  11.116  1.00  0.00     0.021 A 
ATOM      5  N   UNL     1      39.227  18.721   9.297  1.00  0.00    -0.264 NA
ATOM      6  C   UNL     1      40.503  18.705   9.764  1.00  0.00     0.111 A 
ENDROOT
BRANCH   1   7
ATOM      7  C   UNL     1      37.213  17.997  12.384  1.00  0.00     0.073 C 
ATOM      8  O   UNL     1      37.063  18.682  13.430  1.00  0.00    -0.545 OA
ATOM      9  O   UNL     1      36.284  17.006  12.089  1.00  0.00    -0.545 OA
ENDBRANCH   1   7
TORSDOF 1
ENDMDL
MODEL 3
REMARK VINA RESULT:    -4.111      0.950      1.936
REMARK INTER + INTRA:          -4.370
REMARK INTER:                  -4.350
REMARK INTRA:                  -0.020
REMARK UNBOUND:                -0.019
REMARK SMILES O=C([O-])c1cccnc1
REMARK SMILES IDX 4 1 5 2 9 3 6 4 8 5 7 6 2 7 1 8 3 9
REMARK H PARENT
REMARK Flexibility Score: inf
ROOT
ATOM      1  C   UNL     1      38.063  18.132  10.766  1.00  0.00     0.016 A 
ATOM      2  C   UNL     1      36.696  18.156  10.444  1.00  0.00     0.013 A 
ATOM      3  C   UNL     1      38.435  18.288  12.112  1.00  0.00     0.120 A 
ATOM      4  C   UNL     1      35.743  18.332  11.448  1.00  0.00     0.021 A 
ATOM      5  N   UNL     1      37.486  18.458  13.072  1.00  0.00    -0.264 NA
ATOM      6  C   UNL     1      36.161  18.483  12.771  1.00  0.00     0.111 A 
ENDROOT
BRANCH   1   7
ATOM      7  C   UNL     1      39.082  17.946   9.711  1.00  0.00     0.073 C 
ATOM      8  O   UNL     1      40.147  18.621   9.722  1.00  0.00    -0.545 OA
ATOM      9  O   UNL     1      38.880  17.024   8.691  1.00  0.00    -0.545 OA
ENDBRANCH   1   7
TORSDOF 1
ENDMDL
MODEL 4
REMARK VINA RESULT:    -4.096      1.439      2.012
REMARK INTER + INTRA:          -4.355
REMARK INTER:                  -4.336
REMARK INTRA:                  -0.019
REMARK UNBOUND:                -0.019
REMARK SMILES O=C([O-])c1cccnc1
REMARK SMILES IDX 4 1 5 2 9 3 6 4 8 5 7 6 2 7 1 8 3 9
REMARK H PARENT
REMARK Flexibility Score: inf
ROOT
ATOM      1  C   UNL     1      37.606  18.116  10.396  1.00  0.00     0.016 A 
ATOM      2  C   UNL     1      36.279  18.285  10.824  1.00  0.00     0.013 A 
ATOM      3  C   UNL     1      38.631  18.181  11.355  1.00  0.00     0.120 A 
ATOM      4  C   UNL     1      36.001  18.512  12.173  1.00  0.00     0.021 A 
ATOM      5  N   UNL     1      38.334  18.403  12.664  1.00  0.00    -0.264 NA
ATOM      6  C   UNL     1      37.053  18.568  13.089  1.00  0.00     0.111 A 
ENDROOT
BRANCH   1   7
ATOM      7  C   UNL     1      37.913  17.875   8.970  1.00  0.00     0.073 C 
ATOM      8  O   UNL     1      38.714  16.963   8.631  1.00  0.00    -0.545 OA
ATOM      9  O   UNL     1      37.321  18.652   7.981  1.00  0.00    -0.545 OA
ENDBRANCH   1   7
TORSDOF 1
ENDMDL
MODEL 5
REMARK VINA RESULT:    -4.056      3.199      4.163
REMARK INTER + INTRA:          -4.313
REMARK INTER:                  -4.297
REMARK INTRA:                  -0.016
REMARK UNBOUND:                -0.019
REMARK SMILES O=C([O-])c1cccnc1
REMARK SMILES IDX 4 1 5 2 9 3 6 4 8 5 7 6 2 7 1 8 3 9
REMARK H PARENT
REMARK Flexibility Score: inf
ROOT
ATOM      1  C   UNL     1      36.052  18.502  11.876  1.00  0.00     0.016 A 
ATOM      2  C   UNL     1      36.549  18.294  10.579  1.00  0.00     0.013 A 
ATOM      3  C   UNL     1      36.961  18.513  12.947  1.00  0.00     0.120 A 
ATOM      4  C   UNL     1      37.917  18.105  10.376  1.00  0.00     0.021 A 
ATOM      5  N   UNL     1      38.290  18.326  12.722  1.00  0.00    -0.264 NA
ATOM      6  C   UNL     1      38.782  18.125  11.471  1.00  0.00     0.111 A 
ENDROOT
BRANCH   1   7
ATOM      7  C   UNL     1      34.605  18.704  12.104  1.00  0.00     0.073 C 
ATOM      8  O   UNL     1      34.098  19.855  12.029  1.00  0.00    -0.545 OA
ATOM      9  O   UNL     1      33.782  17.625  12.405  1.00  0.00    -0.545 OA
ENDBRANCH   1   7
TORSDOF 1
ENDMDL
MODEL 6
REMARK VINA RESULT:    -4.027      2.866      3.916
REMARK INTER + INTRA:          -4.281
REMARK INTER:                  -4.265
REMARK INTRA:                  -0.016
REMARK UNBOUND:                -0.019
REMARK SMILES O=C([O-])c1cccnc1
REMARK SMILES IDX 4 1 5 2 9 3 6 4 8 5 7 6 2 7 1 8 3 9
REMARK H PARENT
REMARK Flexibility Score: inf
ROOT
ATOM      1  C   UNL     1      37.284  18.128  11.488  1.00  0.00     0.016 A 
ATOM      2  C   UNL     1      37.555  18.320  10.123  1.00  0.00     0.013 A 
ATOM      3  C   UNL     1      38.364  18.095  12.386  1.00  0.00     0.120 A 
ATOM      4  C   UNL     1      38.871  18.473   9.686  1.00  0.00     0.021 A 
ATOM      5  N   UNL     1      39.638  18.248  11.934  1.00  0.00    -0.264 NA
ATOM      6  C   UNL     1      39.912  18.435  10.616  1.00  0.00     0.111 A 
ENDROOT
BRANCH   1   7
ATOM      7  C   UNL     1      35.893  17.964  11.963  1.00  0.00     0.073 C 
ATOM      8  O   UNL     1      35.203  18.967  12.288  1.00  0.00    -0.545 OA
ATOM      9  O   UNL     1      35.327  16.698  12.060  1.00  0.00    -0.545 OA
ENDBRANCH   1   7
TORSDOF 1
ENDMDL
MODEL 7
REMARK VINA RESULT:    -4.021      8.145      9.207
REMARK INTER + INTRA:          -4.275
REMARK INTER:                  -4.252
REMARK INTRA:                  -0.023
REMARK UNBOUND:                -0.019
REMARK SMILES O=C([O-])c1cccnc1
REMARK SMILES IDX 4 1 5 2 9 3 6 4 8 5 7 6 2 7 1 8 3 9
REMARK H PARENT
REMARK Flexibility Score: inf
ROOT
ATOM      1  C   UNL     1      32.130  13.117  15.697  1.00  0.00     0.016 A 
ATOM      2  C   UNL     1      33.365  13.166  15.031  1.00  0.00     0.013 A 
ATOM      3  C   UNL     1      31.881  14.055  16.714  1.00  0.00     0.120 A 
ATOM      4  C   UNL     1      34.312  14.131  15.380  1.00  0.00     0.021 A 
ATOM      5  N   UNL     1      32.820  14.985  17.035  1.00  0.00    -0.264 NA
ATOM      6  C   UNL     1      34.019  15.042  16.396  1.00  0.00     0.111 A 
ENDROOT
BRANCH   1   7
ATOM      7  C   UNL     1      31.119  12.100  15.336  1.00  0.00     0.073 C 
ATOM      8  O   UNL     1      31.157  11.529  14.213  1.00  0.00    -0.545 OA
ATOM      9  O   UNL     1      30.112  11.759  16.231  1.00  0.00    -0.545 OA
ENDBRANCH   1   7
TORSDOF 1
ENDMDL
MODEL 8
REMARK VINA RESULT:    -4.020      8.189      9.132
REMARK INTER + INTRA:          -4.274
REMARK INTER:                  -4.250
REMARK INTRA:                  -0.024
REMARK UNBOUND:                -0.019
REMARK SMILES O=C([O-])c1cccnc1
REMARK SMILES IDX 4 1 5 2 9 3 6 4 8 5 7 6 2 7 1 8 3 9
REMARK H PARENT
REMARK Flexibility Score: inf
ROOT
ATOM      1  C   UNL     1      32.481  13.299  15.773  1.00  0.00     0.016 A 
ATOM      2  C   UNL     1      32.206  12.459  14.681  1.00  0.00     0.013 A 
ATOM      3  C   UNL     1      31.598  13.286  16.866  1.00  0.00     0.120 A 
ATOM      4  C   UNL     1      31.079  11.636  14.697  1.00  0.00     0.021 A 
ATOM      5  N   UNL     1      30.506  12.474  16.857  1.00  0.00    -0.264 NA
ATOM      6  C   UNL     1      30.231  11.657  15.806  1.00  0.00     0.111 A 
ENDROOT
BRANCH   1   7
ATOM      7  C   UNL     1      33.672  14.176  15.767  1.00  0.00     0.073 C 
ATOM      8  O   UNL     1      34.603  13.988  14.940  1.00  0.00    -0.545 OA
ATOM      9  O   UNL     1      33.781  15.222  16.677  1.00  0.00    -0.545 OA
ENDBRANCH   1   7
TORSDOF 1
ENDMDL
MODEL 9
REMARK VINA RESULT:    -4.003      2.627      3.569
REMARK INTER + INTRA:          -4.256
REMARK INTER:                  -4.238
REMARK INTRA:                  -0.018
REMARK UNBOUND:                -0.019
REMARK SMILES O=C([O-])c1cccnc1
REMARK SMILES IDX 4 1 5 2 9 3 6 4 8 5 7 6 2 7 1 8 3 9
REMARK H PARENT
REMARK Flexibility Score: inf
ROOT
ATOM      1  C   UNL     1      35.456  18.055  12.400  1.00  0.00     0.016 A 
ATOM      2  C   UNL     1      34.849  19.240  11.955  1.00  0.00     0.013 A 
ATOM      3  C   UNL     1      34.632  16.979  12.772  1.00  0.00     0.120 A 
ATOM      4  C   UNL     1      33.458  19.332  11.889  1.00  0.00     0.021 A 
ATOM      5  N   UNL     1      33.278  17.094  12.698  1.00  0.00    -0.264 NA
ATOM      6  C   UNL     1      32.680  18.237  12.268  1.00  0.00     0.111 A 
ENDROOT
BRANCH   1   7
ATOM      7  C   UNL     1      36.929  17.946  12.475  1.00  0.00     0.073 C 
ATOM      8  O   UNL     1      37.597  18.750  13.178  1.00  0.00    -0.545 OA
ATOM      9  O   UNL     1      37.598  16.952  11.769  1.00  0.00    -0.545 OA
ENDBRANCH   1   7
TORSDOF 1
ENDMDL
