MODEL 1
REMARK VINA RESULT:    -4.289      0.000      0.000
REMARK INTER + INTRA:          -4.760
REMARK INTER:                  -4.665
REMARK INTRA:                  -0.095
REMARK UNBOUND:                -0.095
REMARK SMILES C=C(C)[C@@H]1CC=C(C)[C@H](O)C1
REMARK SMILES IDX 8 1 7 2 6 3 5 4 4 5 11 6 9 7 10 8 2 10 1 11 3 12
REMARK H PARENT 10 9
REMARK Flexibility Score: inf
ROOT
ATOM      1  C   UNL     1     142.342 131.902 152.211  1.00  0.00     0.042 C 
ATOM      2  C   UNL     1     141.057 132.117 151.453  1.00  0.00    -0.049 C 
ATOM      3  C   UNL     1     140.839 131.383 150.340  1.00  0.00    -0.025 C 
ATOM      4  C   UNL     1     139.593 131.510 149.499  1.00  0.00     0.035 C 
ATOM      5  C   UNL     1     138.921 132.879 149.678  1.00  0.00     0.021 C 
ATOM      6  C   UNL     1     138.756 133.181 151.174  1.00  0.00     0.044 C 
ATOM      7  C   UNL     1     140.128 133.253 151.864  1.00  0.00     0.140 C 
ENDROOT
BRANCH   7   8
ATOM      8  O   UNL     1     139.927 133.225 153.255  1.00  0.00    -0.389 OA
ATOM      9  H   UNL     1     138.951 133.304 153.418  1.00  0.00     0.211 HD
ENDBRANCH   7   8
BRANCH   5  10
ATOM     10  C   UNL     1     137.588 132.941 148.943  1.00  0.00    -0.077 C 
ATOM     11  C   UNL     1     136.454 132.598 149.576  1.00  0.00     0.008 C 
ATOM     12  C   UNL     1     137.502 133.391 147.505  1.00  0.00     0.039 C 
ENDBRANCH   5  10
TORSDOF 2
ENDMDL
MODEL 2
REMARK VINA RESULT:    -4.221     12.827     13.981
REMARK INTER + INTRA:          -4.686
REMARK INTER:                  -4.588
REMARK INTRA:                  -0.098
REMARK UNBOUND:                -0.095
REMARK SMILES C=C(C)[C@@H]1CC=C(C)[C@H](O)C1
REMARK SMILES IDX 8 1 7 2 6 3 5 4 4 5 11 6 9 7 10 8 2 10 1 11 3 12
REMARK H PARENT 10 9
REMARK Flexibility Score: inf
ROOT
ATOM      1  C   UNL     1     144.946 142.402 140.421  1.00  0.00     0.042 C 
ATOM      2  C   UNL     1     144.370 142.762 141.766  1.00  0.00    -0.049 C 
ATOM      3  C   UNL     1     144.333 141.809 142.724  1.00  0.00    -0.025 C 
ATOM      4  C   UNL     1     143.781 142.050 144.106  1.00  0.00     0.035 C 
ATOM      5  C   UNL     1     142.786 143.221 144.128  1.00  0.00     0.021 C 
ATOM      6  C   UNL     1     143.409 144.438 143.431  1.00  0.00     0.044 C 
ATOM      7  C   UNL     1     143.708 144.121 141.956  1.00  0.00     0.140 C 
ENDROOT
BRANCH   7   8
ATOM      8  O   UNL     1     144.540 145.133 141.446  1.00  0.00    -0.389 OA
ATOM      9  H   UNL     1     144.216 145.355 140.533  1.00  0.00     0.211 HD
ENDBRANCH   7   8
BRANCH   5  10
ATOM     10  C   UNL     1     142.351 143.550 145.550  1.00  0.00    -0.077 C 
ATOM     11  C   UNL     1     143.250 143.545 146.547  1.00  0.00     0.008 C 
ATOM     12  C   UNL     1     140.918 143.894 145.875  1.00  0.00     0.039 C 
ENDBRANCH   5  10
TORSDOF 2
ENDMDL
MODEL 3
REMARK VINA RESULT:    -4.136      2.370      3.552
REMARK INTER + INTRA:          -4.594
REMARK INTER:                  -4.496
REMARK INTRA:                  -0.098
REMARK UNBOUND:                -0.095
REMARK SMILES C=C(C)[C@@H]1CC=C(C)[C@H](O)C1
REMARK SMILES IDX 8 1 7 2 6 3 5 4 4 5 11 6 9 7 10 8 2 10 1 11 3 12
REMARK H PARENT 10 9
REMARK Flexibility Score: inf
ROOT
ATOM      1  C   UNL     1     140.010 134.288 150.390  1.00  0.00     0.042 C 
ATOM      2  C   UNL     1     139.044 133.138 150.271  1.00  0.00    -0.049 C 
ATOM      3  C   UNL     1     137.741 133.415 150.046  1.00  0.00    -0.025 C 
ATOM      4  C   UNL     1     136.683 132.349 149.909  1.00  0.00     0.035 C 
ATOM      5  C   UNL     1     137.097 131.041 150.600  1.00  0.00     0.021 C 
ATOM      6  C   UNL     1     138.511 130.647 150.151  1.00  0.00     0.044 C 
ATOM      7  C   UNL     1     139.528 131.722 150.565  1.00  0.00     0.140 C 
ENDROOT
BRANCH   7   8
ATOM      8  O   UNL     1     140.732 131.480 149.882  1.00  0.00    -0.389 OA
ATOM      9  H   UNL     1     141.442 132.011 150.328  1.00  0.00     0.211 HD
ENDBRANCH   7   8
BRANCH   5  10
ATOM     10  C   UNL     1     136.091 129.929 150.328  1.00  0.00    -0.077 C 
ATOM     11  C   UNL     1     135.480 129.852 149.135  1.00  0.00     0.008 C 
ATOM     12  C   UNL     1     135.762 128.893 151.374  1.00  0.00     0.039 C 
ENDBRANCH   5  10
TORSDOF 2
ENDMDL
MODEL 4
REMARK VINA RESULT:    -4.101      8.376      9.593
REMARK INTER + INTRA:          -4.555
REMARK INTER:                  -4.458
REMARK INTRA:                  -0.097
REMARK UNBOUND:                -0.095
REMARK SMILES C=C(C)[C@@H]1CC=C(C)[C@H](O)C1
REMARK SMILES IDX 8 1 7 2 6 3 5 4 4 5 11 6 9 7 10 8 2 10 1 11 3 12
REMARK H PARENT 10 9
REMARK Flexibility Score: inf
ROOT
ATOM      1  C   UNL     1     145.722 140.165 149.917  1.00  0.00     0.042 C 
ATOM      2  C   UNL     1     146.221 138.932 149.209  1.00  0.00    -0.049 C 
ATOM      3  C   UNL     1     147.428 138.985 148.603  1.00  0.00    -0.025 C 
ATOM      4  C   UNL     1     148.032 137.818 147.864  1.00  0.00     0.035 C 
ATOM      5  C   UNL     1     146.959 136.827 147.387  1.00  0.00     0.021 C 
ATOM      6  C   UNL     1     146.027 136.475 148.554  1.00  0.00     0.044 C 
ATOM      7  C   UNL     1     145.297 137.730 149.059  1.00  0.00     0.140 C 
ENDROOT
BRANCH   7   8
ATOM      8  O   UNL     1     144.702 137.429 150.297  1.00  0.00    -0.389 OA
ATOM      9  H   UNL     1     144.434 136.473 150.276  1.00  0.00     0.211 HD
ENDBRANCH   7   8
BRANCH   5  10
ATOM     10  C   UNL     1     147.588 135.582 146.775  1.00  0.00    -0.077 C 
ATOM     11  C   UNL     1     146.841 134.486 146.562  1.00  0.00     0.008 C 
ATOM     12  C   UNL     1     149.047 135.544 146.391  1.00  0.00     0.039 C 
ENDBRANCH   5  10
TORSDOF 2
ENDMDL
MODEL 5
REMARK VINA RESULT:    -4.039      2.016      2.545
REMARK INTER + INTRA:          -4.488
REMARK INTER:                  -4.391
REMARK INTRA:                  -0.097
REMARK UNBOUND:                -0.095
REMARK SMILES C=C(C)[C@@H]1CC=C(C)[C@H](O)C1
REMARK SMILES IDX 8 1 7 2 6 3 5 4 4 5 11 6 9 7 10 8 2 10 1 11 3 12
REMARK H PARENT 10 9
REMARK Flexibility Score: inf
ROOT
ATOM      1  C   UNL     1     140.484 134.848 150.092  1.00  0.00     0.042 C 
ATOM      2  C   UNL     1     139.560 133.665 149.960  1.00  0.00    -0.049 C 
ATOM      3  C   UNL     1     139.467 133.055 148.758  1.00  0.00    -0.025 C 
ATOM      4  C   UNL     1     138.578 131.864 148.504  1.00  0.00     0.035 C 
ATOM      5  C   UNL     1     137.419 131.791 149.511  1.00  0.00     0.021 C 
ATOM      6  C   UNL     1     137.968 131.929 150.938  1.00  0.00     0.044 C 
ATOM      7  C   UNL     1     138.649 133.295 151.124  1.00  0.00     0.140 C 
ENDROOT
BRANCH   7   8
ATOM      8  O   UNL     1     139.390 133.261 152.318  1.00  0.00    -0.389 OA
ATOM      9  H   UNL     1     140.352 133.230 152.073  1.00  0.00     0.211 HD
ENDBRANCH   7   8
BRANCH   5  10
ATOM     10  C   UNL     1     136.617 130.508 149.339  1.00  0.00    -0.077 C 
ATOM     11  C   UNL     1     135.986 129.963 150.393  1.00  0.00     0.008 C 
ATOM     12  C   UNL     1     136.503 129.823 147.999  1.00  0.00     0.039 C 
ENDBRANCH   5  10
TORSDOF 2
ENDMDL
MODEL 6
REMARK VINA RESULT:    -4.024      2.221      4.000
REMARK INTER + INTRA:          -4.472
REMARK INTER:                  -4.377
REMARK INTRA:                  -0.096
REMARK UNBOUND:                -0.095
REMARK SMILES C=C(C)[C@@H]1CC=C(C)[C@H](O)C1
REMARK SMILES IDX 8 1 7 2 6 3 5 4 4 5 11 6 9 7 10 8 2 10 1 11 3 12
REMARK H PARENT 10 9
REMARK Flexibility Score: inf
ROOT
ATOM      1  C   UNL     1     135.634 129.819 150.274  1.00  0.00     0.042 C 
ATOM      2  C   UNL     1     136.752 130.822 150.159  1.00  0.00    -0.049 C 
ATOM      3  C   UNL     1     136.442 132.091 149.812  1.00  0.00    -0.025 C 
ATOM      4  C   UNL     1     137.473 133.181 149.665  1.00  0.00     0.035 C 
ATOM      5  C   UNL     1     138.871 132.611 149.378  1.00  0.00     0.021 C 
ATOM      6  C   UNL     1     139.196 131.510 150.397  1.00  0.00     0.044 C 
ATOM      7  C   UNL     1     138.196 130.349 150.275  1.00  0.00     0.140 C 
ENDROOT
BRANCH   7   8
ATOM      8  O   UNL     1     138.337 129.522 151.404  1.00  0.00    -0.389 OA
ATOM      9  H   UNL     1     138.320 128.581 151.089  1.00  0.00     0.211 HD
ENDBRANCH   7   8
BRANCH   5  10
ATOM     10  C   UNL     1     139.928 133.708 149.380  1.00  0.00    -0.077 C 
ATOM     11  C   UNL     1     140.141 134.434 150.490  1.00  0.00     0.008 C 
ATOM     12  C   UNL     1     140.759 134.003 148.156  1.00  0.00     0.039 C 
ENDBRANCH   5  10
TORSDOF 2
ENDMDL
MODEL 7
REMARK VINA RESULT:    -4.014      1.982      3.092
REMARK INTER + INTRA:          -4.461
REMARK INTER:                  -4.373
REMARK INTRA:                  -0.088
REMARK UNBOUND:                -0.095
REMARK SMILES C=C(C)[C@@H]1CC=C(C)[C@H](O)C1
REMARK SMILES IDX 8 1 7 2 6 3 5 4 4 5 11 6 9 7 10 8 2 10 1 11 3 12
REMARK H PARENT 10 9
REMARK Flexibility Score: inf
ROOT
ATOM      1  C   UNL     1     139.445 133.366 151.947  1.00  0.00     0.042 C 
ATOM      2  C   UNL     1     139.039 133.362 150.495  1.00  0.00    -0.049 C 
ATOM      3  C   UNL     1     137.722 133.324 150.198  1.00  0.00    -0.025 C 
ATOM      4  C   UNL     1     137.195 133.316 148.786  1.00  0.00     0.035 C 
ATOM      5  C   UNL     1     138.237 132.785 147.790  1.00  0.00     0.021 C 
ATOM      6  C   UNL     1     139.572 133.512 148.006  1.00  0.00     0.044 C 
ATOM      7  C   UNL     1     140.112 133.240 149.420  1.00  0.00     0.140 C 
ENDROOT
BRANCH   7   8
ATOM      8  O   UNL     1     141.153 134.148 149.679  1.00  0.00    -0.389 OA
ATOM      9  H   UNL     1     140.812 135.060 149.481  1.00  0.00     0.211 HD
ENDBRANCH   7   8
BRANCH   5  10
ATOM     10  C   UNL     1     137.750 132.922 146.353  1.00  0.00    -0.077 C 
ATOM     11  C   UNL     1     137.769 131.859 145.532  1.00  0.00     0.008 C 
ATOM     12  C   UNL     1     137.233 134.234 145.818  1.00  0.00     0.039 C 
ENDBRANCH   5  10
TORSDOF 2
ENDMDL
MODEL 8
REMARK VINA RESULT:    -4.002     12.524     13.907
REMARK INTER + INTRA:          -4.448
REMARK INTER:                  -4.360
REMARK INTRA:                  -0.088
REMARK UNBOUND:                -0.095
REMARK SMILES C=C(C)[C@@H]1CC=C(C)[C@H](O)C1
REMARK SMILES IDX 8 1 7 2 6 3 5 4 4 5 11 6 9 7 10 8 2 10 1 11 3 12
REMARK H PARENT 10 9
REMARK Flexibility Score: inf
ROOT
ATOM      1  C   UNL     1     140.520 143.909 146.000  1.00  0.00     0.042 C 
ATOM      2  C   UNL     1     141.554 143.751 144.915  1.00  0.00    -0.049 C 
ATOM      3  C   UNL     1     142.482 144.722 144.767  1.00  0.00    -0.025 C 
ATOM      4  C   UNL     1     143.565 144.675 143.719  1.00  0.00     0.035 C 
ATOM      5  C   UNL     1     143.174 143.779 142.534  1.00  0.00     0.021 C 
ATOM      6  C   UNL     1     142.684 142.421 143.055  1.00  0.00     0.044 C 
ATOM      7  C   UNL     1     141.429 142.599 143.925  1.00  0.00     0.140 C 
ENDROOT
BRANCH   7   8
ATOM      8  O   UNL     1     141.197 141.398 144.619  1.00  0.00    -0.389 OA
ATOM      9  H   UNL     1     142.070 140.935 144.717  1.00  0.00     0.211 HD
ENDBRANCH   7   8
BRANCH   5  10
ATOM     10  C   UNL     1     144.331 143.620 141.555  1.00  0.00    -0.077 C 
ATOM     11  C   UNL     1     144.640 144.618 140.712  1.00  0.00     0.008 C 
ATOM     12  C   UNL     1     145.156 142.357 141.510  1.00  0.00     0.039 C 
ENDBRANCH   5  10
TORSDOF 2
ENDMDL
MODEL 9
REMARK VINA RESULT:    -3.963     12.098     13.385
REMARK INTER + INTRA:          -4.406
REMARK INTER:                  -4.307
REMARK INTRA:                  -0.099
REMARK UNBOUND:                -0.095
REMARK SMILES C=C(C)[C@@H]1CC=C(C)[C@H](O)C1
REMARK SMILES IDX 8 1 7 2 6 3 5 4 4 5 11 6 9 7 10 8 2 10 1 11 3 12
REMARK H PARENT 10 9
REMARK Flexibility Score: inf
ROOT
ATOM      1  C   UNL     1     140.563 143.687 146.499  1.00  0.00     0.042 C 
ATOM      2  C   UNL     1     141.585 143.557 145.400  1.00  0.00    -0.049 C 
ATOM      3  C   UNL     1     141.298 144.087 144.190  1.00  0.00    -0.025 C 
ATOM      4  C   UNL     1     142.241 144.019 143.015  1.00  0.00     0.035 C 
ATOM      5  C   UNL     1     143.229 142.850 143.142  1.00  0.00     0.021 C 
ATOM      6  C   UNL     1     143.885 142.879 144.530  1.00  0.00     0.044 C 
ATOM      7  C   UNL     1     142.826 142.703 145.631  1.00  0.00     0.140 C 
ENDROOT
BRANCH   7   8
ATOM      8  O   UNL     1     143.411 143.037 146.865  1.00  0.00    -0.389 OA
ATOM      9  H   UNL     1     144.361 143.268 146.694  1.00  0.00     0.211 HD
ENDBRANCH   7   8
BRANCH   5  10
ATOM     10  C   UNL     1     144.269 142.880 142.030  1.00  0.00    -0.077 C 
ATOM     11  C   UNL     1     144.498 144.018 141.354  1.00  0.00     0.008 C 
ATOM     12  C   UNL     1     145.066 141.653 141.663  1.00  0.00     0.039 C 
ENDBRANCH   5  10
TORSDOF 2
ENDMDL
