MODEL 1
REMARK VINA RESULT:    -3.132      0.000      0.000
REMARK INTER + INTRA:          -3.802
REMARK INTER:                  -3.681
REMARK INTRA:                  -0.120
REMARK UNBOUND:                -0.120
REMARK SMILES O=C([O-])CCC(=O)[O-]
REMARK SMILES IDX 4 1 2 2 1 3 3 4 5 5 6 6 7 7 8 8
REMARK H PARENT
REMARK Flexibility Score: inf
ROOT
ATOM      1  C   UNL     1      74.500  11.942  19.580  1.00  0.00     0.059 C 
ENDROOT
BRANCH   1   2
ATOM      2  C   UNL     1      74.285  13.026  18.568  1.00  0.00     0.042 C 
ATOM      3  O   UNL     1      73.121  13.428  18.308  1.00  0.00    -0.550 OA
ATOM      4  O   UNL     1      75.368  13.562  17.882  1.00  0.00    -0.550 OA
ENDBRANCH   1   2
BRANCH   1   5
ATOM      5  C   UNL     1      75.934  11.950  20.121  1.00  0.00     0.059 C 
BRANCH   5   6
ATOM      6  C   UNL     1      76.689  10.726  19.700  1.00  0.00     0.042 C 
ATOM      7  O   UNL     1      77.379  10.087  20.539  1.00  0.00    -0.550 OA
ATOM      8  O   UNL     1      76.598  10.268  18.392  1.00  0.00    -0.550 OA
ENDBRANCH   5   6
ENDBRANCH   1   5
TORSDOF 3
ENDMDL
MODEL 2
REMARK VINA RESULT:    -3.107      1.444      3.636
REMARK INTER + INTRA:          -3.773
REMARK INTER:                  -3.601
REMARK INTRA:                  -0.171
REMARK UNBOUND:                -0.120
REMARK SMILES O=C([O-])CCC(=O)[O-]
REMARK SMILES IDX 4 1 2 2 1 3 3 4 5 5 6 6 7 7 8 8
REMARK H PARENT
REMARK Flexibility Score: inf
ROOT
ATOM      1  C   UNL     1      74.184  12.293  19.418  1.00  0.00     0.059 C 
ENDROOT
BRANCH   1   2
ATOM      2  C   UNL     1      75.496  11.594  19.606  1.00  0.00     0.042 C 
ATOM      3  O   UNL     1      76.232  11.881  20.586  1.00  0.00    -0.550 OA
ATOM      4  O   UNL     1      75.924  10.656  18.676  1.00  0.00    -0.550 OA
ENDBRANCH   1   2
BRANCH   1   5
ATOM      5  C   UNL     1      74.007  12.784  17.977  1.00  0.00     0.059 C 
BRANCH   5   6
ATOM      6  C   UNL     1      75.017  13.834  17.625  1.00  0.00     0.042 C 
ATOM      7  O   UNL     1      75.070  14.908  18.281  1.00  0.00    -0.550 OA
ATOM      8  O   UNL     1      75.925  13.609  16.598  1.00  0.00    -0.550 OA
ENDBRANCH   5   6
ENDBRANCH   1   5
TORSDOF 3
ENDMDL
MODEL 3
REMARK VINA RESULT:    -3.104      1.455      1.906
REMARK INTER + INTRA:          -3.768
REMARK INTER:                  -3.593
REMARK INTRA:                  -0.175
REMARK UNBOUND:                -0.120
REMARK SMILES O=C([O-])CCC(=O)[O-]
REMARK SMILES IDX 4 1 2 2 1 3 3 4 5 5 6 6 7 7 8 8
REMARK H PARENT
REMARK Flexibility Score: inf
ROOT
ATOM      1  C   UNL     1      74.006  12.773  17.971  1.00  0.00     0.059 C 
ENDROOT
BRANCH   1   2
ATOM      2  C   UNL     1      75.030  13.797  17.587  1.00  0.00     0.042 C 
ATOM      3  O   UNL     1      75.829  13.570  16.640  1.00  0.00    -0.550 OA
ATOM      4  O   UNL     1      75.130  14.984  18.301  1.00  0.00    -0.550 OA
ENDBRANCH   1   2
BRANCH   1   5
ATOM      5  C   UNL     1      74.195  12.299  19.417  1.00  0.00     0.059 C 
BRANCH   5   6
ATOM      6  C   UNL     1      75.506  11.597  19.599  1.00  0.00     0.042 C 
ATOM      7  O   UNL     1      76.250  11.885  20.574  1.00  0.00    -0.550 OA
ATOM      8  O   UNL     1      75.888  10.597  18.714  1.00  0.00    -0.550 OA
ENDBRANCH   5   6
ENDBRANCH   1   5
TORSDOF 3
ENDMDL
MODEL 4
REMARK VINA RESULT:    -3.053      1.439      3.905
REMARK INTER + INTRA:          -3.709
REMARK INTER:                  -3.594
REMARK INTRA:                  -0.114
REMARK UNBOUND:                -0.120
REMARK SMILES O=C([O-])CCC(=O)[O-]
REMARK SMILES IDX 4 1 2 2 1 3 3 4 5 5 6 6 7 7 8 8
REMARK H PARENT
REMARK Flexibility Score: inf
ROOT
ATOM      1  C   UNL     1      74.281  12.370  19.379  1.00  0.00     0.059 C 
ENDROOT
BRANCH   1   2
ATOM      2  C   UNL     1      75.555  11.603  19.559  1.00  0.00     0.042 C 
ATOM      3  O   UNL     1      75.899  10.738  18.711  1.00  0.00    -0.550 OA
ATOM      4  O   UNL     1      76.341  11.814  20.684  1.00  0.00    -0.550 OA
ENDBRANCH   1   2
BRANCH   1   5
ATOM      5  C   UNL     1      74.014  12.684  17.903  1.00  0.00     0.059 C 
BRANCH   5   6
ATOM      6  C   UNL     1      74.792  13.880  17.445  1.00  0.00     0.042 C 
ATOM      7  O   UNL     1      75.156  13.977  16.243  1.00  0.00    -0.550 OA
ATOM      8  O   UNL     1      75.080  14.905  18.336  1.00  0.00    -0.550 OA
ENDBRANCH   5   6
ENDBRANCH   1   5
TORSDOF 3
ENDMDL
MODEL 5
REMARK VINA RESULT:    -3.039      0.739      3.836
REMARK INTER + INTRA:          -3.692
REMARK INTER:                  -3.586
REMARK INTRA:                  -0.106
REMARK UNBOUND:                -0.120
REMARK SMILES O=C([O-])CCC(=O)[O-]
REMARK SMILES IDX 4 1 2 2 1 3 3 4 5 5 6 6 7 7 8 8
REMARK H PARENT
REMARK Flexibility Score: inf
ROOT
ATOM      1  C   UNL     1      75.761  11.892  20.092  1.00  0.00     0.059 C 
ENDROOT
BRANCH   1   2
ATOM      2  C   UNL     1      76.544  10.684  19.676  1.00  0.00     0.042 C 
ATOM      3  O   UNL     1      77.354  10.146  20.476  1.00  0.00    -0.550 OA
ATOM      4  O   UNL     1      76.408  10.177  18.390  1.00  0.00    -0.550 OA
ENDBRANCH   1   2
BRANCH   1   5
ATOM      5  C   UNL     1      74.422  11.981  19.352  1.00  0.00     0.059 C 
BRANCH   5   6
ATOM      6  C   UNL     1      74.435  13.066  18.319  1.00  0.00     0.042 C 
ATOM      7  O   UNL     1      74.274  14.268  18.659  1.00  0.00    -0.550 OA
ATOM      8  O   UNL     1      74.665  12.753  16.985  1.00  0.00    -0.550 OA
ENDBRANCH   5   6
ENDBRANCH   1   5
TORSDOF 3
ENDMDL
MODEL 6
REMARK VINA RESULT:    -2.932      4.858      6.542
REMARK INTER + INTRA:          -3.566
REMARK INTER:                  -3.423
REMARK INTRA:                  -0.143
REMARK UNBOUND:                -0.120
REMARK SMILES O=C([O-])CCC(=O)[O-]
REMARK SMILES IDX 4 1 2 2 1 3 3 4 5 5 6 6 7 7 8 8
REMARK H PARENT
REMARK Flexibility Score: inf
ROOT
ATOM      1  C   UNL     1      74.615  16.508  15.225  1.00  0.00     0.059 C 
ENDROOT
BRANCH   1   2
ATOM      2  C   UNL     1      75.099  15.128  15.549  1.00  0.00     0.042 C 
ATOM      3  O   UNL     1      74.779  14.584  16.639  1.00  0.00    -0.550 OA
ATOM      4  O   UNL     1      75.936  14.458  14.665  1.00  0.00    -0.550 OA
ENDBRANCH   1   2
BRANCH   1   5
ATOM      5  C   UNL     1      75.225  17.555  16.164  1.00  0.00     0.059 C 
BRANCH   5   6
ATOM      6  C   UNL     1      76.630  17.896  15.770  1.00  0.00     0.042 C 
ATOM      7  O   UNL     1      77.597  17.522  16.486  1.00  0.00    -0.550 OA
ATOM      8  O   UNL     1      76.873  18.592  14.593  1.00  0.00    -0.550 OA
ENDBRANCH   5   6
ENDBRANCH   1   5
TORSDOF 3
ENDMDL
MODEL 7
REMARK VINA RESULT:    -2.931      4.838      6.381
REMARK INTER + INTRA:          -3.565
REMARK INTER:                  -3.418
REMARK INTRA:                  -0.147
REMARK UNBOUND:                -0.120
REMARK SMILES O=C([O-])CCC(=O)[O-]
REMARK SMILES IDX 4 1 2 2 1 3 3 4 5 5 6 6 7 7 8 8
REMARK H PARENT
REMARK Flexibility Score: inf
ROOT
ATOM      1  C   UNL     1      75.254  17.580  16.098  1.00  0.00     0.059 C 
ENDROOT
BRANCH   1   2
ATOM      2  C   UNL     1      76.659  17.910  15.694  1.00  0.00     0.042 C 
ATOM      3  O   UNL     1      76.877  18.573  14.647  1.00  0.00    -0.550 OA
ATOM      4  O   UNL     1      77.727  17.449  16.452  1.00  0.00    -0.550 OA
ENDBRANCH   1   2
BRANCH   1   5
ATOM      5  C   UNL     1      74.637  16.517  15.183  1.00  0.00     0.059 C 
BRANCH   5   6
ATOM      6  C   UNL     1      75.125  15.142  15.529  1.00  0.00     0.042 C 
ATOM      7  O   UNL     1      75.746  14.456  14.675  1.00  0.00    -0.550 OA
ATOM      8  O   UNL     1      74.928  14.636  16.808  1.00  0.00    -0.550 OA
ENDBRANCH   5   6
ENDBRANCH   1   5
TORSDOF 3
ENDMDL
MODEL 8
REMARK VINA RESULT:    -2.921      3.180      5.278
REMARK INTER + INTRA:          -3.554
REMARK INTER:                  -3.450
REMARK INTRA:                  -0.103
REMARK UNBOUND:                -0.120
REMARK SMILES O=C([O-])CCC(=O)[O-]
REMARK SMILES IDX 4 1 2 2 1 3 3 4 5 5 6 6 7 7 8 8
REMARK H PARENT
REMARK Flexibility Score: inf
ROOT
ATOM      1  C   UNL     1      75.221  14.964  18.126  1.00  0.00     0.059 C 
ENDROOT
BRANCH   1   2
ATOM      2  C   UNL     1      74.494  13.704  17.770  1.00  0.00     0.042 C 
ATOM      3  O   UNL     1      74.803  13.066  16.729  1.00  0.00    -0.550 OA
ATOM      4  O   UNL     1      73.448  13.255  18.566  1.00  0.00    -0.550 OA
ENDBRANCH   1   2
BRANCH   1   5
ATOM      5  C   UNL     1      76.025  15.507  16.939  1.00  0.00     0.059 C 
BRANCH   5   6
ATOM      6  C   UNL     1      75.246  16.529  16.168  1.00  0.00     0.042 C 
ATOM      7  O   UNL     1      74.849  17.583  16.733  1.00  0.00    -0.550 OA
ATOM      8  O   UNL     1      74.995  16.337  14.815  1.00  0.00    -0.550 OA
ENDBRANCH   5   6
ENDBRANCH   1   5
TORSDOF 3
ENDMDL
MODEL 9
REMARK VINA RESULT:    -2.910      2.276      3.218
REMARK INTER + INTRA:          -3.541
REMARK INTER:                  -3.417
REMARK INTRA:                  -0.124
REMARK UNBOUND:                -0.120
REMARK SMILES O=C([O-])CCC(=O)[O-]
REMARK SMILES IDX 4 1 2 2 1 3 3 4 5 5 6 6 7 7 8 8
REMARK H PARENT
REMARK Flexibility Score: inf
ROOT
ATOM      1  C   UNL     1      75.096  14.423  17.403  1.00  0.00     0.059 C 
ENDROOT
BRANCH   1   2
ATOM      2  C   UNL     1      75.105  14.430  15.905  1.00  0.00     0.042 C 
ATOM      3  O   UNL     1      75.153  13.346  15.267  1.00  0.00    -0.550 OA
ATOM      4  O   UNL     1      75.100  15.635  15.215  1.00  0.00    -0.550 OA
ENDBRANCH   1   2
BRANCH   1   5
ATOM      5  C   UNL     1      74.002  13.506  17.958  1.00  0.00     0.059 C 
BRANCH   5   6
ATOM      6  C   UNL     1      74.583  12.340  18.699  1.00  0.00     0.042 C 
ATOM      7  O   UNL     1      74.016  11.898  19.733  1.00  0.00    -0.550 OA
ATOM      8  O   UNL     1      75.730  11.717  18.223  1.00  0.00    -0.550 OA
ENDBRANCH   5   6
ENDBRANCH   1   5
TORSDOF 3
ENDMDL
