MODEL 1
REMARK VINA RESULT:    -4.563      0.000      0.000
REMARK INTER + INTRA:          -5.927
REMARK INTER:                  -5.630
REMARK INTRA:                  -0.297
REMARK UNBOUND:                -0.297
REMARK SMILES COc1cc(C=O)ccc1OC(C)=O
REMARK SMILES IDX 10 1 3 2 4 3 5 4 8 5 9 6 11 7 12 8 13 9 14 10 2 11 1 12 6 13
REMARK SMILES IDX 7 14
REMARK H PARENT
REMARK Flexibility Score: inf
ROOT
ATOM      1  C   UNL     1      -2.807 -48.347  17.994  1.00  0.00     0.172 A 
ATOM      2  C   UNL     1      -2.642 -46.945  17.987  1.00  0.00     0.162 A 
ATOM      3  C   UNL     1      -3.513 -46.146  18.755  1.00  0.00     0.062 A 
ATOM      4  C   UNL     1      -4.515 -46.731  19.542  1.00  0.00     0.018 A 
ATOM      5  C   UNL     1      -4.643 -48.128  19.567  1.00  0.00     0.015 A 
ATOM      6  C   UNL     1      -3.790 -48.925  18.802  1.00  0.00     0.052 A 
ENDROOT
BRANCH   1   7
ATOM      7  O   UNL     1      -1.985 -49.195  17.239  1.00  0.00    -0.423 OA
BRANCH   7   8
ATOM      8  C   UNL     1      -2.170 -49.470  15.879  1.00  0.00     0.308 C 
ATOM      9  C   UNL     1      -3.431 -50.122  15.428  1.00  0.00     0.139 C 
ATOM     10  O   UNL     1      -1.324 -49.093  15.023  1.00  0.00    -0.252 OA
ENDBRANCH   7   8
ENDBRANCH   1   7
BRANCH   2  11
ATOM     11  O   UNL     1      -1.593 -46.387  17.237  1.00  0.00    -0.493 OA
ATOM     12  C   UNL     1      -1.727 -45.268  16.366  1.00  0.00     0.278 C 
ENDBRANCH   2  11
BRANCH   4  13
ATOM     13  C   UNL     1      -5.411 -45.872  20.339  1.00  0.00     0.260 C 
ATOM     14  O   UNL     1      -6.508 -45.466  19.874  1.00  0.00    -0.298 OA
ENDBRANCH   4  13
TORSDOF 4
ENDMDL
MODEL 2
REMARK VINA RESULT:    -4.452      1.723      5.061
REMARK INTER + INTRA:          -5.790
REMARK INTER:                  -5.521
REMARK INTRA:                  -0.269
REMARK UNBOUND:                -0.297
REMARK SMILES COc1cc(C=O)ccc1OC(C)=O
REMARK SMILES IDX 10 1 3 2 4 3 5 4 8 5 9 6 11 7 12 8 13 9 14 10 2 11 1 12 6 13
REMARK SMILES IDX 7 14
REMARK H PARENT
REMARK Flexibility Score: inf
ROOT
ATOM      1  C   UNL     1      -3.300 -48.251  17.042  1.00  0.00     0.172 A 
ATOM      2  C   UNL     1      -1.988 -47.730  17.078  1.00  0.00     0.162 A 
ATOM      3  C   UNL     1      -0.976 -48.364  16.331  1.00  0.00     0.062 A 
ATOM      4  C   UNL     1      -1.265 -49.482  15.534  1.00  0.00     0.018 A 
ATOM      5  C   UNL     1      -2.581 -49.966  15.481  1.00  0.00     0.015 A 
ATOM      6  C   UNL     1      -3.587 -49.349  16.225  1.00  0.00     0.052 A 
ENDROOT
BRANCH   1   7
ATOM      7  O   UNL     1      -4.347 -47.677  17.774  1.00  0.00    -0.423 OA
BRANCH   7   8
ATOM      8  C   UNL     1      -4.567 -47.893  19.140  1.00  0.00     0.308 C 
ATOM      9  C   UNL     1      -4.854 -46.731  20.027  1.00  0.00     0.139 C 
ATOM     10  O   UNL     1      -4.614 -49.061  19.611  1.00  0.00    -0.252 OA
ENDBRANCH   7   8
ENDBRANCH   1   7
BRANCH   2  11
ATOM     11  O   UNL     1      -1.736 -46.574  17.834  1.00  0.00    -0.493 OA
ATOM     12  C   UNL     1      -1.988 -45.244  17.391  1.00  0.00     0.278 C 
ENDBRANCH   2  11
BRANCH   4  13
ATOM     13  C   UNL     1      -0.187 -50.125  14.760  1.00  0.00     0.260 C 
ATOM     14  O   UNL     1       0.119 -49.719  13.608  1.00  0.00    -0.298 OA
ENDBRANCH   4  13
TORSDOF 4
ENDMDL
MODEL 3
REMARK VINA RESULT:    -4.448      1.542      4.921
REMARK INTER + INTRA:          -5.784
REMARK INTER:                  -5.500
REMARK INTRA:                  -0.284
REMARK UNBOUND:                -0.297
REMARK SMILES COc1cc(C=O)ccc1OC(C)=O
REMARK SMILES IDX 10 1 3 2 4 3 5 4 8 5 9 6 11 7 12 8 13 9 14 10 2 11 1 12 6 13
REMARK SMILES IDX 7 14
REMARK H PARENT
REMARK Flexibility Score: inf
ROOT
ATOM      1  C   UNL     1      -4.497 -47.367  18.980  1.00  0.00     0.172 A 
ATOM      2  C   UNL     1      -3.139 -47.009  18.835  1.00  0.00     0.162 A 
ATOM      3  C   UNL     1      -2.342 -47.697  17.899  1.00  0.00     0.062 A 
ATOM      4  C   UNL     1      -2.891 -48.706  17.094  1.00  0.00     0.018 A 
ATOM      5  C   UNL     1      -4.251 -49.026  17.224  1.00  0.00     0.015 A 
ATOM      6  C   UNL     1      -5.044 -48.355  18.156  1.00  0.00     0.052 A 
ENDROOT
BRANCH   1   7
ATOM      7  O   UNL     1      -5.338 -46.733  19.904  1.00  0.00    -0.423 OA
BRANCH   7   8
ATOM      8  C   UNL     1      -6.127 -45.614  19.616  1.00  0.00     0.308 C 
ATOM      9  C   UNL     1      -6.769 -44.865  20.733  1.00  0.00     0.139 C 
ATOM     10  O   UNL     1      -6.231 -45.182  18.437  1.00  0.00    -0.252 OA
ENDBRANCH   7   8
ENDBRANCH   1   7
BRANCH   2  11
ATOM     11  O   UNL     1      -2.627 -45.955  19.609  1.00  0.00    -0.493 OA
ATOM     12  C   UNL     1      -2.658 -44.582  19.230  1.00  0.00     0.278 C 
ENDBRANCH   2  11
BRANCH   4  13
ATOM     13  C   UNL     1      -2.036 -49.409  16.119  1.00  0.00     0.260 C 
ATOM     14  O   UNL     1      -0.977 -49.987  16.479  1.00  0.00    -0.298 OA
ENDBRANCH   4  13
TORSDOF 4
ENDMDL
MODEL 4
REMARK VINA RESULT:    -4.424     15.971     18.635
REMARK INTER + INTRA:          -5.755
REMARK INTER:                  -5.420
REMARK INTRA:                  -0.334
REMARK UNBOUND:                -0.297
REMARK SMILES COc1cc(C=O)ccc1OC(C)=O
REMARK SMILES IDX 10 1 3 2 4 3 5 4 8 5 9 6 11 7 12 8 13 9 14 10 2 11 1 12 6 13
REMARK SMILES IDX 7 14
REMARK H PARENT
REMARK Flexibility Score: inf
ROOT
ATOM      1  C   UNL     1       7.949 -33.669  18.986  1.00  0.00     0.172 A 
ATOM      2  C   UNL     1       7.336 -32.430  18.699  1.00  0.00     0.162 A 
ATOM      3  C   UNL     1       7.995 -31.516  17.853  1.00  0.00     0.062 A 
ATOM      4  C   UNL     1       9.232 -31.837  17.275  1.00  0.00     0.018 A 
ATOM      5  C   UNL     1       9.811 -33.087  17.541  1.00  0.00     0.015 A 
ATOM      6  C   UNL     1       9.169 -33.994  18.385  1.00  0.00     0.052 A 
ENDROOT
BRANCH   1   7
ATOM      7  O   UNL     1       7.354 -34.614  19.832  1.00  0.00    -0.423 OA
BRANCH   7   8
ATOM      8  C   UNL     1       6.779 -35.813  19.397  1.00  0.00     0.308 C 
ATOM      9  C   UNL     1       5.969 -35.825  18.147  1.00  0.00     0.139 C 
ATOM     10  O   UNL     1       7.010 -36.897  19.999  1.00  0.00    -0.252 OA
ENDBRANCH   7   8
ENDBRANCH   1   7
BRANCH   2  11
ATOM     11  O   UNL     1       6.069 -32.155  19.241  1.00  0.00    -0.493 OA
ATOM     12  C   UNL     1       5.277 -31.019  18.911  1.00  0.00     0.278 C 
ENDBRANCH   2  11
BRANCH   4  13
ATOM     13  C   UNL     1       9.899 -30.864  16.390  1.00  0.00     0.260 C 
ATOM     14  O   UNL     1       9.327 -30.420  15.361  1.00  0.00    -0.298 OA
ENDBRANCH   4  13
TORSDOF 4
ENDMDL
MODEL 5
REMARK VINA RESULT:    -4.421     14.256     17.047
REMARK INTER + INTRA:          -5.751
REMARK INTER:                  -5.456
REMARK INTRA:                  -0.296
REMARK UNBOUND:                -0.297
REMARK SMILES COc1cc(C=O)ccc1OC(C)=O
REMARK SMILES IDX 10 1 3 2 4 3 5 4 8 5 9 6 11 7 12 8 13 9 14 10 2 11 1 12 6 13
REMARK SMILES IDX 7 14
REMARK H PARENT
REMARK Flexibility Score: inf
ROOT
ATOM      1  C   UNL     1       7.669 -34.904  18.727  1.00  0.00     0.172 A 
ATOM      2  C   UNL     1       8.228 -35.213  17.468  1.00  0.00     0.162 A 
ATOM      3  C   UNL     1       8.024 -36.496  16.922  1.00  0.00     0.062 A 
ATOM      4  C   UNL     1       7.252 -37.450  17.601  1.00  0.00     0.018 A 
ATOM      5  C   UNL     1       6.673 -37.115  18.835  1.00  0.00     0.015 A 
ATOM      6  C   UNL     1       6.878 -35.850  19.386  1.00  0.00     0.052 A 
ENDROOT
BRANCH   1   7
ATOM      7  O   UNL     1       7.849 -33.652  19.332  1.00  0.00    -0.423 OA
BRANCH   7   8
ATOM      8  C   UNL     1       7.011 -32.550  19.130  1.00  0.00     0.308 C 
ATOM      9  C   UNL     1       7.447 -31.457  18.216  1.00  0.00     0.139 C 
ATOM     10  O   UNL     1       5.859 -32.511  19.641  1.00  0.00    -0.252 OA
ENDBRANCH   7   8
ENDBRANCH   1   7
BRANCH   2  11
ATOM     11  O   UNL     1       8.946 -34.221  16.780  1.00  0.00    -0.493 OA
ATOM     12  C   UNL     1      10.324 -33.928  16.988  1.00  0.00     0.278 C 
ENDBRANCH   2  11
BRANCH   4  13
ATOM     13  C   UNL     1       7.052 -38.785  17.006  1.00  0.00     0.260 C 
ATOM     14  O   UNL     1       7.463 -39.824  17.584  1.00  0.00    -0.298 OA
ENDBRANCH   4  13
TORSDOF 4
ENDMDL
MODEL 6
REMARK VINA RESULT:    -4.359      1.677      4.807
REMARK INTER + INTRA:          -5.675
REMARK INTER:                  -5.335
REMARK INTRA:                  -0.340
REMARK UNBOUND:                -0.297
REMARK SMILES COc1cc(C=O)ccc1OC(C)=O
REMARK SMILES IDX 10 1 3 2 4 3 5 4 8 5 9 6 11 7 12 8 13 9 14 10 2 11 1 12 6 13
REMARK SMILES IDX 7 14
REMARK H PARENT
REMARK Flexibility Score: inf
ROOT
ATOM      1  C   UNL     1      -2.495 -47.185  18.166  1.00  0.00     0.172 A 
ATOM      2  C   UNL     1      -1.999 -46.544  17.010  1.00  0.00     0.162 A 
ATOM      3  C   UNL     1      -1.415 -47.320  15.989  1.00  0.00     0.062 A 
ATOM      4  C   UNL     1      -1.351 -48.717  16.099  1.00  0.00     0.018 A 
ATOM      5  C   UNL     1      -1.880 -49.343  17.238  1.00  0.00     0.015 A 
ATOM      6  C   UNL     1      -2.452 -48.580  18.257  1.00  0.00     0.052 A 
ENDROOT
BRANCH   1   7
ATOM      7  O   UNL     1      -3.071 -46.469  19.223  1.00  0.00    -0.423 OA
BRANCH   7   8
ATOM      8  C   UNL     1      -4.411 -46.577  19.613  1.00  0.00     0.308 C 
ATOM      9  C   UNL     1      -5.485 -46.450  18.588  1.00  0.00     0.139 C 
ATOM     10  O   UNL     1      -4.717 -46.868  20.801  1.00  0.00    -0.252 OA
ENDBRANCH   7   8
ENDBRANCH   1   7
BRANCH   2  11
ATOM     11  O   UNL     1      -2.130 -45.150  16.896  1.00  0.00    -0.493 OA
ATOM     12  C   UNL     1      -2.427 -44.461  15.686  1.00  0.00     0.278 C 
ENDBRANCH   2  11
BRANCH   4  13
ATOM     13  C   UNL     1      -0.737 -49.507  15.015  1.00  0.00     0.260 C 
ATOM     14  O   UNL     1      -1.296 -49.616  13.892  1.00  0.00    -0.298 OA
ENDBRANCH   4  13
TORSDOF 4
ENDMDL
MODEL 7
REMARK VINA RESULT:    -4.283      1.727      2.980
REMARK INTER + INTRA:          -5.581
REMARK INTER:                  -5.261
REMARK INTRA:                  -0.320
REMARK UNBOUND:                -0.297
REMARK SMILES COc1cc(C=O)ccc1OC(C)=O
REMARK SMILES IDX 10 1 3 2 4 3 5 4 8 5 9 6 11 7 12 8 13 9 14 10 2 11 1 12 6 13
REMARK SMILES IDX 7 14
REMARK H PARENT
REMARK Flexibility Score: inf
ROOT
ATOM      1  C   UNL     1      -2.826 -46.368  18.908  1.00  0.00     0.172 A 
ATOM      2  C   UNL     1      -4.071 -46.931  19.264  1.00  0.00     0.162 A 
ATOM      3  C   UNL     1      -5.117 -46.081  19.675  1.00  0.00     0.062 A 
ATOM      4  C   UNL     1      -4.942 -44.690  19.703  1.00  0.00     0.018 A 
ATOM      5  C   UNL     1      -3.710 -44.144  19.311  1.00  0.00     0.015 A 
ATOM      6  C   UNL     1      -2.666 -44.979  18.912  1.00  0.00     0.052 A 
ENDROOT
BRANCH   1   7
ATOM      7  O   UNL     1      -1.741 -47.160  18.507  1.00  0.00    -0.423 OA
BRANCH   7   8
ATOM      8  C   UNL     1      -1.541 -47.625  17.202  1.00  0.00     0.308 C 
ATOM      9  C   UNL     1      -1.214 -49.061  16.979  1.00  0.00     0.139 C 
ATOM     10  O   UNL     1      -1.722 -46.867  16.211  1.00  0.00    -0.252 OA
ENDBRANCH   7   8
ENDBRANCH   1   7
BRANCH   2  11
ATOM     11  O   UNL     1      -4.241 -48.322  19.170  1.00  0.00    -0.493 OA
ATOM     12  C   UNL     1      -4.905 -48.986  18.098  1.00  0.00     0.278 C 
ENDBRANCH   2  11
BRANCH   4  13
ATOM     13  C   UNL     1      -6.054 -43.823  20.134  1.00  0.00     0.260 C 
ATOM     14  O   UNL     1      -7.232 -44.260  20.204  1.00  0.00    -0.298 OA
ENDBRANCH   4  13
TORSDOF 4
ENDMDL
MODEL 8
REMARK VINA RESULT:    -4.222     14.960     17.747
REMARK INTER + INTRA:          -5.507
REMARK INTER:                  -5.131
REMARK INTRA:                  -0.376
REMARK UNBOUND:                -0.297
REMARK SMILES COc1cc(C=O)ccc1OC(C)=O
REMARK SMILES IDX 10 1 3 2 4 3 5 4 8 5 9 6 11 7 12 8 13 9 14 10 2 11 1 12 6 13
REMARK SMILES IDX 7 14
REMARK H PARENT
REMARK Flexibility Score: inf
ROOT
ATOM      1  C   UNL     1       8.578 -34.201  18.071  1.00  0.00     0.172 A 
ATOM      2  C   UNL     1       7.704 -34.709  19.056  1.00  0.00     0.162 A 
ATOM      3  C   UNL     1       7.048 -35.935  18.829  1.00  0.00     0.062 A 
ATOM      4  C   UNL     1       7.280 -36.664  17.653  1.00  0.00     0.018 A 
ATOM      5  C   UNL     1       8.180 -36.165  16.700  1.00  0.00     0.015 A 
ATOM      6  C   UNL     1       8.826 -34.946  16.914  1.00  0.00     0.052 A 
ENDROOT
BRANCH   1   7
ATOM      7  O   UNL     1       9.247 -32.980  18.229  1.00  0.00    -0.423 OA
BRANCH   7   8
ATOM      8  C   UNL     1       8.821 -31.768  17.675  1.00  0.00     0.308 C 
ATOM      9  C   UNL     1       9.677 -31.085  16.664  1.00  0.00     0.139 C 
ATOM     10  O   UNL     1       7.687 -31.294  17.951  1.00  0.00    -0.252 OA
ENDBRANCH   7   8
ENDBRANCH   1   7
BRANCH   2  11
ATOM     11  O   UNL     1       7.535 -33.990  20.252  1.00  0.00    -0.493 OA
ATOM     12  C   UNL     1       6.408 -33.174  20.553  1.00  0.00     0.278 C 
ENDBRANCH   2  11
BRANCH   4  13
ATOM     13  C   UNL     1       6.583 -37.947  17.441  1.00  0.00     0.260 C 
ATOM     14  O   UNL     1       6.981 -39.004  17.996  1.00  0.00    -0.298 OA
ENDBRANCH   4  13
TORSDOF 4
ENDMDL
MODEL 9
REMARK VINA RESULT:    -4.185      1.941      2.762
REMARK INTER + INTRA:          -5.461
REMARK INTER:                  -5.157
REMARK INTRA:                  -0.304
REMARK UNBOUND:                -0.297
REMARK SMILES COc1cc(C=O)ccc1OC(C)=O
REMARK SMILES IDX 10 1 3 2 4 3 5 4 8 5 9 6 11 7 12 8 13 9 14 10 2 11 1 12 6 13
REMARK SMILES IDX 7 14
REMARK H PARENT
REMARK Flexibility Score: inf
ROOT
ATOM      1  C   UNL     1      -4.525 -47.329  18.823  1.00  0.00     0.172 A 
ATOM      2  C   UNL     1      -5.250 -46.532  17.911  1.00  0.00     0.162 A 
ATOM      3  C   UNL     1      -6.088 -45.512  18.403  1.00  0.00     0.062 A 
ATOM      4  C   UNL     1      -6.183 -45.264  19.780  1.00  0.00     0.018 A 
ATOM      5  C   UNL     1      -5.427 -46.040  20.673  1.00  0.00     0.015 A 
ATOM      6  C   UNL     1      -4.602 -47.058  20.193  1.00  0.00     0.052 A 
ENDROOT
BRANCH   1   7
ATOM      7  O   UNL     1      -3.688 -48.369  18.399  1.00  0.00    -0.423 OA
BRANCH   7   8
ATOM      8  C   UNL     1      -2.353 -48.202  18.013  1.00  0.00     0.308 C 
ATOM      9  C   UNL     1      -1.660 -46.918  18.312  1.00  0.00     0.139 C 
ATOM     10  O   UNL     1      -1.705 -49.153  17.498  1.00  0.00    -0.252 OA
ENDBRANCH   7   8
ENDBRANCH   1   7
BRANCH   2  11
ATOM     11  O   UNL     1      -5.093 -46.760  16.534  1.00  0.00    -0.493 OA
ATOM     12  C   UNL     1      -4.280 -45.971  15.670  1.00  0.00     0.278 C 
ENDBRANCH   2  11
BRANCH   4  13
ATOM     13  C   UNL     1      -7.065 -44.188  20.270  1.00  0.00     0.260 C 
ATOM     14  O   UNL     1      -7.673 -43.430  19.470  1.00  0.00    -0.298 OA
ENDBRANCH   4  13
TORSDOF 4
ENDMDL
