MODEL 1
REMARK VINA RESULT:    -5.412      0.000      0.000
REMARK INTER + INTRA:          -5.412
REMARK INTER:                  -5.412
REMARK INTRA:                   0.000
REMARK UNBOUND:                 0.000
REMARK SMILES O=c1ccc2ccccc2o1
REMARK SMILES IDX 7 1 8 2 9 3 10 4 5 5 6 6 4 7 3 8 2 9 1 10 11 11
REMARK H PARENT
REMARK Flexibility Score: inf
ROOT
ATOM      1  C   UNL     1      -3.620  14.386   8.677  1.00  0.00     0.001 A 
ATOM      2  C   UNL     1      -4.703  14.760   9.481  1.00  0.00     0.004 A 
ATOM      3  C   UNL     1      -5.998  14.769   8.956  1.00  0.00     0.048 A 
ATOM      4  C   UNL     1      -6.218  14.404   7.623  1.00  0.00     0.138 A 
ATOM      5  C   UNL     1      -5.125  14.028   6.811  1.00  0.00     0.018 A 
ATOM      6  C   UNL     1      -3.828  14.021   7.343  1.00  0.00     0.012 A 
ATOM      7  C   UNL     1      -5.374  13.668   5.483  1.00  0.00     0.019 A 
ATOM      8  C   UNL     1      -6.683  13.693   5.002  1.00  0.00     0.094 A 
ATOM      9  C   UNL     1      -7.716  14.077   5.865  1.00  0.00     0.336 A 
ATOM     10  O   UNL     1      -8.904  14.104   5.449  1.00  0.00    -0.246 OA
ATOM     11  O   UNL     1      -7.452  14.414   7.124  1.00  0.00    -0.423 OA
ENDROOT
TORSDOF 0
ENDMDL
MODEL 2
REMARK VINA RESULT:    -5.344      2.082      3.287
REMARK INTER + INTRA:          -5.344
REMARK INTER:                  -5.344
REMARK INTRA:                   0.000
REMARK UNBOUND:                 0.000
REMARK SMILES O=c1ccc2ccccc2o1
REMARK SMILES IDX 7 1 8 2 9 3 10 4 5 5 6 6 4 7 3 8 2 9 1 10 11 11
REMARK H PARENT
REMARK Flexibility Score: inf
ROOT
ATOM      1  C   UNL     1      -5.504  13.622   5.370  1.00  0.00     0.001 A 
ATOM      2  C   UNL     1      -4.918  14.523   6.266  1.00  0.00     0.004 A 
ATOM      3  C   UNL     1      -5.685  15.536   6.849  1.00  0.00     0.048 A 
ATOM      4  C   UNL     1      -7.044  15.653   6.538  1.00  0.00     0.138 A 
ATOM      5  C   UNL     1      -7.637  14.744   5.632  1.00  0.00     0.018 A 
ATOM      6  C   UNL     1      -6.862  13.731   5.051  1.00  0.00     0.012 A 
ATOM      7  C   UNL     1      -8.997  14.886   5.340  1.00  0.00     0.019 A 
ATOM      8  C   UNL     1      -9.723  15.911   5.944  1.00  0.00     0.094 A 
ATOM      9  C   UNL     1      -9.069  16.775   6.832  1.00  0.00     0.336 A 
ATOM     10  O   UNL     1      -9.708  17.706   7.387  1.00  0.00    -0.246 OA
ATOM     11  O   UNL     1      -7.774  16.618   7.092  1.00  0.00    -0.423 OA
ENDROOT
TORSDOF 0
ENDMDL
MODEL 3
REMARK VINA RESULT:    -5.296      2.009      3.932
REMARK INTER + INTRA:          -5.296
REMARK INTER:                  -5.296
REMARK INTRA:                   0.000
REMARK UNBOUND:                 0.000
REMARK SMILES O=c1ccc2ccccc2o1
REMARK SMILES IDX 7 1 8 2 9 3 10 4 5 5 6 6 4 7 3 8 2 9 1 10 11 11
REMARK H PARENT
REMARK Flexibility Score: inf
ROOT
ATOM      1  C   UNL     1      -9.645  15.881   5.723  1.00  0.00     0.001 A 
ATOM      2  C   UNL     1      -9.224  16.541   6.883  1.00  0.00     0.004 A 
ATOM      3  C   UNL     1      -7.952  16.294   7.410  1.00  0.00     0.048 A 
ATOM      4  C   UNL     1      -7.096  15.385   6.778  1.00  0.00     0.138 A 
ATOM      5  C   UNL     1      -7.522  14.718   5.608  1.00  0.00     0.018 A 
ATOM      6  C   UNL     1      -8.798  14.970   5.084  1.00  0.00     0.012 A 
ATOM      7  C   UNL     1      -6.645  13.815   4.999  1.00  0.00     0.019 A 
ATOM      8  C   UNL     1      -5.387  13.600   5.559  1.00  0.00     0.094 A 
ATOM      9  C   UNL     1      -5.033  14.296   6.721  1.00  0.00     0.336 A 
ATOM     10  O   UNL     1      -3.902  14.115   7.242  1.00  0.00    -0.246 OA
ATOM     11  O   UNL     1      -5.886  15.150   7.281  1.00  0.00    -0.423 OA
ENDROOT
TORSDOF 0
ENDMDL
MODEL 4
REMARK VINA RESULT:    -5.198      1.665      3.860
REMARK INTER + INTRA:          -5.198
REMARK INTER:                  -5.198
REMARK INTRA:                   0.000
REMARK UNBOUND:                 0.000
REMARK SMILES O=c1ccc2ccccc2o1
REMARK SMILES IDX 7 1 8 2 9 3 10 4 5 5 6 6 4 7 3 8 2 9 1 10 11 11
REMARK H PARENT
REMARK Flexibility Score: inf
ROOT
ATOM      1  C   UNL     1      -6.713  13.807   5.050  1.00  0.00     0.001 A 
ATOM      2  C   UNL     1      -7.710  14.366   5.856  1.00  0.00     0.004 A 
ATOM      3  C   UNL     1      -7.409  14.795   7.152  1.00  0.00     0.048 A 
ATOM      4  C   UNL     1      -6.106  14.667   7.648  1.00  0.00     0.138 A 
ATOM      5  C   UNL     1      -5.099  14.102   6.834  1.00  0.00     0.018 A 
ATOM      6  C   UNL     1      -5.408  13.673   5.535  1.00  0.00     0.012 A 
ATOM      7  C   UNL     1      -3.807  13.986   7.356  1.00  0.00     0.019 A 
ATOM      8  C   UNL     1      -3.552  14.427   8.654  1.00  0.00     0.094 A 
ATOM      9  C   UNL     1      -4.600  14.977   9.403  1.00  0.00     0.336 A 
ATOM     10  O   UNL     1      -4.389  15.380  10.576  1.00  0.00    -0.246 OA
ATOM     11  O   UNL     1      -5.820  15.075   8.882  1.00  0.00    -0.423 OA
ENDROOT
TORSDOF 0
ENDMDL
MODEL 5
REMARK VINA RESULT:    -5.168      1.764      2.218
REMARK INTER + INTRA:          -5.168
REMARK INTER:                  -5.168
REMARK INTRA:                   0.000
REMARK UNBOUND:                 0.000
REMARK SMILES O=c1ccc2ccccc2o1
REMARK SMILES IDX 7 1 8 2 9 3 10 4 5 5 6 6 4 7 3 8 2 9 1 10 11 11
REMARK H PARENT
REMARK Flexibility Score: inf
ROOT
ATOM      1  C   UNL     1      -2.262  14.915   8.341  1.00  0.00     0.001 A 
ATOM      2  C   UNL     1      -2.292  16.130   7.647  1.00  0.00     0.004 A 
ATOM      3  C   UNL     1      -3.352  16.420   6.783  1.00  0.00     0.048 A 
ATOM      4  C   UNL     1      -4.388  15.495   6.609  1.00  0.00     0.138 A 
ATOM      5  C   UNL     1      -4.357  14.268   7.309  1.00  0.00     0.018 A 
ATOM      6  C   UNL     1      -3.291  13.983   8.174  1.00  0.00     0.012 A 
ATOM      7  C   UNL     1      -5.406  13.364   7.114  1.00  0.00     0.019 A 
ATOM      8  C   UNL     1      -6.442  13.695   6.243  1.00  0.00     0.094 A 
ATOM      9  C   UNL     1      -6.406  14.929   5.583  1.00  0.00     0.336 A 
ATOM     10  O   UNL     1      -7.332  15.246   4.792  1.00  0.00    -0.246 OA
ATOM     11  O   UNL     1      -5.396  15.772   5.785  1.00  0.00    -0.423 OA
ENDROOT
TORSDOF 0
ENDMDL
MODEL 6
REMARK VINA RESULT:    -5.152      1.949      3.318
REMARK INTER + INTRA:          -5.152
REMARK INTER:                  -5.152
REMARK INTRA:                   0.000
REMARK UNBOUND:                 0.000
REMARK SMILES O=c1ccc2ccccc2o1
REMARK SMILES IDX 7 1 8 2 9 3 10 4 5 5 6 6 4 7 3 8 2 9 1 10 11 11
REMARK H PARENT
REMARK Flexibility Score: inf
ROOT
ATOM      1  C   UNL     1      -4.974  14.457   6.294  1.00  0.00     0.001 A 
ATOM      2  C   UNL     1      -5.620  13.647   5.353  1.00  0.00     0.004 A 
ATOM      3  C   UNL     1      -6.973  13.849   5.062  1.00  0.00     0.048 A 
ATOM      4  C   UNL     1      -7.687  14.861   5.713  1.00  0.00     0.138 A 
ATOM      5  C   UNL     1      -7.035  15.678   6.664  1.00  0.00     0.018 A 
ATOM      6  C   UNL     1      -5.679  15.471   6.951  1.00  0.00     0.012 A 
ATOM      7  C   UNL     1      -7.774  16.681   7.298  1.00  0.00     0.019 A 
ATOM      8  C   UNL     1      -9.121  16.845   6.978  1.00  0.00     0.094 A 
ATOM      9  C   UNL     1      -9.700  15.999   6.025  1.00  0.00     0.336 A 
ATOM     10  O   UNL     1     -10.914  16.132   5.722  1.00  0.00    -0.246 OA
ATOM     11  O   UNL     1      -8.975  15.051   5.436  1.00  0.00    -0.423 OA
ENDROOT
TORSDOF 0
ENDMDL
MODEL 7
REMARK VINA RESULT:    -5.150      1.766      2.307
REMARK INTER + INTRA:          -5.150
REMARK INTER:                  -5.150
REMARK INTRA:                   0.000
REMARK UNBOUND:                 0.000
REMARK SMILES O=c1ccc2ccccc2o1
REMARK SMILES IDX 7 1 8 2 9 3 10 4 5 5 6 6 4 7 3 8 2 9 1 10 11 11
REMARK H PARENT
REMARK Flexibility Score: inf
ROOT
ATOM      1  C   UNL     1      -1.954  15.768   8.196  1.00  0.00     0.001 A 
ATOM      2  C   UNL     1      -2.059  14.448   8.650  1.00  0.00     0.004 A 
ATOM      3  C   UNL     1      -3.164  13.669   8.295  1.00  0.00     0.048 A 
ATOM      4  C   UNL     1      -4.170  14.206   7.484  1.00  0.00     0.138 A 
ATOM      5  C   UNL     1      -4.064  15.539   7.026  1.00  0.00     0.018 A 
ATOM      6  C   UNL     1      -2.954  16.315   7.385  1.00  0.00     0.012 A 
ATOM      7  C   UNL     1      -5.085  16.049   6.217  1.00  0.00     0.019 A 
ATOM      8  C   UNL     1      -6.168  15.235   5.889  1.00  0.00     0.094 A 
ATOM      9  C   UNL     1      -6.206  13.924   6.379  1.00  0.00     0.336 A 
ATOM     10  O   UNL     1      -7.176  13.175   6.094  1.00  0.00    -0.246 OA
ATOM     11  O   UNL     1      -5.223  13.464   7.147  1.00  0.00    -0.423 OA
ENDROOT
TORSDOF 0
ENDMDL
MODEL 8
REMARK VINA RESULT:    -5.028      2.849      4.061
REMARK INTER + INTRA:          -5.028
REMARK INTER:                  -5.028
REMARK INTRA:                   0.000
REMARK UNBOUND:                 0.000
REMARK SMILES O=c1ccc2ccccc2o1
REMARK SMILES IDX 7 1 8 2 9 3 10 4 5 5 6 6 4 7 3 8 2 9 1 10 11 11
REMARK H PARENT
REMARK Flexibility Score: inf
ROOT
ATOM      1  C   UNL     1      -0.042  15.441   8.798  1.00  0.00     0.001 A 
ATOM      2  C   UNL     1      -0.006  16.372   7.754  1.00  0.00     0.004 A 
ATOM      3  C   UNL     1      -1.132  16.572   6.951  1.00  0.00     0.048 A 
ATOM      4  C   UNL     1      -2.302  15.842   7.189  1.00  0.00     0.138 A 
ATOM      5  C   UNL     1      -2.339  14.901   8.243  1.00  0.00     0.018 A 
ATOM      6  C   UNL     1      -1.205  14.705   9.044  1.00  0.00     0.012 A 
ATOM      7  C   UNL     1      -3.521  14.186   8.457  1.00  0.00     0.019 A 
ATOM      8  C   UNL     1      -4.620  14.418   7.631  1.00  0.00     0.094 A 
ATOM      9  C   UNL     1      -4.511  15.366   6.606  1.00  0.00     0.336 A 
ATOM     10  O   UNL     1      -5.492  15.589   5.850  1.00  0.00    -0.246 OA
ATOM     11  O   UNL     1      -3.374  16.033   6.423  1.00  0.00    -0.423 OA
ENDROOT
TORSDOF 0
ENDMDL
MODEL 9
REMARK VINA RESULT:    -4.926      1.719      2.540
REMARK INTER + INTRA:          -4.926
REMARK INTER:                  -4.926
REMARK INTRA:                   0.000
REMARK UNBOUND:                 0.000
REMARK SMILES O=c1ccc2ccccc2o1
REMARK SMILES IDX 7 1 8 2 9 3 10 4 5 5 6 6 4 7 3 8 2 9 1 10 11 11
REMARK H PARENT
REMARK Flexibility Score: inf
ROOT
ATOM      1  C   UNL     1      -4.209  16.243   7.209  1.00  0.00     0.001 A 
ATOM      2  C   UNL     1      -3.817  15.107   6.491  1.00  0.00     0.004 A 
ATOM      3  C   UNL     1      -4.778  14.288   5.891  1.00  0.00     0.048 A 
ATOM      4  C   UNL     1      -6.137  14.602   6.005  1.00  0.00     0.138 A 
ATOM      5  C   UNL     1      -6.533  15.748   6.730  1.00  0.00     0.018 A 
ATOM      6  C   UNL     1      -5.564  16.565   7.330  1.00  0.00     0.012 A 
ATOM      7  C   UNL     1      -7.898  16.036   6.828  1.00  0.00     0.019 A 
ATOM      8  C   UNL     1      -8.821  15.191   6.213  1.00  0.00     0.094 A 
ATOM      9  C   UNL     1      -8.355  14.073   5.511  1.00  0.00     0.336 A 
ATOM     10  O   UNL     1      -9.173  13.299   4.950  1.00  0.00    -0.246 OA
ATOM     11  O   UNL     1      -7.051  13.821   5.434  1.00  0.00    -0.423 OA
ENDROOT
TORSDOF 0
ENDMDL
