MODEL 1
REMARK VINA RESULT:    -5.512      0.000      0.000
REMARK INTER + INTRA:         -11.277
REMARK INTER:                 -10.345
REMARK INTRA:                  -0.932
REMARK UNBOUND:                -0.932
REMARK SMILES O=C([O-])CCCCCCCCCCCCCCC(=O)[O-]
REMARK SMILES IDX 10 1 9 2 8 3 7 4 6 5 5 6 4 7 2 8 1 9 3 10 11 11 12 12 13 13
REMARK SMILES IDX 14 14 15 15 16 16 17 17 18 18 19 19 20 20
REMARK H PARENT
REMARK Flexibility Score: inf
ROOT
ATOM      1  C   UNL     1       6.681  -1.865  35.893  1.00  0.00     0.000 C 
ENDROOT
BRANCH   1   2
ATOM      2  C   UNL     1       5.253  -1.549  36.369  1.00  0.00     0.000 C 
BRANCH   2   3
ATOM      3  C   UNL     1       5.040  -0.048  36.636  1.00  0.00     0.000 C 
BRANCH   3   4
ATOM      4  C   UNL     1       3.594   0.280  37.044  1.00  0.00     0.000 C 
BRANCH   4   5
ATOM      5  C   UNL     1       3.342   0.068  38.547  1.00  0.00     0.000 C 
BRANCH   5   6
ATOM      6  C   UNL     1       2.352  -1.078  38.827  1.00  0.00     0.006 C 
BRANCH   6   7
ATOM      7  C   UNL     1       2.992  -2.337  39.433  1.00  0.00     0.053 C 
BRANCH   7   8
ATOM      8  C   UNL     1       2.063  -3.044  40.373  1.00  0.00     0.041 C 
ATOM      9  O   UNL     1       1.506  -4.119  40.025  1.00  0.00    -0.550 OA
ATOM     10  O   UNL     1       1.841  -2.534  41.646  1.00  0.00    -0.550 OA
ENDBRANCH   7   8
ENDBRANCH   6   7
ENDBRANCH   5   6
ENDBRANCH   4   5
ENDBRANCH   3   4
ENDBRANCH   2   3
ENDBRANCH   1   2
BRANCH   1  11
ATOM     11  C   UNL     1       7.556  -0.606  35.764  1.00  0.00     0.000 C 
BRANCH  11  12
ATOM     12  C   UNL     1       8.246  -0.501  34.395  1.00  0.00     0.000 C 
BRANCH  12  13
ATOM     13  C   UNL     1       8.603   0.949  34.024  1.00  0.00     0.000 C 
BRANCH  13  14
ATOM     14  C   UNL     1      10.087   1.122  33.655  1.00  0.00     0.000 C 
BRANCH  14  15
ATOM     15  C   UNL     1      10.990  -0.086  33.976  1.00  0.00     0.000 C 
BRANCH  15  16
ATOM     16  C   UNL     1      12.400   0.268  34.494  1.00  0.00     0.006 C 
BRANCH  16  17
ATOM     17  C   UNL     1      12.435   1.436  35.491  1.00  0.00     0.053 C 
BRANCH  17  18
ATOM     18  C   UNL     1      13.123   2.638  34.922  1.00  0.00     0.041 C 
ATOM     19  O   UNL     1      13.335   2.719  33.683  1.00  0.00    -0.550 OA
ATOM     20  O   UNL     1      13.561   3.654  35.762  1.00  0.00    -0.550 OA
ENDBRANCH  17  18
ENDBRANCH  16  17
ENDBRANCH  15  16
ENDBRANCH  14  15
ENDBRANCH  13  14
ENDBRANCH  12  13
ENDBRANCH  11  12
ENDBRANCH   1  11
TORSDOF 15
ENDMDL
MODEL 2
REMARK VINA RESULT:    -5.470      1.468     10.011
REMARK INTER + INTRA:         -11.198
REMARK INTER:                 -10.373
REMARK INTRA:                  -0.825
REMARK UNBOUND:                -0.932
REMARK SMILES O=C([O-])CCCCCCCCCCCCCCC(=O)[O-]
REMARK SMILES IDX 10 1 9 2 8 3 7 4 6 5 5 6 4 7 2 8 1 9 3 10 11 11 12 12 13 13
REMARK SMILES IDX 14 14 15 15 16 16 17 17 18 18 19 19 20 20
REMARK H PARENT
REMARK Flexibility Score: inf
ROOT
ATOM      1  C   UNL     1       7.637   0.750  36.004  1.00  0.00     0.000 C 
ENDROOT
BRANCH   1   2
ATOM      2  C   UNL     1       8.840   0.159  35.248  1.00  0.00     0.000 C 
BRANCH   2   3
ATOM      3  C   UNL     1       9.028   0.787  33.856  1.00  0.00     0.000 C 
BRANCH   3   4
ATOM      4  C   UNL     1      10.506   1.046  33.520  1.00  0.00     0.000 C 
BRANCH   4   5
ATOM      5  C   UNL     1      11.450   0.038  34.197  1.00  0.00     0.000 C 
BRANCH   5   6
ATOM      6  C   UNL     1      12.809   0.658  34.574  1.00  0.00     0.006 C 
BRANCH   6   7
ATOM      7  C   UNL     1      12.754   1.635  35.760  1.00  0.00     0.053 C 
BRANCH   7   8
ATOM      8  C   UNL     1      12.948   3.056  35.327  1.00  0.00     0.041 C 
ATOM      9  O   UNL     1      12.549   4.001  36.058  1.00  0.00    -0.550 OA
ATOM     10  O   UNL     1      13.599   3.337  34.133  1.00  0.00    -0.550 OA
ENDBRANCH   7   8
ENDBRANCH   6   7
ENDBRANCH   5   6
ENDBRANCH   4   5
ENDBRANCH   3   4
ENDBRANCH   2   3
ENDBRANCH   1   2
BRANCH   1  11
ATOM     11  C   UNL     1       6.479  -0.253  36.151  1.00  0.00     0.000 C 
BRANCH  11  12
ATOM     12  C   UNL     1       6.784  -1.611  35.500  1.00  0.00     0.000 C 
BRANCH  12  13
ATOM     13  C   UNL     1       6.456  -2.795  36.425  1.00  0.00     0.000 C 
BRANCH  13  14
ATOM     14  C   UNL     1       4.944  -3.058  36.546  1.00  0.00     0.000 C 
BRANCH  14  15
ATOM     15  C   UNL     1       4.461  -3.487  37.947  1.00  0.00     0.000 C 
BRANCH  15  16
ATOM     16  C   UNL     1       3.095  -2.911  38.375  1.00  0.00     0.006 C 
BRANCH  16  17
ATOM     17  C   UNL     1       2.706  -3.219  39.830  1.00  0.00     0.053 C 
BRANCH  17  18
ATOM     18  C   UNL     1       2.430  -1.971  40.610  1.00  0.00     0.041 C 
ATOM     19  O   UNL     1       1.839  -2.036  41.721  1.00  0.00    -0.550 OA
ATOM     20  O   UNL     1       2.794  -0.733  40.097  1.00  0.00    -0.550 OA
ENDBRANCH  17  18
ENDBRANCH  16  17
ENDBRANCH  15  16
ENDBRANCH  14  15
ENDBRANCH  13  14
ENDBRANCH  12  13
ENDBRANCH  11  12
ENDBRANCH   1  11
TORSDOF 15
ENDMDL
MODEL 3
REMARK VINA RESULT:    -5.457      1.458      1.988
REMARK INTER + INTRA:         -11.174
REMARK INTER:                 -10.264
REMARK INTRA:                  -0.909
REMARK UNBOUND:                -0.932
REMARK SMILES O=C([O-])CCCCCCCCCCCCCCC(=O)[O-]
REMARK SMILES IDX 10 1 9 2 8 3 7 4 6 5 5 6 4 7 2 8 1 9 3 10 11 11 12 12 13 13
REMARK SMILES IDX 14 14 15 15 16 16 17 17 18 18 19 19 20 20
REMARK H PARENT
REMARK Flexibility Score: inf
ROOT
ATOM      1  C   UNL     1       5.998  -0.814  36.126  1.00  0.00     0.000 C 
ENDROOT
BRANCH   1   2
ATOM      2  C   UNL     1       6.741  -2.156  36.015  1.00  0.00     0.000 C 
BRANCH   2   3
ATOM      3  C   UNL     1       5.833  -3.359  36.323  1.00  0.00     0.000 C 
BRANCH   3   4
ATOM      4  C   UNL     1       4.511  -2.945  36.992  1.00  0.00     0.000 C 
BRANCH   4   5
ATOM      5  C   UNL     1       4.020  -3.980  38.019  1.00  0.00     0.000 C 
BRANCH   5   6
ATOM      6  C   UNL     1       2.759  -3.517  38.773  1.00  0.00     0.006 C 
BRANCH   6   7
ATOM      7  C   UNL     1       3.041  -2.809  40.108  1.00  0.00     0.053 C 
BRANCH   7   8
ATOM      8  C   UNL     1       2.639  -1.366  40.075  1.00  0.00     0.041 C 
ATOM      9  O   UNL     1       2.259  -0.838  38.997  1.00  0.00    -0.550 OA
ATOM     10  O   UNL     1       2.651  -0.614  41.244  1.00  0.00    -0.550 OA
ENDBRANCH   7   8
ENDBRANCH   6   7
ENDBRANCH   5   6
ENDBRANCH   4   5
ENDBRANCH   3   4
ENDBRANCH   2   3
ENDBRANCH   1   2
BRANCH   1  11
ATOM     11  C   UNL     1       6.939   0.397  35.996  1.00  0.00     0.000 C 
BRANCH  11  12
ATOM     12  C   UNL     1       8.365  -0.001  35.582  1.00  0.00     0.000 C 
BRANCH  12  13
ATOM     13  C   UNL     1       8.629   0.228  34.085  1.00  0.00     0.000 C 
BRANCH  13  14
ATOM     14  C   UNL     1       9.968   0.938  33.816  1.00  0.00     0.000 C 
BRANCH  14  15
ATOM     15  C   UNL     1      11.226   0.066  34.009  1.00  0.00     0.000 C 
BRANCH  15  16
ATOM     16  C   UNL     1      12.324   0.685  34.898  1.00  0.00     0.006 C 
BRANCH  16  17
ATOM     17  C   UNL     1      11.869   1.911  35.706  1.00  0.00     0.053 C 
BRANCH  17  18
ATOM     18  C   UNL     1      12.634   3.143  35.332  1.00  0.00     0.041 C 
ATOM     19  O   UNL     1      13.443   3.118  34.368  1.00  0.00    -0.550 OA
ATOM     20  O   UNL     1      12.477   4.310  36.068  1.00  0.00    -0.550 OA
ENDBRANCH  17  18
ENDBRANCH  16  17
ENDBRANCH  15  16
ENDBRANCH  14  15
ENDBRANCH  13  14
ENDBRANCH  12  13
ENDBRANCH  11  12
ENDBRANCH   1  11
TORSDOF 15
ENDMDL
MODEL 4
REMARK VINA RESULT:    -5.440      3.177      8.395
REMARK INTER + INTRA:         -11.143
REMARK INTER:                  -9.663
REMARK INTRA:                  -1.480
REMARK UNBOUND:                -0.932
REMARK SMILES O=C([O-])CCCCCCCCCCCCCCC(=O)[O-]
REMARK SMILES IDX 10 1 9 2 8 3 7 4 6 5 5 6 4 7 2 8 1 9 3 10 11 11 12 12 13 13
REMARK SMILES IDX 14 14 15 15 16 16 17 17 18 18 19 19 20 20
REMARK H PARENT
REMARK Flexibility Score: inf
ROOT
ATOM      1  C   UNL     1       2.577   0.210  37.821  1.00  0.00     0.000 C 
ENDROOT
BRANCH   1   2
ATOM      2  C   UNL     1       4.108   0.066  37.836  1.00  0.00     0.000 C 
BRANCH   2   3
ATOM      3  C   UNL     1       4.709   0.025  36.420  1.00  0.00     0.000 C 
BRANCH   3   4
ATOM      4  C   UNL     1       6.185   0.458  36.392  1.00  0.00     0.000 C 
BRANCH   4   5
ATOM      5  C   UNL     1       7.089  -0.573  35.693  1.00  0.00     0.000 C 
BRANCH   5   6
ATOM      6  C   UNL     1       8.570  -0.150  35.677  1.00  0.00     0.006 C 
BRANCH   6   7
ATOM      7  C   UNL     1       8.808   1.341  35.965  1.00  0.00     0.053 C 
BRANCH   7   8
ATOM      8  C   UNL     1       9.848   1.929  35.061  1.00  0.00     0.041 C 
ATOM      9  O   UNL     1       9.510   2.492  33.987  1.00  0.00    -0.550 OA
ATOM     10  O   UNL     1      11.189   1.886  35.423  1.00  0.00    -0.550 OA
ENDBRANCH   7   8
ENDBRANCH   6   7
ENDBRANCH   5   6
ENDBRANCH   4   5
ENDBRANCH   3   4
ENDBRANCH   2   3
ENDBRANCH   1   2
BRANCH   1  11
ATOM     11  C   UNL     1       1.861  -1.016  38.416  1.00  0.00     0.000 C 
BRANCH  11  12
ATOM     12  C   UNL     1       2.479  -1.476  39.746  1.00  0.00     0.000 C 
BRANCH  12  13
ATOM     13  C   UNL     1       2.855  -2.968  39.737  1.00  0.00     0.000 C 
BRANCH  13  14
ATOM     14  C   UNL     1       3.048  -3.526  38.316  1.00  0.00     0.000 C 
BRANCH  14  15
ATOM     15  C   UNL     1       4.464  -4.049  38.001  1.00  0.00     0.000 C 
BRANCH  15  16
ATOM     16  C   UNL     1       5.153  -3.389  36.789  1.00  0.00     0.006 C 
BRANCH  16  17
ATOM     17  C   UNL     1       4.799  -4.024  35.435  1.00  0.00     0.053 C 
BRANCH  17  18
ATOM     18  C   UNL     1       6.019  -4.462  34.686  1.00  0.00     0.041 C 
ATOM     19  O   UNL     1       6.593  -3.671  33.892  1.00  0.00    -0.550 OA
ATOM     20  O   UNL     1       6.505  -5.754  34.840  1.00  0.00    -0.550 OA
ENDBRANCH  17  18
ENDBRANCH  16  17
ENDBRANCH  15  16
ENDBRANCH  14  15
ENDBRANCH  13  14
ENDBRANCH  12  13
ENDBRANCH  11  12
ENDBRANCH   1  11
TORSDOF 15
ENDMDL
MODEL 5
REMARK VINA RESULT:    -5.433      1.475      2.193
REMARK INTER + INTRA:         -11.129
REMARK INTER:                 -10.058
REMARK INTRA:                  -1.071
REMARK UNBOUND:                -0.932
REMARK SMILES O=C([O-])CCCCCCCCCCCCCCC(=O)[O-]
REMARK SMILES IDX 10 1 9 2 8 3 7 4 6 5 5 6 4 7 2 8 1 9 3 10 11 11 12 12 13 13
REMARK SMILES IDX 14 14 15 15 16 16 17 17 18 18 19 19 20 20
REMARK H PARENT
REMARK Flexibility Score: inf
ROOT
ATOM      1  C   UNL     1       5.224  -0.343  36.453  1.00  0.00     0.000 C 
ENDROOT
BRANCH   1   2
ATOM      2  C   UNL     1       4.033   0.537  36.868  1.00  0.00     0.000 C 
BRANCH   2   3
ATOM      3  C   UNL     1       3.397   0.079  38.193  1.00  0.00     0.000 C 
BRANCH   3   4
ATOM      4  C   UNL     1       2.012  -0.559  37.993  1.00  0.00     0.000 C 
BRANCH   4   5
ATOM      5  C   UNL     1       2.056  -2.096  38.055  1.00  0.00     0.000 C 
BRANCH   5   6
ATOM      6  C   UNL     1       3.103  -2.621  39.056  1.00  0.00     0.006 C 
BRANCH   6   7
ATOM      7  C   UNL     1       2.508  -3.224  40.338  1.00  0.00     0.053 C 
BRANCH   7   8
ATOM      8  C   UNL     1       1.936  -2.175  41.242  1.00  0.00     0.041 C 
ATOM      9  O   UNL     1       2.598  -1.136  41.505  1.00  0.00    -0.550 OA
ATOM     10  O   UNL     1       0.659  -2.329  41.766  1.00  0.00    -0.550 OA
ENDBRANCH   7   8
ENDBRANCH   6   7
ENDBRANCH   5   6
ENDBRANCH   4   5
ENDBRANCH   3   4
ENDBRANCH   2   3
ENDBRANCH   1   2
BRANCH   1  11
ATOM     11  C   UNL     1       6.535   0.455  36.329  1.00  0.00     0.000 C 
BRANCH  11  12
ATOM     12  C   UNL     1       7.649  -0.340  35.629  1.00  0.00     0.000 C 
BRANCH  12  13
ATOM     13  C   UNL     1       8.122   0.330  34.327  1.00  0.00     0.000 C 
BRANCH  13  14
ATOM     14  C   UNL     1       9.378  -0.335  33.736  1.00  0.00     0.000 C 
BRANCH  14  15
ATOM     15  C   UNL     1      10.567   0.614  33.484  1.00  0.00     0.000 C 
BRANCH  15  16
ATOM     16  C   UNL     1      10.345   2.076  33.923  1.00  0.00     0.006 C 
BRANCH  16  17
ATOM     17  C   UNL     1      11.354   2.586  34.964  1.00  0.00     0.053 C 
BRANCH  17  18
ATOM     18  C   UNL     1      11.618   1.568  36.031  1.00  0.00     0.041 C 
ATOM     19  O   UNL     1      12.772   1.083  36.172  1.00  0.00    -0.550 OA
ATOM     20  O   UNL     1      10.584   1.131  36.848  1.00  0.00    -0.550 OA
ENDBRANCH  17  18
ENDBRANCH  16  17
ENDBRANCH  15  16
ENDBRANCH  14  15
ENDBRANCH  13  14
ENDBRANCH  12  13
ENDBRANCH  11  12
ENDBRANCH   1  11
TORSDOF 15
ENDMDL
MODEL 6
REMARK VINA RESULT:    -5.415      0.984     10.185
REMARK INTER + INTRA:         -11.095
REMARK INTER:                 -10.265
REMARK INTRA:                  -0.831
REMARK UNBOUND:                -0.932
REMARK SMILES O=C([O-])CCCCCCCCCCCCCCC(=O)[O-]
REMARK SMILES IDX 10 1 9 2 8 3 7 4 6 5 5 6 4 7 2 8 1 9 3 10 11 11 12 12 13 13
REMARK SMILES IDX 14 14 15 15 16 16 17 17 18 18 19 19 20 20
REMARK H PARENT
REMARK Flexibility Score: inf
ROOT
ATOM      1  C   UNL     1       8.198   0.988  35.990  1.00  0.00     0.000 C 
ENDROOT
BRANCH   1   2
ATOM      2  C   UNL     1       8.759  -0.107  35.066  1.00  0.00     0.000 C 
BRANCH   2   3
ATOM      3  C   UNL     1       9.099   0.424  33.662  1.00  0.00     0.000 C 
BRANCH   3   4
ATOM      4  C   UNL     1      10.535   0.966  33.567  1.00  0.00     0.000 C 
BRANCH   4   5
ATOM      5  C   UNL     1      11.558   0.048  34.259  1.00  0.00     0.000 C 
BRANCH   5   6
ATOM      6  C   UNL     1      12.931   0.722  34.444  1.00  0.00     0.006 C 
BRANCH   6   7
ATOM      7  C   UNL     1      13.025   1.643  35.670  1.00  0.00     0.053 C 
BRANCH   7   8
ATOM      8  C   UNL     1      13.087   3.090  35.284  1.00  0.00     0.041 C 
ATOM      9  O   UNL     1      12.574   3.967  36.028  1.00  0.00    -0.550 OA
ATOM     10  O   UNL     1      13.741   3.472  34.119  1.00  0.00    -0.550 OA
ENDBRANCH   7   8
ENDBRANCH   6   7
ENDBRANCH   5   6
ENDBRANCH   4   5
ENDBRANCH   3   4
ENDBRANCH   2   3
ENDBRANCH   1   2
BRANCH   1  11
ATOM     11  C   UNL     1       6.728   0.744  36.373  1.00  0.00     0.000 C 
BRANCH  11  12
ATOM     12  C   UNL     1       6.231  -0.651  35.962  1.00  0.00     0.000 C 
BRANCH  12  13
ATOM     13  C   UNL     1       4.960  -1.072  36.720  1.00  0.00     0.000 C 
BRANCH  13  14
ATOM     14  C   UNL     1       3.956   0.083  36.889  1.00  0.00     0.000 C 
BRANCH  14  15
ATOM     15  C   UNL     1       3.374   0.247  38.307  1.00  0.00     0.000 C 
BRANCH  15  16
ATOM     16  C   UNL     1       2.477  -0.913  38.787  1.00  0.00     0.006 C 
BRANCH  16  17
ATOM     17  C   UNL     1       2.583  -1.216  40.290  1.00  0.00     0.053 C 
BRANCH  17  18
ATOM     18  C   UNL     1       2.444  -2.680  40.576  1.00  0.00     0.041 C 
ATOM     19  O   UNL     1       1.786  -3.070  41.576  1.00  0.00    -0.550 OA
ATOM     20  O   UNL     1       3.069  -3.612  39.757  1.00  0.00    -0.550 OA
ENDBRANCH  17  18
ENDBRANCH  16  17
ENDBRANCH  15  16
ENDBRANCH  14  15
ENDBRANCH  13  14
ENDBRANCH  12  13
ENDBRANCH  11  12
ENDBRANCH   1  11
TORSDOF 15
ENDMDL
MODEL 7
REMARK VINA RESULT:    -5.379      1.503      9.752
REMARK INTER + INTRA:         -11.028
REMARK INTER:                  -9.896
REMARK INTRA:                  -1.132
REMARK UNBOUND:                -0.932
REMARK SMILES O=C([O-])CCCCCCCCCCCCCCC(=O)[O-]
REMARK SMILES IDX 10 1 9 2 8 3 7 4 6 5 5 6 4 7 2 8 1 9 3 10 11 11 12 12 13 13
REMARK SMILES IDX 14 14 15 15 16 16 17 17 18 18 19 19 20 20
REMARK H PARENT
REMARK Flexibility Score: inf
ROOT
ATOM      1  C   UNL     1       5.797  -1.024  36.328  1.00  0.00     0.000 C 
ENDROOT
BRANCH   1   2
ATOM      2  C   UNL     1       6.660   0.196  35.963  1.00  0.00     0.000 C 
BRANCH   2   3
ATOM      3  C   UNL     1       7.993  -0.202  35.304  1.00  0.00     0.000 C 
BRANCH   3   4
ATOM      4  C   UNL     1       8.371   0.722  34.135  1.00  0.00     0.000 C 
BRANCH   4   5
ATOM      5  C   UNL     1       9.558   1.643  34.470  1.00  0.00     0.000 C 
BRANCH   5   6
ATOM      6  C   UNL     1      10.397   1.123  35.653  1.00  0.00     0.006 C 
BRANCH   6   7
ATOM      7  C   UNL     1      11.804   1.734  35.751  1.00  0.00     0.053 C 
BRANCH   7   8
ATOM      8  C   UNL     1      12.726   1.196  34.700  1.00  0.00     0.041 C 
ATOM      9  O   UNL     1      12.779  -0.042  34.477  1.00  0.00    -0.550 OA
ATOM     10  O   UNL     1      13.502   2.066  33.943  1.00  0.00    -0.550 OA
ENDBRANCH   7   8
ENDBRANCH   6   7
ENDBRANCH   5   6
ENDBRANCH   4   5
ENDBRANCH   3   4
ENDBRANCH   2   3
ENDBRANCH   1   2
BRANCH   1  11
ATOM     11  C   UNL     1       6.587  -2.344  36.284  1.00  0.00     0.000 C 
BRANCH  11  12
ATOM     12  C   UNL     1       5.741  -3.525  35.784  1.00  0.00     0.000 C 
BRANCH  12  13
ATOM     13  C   UNL     1       4.286  -3.460  36.279  1.00  0.00     0.000 C 
BRANCH  13  14
ATOM     14  C   UNL     1       4.084  -4.162  37.634  1.00  0.00     0.000 C 
BRANCH  14  15
ATOM     15  C   UNL     1       3.784  -3.226  38.822  1.00  0.00     0.000 C 
BRANCH  15  16
ATOM     16  C   UNL     1       2.948  -1.976  38.477  1.00  0.00     0.006 C 
BRANCH  16  17
ATOM     17  C   UNL     1       1.714  -1.772  39.371  1.00  0.00     0.053 C 
BRANCH  17  18
ATOM     18  C   UNL     1       2.081  -1.700  40.822  1.00  0.00     0.041 C 
ATOM     19  O   UNL     1       2.713  -0.706  41.267  1.00  0.00    -0.550 OA
ATOM     20  O   UNL     1       1.752  -2.744  41.676  1.00  0.00    -0.550 OA
ENDBRANCH  17  18
ENDBRANCH  16  17
ENDBRANCH  15  16
ENDBRANCH  14  15
ENDBRANCH  13  14
ENDBRANCH  12  13
ENDBRANCH  11  12
ENDBRANCH   1  11
TORSDOF 15
ENDMDL
MODEL 8
REMARK VINA RESULT:    -5.367      1.631      2.583
REMARK INTER + INTRA:         -11.006
REMARK INTER:                  -9.800
REMARK INTRA:                  -1.206
REMARK UNBOUND:                -0.932
REMARK SMILES O=C([O-])CCCCCCCCCCCCCCC(=O)[O-]
REMARK SMILES IDX 10 1 9 2 8 3 7 4 6 5 5 6 4 7 2 8 1 9 3 10 11 11 12 12 13 13
REMARK SMILES IDX 14 14 15 15 16 16 17 17 18 18 19 19 20 20
REMARK H PARENT
REMARK Flexibility Score: inf
ROOT
ATOM      1  C   UNL     1       8.380   0.763  36.335  1.00  0.00     0.000 C 
ENDROOT
BRANCH   1   2
ATOM      2  C   UNL     1       7.515  -0.018  35.331  1.00  0.00     0.000 C 
BRANCH   2   3
ATOM      3  C   UNL     1       7.119  -1.410  35.854  1.00  0.00     0.000 C 
BRANCH   3   4
ATOM      4  C   UNL     1       5.648  -1.477  36.297  1.00  0.00     0.000 C 
BRANCH   4   5
ATOM      5  C   UNL     1       5.107  -2.918  36.332  1.00  0.00     0.000 C 
BRANCH   5   6
ATOM      6  C   UNL     1       4.422  -3.263  37.667  1.00  0.00     0.006 C 
BRANCH   6   7
ATOM      7  C   UNL     1       3.352  -2.254  38.112  1.00  0.00     0.053 C 
BRANCH   7   8
ATOM      8  C   UNL     1       1.966  -2.809  37.984  1.00  0.00     0.041 C 
ATOM      9  O   UNL     1       1.728  -3.736  37.165  1.00  0.00    -0.550 OA
ATOM     10  O   UNL     1       0.946  -2.327  38.794  1.00  0.00    -0.550 OA
ENDBRANCH   7   8
ENDBRANCH   6   7
ENDBRANCH   5   6
ENDBRANCH   4   5
ENDBRANCH   3   4
ENDBRANCH   2   3
ENDBRANCH   1   2
BRANCH   1  11
ATOM     11  C   UNL     1       9.392   1.696  35.646  1.00  0.00     0.000 C 
BRANCH  11  12
ATOM     12  C   UNL     1       9.264   1.681  34.114  1.00  0.00     0.000 C 
BRANCH  12  13
ATOM     13  C   UNL     1      10.573   1.272  33.417  1.00  0.00     0.000 C 
BRANCH  13  14
ATOM     14  C   UNL     1      11.221   0.026  34.048  1.00  0.00     0.000 C 
BRANCH  14  15
ATOM     15  C   UNL     1      12.629   0.244  34.637  1.00  0.00     0.000 C 
BRANCH  15  16
ATOM     16  C   UNL     1      13.199   1.667  34.466  1.00  0.00     0.006 C 
BRANCH  16  17
ATOM     17  C   UNL     1      13.167   2.520  35.744  1.00  0.00     0.053 C 
BRANCH  17  18
ATOM     18  C   UNL     1      12.674   3.909  35.478  1.00  0.00     0.041 C 
ATOM     19  O   UNL     1      12.637   4.757  36.408  1.00  0.00    -0.550 OA
ATOM     20  O   UNL     1      12.226   4.258  34.211  1.00  0.00    -0.550 OA
ENDBRANCH  17  18
ENDBRANCH  16  17
ENDBRANCH  15  16
ENDBRANCH  14  15
ENDBRANCH  13  14
ENDBRANCH  12  13
ENDBRANCH  11  12
ENDBRANCH   1  11
TORSDOF 15
ENDMDL
MODEL 9
REMARK VINA RESULT:    -5.367      1.625      2.504
REMARK INTER + INTRA:         -11.005
REMARK INTER:                  -9.986
REMARK INTRA:                  -1.018
REMARK UNBOUND:                -0.932
REMARK SMILES O=C([O-])CCCCCCCCCCCCCCC(=O)[O-]
REMARK SMILES IDX 10 1 9 2 8 3 7 4 6 5 5 6 4 7 2 8 1 9 3 10 11 11 12 12 13 13
REMARK SMILES IDX 14 14 15 15 16 16 17 17 18 18 19 19 20 20
REMARK H PARENT
REMARK Flexibility Score: inf
ROOT
ATOM      1  C   UNL     1       6.302  -2.495  36.212  1.00  0.00     0.000 C 
ENDROOT
BRANCH   1   2
ATOM      2  C   UNL     1       5.315  -3.657  36.011  1.00  0.00     0.000 C 
BRANCH   2   3
ATOM      3  C   UNL     1       4.549  -4.010  37.298  1.00  0.00     0.000 C 
BRANCH   3   4
ATOM      4  C   UNL     1       3.033  -4.126  37.070  1.00  0.00     0.000 C 
BRANCH   4   5
ATOM      5  C   UNL     1       2.252  -2.948  37.679  1.00  0.00     0.000 C 
BRANCH   5   6
ATOM      6  C   UNL     1       3.031  -2.237  38.802  1.00  0.00     0.006 C 
BRANCH   6   7
ATOM      7  C   UNL     1       2.745  -2.776  40.213  1.00  0.00     0.053 C 
BRANCH   7   8
ATOM      8  C   UNL     1       2.107  -1.744  41.092  1.00  0.00     0.041 C 
ATOM      9  O   UNL     1       2.669  -0.632  41.274  1.00  0.00    -0.550 OA
ATOM     10  O   UNL     1       0.875  -1.998  41.682  1.00  0.00    -0.550 OA
ENDBRANCH   7   8
ENDBRANCH   6   7
ENDBRANCH   5   6
ENDBRANCH   4   5
ENDBRANCH   3   4
ENDBRANCH   2   3
ENDBRANCH   1   2
BRANCH   1  11
ATOM     11  C   UNL     1       5.596  -1.136  36.367  1.00  0.00     0.000 C 
BRANCH  11  12
ATOM     12  C   UNL     1       6.478   0.043  35.928  1.00  0.00     0.000 C 
BRANCH  12  13
ATOM     13  C   UNL     1       7.893  -0.398  35.518  1.00  0.00     0.000 C 
BRANCH  13  14
ATOM     14  C   UNL     1       8.234  -0.033  34.062  1.00  0.00     0.000 C 
BRANCH  14  15
ATOM     15  C   UNL     1       9.739   0.001  33.728  1.00  0.00     0.000 C 
BRANCH  15  16
ATOM     16  C   UNL     1      10.490   1.258  34.212  1.00  0.00     0.006 C 
BRANCH  16  17
ATOM     17  C   UNL     1      11.276   1.063  35.519  1.00  0.00     0.053 C 
BRANCH  17  18
ATOM     18  C   UNL     1      12.746   0.925  35.272  1.00  0.00     0.041 C 
ATOM     19  O   UNL     1      13.548   1.783  35.727  1.00  0.00    -0.550 OA
ATOM     20  O   UNL     1      13.229  -0.132  34.512  1.00  0.00    -0.550 OA
ENDBRANCH  17  18
ENDBRANCH  16  17
ENDBRANCH  15  16
ENDBRANCH  14  15
ENDBRANCH  13  14
ENDBRANCH  12  13
ENDBRANCH  11  12
ENDBRANCH   1  11
TORSDOF 15
ENDMDL
