MODEL 1
REMARK VINA RESULT:    -4.453      0.000      0.000
REMARK INTER + INTRA:          -9.951
REMARK INTER:                  -8.097
REMARK INTRA:                  -1.853
REMARK UNBOUND:                -1.853
REMARK SMILES CCCCCCCCCCCCCCCC(=O)[O-]
REMARK SMILES IDX 9 1 10 2 11 3 12 4 13 5 14 6 15 7 16 8 17 9 18 10 8 11 7 12
REMARK SMILES IDX 6 13 5 14 4 15 3 16 2 17 1 18
REMARK H PARENT
REMARK Flexibility Score: inf
ROOT
ATOM      1  C   UNL     1      10.684   6.043  11.655  1.00  0.00     0.000 C 
ENDROOT
BRANCH   1   2
ATOM      2  C   UNL     1      11.728   6.549  10.648  1.00  0.00     0.000 C 
BRANCH   2   3
ATOM      3  C   UNL     1      12.797   5.491  10.325  1.00  0.00     0.000 C 
BRANCH   3   4
ATOM      4  C   UNL     1      12.829   4.342  11.348  1.00  0.00     0.000 C 
BRANCH   4   5
ATOM      5  C   UNL     1      12.723   2.930  10.741  1.00  0.00     0.000 C 
BRANCH   5   6
ATOM      6  C   UNL     1      11.921   2.899   9.431  1.00  0.00     0.006 C 
BRANCH   6   7
ATOM      7  C   UNL     1      10.505   2.368   9.668  1.00  0.00     0.053 C 
BRANCH   7   8
ATOM      8  C   UNL     1       9.498   3.233   8.978  1.00  0.00     0.041 C 
ATOM      9  O   UNL     1       8.328   2.810   8.782  1.00  0.00    -0.550 OA
ATOM     10  O   UNL     1       9.866   4.487   8.506  1.00  0.00    -0.550 OA
ENDBRANCH   7   8
ENDBRANCH   6   7
ENDBRANCH   5   6
ENDBRANCH   4   5
ENDBRANCH   3   4
ENDBRANCH   2   3
ENDBRANCH   1   2
BRANCH   1  11
ATOM     11  C   UNL     1      10.615   6.915  12.922  1.00  0.00     0.000 C 
BRANCH  11  12
ATOM     12  C   UNL     1      10.332   6.091  14.188  1.00  0.00    -0.000 C 
BRANCH  12  13
ATOM     13  C   UNL     1      10.109   4.600  13.882  1.00  0.00    -0.000 C 
BRANCH  13  14
ATOM     14  C   UNL     1      10.852   3.674  14.862  1.00  0.00    -0.000 C 
BRANCH  14  15
ATOM     15  C   UNL     1      11.524   2.446  14.215  1.00  0.00    -0.000 C 
BRANCH  15  16
ATOM     16  C   UNL     1      13.053   2.376  14.377  1.00  0.00    -0.000 C 
BRANCH  16  17
ATOM     17  C   UNL     1      13.489   1.460  15.528  1.00  0.00    -0.003 C 
ATOM     18  C   UNL     1      12.447   0.375  15.790  1.00  0.00     0.004 C 
ENDBRANCH  16  17
ENDBRANCH  15  16
ENDBRANCH  14  15
ENDBRANCH  13  14
ENDBRANCH  12  13
ENDBRANCH  11  12
ENDBRANCH   1  11
TORSDOF 14
ENDMDL
MODEL 2
REMARK VINA RESULT:    -4.440      1.836      2.241
REMARK INTER + INTRA:          -9.928
REMARK INTER:                  -7.753
REMARK INTRA:                  -2.175
REMARK UNBOUND:                -1.853
REMARK SMILES CCCCCCCCCCCCCCCC(=O)[O-]
REMARK SMILES IDX 9 1 10 2 11 3 12 4 13 5 14 6 15 7 16 8 17 9 18 10 8 11 7 12
REMARK SMILES IDX 6 13 5 14 4 15 3 16 2 17 1 18
REMARK H PARENT
REMARK Flexibility Score: inf
ROOT
ATOM      1  C   UNL     1      10.291   6.260  12.426  1.00  0.00     0.000 C 
ENDROOT
BRANCH   1   2
ATOM      2  C   UNL     1      11.634   6.797  11.906  1.00  0.00     0.000 C 
BRANCH   2   3
ATOM      3  C   UNL     1      11.863   6.472  10.420  1.00  0.00     0.000 C 
BRANCH   3   4
ATOM      4  C   UNL     1      11.795   4.964  10.120  1.00  0.00     0.000 C 
BRANCH   4   5
ATOM      5  C   UNL     1      10.487   4.493   9.458  1.00  0.00     0.000 C 
BRANCH   5   6
ATOM      6  C   UNL     1      10.514   3.008   9.066  1.00  0.00     0.006 C 
BRANCH   6   7
ATOM      7  C   UNL     1      11.870   2.378   9.398  1.00  0.00     0.053 C 
BRANCH   7   8
ATOM      8  C   UNL     1      11.738   0.895   9.543  1.00  0.00     0.041 C 
ATOM      9  O   UNL     1      10.927   0.258   8.820  1.00  0.00    -0.550 OA
ATOM     10  O   UNL     1      12.473   0.223  10.511  1.00  0.00    -0.550 OA
ENDBRANCH   7   8
ENDBRANCH   6   7
ENDBRANCH   5   6
ENDBRANCH   4   5
ENDBRANCH   3   4
ENDBRANCH   2   3
ENDBRANCH   1   2
BRANCH   1  11
ATOM     11  C   UNL     1      10.297   6.032  13.949  1.00  0.00     0.000 C 
BRANCH  11  12
ATOM     12  C   UNL     1      10.470   4.551  14.320  1.00  0.00    -0.000 C 
BRANCH  12  13
ATOM     13  C   UNL     1       9.919   3.604  13.239  1.00  0.00    -0.000 C 
BRANCH  13  14
ATOM     14  C   UNL     1      10.914   2.497  12.853  1.00  0.00    -0.000 C 
BRANCH  14  15
ATOM     15  C   UNL     1      12.401   2.874  13.011  1.00  0.00    -0.000 C 
BRANCH  15  16
ATOM     16  C   UNL     1      13.294   1.775  13.617  1.00  0.00    -0.000 C 
BRANCH  16  17
ATOM     17  C   UNL     1      13.667   2.051  15.080  1.00  0.00    -0.003 C 
ATOM     18  C   UNL     1      12.523   1.676  16.018  1.00  0.00     0.004 C 
ENDBRANCH  16  17
ENDBRANCH  15  16
ENDBRANCH  14  15
ENDBRANCH  13  14
ENDBRANCH  12  13
ENDBRANCH  11  12
ENDBRANCH   1  11
TORSDOF 14
ENDMDL
MODEL 3
REMARK VINA RESULT:    -4.386      4.255      6.010
REMARK INTER + INTRA:          -9.829
REMARK INTER:                  -8.819
REMARK INTRA:                  -1.010
REMARK UNBOUND:                -1.853
REMARK SMILES CCCCCCCCCCCCCCCC(=O)[O-]
REMARK SMILES IDX 9 1 10 2 11 3 12 4 13 5 14 6 15 7 16 8 17 9 18 10 8 11 7 12
REMARK SMILES IDX 6 13 5 14 4 15 3 16 2 17 1 18
REMARK H PARENT
REMARK Flexibility Score: inf
ROOT
ATOM      1  C   UNL     1      10.398   6.045  12.458  1.00  0.00     0.000 C 
ENDROOT
BRANCH   1   2
ATOM      2  C   UNL     1      11.318   7.237  12.153  1.00  0.00     0.000 C 
BRANCH   2   3
ATOM      3  C   UNL     1      11.718   7.309  10.669  1.00  0.00     0.000 C 
BRANCH   3   4
ATOM      4  C   UNL     1      12.121   8.726  10.226  1.00  0.00     0.000 C 
BRANCH   4   5
ATOM      5  C   UNL     1      11.579   9.862  11.114  1.00  0.00     0.000 C 
BRANCH   5   6
ATOM      6  C   UNL     1      12.483  11.104  11.117  1.00  0.00     0.006 C 
BRANCH   6   7
ATOM      7  C   UNL     1      12.372  11.866   9.794  1.00  0.00     0.053 C 
BRANCH   7   8
ATOM      8  C   UNL     1      12.028  13.301  10.042  1.00  0.00     0.041 C 
ATOM      9  O   UNL     1      10.944  13.603  10.607  1.00  0.00    -0.550 OA
ATOM     10  O   UNL     1      12.881  14.306   9.603  1.00  0.00    -0.550 OA
ENDBRANCH   7   8
ENDBRANCH   6   7
ENDBRANCH   5   6
ENDBRANCH   4   5
ENDBRANCH   3   4
ENDBRANCH   2   3
ENDBRANCH   1   2
BRANCH   1  11
ATOM     11  C   UNL     1      10.145   5.164  11.221  1.00  0.00     0.000 C 
BRANCH  11  12
ATOM     12  C   UNL     1      10.822   3.788  11.330  1.00  0.00    -0.000 C 
BRANCH  12  13
ATOM     13  C   UNL     1      12.198   3.753  10.643  1.00  0.00    -0.000 C 
BRANCH  13  14
ATOM     14  C   UNL     1      13.310   3.223  11.565  1.00  0.00    -0.000 C 
BRANCH  14  15
ATOM     15  C   UNL     1      12.825   2.680  12.924  1.00  0.00    -0.000 C 
BRANCH  15  16
ATOM     16  C   UNL     1      13.044   1.171  13.140  1.00  0.00    -0.000 C 
BRANCH  16  17
ATOM     17  C   UNL     1      13.283   0.809  14.613  1.00  0.00    -0.003 C 
ATOM     18  C   UNL     1      13.879   1.988  15.378  1.00  0.00     0.004 C 
ENDBRANCH  16  17
ENDBRANCH  15  16
ENDBRANCH  14  15
ENDBRANCH  13  14
ENDBRANCH  12  13
ENDBRANCH  11  12
ENDBRANCH   1  11
TORSDOF 14
ENDMDL
MODEL 4
REMARK VINA RESULT:    -4.374      3.430      5.687
REMARK INTER + INTRA:          -9.808
REMARK INTER:                  -8.177
REMARK INTRA:                  -1.630
REMARK UNBOUND:                -1.853
REMARK SMILES CCCCCCCCCCCCCCCC(=O)[O-]
REMARK SMILES IDX 9 1 10 2 11 3 12 4 13 5 14 6 15 7 16 8 17 9 18 10 8 11 7 12
REMARK SMILES IDX 6 13 5 14 4 15 3 16 2 17 1 18
REMARK H PARENT
REMARK Flexibility Score: inf
ROOT
ATOM      1  C   UNL     1      13.113   4.281  11.281  1.00  0.00     0.000 C 
ENDROOT
BRANCH   1   2
ATOM      2  C   UNL     1      12.054   4.286  10.167  1.00  0.00     0.000 C 
BRANCH   2   3
ATOM      3  C   UNL     1      11.099   5.487  10.267  1.00  0.00     0.000 C 
BRANCH   3   4
ATOM      4  C   UNL     1      11.710   6.674  11.033  1.00  0.00     0.000 C 
BRANCH   4   5
ATOM      5  C   UNL     1      12.153   7.856  10.150  1.00  0.00     0.000 C 
BRANCH   5   6
ATOM      6  C   UNL     1      11.736   9.220  10.721  1.00  0.00     0.006 C 
BRANCH   6   7
ATOM      7  C   UNL     1      12.488  10.359  10.026  1.00  0.00     0.053 C 
BRANCH   7   8
ATOM      8  C   UNL     1      12.239  11.657  10.727  1.00  0.00     0.041 C 
ATOM      9  O   UNL     1      12.030  11.676  11.968  1.00  0.00    -0.550 OA
ATOM     10  O   UNL     1      12.185  12.840  10.000  1.00  0.00    -0.550 OA
ENDBRANCH   7   8
ENDBRANCH   6   7
ENDBRANCH   5   6
ENDBRANCH   4   5
ENDBRANCH   3   4
ENDBRANCH   2   3
ENDBRANCH   1   2
BRANCH   1  11
ATOM     11  C   UNL     1      13.458   2.860  11.761  1.00  0.00     0.000 C 
BRANCH  11  12
ATOM     12  C   UNL     1      12.332   2.234  12.600  1.00  0.00    -0.000 C 
BRANCH  12  13
ATOM     13  C   UNL     1      12.433   2.604  14.090  1.00  0.00    -0.000 C 
BRANCH  13  14
ATOM     14  C   UNL     1      11.172   3.313  14.613  1.00  0.00    -0.000 C 
BRANCH  14  15
ATOM     15  C   UNL     1      10.152   3.713  13.528  1.00  0.00    -0.000 C 
BRANCH  15  16
ATOM     16  C   UNL     1       9.520   5.106  13.706  1.00  0.00    -0.000 C 
BRANCH  16  17
ATOM     17  C   UNL     1      10.480   6.116  14.349  1.00  0.00    -0.003 C 
ATOM     18  C   UNL     1       9.823   6.820  15.533  1.00  0.00     0.004 C 
ENDBRANCH  16  17
ENDBRANCH  15  16
ENDBRANCH  14  15
ENDBRANCH  13  14
ENDBRANCH  12  13
ENDBRANCH  11  12
ENDBRANCH   1  11
TORSDOF 14
ENDMDL
MODEL 5
REMARK VINA RESULT:    -4.359      2.781      5.443
REMARK INTER + INTRA:          -9.780
REMARK INTER:                  -7.256
REMARK INTRA:                  -2.525
REMARK UNBOUND:                -1.853
REMARK SMILES CCCCCCCCCCCCCCCC(=O)[O-]
REMARK SMILES IDX 9 1 10 2 11 3 12 4 13 5 14 6 15 7 16 8 17 9 18 10 8 11 7 12
REMARK SMILES IDX 6 13 5 14 4 15 3 16 2 17 1 18
REMARK H PARENT
REMARK Flexibility Score: inf
ROOT
ATOM      1  C   UNL     1      11.577   6.587  12.256  1.00  0.00     0.000 C 
ENDROOT
BRANCH   1   2
ATOM      2  C   UNL     1      10.174   6.163  12.718  1.00  0.00     0.000 C 
BRANCH   2   3
ATOM      3  C   UNL     1      10.084   5.988  14.244  1.00  0.00     0.000 C 
BRANCH   3   4
ATOM      4  C   UNL     1      10.554   4.601  14.716  1.00  0.00     0.000 C 
BRANCH   4   5
ATOM      5  C   UNL     1      10.197   3.439  13.771  1.00  0.00     0.000 C 
BRANCH   5   6
ATOM      6  C   UNL     1      11.034   2.177  14.029  1.00  0.00     0.006 C 
BRANCH   6   7
ATOM      7  C   UNL     1      12.013   2.395  15.186  1.00  0.00     0.053 C 
BRANCH   7   8
ATOM      8  C   UNL     1      13.381   1.920  14.812  1.00  0.00     0.041 C 
ATOM      9  O   UNL     1      13.531   1.107  13.862  1.00  0.00    -0.550 OA
ATOM     10  O   UNL     1      14.486   2.334  15.546  1.00  0.00    -0.550 OA
ENDBRANCH   7   8
ENDBRANCH   6   7
ENDBRANCH   5   6
ENDBRANCH   4   5
ENDBRANCH   3   4
ENDBRANCH   2   3
ENDBRANCH   1   2
BRANCH   1  11
ATOM     11  C   UNL     1      11.721   6.575  10.723  1.00  0.00     0.000 C 
BRANCH  11  12
ATOM     12  C   UNL     1      12.760   5.551  10.238  1.00  0.00    -0.000 C 
BRANCH  12  13
ATOM     13  C   UNL     1      13.168   4.560  11.342  1.00  0.00    -0.000 C 
BRANCH  13  14
ATOM     14  C   UNL     1      12.902   3.095  10.954  1.00  0.00    -0.000 C 
BRANCH  14  15
ATOM     15  C   UNL     1      11.859   2.897   9.835  1.00  0.00    -0.000 C 
BRANCH  15  16
ATOM     16  C   UNL     1      10.436   2.563  10.320  1.00  0.00    -0.000 C 
BRANCH  16  17
ATOM     17  C   UNL     1       9.426   3.676  10.011  1.00  0.00    -0.003 C 
ATOM     18  C   UNL     1       9.692   4.294   8.640  1.00  0.00     0.004 C 
ENDBRANCH  16  17
ENDBRANCH  15  16
ENDBRANCH  14  15
ENDBRANCH  13  14
ENDBRANCH  12  13
ENDBRANCH  11  12
ENDBRANCH   1  11
TORSDOF 14
ENDMDL
MODEL 6
REMARK VINA RESULT:    -4.353      3.446      5.438
REMARK INTER + INTRA:          -9.770
REMARK INTER:                  -8.505
REMARK INTRA:                  -1.265
REMARK UNBOUND:                -1.853
REMARK SMILES CCCCCCCCCCCCCCCC(=O)[O-]
REMARK SMILES IDX 9 1 10 2 11 3 12 4 13 5 14 6 15 7 16 8 17 9 18 10 8 11 7 12
REMARK SMILES IDX 6 13 5 14 4 15 3 16 2 17 1 18
REMARK H PARENT
REMARK Flexibility Score: inf
ROOT
ATOM      1  C   UNL     1       9.494   4.397  10.517  1.00  0.00     0.000 C 
ENDROOT
BRANCH   1   2
ATOM      2  C   UNL     1      10.347   5.498  11.169  1.00  0.00     0.000 C 
BRANCH   2   3
ATOM      3  C   UNL     1      11.641   5.781  10.387  1.00  0.00     0.000 C 
BRANCH   3   4
ATOM      4  C   UNL     1      12.037   7.268  10.405  1.00  0.00     0.000 C 
BRANCH   4   5
ATOM      5  C   UNL     1      11.437   8.085  11.565  1.00  0.00     0.000 C 
BRANCH   5   6
ATOM      6  C   UNL     1      11.778   9.581  11.484  1.00  0.00     0.006 C 
BRANCH   6   7
ATOM      7  C   UNL     1      12.302   9.950  10.093  1.00  0.00     0.053 C 
BRANCH   7   8
ATOM      8  C   UNL     1      12.382  11.436   9.940  1.00  0.00     0.041 C 
ATOM      9  O   UNL     1      12.155  12.187  10.925  1.00  0.00    -0.550 OA
ATOM     10  O   UNL     1      12.657  11.993   8.697  1.00  0.00    -0.550 OA
ENDBRANCH   7   8
ENDBRANCH   6   7
ENDBRANCH   5   6
ENDBRANCH   4   5
ENDBRANCH   3   4
ENDBRANCH   2   3
ENDBRANCH   1   2
BRANCH   1  11
ATOM     11  C   UNL     1      10.008   4.004   9.120  1.00  0.00     0.000 C 
BRANCH  11  12
ATOM     12  C   UNL     1      10.234   2.490   8.983  1.00  0.00    -0.000 C 
BRANCH  12  13
ATOM     13  C   UNL     1      10.793   1.859  10.270  1.00  0.00    -0.000 C 
BRANCH  13  14
ATOM     14  C   UNL     1      12.323   1.985  10.379  1.00  0.00    -0.000 C 
BRANCH  14  15
ATOM     15  C   UNL     1      12.911   1.614  11.755  1.00  0.00    -0.000 C 
BRANCH  15  16
ATOM     16  C   UNL     1      12.347   2.412  12.944  1.00  0.00    -0.000 C 
BRANCH  16  17
ATOM     17  C   UNL     1      13.209   2.288  14.207  1.00  0.00    -0.003 C 
ATOM     18  C   UNL     1      13.323   0.832  14.653  1.00  0.00     0.004 C 
ENDBRANCH  16  17
ENDBRANCH  15  16
ENDBRANCH  14  15
ENDBRANCH  13  14
ENDBRANCH  12  13
ENDBRANCH  11  12
ENDBRANCH   1  11
TORSDOF 14
ENDMDL
MODEL 7
REMARK VINA RESULT:    -4.288      1.187      3.081
REMARK INTER + INTRA:          -9.650
REMARK INTER:                  -7.446
REMARK INTRA:                  -2.205
REMARK UNBOUND:                -1.853
REMARK SMILES CCCCCCCCCCCCCCCC(=O)[O-]
REMARK SMILES IDX 9 1 10 2 11 3 12 4 13 5 14 6 15 7 16 8 17 9 18 10 8 11 7 12
REMARK SMILES IDX 6 13 5 14 4 15 3 16 2 17 1 18
REMARK H PARENT
REMARK Flexibility Score: inf
ROOT
ATOM      1  C   UNL     1      11.342   6.785  12.330  1.00  0.00     0.000 C 
ENDROOT
BRANCH   1   2
ATOM      2  C   UNL     1      10.151   6.356  13.201  1.00  0.00     0.000 C 
BRANCH   2   3
ATOM      3  C   UNL     1      10.367   4.983  13.859  1.00  0.00     0.000 C 
BRANCH   3   4
ATOM      4  C   UNL     1       9.307   3.947  13.444  1.00  0.00     0.000 C 
BRANCH   4   5
ATOM      5  C   UNL     1       9.658   3.128  12.187  1.00  0.00     0.000 C 
BRANCH   5   6
ATOM      6  C   UNL     1       8.459   2.928  11.248  1.00  0.00     0.006 C 
BRANCH   6   7
ATOM      7  C   UNL     1       8.502   3.925  10.085  1.00  0.00     0.053 C 
BRANCH   7   8
ATOM      8  C   UNL     1       9.473   3.472   9.041  1.00  0.00     0.041 C 
ATOM      9  O   UNL     1      10.038   4.313   8.294  1.00  0.00    -0.550 OA
ATOM     10  O   UNL     1       9.716   2.116   8.860  1.00  0.00    -0.550 OA
ENDBRANCH   7   8
ENDBRANCH   6   7
ENDBRANCH   5   6
ENDBRANCH   4   5
ENDBRANCH   3   4
ENDBRANCH   2   3
ENDBRANCH   1   2
BRANCH   1  11
ATOM     11  C   UNL     1      11.232   6.266  10.884  1.00  0.00     0.000 C 
BRANCH  11  12
ATOM     12  C   UNL     1      12.580   5.775  10.332  1.00  0.00    -0.000 C 
BRANCH  12  13
ATOM     13  C   UNL     1      13.182   4.638  11.176  1.00  0.00    -0.000 C 
BRANCH  13  14
ATOM     14  C   UNL     1      12.815   3.243  10.641  1.00  0.00    -0.000 C 
BRANCH  14  15
ATOM     15  C   UNL     1      13.084   2.080  11.618  1.00  0.00    -0.000 C 
BRANCH  15  16
ATOM     16  C   UNL     1      13.252   2.490  13.093  1.00  0.00    -0.000 C 
BRANCH  16  17
ATOM     17  C   UNL     1      13.192   1.294  14.053  1.00  0.00    -0.003 C 
ATOM     18  C   UNL     1      13.591   1.707  15.468  1.00  0.00     0.004 C 
ENDBRANCH  16  17
ENDBRANCH  15  16
ENDBRANCH  14  15
ENDBRANCH  13  14
ENDBRANCH  12  13
ENDBRANCH  11  12
ENDBRANCH   1  11
TORSDOF 14
ENDMDL
MODEL 8
REMARK VINA RESULT:    -4.266      1.924      2.372
REMARK INTER + INTRA:          -9.611
REMARK INTER:                  -7.744
REMARK INTRA:                  -1.868
REMARK UNBOUND:                -1.853
REMARK SMILES CCCCCCCCCCCCCCCC(=O)[O-]
REMARK SMILES IDX 9 1 10 2 11 3 12 4 13 5 14 6 15 7 16 8 17 9 18 10 8 11 7 12
REMARK SMILES IDX 6 13 5 14 4 15 3 16 2 17 1 18
REMARK H PARENT
REMARK Flexibility Score: inf
ROOT
ATOM      1  C   UNL     1      11.300   7.314  11.500  1.00  0.00     0.000 C 
ENDROOT
BRANCH   1   2
ATOM      2  C   UNL     1      12.055   6.683  10.319  1.00  0.00     0.000 C 
BRANCH   2   3
ATOM      3  C   UNL     1      12.176   5.155  10.445  1.00  0.00     0.000 C 
BRANCH   3   4
ATOM      4  C   UNL     1      13.486   4.712  11.121  1.00  0.00     0.000 C 
BRANCH   4   5
ATOM      5  C   UNL     1      13.459   3.294  11.720  1.00  0.00     0.000 C 
BRANCH   5   6
ATOM      6  C   UNL     1      12.626   2.307  10.887  1.00  0.00     0.006 C 
BRANCH   6   7
ATOM      7  C   UNL     1      12.674   0.901  11.493  1.00  0.00     0.053 C 
BRANCH   7   8
ATOM      8  C   UNL     1      11.344   0.229  11.364  1.00  0.00     0.041 C 
ATOM      9  O   UNL     1      11.256  -1.024  11.449  1.00  0.00    -0.550 OA
ATOM     10  O   UNL     1      10.207   0.983  11.098  1.00  0.00    -0.550 OA
ENDBRANCH   7   8
ENDBRANCH   6   7
ENDBRANCH   5   6
ENDBRANCH   4   5
ENDBRANCH   3   4
ENDBRANCH   2   3
ENDBRANCH   1   2
BRANCH   1  11
ATOM     11  C   UNL     1      10.479   6.281  12.293  1.00  0.00     0.000 C 
BRANCH  11  12
ATOM     12  C   UNL     1      10.469   6.572  13.802  1.00  0.00    -0.000 C 
BRANCH  12  13
ATOM     13  C   UNL     1      10.421   5.288  14.649  1.00  0.00    -0.000 C 
BRANCH  13  14
ATOM     14  C   UNL     1      10.034   4.047  13.827  1.00  0.00    -0.000 C 
BRANCH  14  15
ATOM     15  C   UNL     1      10.872   2.786  14.117  1.00  0.00    -0.000 C 
BRANCH  15  16
ATOM     16  C   UNL     1      11.310   2.614  15.583  1.00  0.00    -0.000 C 
BRANCH  16  17
ATOM     17  C   UNL     1      12.420   1.568  15.754  1.00  0.00    -0.003 C 
ATOM     18  C   UNL     1      13.746   2.077  15.194  1.00  0.00     0.004 C 
ENDBRANCH  16  17
ENDBRANCH  15  16
ENDBRANCH  14  15
ENDBRANCH  13  14
ENDBRANCH  12  13
ENDBRANCH  11  12
ENDBRANCH   1  11
TORSDOF 14
ENDMDL
MODEL 9
REMARK VINA RESULT:    -4.230      3.237      5.446
REMARK INTER + INTRA:          -9.545
REMARK INTER:                  -7.093
REMARK INTRA:                  -2.451
REMARK UNBOUND:                -1.853
REMARK SMILES CCCCCCCCCCCCCCCC(=O)[O-]
REMARK SMILES IDX 9 1 10 2 11 3 12 4 13 5 14 6 15 7 16 8 17 9 18 10 8 11 7 12
REMARK SMILES IDX 6 13 5 14 4 15 3 16 2 17 1 18
REMARK H PARENT
REMARK Flexibility Score: inf
ROOT
ATOM      1  C   UNL     1      12.851   4.564  10.893  1.00  0.00     0.000 C 
ENDROOT
BRANCH   1   2
ATOM      2  C   UNL     1      13.597   3.501  11.714  1.00  0.00     0.000 C 
BRANCH   2   3
ATOM      3  C   UNL     1      12.918   2.122  11.649  1.00  0.00     0.000 C 
BRANCH   3   4
ATOM      4  C   UNL     1      12.750   1.473  13.035  1.00  0.00     0.000 C 
BRANCH   4   5
ATOM      5  C   UNL     1      13.561   2.134  14.164  1.00  0.00     0.000 C 
BRANCH   5   6
ATOM      6  C   UNL     1      12.953   1.902  15.555  1.00  0.00     0.006 C 
BRANCH   6   7
ATOM      7  C   UNL     1      11.446   1.647  15.459  1.00  0.00     0.053 C 
BRANCH   7   8
ATOM      8  C   UNL     1      10.764   2.048  16.728  1.00  0.00     0.041 C 
ATOM      9  O   UNL     1      10.665   1.231  17.681  1.00  0.00    -0.550 OA
ATOM     10  O   UNL     1      10.191   3.310  16.840  1.00  0.00    -0.550 OA
ENDBRANCH   7   8
ENDBRANCH   6   7
ENDBRANCH   5   6
ENDBRANCH   4   5
ENDBRANCH   3   4
ENDBRANCH   2   3
ENDBRANCH   1   2
BRANCH   1  11
ATOM     11  C   UNL     1      11.751   3.956  10.003  1.00  0.00     0.000 C 
BRANCH  11  12
ATOM     12  C   UNL     1      10.539   4.888   9.849  1.00  0.00    -0.000 C 
BRANCH  12  13
ATOM     13  C   UNL     1       9.265   4.308  10.488  1.00  0.00    -0.000 C 
BRANCH  13  14
ATOM     14  C   UNL     1       9.567   3.347  11.651  1.00  0.00    -0.000 C 
BRANCH  14  15
ATOM     15  C   UNL     1       9.341   3.936  13.058  1.00  0.00    -0.000 C 
BRANCH  15  16
ATOM     16  C   UNL     1      10.499   4.793  13.603  1.00  0.00    -0.000 C 
BRANCH  16  17
ATOM     17  C   UNL     1      10.122   6.272  13.758  1.00  0.00    -0.003 C 
ATOM     18  C   UNL     1      10.875   7.139  12.752  1.00  0.00     0.004 C 
ENDBRANCH  16  17
ENDBRANCH  15  16
ENDBRANCH  14  15
ENDBRANCH  13  14
ENDBRANCH  12  13
ENDBRANCH  11  12
ENDBRANCH   1  11
TORSDOF 14
ENDMDL
