MODEL 1
REMARK VINA RESULT:    -7.056      0.000      0.000
REMARK INTER + INTRA:         -11.704
REMARK INTER:                 -10.356
REMARK INTRA:                  -1.348
REMARK UNBOUND:                -1.348
REMARK SMILES Cc1cc2c(C(C)C)c(O)c(O)c(C=O)c2c(O)c1-c1c(C)cc2c(C(C)C)c(O)c(O)c(C=O)c2c1O
REMARK SMILES IDX 1 1 2 2 3 3 4 4 16 5 13 6 11 7 9 8 5 9 17 10 19 11 20 12
REMARK SMILES IDX 37 13 21 14 36 15 23 16 22 17 24 18 33 19 25 20 31 21 29 22
REMARK SMILES IDX 38 23 34 25 35 26 26 27 27 28 28 29 32 30 30 32 18 34 6 36
REMARK SMILES IDX 7 37 8 38 14 39 15 40 10 41 12 43
REMARK H PARENT 38 24 32 31 30 33 18 35 10 42 12 44
REMARK Flexibility Score: inf
ROOT
ATOM      1  C   UNL     1     139.077 129.013 140.954  1.00  0.00     0.045 C 
ATOM      2  C   UNL     1     138.231 128.245 139.967  1.00  0.00    -0.039 A 
ATOM      3  C   UNL     1     138.769 127.131 139.321  1.00  0.00     0.013 A 
ATOM      4  C   UNL     1     138.026 126.370 138.395  1.00  0.00    -0.006 A 
ATOM      5  C   UNL     1     136.732 126.842 138.014  1.00  0.00     0.039 A 
ATOM      6  C   UNL     1     136.056 126.209 136.932  1.00  0.00     0.072 A 
ATOM      7  C   UNL     1     136.607 125.058 136.337  1.00  0.00     0.169 A 
ATOM      8  C   UNL     1     137.822 124.534 136.792  1.00  0.00     0.162 A 
ATOM      9  C   UNL     1     138.542 125.157 137.836  1.00  0.00     0.008 A 
ATOM     10  C   UNL     1     136.145 127.912 138.752  1.00  0.00     0.132 A 
ATOM     11  C   UNL     1     136.905 128.623 139.704  1.00  0.00     0.031 A 
ENDROOT
BRANCH  11  12
ATOM     12  C   UNL     1     136.304 129.770 140.433  1.00  0.00     0.031 A 
ATOM     13  C   UNL     1     135.431 129.541 141.519  1.00  0.00     0.132 A 
ATOM     14  C   UNL     1     136.580 131.083 140.017  1.00  0.00    -0.039 A 
ATOM     15  C   UNL     1     134.796 130.635 142.179  1.00  0.00     0.039 A 
ATOM     16  C   UNL     1     136.025 132.156 140.714  1.00  0.00     0.013 A 
ATOM     17  C   UNL     1     137.418 131.357 138.792  1.00  0.00     0.045 C 
ATOM     18  C   UNL     1     135.191 131.963 141.837  1.00  0.00    -0.006 A 
ATOM     19  C   UNL     1     133.778 130.451 143.165  1.00  0.00     0.072 A 
ATOM     20  C   UNL     1     134.718 133.072 142.601  1.00  0.00     0.008 A 
ATOM     21  C   UNL     1     133.180 131.576 143.771  1.00  0.00     0.169 A 
ATOM     22  C   UNL     1     133.648 132.866 143.498  1.00  0.00     0.162 A 
BRANCH  13  23
ATOM     23  O   UNL     1     135.210 128.229 141.951  1.00  0.00    -0.507 OA
ATOM     24  H   UNL     1     134.392 127.934 142.471  1.00  0.00     0.293 HD
ENDBRANCH  13  23
BRANCH  19  25
ATOM     25  C   UNL     1     133.254 129.113 143.505  1.00  0.00     0.264 C 
ATOM     26  O   UNL     1     132.186 128.691 142.987  1.00  0.00    -0.298 OA
ENDBRANCH  19  25
BRANCH  20  27
ATOM     27  C   UNL     1     135.333 134.475 142.454  1.00  0.00     0.017 C 
ATOM     28  C   UNL     1     134.404 135.398 141.658  1.00  0.00     0.012 C 
ATOM     29  C   UNL     1     135.747 135.113 143.793  1.00  0.00     0.012 C 
ENDBRANCH  20  27
BRANCH  21  30
ATOM     30  O   UNL     1     132.089 131.446 144.639  1.00  0.00    -0.504 OA
ATOM     31  H   UNL     1     132.071 131.802 145.585  1.00  0.00     0.293 HD
ENDBRANCH  21  30
BRANCH  22  32
ATOM     32  O   UNL     1     133.025 133.960 144.103  1.00  0.00    -0.504 OA
ATOM     33  H   UNL     1     133.243 134.921 143.868  1.00  0.00     0.293 HD
ENDBRANCH  22  32
ENDBRANCH  11  12
BRANCH  10  34
ATOM     34  O   UNL     1     134.796 128.237 138.569  1.00  0.00    -0.507 OA
ATOM     35  H   UNL     1     134.475 129.088 138.126  1.00  0.00     0.293 HD
ENDBRANCH  10  34
BRANCH   9  36
ATOM     36  C   UNL     1     139.834 124.469 138.320  1.00  0.00     0.017 C 
ATOM     37  C   UNL     1     141.087 125.286 137.983  1.00  0.00     0.012 C 
ATOM     38  C   UNL     1     139.793 123.999 139.789  1.00  0.00     0.012 C 
ENDBRANCH   9  36
BRANCH   6  39
ATOM     39  C   UNL     1     134.834 126.778 136.325  1.00  0.00     0.264 C 
ATOM     40  O   UNL     1     133.737 126.165 136.403  1.00  0.00    -0.298 OA
ENDBRANCH   6  39
BRANCH   8  41
ATOM     41  O   UNL     1     138.336 123.382 136.185  1.00  0.00    -0.504 OA
ATOM     42  H   UNL     1     138.425 122.496 136.666  1.00  0.00     0.293 HD
ENDBRANCH   8  41
BRANCH   7  43
ATOM     43  O   UNL     1     135.976 124.415 135.264  1.00  0.00    -0.504 OA
ATOM     44  H   UNL     1     135.445 124.892 134.548  1.00  0.00     0.293 HD
ENDBRANCH   7  43
TORSDOF 11
ENDMDL
MODEL 2
REMARK VINA RESULT:    -6.854      0.505      8.908
REMARK INTER + INTRA:         -11.408
REMARK INTER:                 -10.280
REMARK INTRA:                  -1.127
REMARK UNBOUND:                -1.348
REMARK SMILES Cc1cc2c(C(C)C)c(O)c(O)c(C=O)c2c(O)c1-c1c(C)cc2c(C(C)C)c(O)c(O)c(C=O)c2c1O
REMARK SMILES IDX 1 1 2 2 3 3 4 4 16 5 13 6 11 7 9 8 5 9 17 10 19 11 20 12
REMARK SMILES IDX 37 13 21 14 36 15 23 16 22 17 24 18 33 19 25 20 31 21 29 22
REMARK SMILES IDX 38 23 34 25 35 26 26 27 27 28 28 29 32 30 30 32 18 34 6 36
REMARK SMILES IDX 7 37 8 38 14 39 15 40 10 41 12 43
REMARK H PARENT 38 24 32 31 30 33 18 35 10 42 12 44
REMARK Flexibility Score: inf
ROOT
ATOM      1  C   UNL     1     137.998 131.128 139.350  1.00  0.00     0.045 C 
ATOM      2  C   UNL     1     136.828 130.963 140.290  1.00  0.00    -0.039 A 
ATOM      3  C   UNL     1     136.279 132.087 140.909  1.00  0.00     0.013 A 
ATOM      4  C   UNL     1     135.182 131.996 141.791  1.00  0.00    -0.006 A 
ATOM      5  C   UNL     1     134.715 130.697 142.159  1.00  0.00     0.039 A 
ATOM      6  C   UNL     1     133.752 130.578 143.203  1.00  0.00     0.072 A 
ATOM      7  C   UNL     1     133.186 131.735 143.770  1.00  0.00     0.169 A 
ATOM      8  C   UNL     1     133.566 133.006 143.324  1.00  0.00     0.162 A 
ATOM      9  C   UNL     1     134.546 133.165 142.319  1.00  0.00     0.008 A 
ATOM     10  C   UNL     1     135.203 129.563 141.446  1.00  0.00     0.132 A 
ATOM     11  C   UNL     1     136.272 129.697 140.536  1.00  0.00     0.031 A 
ENDROOT
BRANCH  11  12
ATOM     12  C   UNL     1     136.811 128.504 139.834  1.00  0.00     0.031 A 
ATOM     13  C   UNL     1     136.210 128.054 138.637  1.00  0.00     0.132 A 
ATOM     14  C   UNL     1     137.897 127.803 140.382  1.00  0.00    -0.039 A 
ATOM     15  C   UNL     1     136.678 126.869 137.995  1.00  0.00     0.039 A 
ATOM     16  C   UNL     1     138.407 126.691 139.711  1.00  0.00     0.013 A 
ATOM     17  C   UNL     1     138.488 128.191 141.716  1.00  0.00     0.045 C 
ATOM     18  C   UNL     1     137.865 126.248 138.485  1.00  0.00    -0.006 A 
ATOM     19  C   UNL     1     136.000 126.280 136.884  1.00  0.00     0.072 A 
ATOM     20  C   UNL     1     138.466 125.175 137.760  1.00  0.00     0.008 A 
ATOM     21  C   UNL     1     136.506 125.099 136.302  1.00  0.00     0.169 A 
ATOM     22  C   UNL     1     137.725 124.560 136.729  1.00  0.00     0.162 A 
BRANCH  13  23
ATOM     23  O   UNL     1     135.164 128.796 138.079  1.00  0.00    -0.507 OA
ATOM     24  H   UNL     1     135.242 129.331 137.222  1.00  0.00     0.293 HD
ENDBRANCH  13  23
BRANCH  19  25
ATOM     25  C   UNL     1     134.719 126.813 136.379  1.00  0.00     0.264 C 
ATOM     26  O   UNL     1     133.687 126.091 136.358  1.00  0.00    -0.298 OA
ENDBRANCH  19  25
BRANCH  20  27
ATOM     27  C   UNL     1     139.882 124.671 138.090  1.00  0.00     0.017 C 
ATOM     28  C   UNL     1     140.874 125.837 138.161  1.00  0.00     0.012 C 
ATOM     29  C   UNL     1     139.949 123.798 139.357  1.00  0.00     0.012 C 
ENDBRANCH  20  27
BRANCH  21  30
ATOM     30  O   UNL     1     135.803 124.415 135.302  1.00  0.00    -0.504 OA
ATOM     31  H   UNL     1     134.882 124.677 134.976  1.00  0.00     0.293 HD
ENDBRANCH  21  30
BRANCH  22  32
ATOM     32  O   UNL     1     138.192 123.380 136.143  1.00  0.00    -0.504 OA
ATOM     33  H   UNL     1     139.132 123.279 135.777  1.00  0.00     0.293 HD
ENDBRANCH  22  32
ENDBRANCH  11  12
BRANCH  10  34
ATOM     34  O   UNL     1     134.594 128.313 141.609  1.00  0.00    -0.507 OA
ATOM     35  H   UNL     1     134.446 127.870 142.506  1.00  0.00     0.293 HD
ENDBRANCH  10  34
BRANCH   9  36
ATOM     36  C   UNL     1     134.850 134.599 141.841  1.00  0.00     0.017 C 
ATOM     37  C   UNL     1     133.795 135.117 140.855  1.00  0.00     0.012 C 
ATOM     38  C   UNL     1     135.162 135.596 142.976  1.00  0.00     0.012 C 
ENDBRANCH   9  36
BRANCH   6  39
ATOM     39  C   UNL     1     133.397 129.274 143.801  1.00  0.00     0.264 C 
ATOM     40  O   UNL     1     132.253 128.778 143.618  1.00  0.00    -0.298 OA
ENDBRANCH   6  39
BRANCH   8  41
ATOM     41  O   UNL     1     132.974 134.135 143.903  1.00  0.00    -0.504 OA
ATOM     42  H   UNL     1     132.790 134.216 144.895  1.00  0.00     0.293 HD
ENDBRANCH   8  41
BRANCH   7  43
ATOM     43  O   UNL     1     132.245 131.657 144.805  1.00  0.00    -0.504 OA
ATOM     44  H   UNL     1     131.377 132.175 144.825  1.00  0.00     0.293 HD
ENDBRANCH   7  43
TORSDOF 11
ENDMDL
MODEL 3
REMARK VINA RESULT:    -6.588      3.656      5.987
REMARK INTER + INTRA:         -11.017
REMARK INTER:                  -9.582
REMARK INTRA:                  -1.435
REMARK UNBOUND:                -1.348
REMARK SMILES Cc1cc2c(C(C)C)c(O)c(O)c(C=O)c2c(O)c1-c1c(C)cc2c(C(C)C)c(O)c(O)c(C=O)c2c1O
REMARK SMILES IDX 1 1 2 2 3 3 4 4 16 5 13 6 11 7 9 8 5 9 17 10 19 11 20 12
REMARK SMILES IDX 37 13 21 14 36 15 23 16 22 17 24 18 33 19 25 20 31 21 29 22
REMARK SMILES IDX 38 23 34 25 35 26 26 27 27 28 28 29 32 30 30 32 18 34 6 36
REMARK SMILES IDX 7 37 8 38 14 39 15 40 10 41 12 43
REMARK H PARENT 38 24 32 31 30 33 18 35 10 42 12 44
REMARK Flexibility Score: inf
ROOT
ATOM      1  C   UNL     1     130.745 128.719 143.969  1.00  0.00     0.045 C 
ATOM      2  C   UNL     1     131.226 127.944 142.765  1.00  0.00    -0.039 A 
ATOM      3  C   UNL     1     130.729 126.661 142.531  1.00  0.00     0.013 A 
ATOM      4  C   UNL     1     131.135 125.891 141.421  1.00  0.00    -0.006 A 
ATOM      5  C   UNL     1     132.186 126.396 140.595  1.00  0.00     0.039 A 
ATOM      6  C   UNL     1     132.752 125.548 139.600  1.00  0.00     0.072 A 
ATOM      7  C   UNL     1     132.193 124.279 139.360  1.00  0.00     0.169 A 
ATOM      8  C   UNL     1     131.089 123.835 140.096  1.00  0.00     0.162 A 
ATOM      9  C   UNL     1     130.525 124.632 141.118  1.00  0.00     0.008 A 
ATOM     10  C   UNL     1     132.613 127.745 140.772  1.00  0.00     0.132 A 
ATOM     11  C   UNL     1     132.151 128.502 141.869  1.00  0.00     0.031 A 
ENDROOT
BRANCH  11  12
ATOM     12  C   UNL     1     132.638 129.890 142.078  1.00  0.00     0.031 A 
ATOM     13  C   UNL     1     131.931 130.980 141.523  1.00  0.00     0.132 A 
ATOM     14  C   UNL     1     133.823 130.113 142.798  1.00  0.00    -0.039 A 
ATOM     15  C   UNL     1     132.431 132.310 141.660  1.00  0.00     0.039 A 
ATOM     16  C   UNL     1     134.268 131.419 143.003  1.00  0.00     0.013 A 
ATOM     17  C   UNL     1     134.660 128.963 143.305  1.00  0.00     0.045 C 
ATOM     18  C   UNL     1     133.556 132.534 142.508  1.00  0.00    -0.006 A 
ATOM     19  C   UNL     1     131.850 133.422 140.978  1.00  0.00     0.072 A 
ATOM     20  C   UNL     1     133.968 133.865 142.817  1.00  0.00     0.008 A 
ATOM     21  C   UNL     1     132.400 134.710 141.144  1.00  0.00     0.169 A 
ATOM     22  C   UNL     1     133.438 134.929 142.056  1.00  0.00     0.162 A 
BRANCH  13  23
ATOM     23  O   UNL     1     130.726 130.742 140.855  1.00  0.00    -0.507 OA
ATOM     24  H   UNL     1     130.376 129.819 140.630  1.00  0.00     0.293 HD
ENDBRANCH  13  23
BRANCH  19  25
ATOM     25  C   UNL     1     130.742 133.255 140.015  1.00  0.00     0.264 C 
ATOM     26  O   UNL     1     129.593 133.697 140.277  1.00  0.00    -0.298 OA
ENDBRANCH  19  25
BRANCH  20  27
ATOM     27  C   UNL     1     134.980 134.157 143.939  1.00  0.00     0.017 C 
ATOM     28  C   UNL     1     136.399 134.291 143.373  1.00  0.00     0.012 C 
ATOM     29  C   UNL     1     134.607 135.370 144.811  1.00  0.00     0.012 C 
ENDBRANCH  20  27
BRANCH  21  30
ATOM     30  O   UNL     1     131.949 135.802 140.392  1.00  0.00    -0.504 OA
ATOM     31  H   UNL     1     132.286 136.749 140.508  1.00  0.00     0.293 HD
ENDBRANCH  21  30
BRANCH  22  32
ATOM     32  O   UNL     1     133.972 136.214 142.188  1.00  0.00    -0.504 OA
ATOM     33  H   UNL     1     134.876 136.398 142.608  1.00  0.00     0.293 HD
ENDBRANCH  22  32
ENDBRANCH  11  12
BRANCH  10  34
ATOM     34  O   UNL     1     133.459 128.345 139.832  1.00  0.00    -0.507 OA
ATOM     35  H   UNL     1     133.143 128.987 139.117  1.00  0.00     0.293 HD
ENDBRANCH  10  34
BRANCH   9  36
ATOM     36  C   UNL     1     129.267 124.093 141.829  1.00  0.00     0.017 C 
ATOM     37  C   UNL     1     129.597 123.437 143.175  1.00  0.00     0.012 C 
ATOM     38  C   UNL     1     128.103 125.103 141.915  1.00  0.00     0.012 C 
ENDBRANCH   9  36
BRANCH   6  39
ATOM     39  C   UNL     1     133.989 125.904 138.872  1.00  0.00     0.264 C 
ATOM     40  O   UNL     1     133.946 126.196 137.648  1.00  0.00    -0.298 OA
ENDBRANCH   6  39
BRANCH   8  41
ATOM     41  O   UNL     1     130.551 122.572 139.823  1.00  0.00    -0.504 OA
ATOM     42  H   UNL     1     129.973 122.380 139.014  1.00  0.00     0.293 HD
ENDBRANCH   8  41
BRANCH   7  43
ATOM     43  O   UNL     1     132.729 123.413 138.397  1.00  0.00    -0.504 OA
ATOM     44  H   UNL     1     133.388 122.675 138.600  1.00  0.00     0.293 HD
ENDBRANCH   7  43
TORSDOF 11
ENDMDL
MODEL 4
REMARK VINA RESULT:    -6.573      3.141      4.967
REMARK INTER + INTRA:         -10.995
REMARK INTER:                  -9.602
REMARK INTRA:                  -1.393
REMARK UNBOUND:                -1.348
REMARK SMILES Cc1cc2c(C(C)C)c(O)c(O)c(C=O)c2c(O)c1-c1c(C)cc2c(C(C)C)c(O)c(O)c(C=O)c2c1O
REMARK SMILES IDX 1 1 2 2 3 3 4 4 16 5 13 6 11 7 9 8 5 9 17 10 19 11 20 12
REMARK SMILES IDX 37 13 21 14 36 15 23 16 22 17 24 18 33 19 25 20 31 21 29 22
REMARK SMILES IDX 38 23 34 25 35 26 26 27 27 28 28 29 32 30 30 32 18 34 6 36
REMARK SMILES IDX 7 37 8 38 14 39 15 40 10 41 12 43
REMARK H PARENT 38 24 32 31 30 33 18 35 10 42 12 44
REMARK Flexibility Score: inf
ROOT
ATOM      1  C   UNL     1     133.821 130.024 143.040  1.00  0.00     0.045 C 
ATOM      2  C   UNL     1     134.909 130.001 141.993  1.00  0.00    -0.039 A 
ATOM      3  C   UNL     1     135.704 128.862 141.854  1.00  0.00     0.013 A 
ATOM      4  C   UNL     1     136.730 128.779 140.890  1.00  0.00    -0.006 A 
ATOM      5  C   UNL     1     137.044 129.948 140.132  1.00  0.00     0.039 A 
ATOM      6  C   UNL     1     138.207 129.948 139.308  1.00  0.00     0.072 A 
ATOM      7  C   UNL     1     138.957 128.766 139.154  1.00  0.00     0.169 A 
ATOM      8  C   UNL     1     138.577 127.591 139.812  1.00  0.00     0.162 A 
ATOM      9  C   UNL     1     137.453 127.563 140.668  1.00  0.00     0.008 A 
ATOM     10  C   UNL     1     136.165 131.069 140.199  1.00  0.00     0.132 A 
ATOM     11  C   UNL     1     135.119 131.100 141.145  1.00  0.00     0.031 A 
ENDROOT
BRANCH  11  12
ATOM     12  C   UNL     1     134.237 132.291 141.246  1.00  0.00     0.031 A 
ATOM     13  C   UNL     1     134.520 133.304 142.189  1.00  0.00     0.132 A 
ATOM     14  C   UNL     1     133.102 132.391 140.426  1.00  0.00    -0.039 A 
ATOM     15  C   UNL     1     133.640 134.418 142.339  1.00  0.00     0.039 A 
ATOM     16  C   UNL     1     132.287 133.519 140.514  1.00  0.00     0.013 A 
ATOM     17  C   UNL     1     132.711 131.273 139.489  1.00  0.00     0.045 C 
ATOM     18  C   UNL     1     132.570 134.575 141.407  1.00  0.00    -0.006 A 
ATOM     19  C   UNL     1     133.786 135.376 143.387  1.00  0.00     0.072 A 
ATOM     20  C   UNL     1     131.786 135.767 141.410  1.00  0.00     0.008 A 
ATOM     21  C   UNL     1     132.874 136.447 143.490  1.00  0.00     0.169 A 
ATOM     22  C   UNL     1     131.893 136.643 142.511  1.00  0.00     0.162 A 
BRANCH  13  23
ATOM     23  O   UNL     1     135.683 133.213 142.960  1.00  0.00    -0.507 OA
ATOM     24  H   UNL     1     135.689 133.096 143.966  1.00  0.00     0.293 HD
ENDBRANCH  13  23
BRANCH  19  25
ATOM     25  C   UNL     1     134.812 135.230 144.440  1.00  0.00     0.264 C 
ATOM     26  O   UNL     1     135.978 135.674 144.266  1.00  0.00    -0.298 OA
ENDBRANCH  19  25
BRANCH  20  27
ATOM     27  C   UNL     1     130.823 136.102 140.257  1.00  0.00     0.017 C 
ATOM     28  C   UNL     1     131.589 136.306 138.946  1.00  0.00     0.012 C 
ATOM     29  C   UNL     1     129.681 135.082 140.088  1.00  0.00     0.012 C 
ENDBRANCH  20  27
BRANCH  21  30
ATOM     30  O   UNL     1     132.899 137.329 144.577  1.00  0.00    -0.504 OA
ATOM     31  H   UNL     1     133.128 138.312 144.505  1.00  0.00     0.293 HD
ENDBRANCH  21  30
BRANCH  22  32
ATOM     32  O   UNL     1     130.995 137.704 142.648  1.00  0.00    -0.504 OA
ATOM     33  H   UNL     1     130.828 138.178 143.528  1.00  0.00     0.293 HD
ENDBRANCH  22  32
ENDBRANCH  11  12
BRANCH  10  34
ATOM     34  O   UNL     1     136.304 132.128 139.295  1.00  0.00    -0.507 OA
ATOM     35  H   UNL     1     136.244 133.104 139.555  1.00  0.00     0.293 HD
ENDBRANCH  10  34
BRANCH   9  36
ATOM     36  C   UNL     1     137.068 126.207 141.293  1.00  0.00     0.017 C 
ATOM     37  C   UNL     1     137.309 126.178 142.808  1.00  0.00     0.012 C 
ATOM     38  C   UNL     1     135.669 125.696 140.892  1.00  0.00     0.012 C 
ENDBRANCH   9  36
BRANCH   6  39
ATOM     39  C   UNL     1     138.731 131.181 138.683  1.00  0.00     0.264 C 
ATOM     40  O   UNL     1     138.661 131.344 137.436  1.00  0.00    -0.298 OA
ENDBRANCH   6  39
BRANCH   8  41
ATOM     41  O   UNL     1     139.339 126.432 139.628  1.00  0.00    -0.504 OA
ATOM     42  H   UNL     1     139.572 126.061 138.714  1.00  0.00     0.293 HD
ENDBRANCH   8  41
BRANCH   7  43
ATOM     43  O   UNL     1     140.111 128.731 138.361  1.00  0.00    -0.504 OA
ATOM     44  H   UNL     1     141.030 128.487 138.705  1.00  0.00     0.293 HD
ENDBRANCH   7  43
TORSDOF 11
ENDMDL
MODEL 5
REMARK VINA RESULT:    -6.544      2.953      4.742
REMARK INTER + INTRA:         -10.953
REMARK INTER:                  -9.743
REMARK INTRA:                  -1.210
REMARK UNBOUND:                -1.348
REMARK SMILES Cc1cc2c(C(C)C)c(O)c(O)c(C=O)c2c(O)c1-c1c(C)cc2c(C(C)C)c(O)c(O)c(C=O)c2c1O
REMARK SMILES IDX 1 1 2 2 3 3 4 4 16 5 13 6 11 7 9 8 5 9 17 10 19 11 20 12
REMARK SMILES IDX 37 13 21 14 36 15 23 16 22 17 24 18 33 19 25 20 31 21 29 22
REMARK SMILES IDX 38 23 34 25 35 26 26 27 27 28 28 29 32 30 30 32 18 34 6 36
REMARK SMILES IDX 7 37 8 38 14 39 15 40 10 41 12 43
REMARK H PARENT 38 24 32 31 30 33 18 35 10 42 12 44
REMARK Flexibility Score: inf
ROOT
ATOM      1  C   UNL     1     140.790 129.208 139.112  1.00  0.00     0.045 C 
ATOM      2  C   UNL     1     139.965 128.054 138.594  1.00  0.00    -0.039 A 
ATOM      3  C   UNL     1     140.549 126.792 138.470  1.00  0.00     0.013 A 
ATOM      4  C   UNL     1     139.827 125.676 138.000  1.00  0.00    -0.006 A 
ATOM      5  C   UNL     1     138.500 125.884 137.512  1.00  0.00     0.039 A 
ATOM      6  C   UNL     1     137.834 124.817 136.842  1.00  0.00     0.072 A 
ATOM      7  C   UNL     1     138.434 123.545 136.779  1.00  0.00     0.169 A 
ATOM      8  C   UNL     1     139.687 123.319 137.360  1.00  0.00     0.162 A 
ATOM      9  C   UNL     1     140.396 124.362 137.998  1.00  0.00     0.008 A 
ATOM     10  C   UNL     1     137.873 127.144 137.740  1.00  0.00     0.132 A 
ATOM     11  C   UNL     1     138.614 128.228 138.255  1.00  0.00     0.031 A 
ENDROOT
BRANCH  11  12
ATOM     12  C   UNL     1     137.968 129.553 138.442  1.00  0.00     0.031 A 
ATOM     13  C   UNL     1     138.038 130.525 137.420  1.00  0.00     0.132 A 
ATOM     14  C   UNL     1     137.320 129.848 139.651  1.00  0.00    -0.039 A 
ATOM     15  C   UNL     1     137.480 131.824 137.619  1.00  0.00     0.039 A 
ATOM     16  C   UNL     1     136.702 131.089 139.815  1.00  0.00     0.013 A 
ATOM     17  C   UNL     1     137.326 128.872 140.804  1.00  0.00     0.045 C 
ATOM     18  C   UNL     1     136.706 132.063 138.794  1.00  0.00    -0.006 A 
ATOM     19  C   UNL     1     137.671 132.892 136.691  1.00  0.00     0.072 A 
ATOM     20  C   UNL     1     135.980 133.283 138.939  1.00  0.00     0.008 A 
ATOM     21  C   UNL     1     137.105 134.157 136.953  1.00  0.00     0.169 A 
ATOM     22  C   UNL     1     136.266 134.347 138.057  1.00  0.00     0.162 A 
BRANCH  13  23
ATOM     23  O   UNL     1     138.642 130.194 136.203  1.00  0.00    -0.507 OA
ATOM     24  H   UNL     1     139.541 130.551 135.901  1.00  0.00     0.293 HD
ENDBRANCH  13  23
BRANCH  19  25
ATOM     25  C   UNL     1     138.533 132.746 135.500  1.00  0.00     0.264 C 
ATOM     26  O   UNL     1     138.189 133.242 134.394  1.00  0.00    -0.298 OA
ENDBRANCH  19  25
BRANCH  20  27
ATOM     27  C   UNL     1     134.919 133.465 140.038  1.00  0.00     0.017 C 
ATOM     28  C   UNL     1     133.794 132.435 139.888  1.00  0.00     0.012 C 
ATOM     29  C   UNL     1     135.498 133.462 141.465  1.00  0.00     0.012 C 
ENDBRANCH  20  27
BRANCH  21  30
ATOM     30  O   UNL     1     137.379 135.265 136.142  1.00  0.00    -0.504 OA
ATOM     31  H   UNL     1     136.836 135.520 135.327  1.00  0.00     0.293 HD
ENDBRANCH  21  30
BRANCH  22  32
ATOM     32  O   UNL     1     135.732 135.616 138.298  1.00  0.00    -0.504 OA
ATOM     33  H   UNL     1     135.207 136.137 137.605  1.00  0.00     0.293 HD
ENDBRANCH  22  32
ENDBRANCH  11  12
BRANCH  10  34
ATOM     34  O   UNL     1     136.504 127.303 137.496  1.00  0.00    -0.507 OA
ATOM     35  H   UNL     1     135.786 127.163 138.196  1.00  0.00     0.293 HD
ENDBRANCH  10  34
BRANCH   9  36
ATOM     36  C   UNL     1     141.736 124.005 138.672  1.00  0.00     0.017 C 
ATOM     37  C   UNL     1     141.555 123.021 139.835  1.00  0.00     0.012 C 
ATOM     38  C   UNL     1     142.851 123.587 137.692  1.00  0.00     0.012 C 
ENDBRANCH   9  36
BRANCH   6  39
ATOM     39  C   UNL     1     136.569 125.017 136.105  1.00  0.00     0.264 C 
ATOM     40  O   UNL     1     135.495 124.515 136.531  1.00  0.00    -0.298 OA
ENDBRANCH   6  39
BRANCH   8  41
ATOM     41  O   UNL     1     140.249 122.040 137.289  1.00  0.00    -0.504 OA
ATOM     42  H   UNL     1     140.793 121.717 136.497  1.00  0.00     0.293 HD
ENDBRANCH   8  41
BRANCH   7  43
ATOM     43  O   UNL     1     137.814 122.475 136.121  1.00  0.00    -0.504 OA
ATOM     44  H   UNL     1     137.003 121.984 136.472  1.00  0.00     0.293 HD
ENDBRANCH   7  43
TORSDOF 11
ENDMDL
MODEL 6
REMARK VINA RESULT:    -6.528      2.721      9.895
REMARK INTER + INTRA:         -10.930
REMARK INTER:                  -9.447
REMARK INTRA:                  -1.483
REMARK UNBOUND:                -1.348
REMARK SMILES Cc1cc2c(C(C)C)c(O)c(O)c(C=O)c2c(O)c1-c1c(C)cc2c(C(C)C)c(O)c(O)c(C=O)c2c1O
REMARK SMILES IDX 1 1 2 2 3 3 4 4 16 5 13 6 11 7 9 8 5 9 17 10 19 11 20 12
REMARK SMILES IDX 37 13 21 14 36 15 23 16 22 17 24 18 33 19 25 20 31 21 29 22
REMARK SMILES IDX 38 23 34 25 35 26 26 27 27 28 28 29 32 30 30 32 18 34 6 36
REMARK SMILES IDX 7 37 8 38 14 39 15 40 10 41 12 43
REMARK H PARENT 38 24 32 31 30 33 18 35 10 42 12 44
REMARK Flexibility Score: inf
ROOT
ATOM      1  C   UNL     1     135.193 134.264 137.608  1.00  0.00     0.045 C 
ATOM      2  C   UNL     1     134.867 134.388 139.077  1.00  0.00    -0.039 A 
ATOM      3  C   UNL     1     134.524 135.634 139.603  1.00  0.00     0.013 A 
ATOM      4  C   UNL     1     134.202 135.810 140.965  1.00  0.00    -0.006 A 
ATOM      5  C   UNL     1     134.368 134.700 141.849  1.00  0.00     0.039 A 
ATOM      6  C   UNL     1     134.252 134.910 143.253  1.00  0.00     0.072 A 
ATOM      7  C   UNL     1     133.857 136.169 143.743  1.00  0.00     0.169 A 
ATOM      8  C   UNL     1     133.584 137.223 142.864  1.00  0.00     0.162 A 
ATOM      9  C   UNL     1     133.727 137.064 141.467  1.00  0.00     0.008 A 
ATOM     10  C   UNL     1     134.613 133.409 141.294  1.00  0.00     0.132 A 
ATOM     11  C   UNL     1     134.886 133.264 139.918  1.00  0.00     0.031 A 
ENDROOT
BRANCH  11  12
ATOM     12  C   UNL     1     135.191 131.923 139.354  1.00  0.00     0.031 A 
ATOM     13  C   UNL     1     136.515 131.433 139.369  1.00  0.00     0.132 A 
ATOM     14  C   UNL     1     134.165 131.160 138.775  1.00  0.00    -0.039 A 
ATOM     15  C   UNL     1     136.828 130.177 138.768  1.00  0.00     0.039 A 
ATOM     16  C   UNL     1     134.454 129.895 138.261  1.00  0.00     0.013 A 
ATOM     17  C   UNL     1     132.762 131.703 138.643  1.00  0.00     0.045 C 
ATOM     18  C   UNL     1     135.757 129.353 138.309  1.00  0.00    -0.006 A 
ATOM     19  C   UNL     1     138.170 129.716 138.605  1.00  0.00     0.072 A 
ATOM     20  C   UNL     1     136.014 128.018 137.875  1.00  0.00     0.008 A 
ATOM     21  C   UNL     1     138.412 128.470 137.989  1.00  0.00     0.169 A 
ATOM     22  C   UNL     1     137.350 127.631 137.637  1.00  0.00     0.162 A 
BRANCH  13  23
ATOM     23  O   UNL     1     137.514 132.184 139.997  1.00  0.00    -0.507 OA
ATOM     24  H   UNL     1     138.473 131.877 140.101  1.00  0.00     0.293 HD
ENDBRANCH  13  23
BRANCH  19  25
ATOM     25  C   UNL     1     139.332 130.551 138.972  1.00  0.00     0.264 C 
ATOM     26  O   UNL     1     140.036 130.264 139.976  1.00  0.00    -0.298 OA
ENDBRANCH  19  25
BRANCH  20  27
ATOM     27  C   UNL     1     134.874 127.010 137.646  1.00  0.00     0.017 C 
ATOM     28  C   UNL     1     134.776 126.621 136.167  1.00  0.00     0.012 C 
ATOM     29  C   UNL     1     134.956 125.766 138.550  1.00  0.00     0.012 C 
ENDBRANCH  20  27
BRANCH  21  30
ATOM     30  O   UNL     1     139.711 128.043 137.688  1.00  0.00    -0.504 OA
ATOM     31  H   UNL     1     139.929 127.169 137.228  1.00  0.00     0.293 HD
ENDBRANCH  21  30
BRANCH  22  32
ATOM     32  O   UNL     1     137.622 126.410 137.015  1.00  0.00    -0.504 OA
ATOM     33  H   UNL     1     138.235 125.709 137.415  1.00  0.00     0.293 HD
ENDBRANCH  22  32
ENDBRANCH  11  12
BRANCH  10  34
ATOM     34  O   UNL     1     134.539 132.270 142.103  1.00  0.00    -0.507 OA
ATOM     35  H   UNL     1     135.190 132.064 142.850  1.00  0.00     0.293 HD
ENDBRANCH  10  34
BRANCH   9  36
ATOM     36  C   UNL     1     133.336 138.256 140.570  1.00  0.00     0.017 C 
ATOM     37  C   UNL     1     134.547 138.858 139.846  1.00  0.00     0.012 C 
ATOM     38  C   UNL     1     132.142 137.984 139.633  1.00  0.00     0.012 C 
ENDBRANCH   9  36
BRANCH   6  39
ATOM     39  C   UNL     1     134.640 133.880 144.239  1.00  0.00     0.264 C 
ATOM     40  O   UNL     1     133.767 133.146 144.773  1.00  0.00    -0.298 OA
ENDBRANCH   6  39
BRANCH   8  41
ATOM     41  O   UNL     1     133.183 138.458 143.385  1.00  0.00    -0.504 OA
ATOM     42  H   UNL     1     133.732 139.304 143.291  1.00  0.00     0.293 HD
ENDBRANCH   8  41
BRANCH   7  43
ATOM     43  O   UNL     1     133.742 136.416 145.118  1.00  0.00    -0.504 OA
ATOM     44  H   UNL     1     134.328 137.060 145.631  1.00  0.00     0.293 HD
ENDBRANCH   7  43
TORSDOF 11
ENDMDL
MODEL 7
REMARK VINA RESULT:    -6.505      3.094      4.957
REMARK INTER + INTRA:         -10.895
REMARK INTER:                  -9.424
REMARK INTRA:                  -1.471
REMARK UNBOUND:                -1.348
REMARK SMILES Cc1cc2c(C(C)C)c(O)c(O)c(C=O)c2c(O)c1-c1c(C)cc2c(C(C)C)c(O)c(O)c(C=O)c2c1O
REMARK SMILES IDX 1 1 2 2 3 3 4 4 16 5 13 6 11 7 9 8 5 9 17 10 19 11 20 12
REMARK SMILES IDX 37 13 21 14 36 15 23 16 22 17 24 18 33 19 25 20 31 21 29 22
REMARK SMILES IDX 38 23 34 25 35 26 26 27 27 28 28 29 32 30 30 32 18 34 6 36
REMARK SMILES IDX 7 37 8 38 14 39 15 40 10 41 12 43
REMARK H PARENT 38 24 32 31 30 33 18 35 10 42 12 44
REMARK Flexibility Score: inf
ROOT
ATOM      1  C   UNL     1     136.765 132.695 139.108  1.00  0.00     0.045 C 
ATOM      2  C   UNL     1     136.529 131.451 139.931  1.00  0.00    -0.039 A 
ATOM      3  C   UNL     1     137.412 130.376 139.820  1.00  0.00     0.013 A 
ATOM      4  C   UNL     1     137.248 129.192 140.568  1.00  0.00    -0.006 A 
ATOM      5  C   UNL     1     136.066 129.047 141.357  1.00  0.00     0.039 A 
ATOM      6  C   UNL     1     135.780 127.783 141.949  1.00  0.00     0.072 A 
ATOM      7  C   UNL     1     136.717 126.737 141.857  1.00  0.00     0.169 A 
ATOM      8  C   UNL     1     137.926 126.922 141.178  1.00  0.00     0.162 A 
ATOM      9  C   UNL     1     138.228 128.148 140.543  1.00  0.00     0.008 A 
ATOM     10  C   UNL     1     135.226 130.183 141.552  1.00  0.00     0.132 A 
ATOM     11  C   UNL     1     135.446 131.368 140.820  1.00  0.00     0.031 A 
ENDROOT
BRANCH  11  12
ATOM     12  C   UNL     1     134.537 132.531 140.990  1.00  0.00     0.031 A 
ATOM     13  C   UNL     1     134.769 133.466 142.023  1.00  0.00     0.132 A 
ATOM     14  C   UNL     1     133.427 132.678 140.143  1.00  0.00    -0.039 A 
ATOM     15  C   UNL     1     133.861 134.547 142.236  1.00  0.00     0.039 A 
ATOM     16  C   UNL     1     132.586 133.780 140.298  1.00  0.00     0.013 A 
ATOM     17  C   UNL     1     133.090 131.636 139.104  1.00  0.00     0.045 C 
ATOM     18  C   UNL     1     132.819 134.763 141.285  1.00  0.00    -0.006 A 
ATOM     19  C   UNL     1     133.954 135.416 143.365  1.00  0.00     0.072 A 
ATOM     20  C   UNL     1     132.010 135.936 141.361  1.00  0.00     0.008 A 
ATOM     21  C   UNL     1     133.016 136.458 143.526  1.00  0.00     0.169 A 
ATOM     22  C   UNL     1     132.064 136.718 142.534  1.00  0.00     0.162 A 
BRANCH  13  23
ATOM     23  O   UNL     1     135.908 133.332 142.822  1.00  0.00    -0.507 OA
ATOM     24  H   UNL     1     136.326 132.442 143.068  1.00  0.00     0.293 HD
ENDBRANCH  13  23
BRANCH  19  25
ATOM     25  C   UNL     1     134.949 135.201 144.436  1.00  0.00     0.264 C 
ATOM     26  O   UNL     1     136.096 135.715 144.359  1.00  0.00    -0.298 OA
ENDBRANCH  19  25
BRANCH  20  27
ATOM     27  C   UNL     1     131.077 136.349 140.209  1.00  0.00     0.017 C 
ATOM     28  C   UNL     1     129.607 136.175 140.606  1.00  0.00     0.012 C 
ATOM     29  C   UNL     1     131.350 137.765 139.668  1.00  0.00     0.012 C 
ENDBRANCH  20  27
BRANCH  21  30
ATOM     30  O   UNL     1     132.988 137.246 144.683  1.00  0.00    -0.504 OA
ATOM     31  H   UNL     1     132.890 138.253 144.681  1.00  0.00     0.293 HD
ENDBRANCH  21  30
BRANCH  22  32
ATOM     32  O   UNL     1     131.139 137.747 142.729  1.00  0.00    -0.504 OA
ATOM     33  H   UNL     1     130.243 137.608 143.181  1.00  0.00     0.293 HD
ENDBRANCH  22  32
ENDBRANCH  11  12
BRANCH  10  34
ATOM     34  O   UNL     1     134.202 130.145 142.506  1.00  0.00    -0.507 OA
ATOM     35  H   UNL     1     133.766 129.293 142.833  1.00  0.00     0.293 HD
ENDBRANCH  10  34
BRANCH   9  36
ATOM     36  C   UNL     1     139.614 128.285 139.881  1.00  0.00     0.017 C 
ATOM     37  C   UNL     1     139.560 128.044 138.368  1.00  0.00     0.012 C 
ATOM     38  C   UNL     1     140.378 129.569 140.264  1.00  0.00     0.012 C 
ENDBRANCH   9  36
BRANCH   6  39
ATOM     39  C   UNL     1     134.474 127.483 142.574  1.00  0.00     0.264 C 
ATOM     40  O   UNL     1     134.378 127.359 143.824  1.00  0.00    -0.298 OA
ENDBRANCH   6  39
BRANCH   8  41
ATOM     41  O   UNL     1     138.840 125.864 141.115  1.00  0.00    -0.504 OA
ATOM     42  H   UNL     1     139.182 125.378 141.935  1.00  0.00     0.293 HD
ENDBRANCH   8  41
BRANCH   7  43
ATOM     43  O   UNL     1     136.465 125.478 142.418  1.00  0.00    -0.504 OA
ATOM     44  H   UNL     1     136.824 124.608 142.048  1.00  0.00     0.293 HD
ENDBRANCH   7  43
TORSDOF 11
ENDMDL
MODEL 8
REMARK VINA RESULT:    -6.497      3.916      6.342
REMARK INTER + INTRA:         -10.884
REMARK INTER:                  -9.680
REMARK INTRA:                  -1.204
REMARK UNBOUND:                -1.348
REMARK SMILES Cc1cc2c(C(C)C)c(O)c(O)c(C=O)c2c(O)c1-c1c(C)cc2c(C(C)C)c(O)c(O)c(C=O)c2c1O
REMARK SMILES IDX 1 1 2 2 3 3 4 4 16 5 13 6 11 7 9 8 5 9 17 10 19 11 20 12
REMARK SMILES IDX 37 13 21 14 36 15 23 16 22 17 24 18 33 19 25 20 31 21 29 22
REMARK SMILES IDX 38 23 34 25 35 26 26 27 27 28 28 29 32 30 30 32 18 34 6 36
REMARK SMILES IDX 7 37 8 38 14 39 15 40 10 41 12 43
REMARK H PARENT 38 24 32 31 30 33 18 35 10 42 12 44
REMARK Flexibility Score: inf
ROOT
ATOM      1  C   UNL     1     131.543 130.954 143.907  1.00  0.00     0.045 C 
ATOM      2  C   UNL     1     132.649 130.008 143.507  1.00  0.00    -0.039 A 
ATOM      3  C   UNL     1     132.657 128.707 144.012  1.00  0.00     0.013 A 
ATOM      4  C   UNL     1     133.659 127.776 143.669  1.00  0.00    -0.006 A 
ATOM      5  C   UNL     1     134.767 128.230 142.890  1.00  0.00     0.039 A 
ATOM      6  C   UNL     1     135.887 127.367 142.711  1.00  0.00     0.072 A 
ATOM      7  C   UNL     1     135.838 126.046 143.193  1.00  0.00     0.169 A 
ATOM      8  C   UNL     1     134.702 125.571 143.857  1.00  0.00     0.162 A 
ATOM      9  C   UNL     1     133.587 126.409 144.089  1.00  0.00     0.008 A 
ATOM     10  C   UNL     1     134.702 129.521 142.289  1.00  0.00     0.132 A 
ATOM     11  C   UNL     1     133.659 130.412 142.620  1.00  0.00     0.031 A 
ENDROOT
BRANCH  11  12
ATOM     12  C   UNL     1     133.625 131.775 142.030  1.00  0.00     0.031 A 
ATOM     13  C   UNL     1     134.197 132.862 142.725  1.00  0.00     0.132 A 
ATOM     14  C   UNL     1     132.990 131.984 140.795  1.00  0.00    -0.039 A 
ATOM     15  C   UNL     1     134.107 134.186 142.197  1.00  0.00     0.039 A 
ATOM     16  C   UNL     1     132.974 133.264 140.239  1.00  0.00     0.013 A 
ATOM     17  C   UNL     1     132.272 130.864 140.082  1.00  0.00     0.045 C 
ATOM     18  C   UNL     1     133.584 134.363 140.882  1.00  0.00    -0.006 A 
ATOM     19  C   UNL     1     134.516 135.336 142.938  1.00  0.00     0.072 A 
ATOM     20  C   UNL     1     133.650 135.641 140.250  1.00  0.00     0.008 A 
ATOM     21  C   UNL     1     134.387 136.619 142.364  1.00  0.00     0.169 A 
ATOM     22  C   UNL     1     133.968 136.767 141.038  1.00  0.00     0.162 A 
BRANCH  13  23
ATOM     23  O   UNL     1     134.870 132.625 143.928  1.00  0.00    -0.507 OA
ATOM     24  H   UNL     1     134.450 132.733 144.843  1.00  0.00     0.293 HD
ENDBRANCH  13  23
BRANCH  19  25
ATOM     25  C   UNL     1     134.981 135.240 144.336  1.00  0.00     0.264 C 
ATOM     26  O   UNL     1     136.201 135.378 144.617  1.00  0.00    -0.298 OA
ENDBRANCH  19  25
BRANCH  20  27
ATOM     27  C   UNL     1     133.366 135.814 138.747  1.00  0.00     0.017 C 
ATOM     28  C   UNL     1     134.300 134.934 137.909  1.00  0.00     0.012 C 
ATOM     29  C   UNL     1     131.890 135.590 138.366  1.00  0.00     0.012 C 
ENDBRANCH  20  27
BRANCH  21  30
ATOM     30  O   UNL     1     134.648 137.780 143.102  1.00  0.00    -0.504 OA
ATOM     31  H   UNL     1     135.146 137.794 143.982  1.00  0.00     0.293 HD
ENDBRANCH  21  30
BRANCH  22  32
ATOM     32  O   UNL     1     133.837 138.052 140.503  1.00  0.00    -0.504 OA
ATOM     33  H   UNL     1     134.065 138.893 141.020  1.00  0.00     0.293 HD
ENDBRANCH  22  32
ENDBRANCH  11  12
BRANCH  10  34
ATOM     34  O   UNL     1     135.649 129.900 141.330  1.00  0.00    -0.507 OA
ATOM     35  H   UNL     1     136.589 130.199 141.552  1.00  0.00     0.293 HD
ENDBRANCH  10  34
BRANCH   9  36
ATOM     36  C   UNL     1     132.352 125.780 144.765  1.00  0.00     0.017 C 
ATOM     37  C   UNL     1     131.468 125.023 143.766  1.00  0.00     0.012 C 
ATOM     38  C   UNL     1     132.667 124.966 146.036  1.00  0.00     0.012 C 
ENDBRANCH   9  36
BRANCH   6  39
ATOM     39  C   UNL     1     137.160 127.840 142.127  1.00  0.00     0.264 C 
ATOM     40  O   UNL     1     137.510 127.470 140.975  1.00  0.00    -0.298 OA
ENDBRANCH   6  39
BRANCH   8  41
ATOM     41  O   UNL     1     134.683 124.248 144.314  1.00  0.00    -0.504 OA
ATOM     42  H   UNL     1     134.058 123.543 143.943  1.00  0.00     0.293 HD
ENDBRANCH   8  41
BRANCH   7  43
ATOM     43  O   UNL     1     136.924 125.172 143.045  1.00  0.00    -0.504 OA
ATOM     44  H   UNL     1     137.860 125.465 142.803  1.00  0.00     0.293 HD
ENDBRANCH   7  43
TORSDOF 11
ENDMDL
MODEL 9
REMARK VINA RESULT:    -6.406      3.065      9.131
REMARK INTER + INTRA:         -10.750
REMARK INTER:                  -9.317
REMARK INTRA:                  -1.433
REMARK UNBOUND:                -1.348
REMARK SMILES Cc1cc2c(C(C)C)c(O)c(O)c(C=O)c2c(O)c1-c1c(C)cc2c(C(C)C)c(O)c(O)c(C=O)c2c1O
REMARK SMILES IDX 1 1 2 2 3 3 4 4 16 5 13 6 11 7 9 8 5 9 17 10 19 11 20 12
REMARK SMILES IDX 37 13 21 14 36 15 23 16 22 17 24 18 33 19 25 20 31 21 29 22
REMARK SMILES IDX 38 23 34 25 35 26 26 27 27 28 28 29 32 30 30 32 18 34 6 36
REMARK SMILES IDX 7 37 8 38 14 39 15 40 10 41 12 43
REMARK H PARENT 38 24 32 31 30 33 18 35 10 42 12 44
REMARK Flexibility Score: inf
ROOT
ATOM      1  C   UNL     1     135.953 129.060 140.008  1.00  0.00     0.045 C 
ATOM      2  C   UNL     1     136.400 130.189 139.110  1.00  0.00    -0.039 A 
ATOM      3  C   UNL     1     135.848 131.460 139.276  1.00  0.00     0.013 A 
ATOM      4  C   UNL     1     136.230 132.554 138.473  1.00  0.00    -0.006 A 
ATOM      5  C   UNL     1     137.109 132.312 137.373  1.00  0.00     0.039 A 
ATOM      6  C   UNL     1     137.340 133.355 136.430  1.00  0.00     0.072 A 
ATOM      7  C   UNL     1     136.806 134.637 136.657  1.00  0.00     0.169 A 
ATOM      8  C   UNL     1     136.039 134.897 137.798  1.00  0.00     0.162 A 
ATOM      9  C   UNL     1     135.755 133.879 138.735  1.00  0.00     0.008 A 
ATOM     10  C   UNL     1     137.752 131.043 137.272  1.00  0.00     0.132 A 
ATOM     11  C   UNL     1     137.376 129.983 138.123  1.00  0.00     0.031 A 
ENDROOT
BRANCH  11  12
ATOM     12  C   UNL     1     138.014 128.648 137.979  1.00  0.00     0.031 A 
ATOM     13  C   UNL     1     137.361 127.626 137.255  1.00  0.00     0.132 A 
ATOM     14  C   UNL     1     139.250 128.395 138.595  1.00  0.00    -0.039 A 
ATOM     15  C   UNL     1     137.934 126.321 137.171  1.00  0.00     0.039 A 
ATOM     16  C   UNL     1     139.850 127.145 138.444  1.00  0.00     0.013 A 
ATOM     17  C   UNL     1     139.917 129.430 139.468  1.00  0.00     0.045 C 
ATOM     18  C   UNL     1     139.251 126.118 137.682  1.00  0.00    -0.006 A 
ATOM     19  C   UNL     1     137.238 125.213 136.600  1.00  0.00     0.072 A 
ATOM     20  C   UNL     1     139.928 124.883 137.451  1.00  0.00     0.008 A 
ATOM     21  C   UNL     1     137.855 123.944 136.560  1.00  0.00     0.169 A 
ATOM     22  C   UNL     1     139.182 123.785 136.973  1.00  0.00     0.162 A 
BRANCH  13  23
ATOM     23  O   UNL     1     136.157 127.912 136.605  1.00  0.00    -0.507 OA
ATOM     24  H   UNL     1     136.095 128.291 135.667  1.00  0.00     0.293 HD
ENDBRANCH  13  23
BRANCH  19  25
ATOM     25  C   UNL     1     135.841 125.324 136.134  1.00  0.00     0.264 C 
ATOM     26  O   UNL     1     134.887 124.970 136.876  1.00  0.00    -0.298 OA
ENDBRANCH  19  25
BRANCH  20  27
ATOM     27  C   UNL     1     141.433 124.723 137.729  1.00  0.00     0.017 C 
ATOM     28  C   UNL     1     141.671 123.886 138.990  1.00  0.00     0.012 C 
ATOM     29  C   UNL     1     142.229 124.174 136.530  1.00  0.00     0.012 C 
ENDBRANCH  20  27
BRANCH  21  30
ATOM     30  O   UNL     1     137.161 122.805 136.134  1.00  0.00    -0.504 OA
ATOM     31  H   UNL     1     137.408 121.860 136.394  1.00  0.00     0.293 HD
ENDBRANCH  21  30
BRANCH  22  32
ATOM     32  O   UNL     1     139.761 122.513 136.935  1.00  0.00    -0.504 OA
ATOM     33  H   UNL     1     140.378 122.207 136.192  1.00  0.00     0.293 HD
ENDBRANCH  22  32
ENDBRANCH  11  12
BRANCH  10  34
ATOM     34  O   UNL     1     138.795 130.853 136.357  1.00  0.00    -0.507 OA
ATOM     35  H   UNL     1     138.765 131.164 135.395  1.00  0.00     0.293 HD
ENDBRANCH  10  34
BRANCH   9  36
ATOM     36  C   UNL     1     134.963 134.274 139.999  1.00  0.00     0.017 C 
ATOM     37  C   UNL     1     133.471 133.942 139.875  1.00  0.00     0.012 C 
ATOM     38  C   UNL     1     135.587 133.782 141.321  1.00  0.00     0.012 C 
ENDBRANCH   9  36
BRANCH   6  39
ATOM     39  C   UNL     1     138.037 133.118 135.148  1.00  0.00     0.264 C 
ATOM     40  O   UNL     1     139.171 133.624 134.934  1.00  0.00    -0.298 OA
ENDBRANCH   6  39
BRANCH   8  41
ATOM     41  O   UNL     1     135.533 136.187 137.998  1.00  0.00    -0.504 OA
ATOM     42  H   UNL     1     135.149 136.753 137.251  1.00  0.00     0.293 HD
ENDBRANCH   8  41
BRANCH   7  43
ATOM     43  O   UNL     1     137.004 135.684 135.747  1.00  0.00    -0.504 OA
ATOM     44  H   UNL     1     136.920 136.664 135.980  1.00  0.00     0.293 HD
ENDBRANCH   7  43
TORSDOF 11
ENDMDL
