MODEL 1
REMARK VINA RESULT:    -3.736      0.000      0.000
REMARK INTER + INTRA:          -8.044
REMARK INTER:                  -6.357
REMARK INTRA:                  -1.687
REMARK UNBOUND:                -1.687
REMARK SMILES CCCCCCCCCCCCCC(=O)[O-]
REMARK SMILES IDX 8 1 9 2 10 3 11 4 12 5 13 6 14 7 15 8 16 9 7 10 6 11 5 12
REMARK SMILES IDX 4 13 3 14 2 15 1 16
REMARK H PARENT
REMARK Flexibility Score: inf
ROOT
ATOM      1  C   UNL     1      17.315  37.396  33.762  1.00  0.00     0.000 C 
ENDROOT
BRANCH   1   2
ATOM      2  C   UNL     1      17.238  38.192  35.078  1.00  0.00     0.000 C 
BRANCH   2   3
ATOM      3  C   UNL     1      18.539  38.129  35.895  1.00  0.00     0.000 C 
BRANCH   3   4
ATOM      4  C   UNL     1      19.098  39.521  36.242  1.00  0.00     0.000 C 
BRANCH   4   5
ATOM      5  C   UNL     1      20.194  39.541  37.327  1.00  0.00     0.006 C 
BRANCH   5   6
ATOM      6  C   UNL     1      19.694  39.901  38.735  1.00  0.00     0.053 C 
BRANCH   6   7
ATOM      7  C   UNL     1      19.717  38.719  39.655  1.00  0.00     0.041 C 
ATOM      8  O   UNL     1      20.272  38.805  40.782  1.00  0.00    -0.550 OA
ATOM      9  O   UNL     1      19.154  37.516  39.253  1.00  0.00    -0.550 OA
ENDBRANCH   6   7
ENDBRANCH   5   6
ENDBRANCH   4   5
ENDBRANCH   3   4
ENDBRANCH   2   3
ENDBRANCH   1   2
BRANCH   1  10
ATOM     10  C   UNL     1      18.654  36.682  33.504  1.00  0.00     0.000 C 
BRANCH  10  11
ATOM     11  C   UNL     1      19.626  37.514  32.654  1.00  0.00    -0.000 C 
BRANCH  11  12
ATOM     12  C   UNL     1      21.082  37.176  32.994  1.00  0.00    -0.000 C 
BRANCH  12  13
ATOM     13  C   UNL     1      21.775  38.357  33.684  1.00  0.00    -0.000 C 
BRANCH  13  14
ATOM     14  C   UNL     1      22.318  37.948  35.062  1.00  0.00    -0.000 C 
BRANCH  14  15
ATOM     15  C   UNL     1      21.878  36.536  35.475  1.00  0.00    -0.003 C 
ATOM     16  C   UNL     1      21.929  36.318  36.987  1.00  0.00     0.004 C 
ENDBRANCH  14  15
ENDBRANCH  13  14
ENDBRANCH  12  13
ENDBRANCH  11  12
ENDBRANCH  10  11
ENDBRANCH   1  10
TORSDOF 12
ENDMDL
MODEL 2
REMARK VINA RESULT:    -3.722      1.252      3.473
REMARK INTER + INTRA:          -8.020
REMARK INTER:                  -6.189
REMARK INTRA:                  -1.830
REMARK UNBOUND:                -1.687
REMARK SMILES CCCCCCCCCCCCCC(=O)[O-]
REMARK SMILES IDX 8 1 9 2 10 3 11 4 12 5 13 6 14 7 15 8 16 9 7 10 6 11 5 12
REMARK SMILES IDX 4 13 3 14 2 15 1 16
REMARK H PARENT
REMARK Flexibility Score: inf
ROOT
ATOM      1  C   UNL     1      21.307  38.259  32.680  1.00  0.00     0.000 C 
ENDROOT
BRANCH   1   2
ATOM      2  C   UNL     1      21.663  38.156  34.174  1.00  0.00     0.000 C 
BRANCH   2   3
ATOM      3  C   UNL     1      21.402  36.758  34.759  1.00  0.00     0.000 C 
BRANCH   3   4
ATOM      4  C   UNL     1      21.793  36.646  36.244  1.00  0.00     0.000 C 
BRANCH   4   5
ATOM      5  C   UNL     1      21.241  37.759  37.158  1.00  0.00     0.006 C 
BRANCH   5   6
ATOM      6  C   UNL     1      20.604  37.257  38.464  1.00  0.00     0.053 C 
BRANCH   6   7
ATOM      7  C   UNL     1      19.529  38.180  38.951  1.00  0.00     0.041 C 
ATOM      8  O   UNL     1      18.498  37.715  39.504  1.00  0.00    -0.550 OA
ATOM      9  O   UNL     1      19.653  39.550  38.764  1.00  0.00    -0.550 OA
ENDBRANCH   6   7
ENDBRANCH   5   6
ENDBRANCH   4   5
ENDBRANCH   3   4
ENDBRANCH   2   3
ENDBRANCH   1   2
BRANCH   1  10
ATOM     10  C   UNL     1      20.544  37.053  32.101  1.00  0.00     0.000 C 
BRANCH  10  11
ATOM     11  C   UNL     1      19.320  37.460  31.267  1.00  0.00    -0.000 C 
BRANCH  11  12
ATOM     12  C   UNL     1      18.081  36.657  31.680  1.00  0.00    -0.000 C 
BRANCH  12  13
ATOM     13  C   UNL     1      17.988  36.534  33.206  1.00  0.00    -0.000 C 
BRANCH  13  14
ATOM     14  C   UNL     1      17.447  37.829  33.831  1.00  0.00    -0.000 C 
BRANCH  14  15
ATOM     15  C   UNL     1      18.016  38.091  35.233  1.00  0.00    -0.003 C 
ATOM     16  C   UNL     1      18.444  39.545  35.436  1.00  0.00     0.004 C 
ENDBRANCH  14  15
ENDBRANCH  13  14
ENDBRANCH  12  13
ENDBRANCH  11  12
ENDBRANCH  10  11
ENDBRANCH   1  10
TORSDOF 12
ENDMDL
MODEL 3
REMARK VINA RESULT:    -3.681      1.279      3.582
REMARK INTER + INTRA:          -7.949
REMARK INTER:                  -6.039
REMARK INTRA:                  -1.910
REMARK UNBOUND:                -1.687
REMARK SMILES CCCCCCCCCCCCCC(=O)[O-]
REMARK SMILES IDX 8 1 9 2 10 3 11 4 12 5 13 6 14 7 15 8 16 9 7 10 6 11 5 12
REMARK SMILES IDX 4 13 3 14 2 15 1 16
REMARK H PARENT
REMARK Flexibility Score: inf
ROOT
ATOM      1  C   UNL     1      22.387  37.898  35.644  1.00  0.00     0.000 C 
ENDROOT
BRANCH   1   2
ATOM      2  C   UNL     1      21.793  36.564  36.131  1.00  0.00     0.000 C 
BRANCH   2   3
ATOM      3  C   UNL     1      21.415  36.584  37.622  1.00  0.00     0.000 C 
BRANCH   3   4
ATOM      4  C   UNL     1      22.635  36.732  38.549  1.00  0.00     0.000 C 
BRANCH   4   5
ATOM      5  C   UNL     1      22.464  37.732  39.710  1.00  0.00     0.006 C 
BRANCH   5   6
ATOM      6  C   UNL     1      21.823  39.071  39.313  1.00  0.00     0.053 C 
BRANCH   6   7
ATOM      7  C   UNL     1      20.576  39.348  40.097  1.00  0.00     0.041 C 
ATOM      8  O   UNL     1      20.296  40.525  40.445  1.00  0.00    -0.550 OA
ATOM      9  O   UNL     1      19.744  38.301  40.470  1.00  0.00    -0.550 OA
ENDBRANCH   6   7
ENDBRANCH   5   6
ENDBRANCH   4   5
ENDBRANCH   3   4
ENDBRANCH   2   3
ENDBRANCH   1   2
BRANCH   1  10
ATOM     10  C   UNL     1      21.852  38.400  34.290  1.00  0.00     0.000 C 
BRANCH  10  11
ATOM     11  C   UNL     1      21.000  37.354  33.555  1.00  0.00    -0.000 C 
BRANCH  11  12
ATOM     12  C   UNL     1      19.601  37.901  33.251  1.00  0.00    -0.000 C 
BRANCH  12  13
ATOM     13  C   UNL     1      18.554  37.294  34.193  1.00  0.00    -0.000 C 
BRANCH  13  14
ATOM     14  C   UNL     1      17.913  38.376  35.075  1.00  0.00    -0.000 C 
BRANCH  14  15
ATOM     15  C   UNL     1      18.608  38.516  36.438  1.00  0.00    -0.003 C 
ATOM     16  C   UNL     1      19.343  39.847  36.595  1.00  0.00     0.004 C 
ENDBRANCH  14  15
ENDBRANCH  13  14
ENDBRANCH  12  13
ENDBRANCH  11  12
ENDBRANCH  10  11
ENDBRANCH   1  10
TORSDOF 12
ENDMDL
MODEL 4
REMARK VINA RESULT:    -3.668      2.886      5.210
REMARK INTER + INTRA:          -7.929
REMARK INTER:                  -6.205
REMARK INTRA:                  -1.723
REMARK UNBOUND:                -1.687
REMARK SMILES CCCCCCCCCCCCCC(=O)[O-]
REMARK SMILES IDX 8 1 9 2 10 3 11 4 12 5 13 6 14 7 15 8 16 9 7 10 6 11 5 12
REMARK SMILES IDX 4 13 3 14 2 15 1 16
REMARK H PARENT
REMARK Flexibility Score: inf
ROOT
ATOM      1  C   UNL     1      21.148  37.010  35.125  1.00  0.00     0.000 C 
ENDROOT
BRANCH   1   2
ATOM      2  C   UNL     1      21.189  38.547  35.213  1.00  0.00     0.000 C 
BRANCH   2   3
ATOM      3  C   UNL     1      19.807  39.170  35.472  1.00  0.00     0.000 C 
BRANCH   3   4
ATOM      4  C   UNL     1      18.704  38.117  35.687  1.00  0.00     0.000 C 
BRANCH   4   5
ATOM      5  C   UNL     1      17.321  38.484  35.114  1.00  0.00     0.006 C 
BRANCH   5   6
ATOM      6  C   UNL     1      16.793  37.514  34.045  1.00  0.00     0.053 C 
BRANCH   6   7
ATOM      7  C   UNL     1      17.873  37.079  33.103  1.00  0.00     0.041 C 
ATOM      8  O   UNL     1      18.299  35.895  33.132  1.00  0.00    -0.550 OA
ATOM      9  O   UNL     1      18.431  37.991  32.217  1.00  0.00    -0.550 OA
ENDBRANCH   6   7
ENDBRANCH   5   6
ENDBRANCH   4   5
ENDBRANCH   3   4
ENDBRANCH   2   3
ENDBRANCH   1   2
BRANCH   1  10
ATOM     10  C   UNL     1      22.068  36.270  36.113  1.00  0.00     0.000 C 
BRANCH  10  11
ATOM     11  C   UNL     1      22.673  37.196  37.179  1.00  0.00    -0.000 C 
BRANCH  11  12
ATOM     12  C   UNL     1      22.394  36.664  38.590  1.00  0.00    -0.000 C 
BRANCH  12  13
ATOM     13  C   UNL     1      22.074  37.811  39.558  1.00  0.00    -0.000 C 
BRANCH  13  14
ATOM     14  C   UNL     1      21.224  38.890  38.870  1.00  0.00    -0.000 C 
BRANCH  14  15
ATOM     15  C   UNL     1      19.824  39.022  39.489  1.00  0.00    -0.003 C 
ATOM     16  C   UNL     1      18.992  37.747  39.346  1.00  0.00     0.004 C 
ENDBRANCH  14  15
ENDBRANCH  13  14
ENDBRANCH  12  13
ENDBRANCH  11  12
ENDBRANCH  10  11
ENDBRANCH   1  10
TORSDOF 12
ENDMDL
MODEL 5
REMARK VINA RESULT:    -3.665      3.108      5.059
REMARK INTER + INTRA:          -7.922
REMARK INTER:                  -6.058
REMARK INTRA:                  -1.865
REMARK UNBOUND:                -1.687
REMARK SMILES CCCCCCCCCCCCCC(=O)[O-]
REMARK SMILES IDX 8 1 9 2 10 3 11 4 12 5 13 6 14 7 15 8 16 9 7 10 6 11 5 12
REMARK SMILES IDX 4 13 3 14 2 15 1 16
REMARK H PARENT
REMARK Flexibility Score: inf
ROOT
ATOM      1  C   UNL     1      21.188  39.275  34.758  1.00  0.00     0.000 C 
ENDROOT
BRANCH   1   2
ATOM      2  C   UNL     1      20.103  39.343  35.849  1.00  0.00     0.000 C 
BRANCH   2   3
ATOM      3  C   UNL     1      18.683  39.481  35.276  1.00  0.00     0.000 C 
BRANCH   3   4
ATOM      4  C   UNL     1      17.875  38.172  35.352  1.00  0.00     0.000 C 
BRANCH   4   5
ATOM      5  C   UNL     1      17.435  37.588  33.994  1.00  0.00     0.006 C 
BRANCH   5   6
ATOM      6  C   UNL     1      18.427  36.591  33.374  1.00  0.00     0.053 C 
BRANCH   6   7
ATOM      7  C   UNL     1      19.239  37.217  32.282  1.00  0.00     0.041 C 
ATOM      8  O   UNL     1      18.826  38.253  31.699  1.00  0.00    -0.550 OA
ATOM      9  O   UNL     1      20.436  36.635  31.887  1.00  0.00    -0.550 OA
ENDBRANCH   6   7
ENDBRANCH   5   6
ENDBRANCH   4   5
ENDBRANCH   3   4
ENDBRANCH   2   3
ENDBRANCH   1   2
BRANCH   1  10
ATOM     10  C   UNL     1      22.012  37.975  34.731  1.00  0.00     0.000 C 
BRANCH  10  11
ATOM     11  C   UNL     1      21.363  36.835  35.530  1.00  0.00    -0.000 C 
BRANCH  11  12
ATOM     12  C   UNL     1      22.381  36.169  36.463  1.00  0.00    -0.000 C 
BRANCH  12  13
ATOM     13  C   UNL     1      21.771  35.902  37.845  1.00  0.00    -0.000 C 
BRANCH  13  14
ATOM     14  C   UNL     1      21.321  37.211  38.510  1.00  0.00    -0.000 C 
BRANCH  14  15
ATOM     15  C   UNL     1      19.814  37.235  38.807  1.00  0.00    -0.003 C 
ATOM     16  C   UNL     1      19.355  38.552  39.434  1.00  0.00     0.004 C 
ENDBRANCH  14  15
ENDBRANCH  13  14
ENDBRANCH  12  13
ENDBRANCH  11  12
ENDBRANCH  10  11
ENDBRANCH   1  10
TORSDOF 12
ENDMDL
MODEL 6
REMARK VINA RESULT:    -3.661      1.591      3.678
REMARK INTER + INTRA:          -7.917
REMARK INTER:                  -6.224
REMARK INTRA:                  -1.692
REMARK UNBOUND:                -1.687
REMARK SMILES CCCCCCCCCCCCCC(=O)[O-]
REMARK SMILES IDX 8 1 9 2 10 3 11 4 12 5 13 6 14 7 15 8 16 9 7 10 6 11 5 12
REMARK SMILES IDX 4 13 3 14 2 15 1 16
REMARK H PARENT
REMARK Flexibility Score: inf
ROOT
ATOM      1  C   UNL     1      18.474  38.476  36.075  1.00  0.00     0.000 C 
ENDROOT
BRANCH   1   2
ATOM      2  C   UNL     1      19.818  39.208  36.245  1.00  0.00     0.000 C 
BRANCH   2   3
ATOM      3  C   UNL     1      20.783  38.972  35.071  1.00  0.00     0.000 C 
BRANCH   3   4
ATOM      4  C   UNL     1      22.005  38.120  35.461  1.00  0.00     0.000 C 
BRANCH   4   5
ATOM      5  C   UNL     1      21.719  36.622  35.690  1.00  0.00     0.006 C 
BRANCH   5   6
ATOM      6  C   UNL     1      22.321  36.046  36.981  1.00  0.00     0.053 C 
BRANCH   6   7
ATOM      7  C   UNL     1      21.738  36.686  38.204  1.00  0.00     0.041 C 
ATOM      8  O   UNL     1      22.484  37.287  39.021  1.00  0.00    -0.550 OA
ATOM      9  O   UNL     1      20.376  36.588  38.456  1.00  0.00    -0.550 OA
ENDBRANCH   6   7
ENDBRANCH   5   6
ENDBRANCH   4   5
ENDBRANCH   3   4
ENDBRANCH   2   3
ENDBRANCH   1   2
BRANCH   1  10
ATOM     10  C   UNL     1      17.639  38.909  34.856  1.00  0.00     0.000 C 
BRANCH  10  11
ATOM     11  C   UNL     1      16.961  37.731  34.142  1.00  0.00    -0.000 C 
BRANCH  11  12
ATOM     12  C   UNL     1      17.701  37.372  32.848  1.00  0.00    -0.000 C 
BRANCH  12  13
ATOM     13  C   UNL     1      18.716  36.247  33.088  1.00  0.00    -0.000 C 
BRANCH  13  14
ATOM     14  C   UNL     1      20.083  36.601  32.482  1.00  0.00    -0.000 C 
BRANCH  14  15
ATOM     15  C   UNL     1      19.961  37.378  31.163  1.00  0.00    -0.003 C 
ATOM     16  C   UNL     1      20.796  38.659  31.151  1.00  0.00     0.004 C 
ENDBRANCH  14  15
ENDBRANCH  13  14
ENDBRANCH  12  13
ENDBRANCH  11  12
ENDBRANCH  10  11
ENDBRANCH   1  10
TORSDOF 12
ENDMDL
MODEL 7
REMARK VINA RESULT:    -3.630      2.757      5.637
REMARK INTER + INTRA:          -7.864
REMARK INTER:                  -6.403
REMARK INTRA:                  -1.461
REMARK UNBOUND:                -1.687
REMARK SMILES CCCCCCCCCCCCCC(=O)[O-]
REMARK SMILES IDX 8 1 9 2 10 3 11 4 12 5 13 6 14 7 15 8 16 9 7 10 6 11 5 12
REMARK SMILES IDX 4 13 3 14 2 15 1 16
REMARK H PARENT
REMARK Flexibility Score: inf
ROOT
ATOM      1  C   UNL     1      21.947  36.457  36.090  1.00  0.00     0.000 C 
ENDROOT
BRANCH   1   2
ATOM      2  C   UNL     1      22.110  37.895  35.564  1.00  0.00     0.000 C 
BRANCH   2   3
ATOM      3  C   UNL     1      21.151  38.223  34.407  1.00  0.00     0.000 C 
BRANCH   3   4
ATOM      4  C   UNL     1      20.781  36.989  33.565  1.00  0.00     0.000 C 
BRANCH   4   5
ATOM      5  C   UNL     1      19.286  36.610  33.571  1.00  0.00     0.006 C 
BRANCH   5   6
ATOM      6  C   UNL     1      18.386  37.568  34.367  1.00  0.00     0.053 C 
BRANCH   6   7
ATOM      7  C   UNL     1      17.120  37.886  33.631  1.00  0.00     0.041 C 
ATOM      8  O   UNL     1      17.158  38.544  32.559  1.00  0.00    -0.550 OA
ATOM      9  O   UNL     1      15.896  37.482  34.149  1.00  0.00    -0.550 OA
ENDBRANCH   6   7
ENDBRANCH   5   6
ENDBRANCH   4   5
ENDBRANCH   3   4
ENDBRANCH   2   3
ENDBRANCH   1   2
BRANCH   1  10
ATOM     10  C   UNL     1      22.306  36.255  37.573  1.00  0.00     0.000 C 
BRANCH  10  11
ATOM     11  C   UNL     1      22.951  37.495  38.210  1.00  0.00    -0.000 C 
BRANCH  11  12
ATOM     12  C   UNL     1      22.371  37.761  39.604  1.00  0.00    -0.000 C 
BRANCH  12  13
ATOM     13  C   UNL     1      21.426  38.969  39.587  1.00  0.00    -0.000 C 
BRANCH  13  14
ATOM     14  C   UNL     1      20.093  38.635  40.271  1.00  0.00    -0.000 C 
BRANCH  14  15
ATOM     15  C   UNL     1      19.119  37.897  39.340  1.00  0.00    -0.003 C 
ATOM     16  C   UNL     1      19.087  38.488  37.930  1.00  0.00     0.004 C 
ENDBRANCH  14  15
ENDBRANCH  13  14
ENDBRANCH  12  13
ENDBRANCH  11  12
ENDBRANCH  10  11
ENDBRANCH   1  10
TORSDOF 12
ENDMDL
MODEL 8
REMARK VINA RESULT:    -3.574      1.372      2.498
REMARK INTER + INTRA:          -7.768
REMARK INTER:                  -5.807
REMARK INTRA:                  -1.960
REMARK UNBOUND:                -1.687
REMARK SMILES CCCCCCCCCCCCCC(=O)[O-]
REMARK SMILES IDX 8 1 9 2 10 3 11 4 12 5 13 6 14 7 15 8 16 9 7 10 6 11 5 12
REMARK SMILES IDX 4 13 3 14 2 15 1 16
REMARK H PARENT
REMARK Flexibility Score: inf
ROOT
ATOM      1  C   UNL     1      17.236  38.064  34.514  1.00  0.00     0.000 C 
ENDROOT
BRANCH   1   2
ATOM      2  C   UNL     1      17.806  39.490  34.627  1.00  0.00     0.000 C 
BRANCH   2   3
ATOM      3  C   UNL     1      18.830  39.639  35.764  1.00  0.00     0.000 C 
BRANCH   3   4
ATOM      4  C   UNL     1      18.795  38.467  36.761  1.00  0.00     0.000 C 
BRANCH   4   5
ATOM      5  C   UNL     1      20.165  37.841  37.092  1.00  0.00     0.006 C 
BRANCH   5   6
ATOM      6  C   UNL     1      20.251  37.187  38.481  1.00  0.00     0.053 C 
BRANCH   6   7
ATOM      7  C   UNL     1      20.707  38.157  39.528  1.00  0.00     0.041 C 
ATOM      8  O   UNL     1      19.863  38.811  40.194  1.00  0.00    -0.550 OA
ATOM      9  O   UNL     1      22.063  38.361  39.743  1.00  0.00    -0.550 OA
ENDBRANCH   6   7
ENDBRANCH   5   6
ENDBRANCH   4   5
ENDBRANCH   3   4
ENDBRANCH   2   3
ENDBRANCH   1   2
BRANCH   1  10
ATOM     10  C   UNL     1      17.469  37.368  33.161  1.00  0.00     0.000 C 
BRANCH  10  11
ATOM     11  C   UNL     1      18.532  36.262  33.228  1.00  0.00    -0.000 C 
BRANCH  11  12
ATOM     12  C   UNL     1      19.846  36.723  32.587  1.00  0.00    -0.000 C 
BRANCH  12  13
ATOM     13  C   UNL     1      20.910  37.008  33.654  1.00  0.00    -0.000 C 
BRANCH  13  14
ATOM     14  C   UNL     1      21.476  38.428  33.502  1.00  0.00    -0.000 C 
BRANCH  14  15
ATOM     15  C   UNL     1      20.796  39.217  32.373  1.00  0.00    -0.003 C 
ATOM     16  C   UNL     1      20.843  40.729  32.596  1.00  0.00     0.004 C 
ENDBRANCH  14  15
ENDBRANCH  13  14
ENDBRANCH  12  13
ENDBRANCH  11  12
ENDBRANCH  10  11
ENDBRANCH   1  10
TORSDOF 12
ENDMDL
MODEL 9
REMARK VINA RESULT:    -3.560      1.368      3.770
REMARK INTER + INTRA:          -7.745
REMARK INTER:                  -6.350
REMARK INTRA:                  -1.395
REMARK UNBOUND:                -1.687
REMARK SMILES CCCCCCCCCCCCCC(=O)[O-]
REMARK SMILES IDX 8 1 9 2 10 3 11 4 12 5 13 6 14 7 15 8 16 9 7 10 6 11 5 12
REMARK SMILES IDX 4 13 3 14 2 15 1 16
REMARK H PARENT
REMARK Flexibility Score: inf
ROOT
ATOM      1  C   UNL     1      21.121  37.887  35.953  1.00  0.00     0.000 C 
ENDROOT
BRANCH   1   2
ATOM      2  C   UNL     1      21.926  36.578  36.058  1.00  0.00     0.000 C 
BRANCH   2   3
ATOM      3  C   UNL     1      22.080  36.081  37.505  1.00  0.00     0.000 C 
BRANCH   3   4
ATOM      4  C   UNL     1      23.060  36.933  38.331  1.00  0.00     0.000 C 
BRANCH   4   5
ATOM      5  C   UNL     1      22.465  37.584  39.596  1.00  0.00     0.006 C 
BRANCH   5   6
ATOM      6  C   UNL     1      21.897  38.996  39.382  1.00  0.00     0.053 C 
BRANCH   6   7
ATOM      7  C   UNL     1      20.612  39.201  40.126  1.00  0.00     0.041 C 
ATOM      8  O   UNL     1      20.407  40.273  40.752  1.00  0.00    -0.550 OA
ATOM      9  O   UNL     1      19.658  38.192  40.153  1.00  0.00    -0.550 OA
ENDBRANCH   6   7
ENDBRANCH   5   6
ENDBRANCH   4   5
ENDBRANCH   3   4
ENDBRANCH   2   3
ENDBRANCH   1   2
BRANCH   1  10
ATOM     10  C   UNL     1      19.745  37.868  36.643  1.00  0.00     0.000 C 
BRANCH  10  11
ATOM     11  C   UNL     1      18.714  38.774  35.953  1.00  0.00    -0.000 C 
BRANCH  11  12
ATOM     12  C   UNL     1      17.719  37.947  35.130  1.00  0.00    -0.000 C 
BRANCH  12  13
ATOM     13  C   UNL     1      18.148  37.871  33.660  1.00  0.00    -0.000 C 
BRANCH  13  14
ATOM     14  C   UNL     1      18.868  36.547  33.364  1.00  0.00    -0.000 C 
BRANCH  14  15
ATOM     15  C   UNL     1      19.823  36.648  32.165  1.00  0.00    -0.003 C 
ATOM     16  C   UNL     1      20.984  37.611  32.413  1.00  0.00     0.004 C 
ENDBRANCH  14  15
ENDBRANCH  13  14
ENDBRANCH  12  13
ENDBRANCH  11  12
ENDBRANCH  10  11
ENDBRANCH   1  10
TORSDOF 12
ENDMDL
