MODEL 1
REMARK VINA RESULT:    -2.124      0.000      0.000
REMARK INTER + INTRA:          -2.124
REMARK INTER:                  -2.124
REMARK INTRA:                   0.000
REMARK UNBOUND:                 0.000
REMARK SMILES CC(=O)[O-]
REMARK SMILES IDX 1 1 2 2 3 3 4 4
REMARK H PARENT
REMARK Flexibility Score: inf
ROOT
ATOM      1  C   UNL     1     -25.628  36.664  29.095  1.00  0.00     0.063 C 
ATOM      2  C   UNL     1     -24.610  37.737  29.279  1.00  0.00     0.038 C 
ATOM      3  O   UNL     1     -24.807  38.884  28.797  1.00  0.00    -0.550 OA
ATOM      4  O   UNL     1     -23.468  37.492  30.030  1.00  0.00    -0.550 OA
ENDROOT
TORSDOF 0
ENDMDL
MODEL 2
REMARK VINA RESULT:    -2.105      1.370      2.033
REMARK INTER + INTRA:          -2.105
REMARK INTER:                  -2.105
REMARK INTRA:                   0.000
REMARK UNBOUND:                 0.000
REMARK SMILES CC(=O)[O-]
REMARK SMILES IDX 1 1 2 2 3 3 4 4
REMARK H PARENT
REMARK Flexibility Score: inf
ROOT
ATOM      1  C   UNL     1     -24.947  39.068  28.822  1.00  0.00     0.063 C 
ATOM      2  C   UNL     1     -24.565  37.712  29.306  1.00  0.00     0.038 C 
ATOM      3  O   UNL     1     -23.479  37.542  29.920  1.00  0.00    -0.550 OA
ATOM      4  O   UNL     1     -25.431  36.640  29.131  1.00  0.00    -0.550 OA
ENDROOT
TORSDOF 0
ENDMDL
MODEL 3
REMARK VINA RESULT:    -2.051      8.751      9.109
REMARK INTER + INTRA:          -2.051
REMARK INTER:                  -2.051
REMARK INTRA:                   0.000
REMARK UNBOUND:                 0.000
REMARK SMILES CC(=O)[O-]
REMARK SMILES IDX 1 1 2 2 3 3 4 4
REMARK H PARENT
REMARK Flexibility Score: inf
ROOT
ATOM      1  C   UNL     1     -19.192  42.388  33.943  1.00  0.00     0.063 C 
ATOM      2  C   UNL     1     -19.269  43.732  33.304  1.00  0.00     0.038 C 
ATOM      3  O   UNL     1     -19.628  44.732  33.979  1.00  0.00    -0.550 OA
ATOM      4  O   UNL     1     -18.894  43.895  31.977  1.00  0.00    -0.550 OA
ENDROOT
TORSDOF 0
ENDMDL
MODEL 4
REMARK VINA RESULT:    -2.045     13.216     13.780
REMARK INTER + INTRA:          -2.045
REMARK INTER:                  -2.045
REMARK INTRA:                   0.000
REMARK UNBOUND:                 0.000
REMARK SMILES CC(=O)[O-]
REMARK SMILES IDX 1 1 2 2 3 3 4 4
REMARK H PARENT
REMARK Flexibility Score: inf
ROOT
ATOM      1  C   UNL     1     -13.424  45.015  33.433  1.00  0.00     0.063 C 
ATOM      2  C   UNL     1     -14.534  45.391  34.354  1.00  0.00     0.038 C 
ATOM      3  O   UNL     1     -14.315  46.160  35.327  1.00  0.00    -0.550 OA
ATOM      4  O   UNL     1     -15.824  44.938  34.111  1.00  0.00    -0.550 OA
ENDROOT
TORSDOF 0
ENDMDL
MODEL 5
REMARK VINA RESULT:    -2.017     13.199     13.788
REMARK INTER + INTRA:          -2.017
REMARK INTER:                  -2.017
REMARK INTRA:                   0.000
REMARK UNBOUND:                 0.000
REMARK SMILES CC(=O)[O-]
REMARK SMILES IDX 1 1 2 2 3 3 4 4
REMARK H PARENT
REMARK Flexibility Score: inf
ROOT
ATOM      1  C   UNL     1     -14.410  46.031  35.053  1.00  0.00     0.063 C 
ATOM      2  C   UNL     1     -14.120  44.831  34.218  1.00  0.00     0.038 C 
ATOM      3  O   UNL     1     -14.840  43.802  34.320  1.00  0.00    -0.550 OA
ATOM      4  O   UNL     1     -13.091  44.862  33.286  1.00  0.00    -0.550 OA
ENDROOT
TORSDOF 0
ENDMDL
MODEL 6
REMARK VINA RESULT:    -2.005     13.267     13.746
REMARK INTER + INTRA:          -2.005
REMARK INTER:                  -2.005
REMARK INTRA:                   0.000
REMARK UNBOUND:                 0.000
REMARK SMILES CC(=O)[O-]
REMARK SMILES IDX 1 1 2 2 3 3 4 4
REMARK H PARENT
REMARK Flexibility Score: inf
ROOT
ATOM      1  C   UNL     1     -15.571  44.549  33.945  1.00  0.00     0.063 C 
ATOM      2  C   UNL     1     -14.337  45.342  34.205  1.00  0.00     0.038 C 
ATOM      3  O   UNL     1     -13.341  45.231  33.442  1.00  0.00    -0.550 OA
ATOM      4  O   UNL     1     -14.299  46.247  35.258  1.00  0.00    -0.550 OA
ENDROOT
TORSDOF 0
ENDMDL
MODEL 7
REMARK VINA RESULT:    -1.979      9.854     10.230
REMARK INTER + INTRA:          -1.979
REMARK INTER:                  -1.979
REMARK INTRA:                   0.000
REMARK UNBOUND:                 0.000
REMARK SMILES CC(=O)[O-]
REMARK SMILES IDX 1 1 2 2 3 3 4 4
REMARK H PARENT
REMARK Flexibility Score: inf
ROOT
ATOM      1  C   UNL     1     -18.645  43.751  31.959  1.00  0.00     0.063 C 
ATOM      2  C   UNL     1     -17.404  44.538  31.714  1.00  0.00     0.038 C 
ATOM      3  O   UNL     1     -17.270  45.190  30.644  1.00  0.00    -0.550 OA
ATOM      4  O   UNL     1     -16.414  44.600  32.686  1.00  0.00    -0.550 OA
ENDROOT
TORSDOF 0
ENDMDL
MODEL 8
REMARK VINA RESULT:    -1.969      9.175      9.650
REMARK INTER + INTRA:          -1.969
REMARK INTER:                  -1.969
REMARK INTRA:                   0.000
REMARK UNBOUND:                 0.000
REMARK SMILES CC(=O)[O-]
REMARK SMILES IDX 1 1 2 2 3 3 4 4
REMARK H PARENT
REMARK Flexibility Score: inf
ROOT
ATOM      1  C   UNL     1     -17.099  44.930  30.774  1.00  0.00     0.063 C 
ATOM      2  C   UNL     1     -17.780  43.732  31.340  1.00  0.00     0.038 C 
ATOM      3  O   UNL     1     -17.232  42.600  31.267  1.00  0.00    -0.550 OA
ATOM      4  O   UNL     1     -18.996  43.867  31.997  1.00  0.00    -0.550 OA
ENDROOT
TORSDOF 0
ENDMDL
MODEL 9
REMARK VINA RESULT:    -0.956      1.789      2.593
REMARK INTER + INTRA:          -0.956
REMARK INTER:                  -0.956
REMARK INTRA:                   0.000
REMARK UNBOUND:                 0.000
REMARK SMILES CC(=O)[O-]
REMARK SMILES IDX 1 1 2 2 3 3 4 4
REMARK H PARENT
REMARK Flexibility Score: inf
ROOT
ATOM      1  C   UNL     1     -24.264  37.778  29.410  1.00  0.00     0.063 C 
ATOM      2  C   UNL     1     -25.543  37.088  29.081  1.00  0.00     0.038 C 
ATOM      3  O   UNL     1     -25.702  35.875  29.381  1.00  0.00    -0.550 OA
ATOM      4  O   UNL     1     -26.585  37.794  28.493  1.00  0.00    -0.550 OA
ENDROOT
TORSDOF 0
ENDMDL
