MODEL 1
REMARK VINA RESULT:    -6.531      0.000      0.000
REMARK INTER + INTRA:          -8.348
REMARK INTER:                  -8.058
REMARK INTRA:                  -0.290
REMARK UNBOUND:                -0.290
REMARK SMILES Oc1cc(O)c2cc(O)c(-c3cc(O)c(O)c(O)c3)[o+]c2c1
REMARK SMILES IDX 10 1 20 2 21 3 22 4 2 5 3 6 4 7 6 8 7 9 8 10 11 11 12 12
REMARK SMILES IDX 13 13 19 14 15 15 17 16 14 17 16 19 18 21 9 23 1 25 5 27
REMARK H PARENT 14 18 16 20 18 22 9 24 1 26 5 28
REMARK Flexibility Score: inf
ROOT
ATOM      1  C   UNL     1     -24.102  19.179 -19.132  1.00  0.00     0.402 A 
ATOM      2  O   UNL     1     -23.552  19.896 -18.155  1.00  0.00    -0.202 OA
ATOM      3  C   UNL     1     -23.626  21.221 -18.091  1.00  0.00     0.368 A 
ATOM      4  C   UNL     1     -23.013  21.886 -17.026  1.00  0.00     0.162 A 
ATOM      5  C   UNL     1     -23.074  23.279 -16.935  1.00  0.00     0.128 A 
ATOM      6  C   UNL     1     -23.750  24.011 -17.914  1.00  0.00     0.093 A 
ATOM      7  C   UNL     1     -24.374  23.369 -18.992  1.00  0.00     0.136 A 
ATOM      8  C   UNL     1     -24.317  21.954 -19.086  1.00  0.00     0.125 A 
ATOM      9  C   UNL     1     -24.923  21.225 -20.122  1.00  0.00     0.078 A 
ATOM     10  C   UNL     1     -24.828  19.830 -20.147  1.00  0.00     0.223 A 
ENDROOT
BRANCH   1  11
ATOM     11  C   UNL     1     -23.941  17.708 -19.097  1.00  0.00     0.091 A 
ATOM     12  C   UNL     1     -24.529  16.973 -18.056  1.00  0.00     0.068 A 
ATOM     13  C   UNL     1     -24.374  15.583 -17.990  1.00  0.00     0.162 A 
ATOM     14  C   UNL     1     -23.163  17.034 -20.055  1.00  0.00     0.068 A 
ATOM     15  C   UNL     1     -23.615  14.914 -18.959  1.00  0.00     0.200 A 
ATOM     16  C   UNL     1     -23.003  15.643 -19.992  1.00  0.00     0.162 A 
BRANCH  13  17
ATOM     17  O   UNL     1     -24.974  14.856 -16.961  1.00  0.00    -0.504 OA
ATOM     18  H   UNL     1     -25.895  15.091 -16.613  1.00  0.00     0.293 HD
ENDBRANCH  13  17
BRANCH  15  19
ATOM     19  O   UNL     1     -23.474  13.528 -18.878  1.00  0.00    -0.502 OA
ATOM     20  H   UNL     1     -23.567  12.929 -19.689  1.00  0.00     0.293 HD
ENDBRANCH  15  19
BRANCH  16  21
ATOM     21  O   UNL     1     -22.234  14.984 -20.950  1.00  0.00    -0.504 OA
ATOM     22  H   UNL     1     -21.241  15.160 -21.047  1.00  0.00     0.293 HD
ENDBRANCH  16  21
ENDBRANCH   1  11
BRANCH  10  23
ATOM     23  O   UNL     1     -25.472  19.102 -21.147  1.00  0.00    -0.500 OA
ATOM     24  H   UNL     1     -26.482  19.026 -21.184  1.00  0.00     0.294 HD
ENDBRANCH  10  23
BRANCH   5  25
ATOM     25  O   UNL     1     -22.464  23.949 -15.877  1.00  0.00    -0.507 OA
ATOM     26  H   UNL     1     -22.541  24.954 -15.772  1.00  0.00     0.293 HD
ENDBRANCH   5  25
BRANCH   7  27
ATOM     27  O   UNL     1     -25.027  24.173 -19.929  1.00  0.00    -0.507 OA
ATOM     28  H   UNL     1     -25.680  24.906 -19.695  1.00  0.00     0.293 HD
ENDBRANCH   7  27
TORSDOF 7
ENDMDL
MODEL 2
REMARK VINA RESULT:    -6.460      4.602      7.019
REMARK INTER + INTRA:          -8.261
REMARK INTER:                  -7.965
REMARK INTRA:                  -0.295
REMARK UNBOUND:                -0.290
REMARK SMILES Oc1cc(O)c2cc(O)c(-c3cc(O)c(O)c(O)c3)[o+]c2c1
REMARK SMILES IDX 10 1 20 2 21 3 22 4 2 5 3 6 4 7 6 8 7 9 8 10 11 11 12 12
REMARK SMILES IDX 13 13 19 14 15 15 17 16 14 17 16 19 18 21 9 23 1 25 5 27
REMARK H PARENT 14 18 16 20 18 22 9 24 1 26 5 28
REMARK Flexibility Score: inf
ROOT
ATOM      1  C   UNL     1     -26.197  16.176 -20.947  1.00  0.00     0.402 A 
ATOM      2  O   UNL     1     -27.221  15.340 -21.105  1.00  0.00    -0.202 OA
ATOM      3  C   UNL     1     -28.336  15.664 -21.749  1.00  0.00     0.368 A 
ATOM      4  C   UNL     1     -29.357  14.718 -21.861  1.00  0.00     0.162 A 
ATOM      5  C   UNL     1     -30.542  15.034 -22.531  1.00  0.00     0.128 A 
ATOM      6  C   UNL     1     -30.707  16.303 -23.092  1.00  0.00     0.093 A 
ATOM      7  C   UNL     1     -29.698  17.270 -22.994  1.00  0.00     0.136 A 
ATOM      8  C   UNL     1     -28.492  16.952 -22.317  1.00  0.00     0.125 A 
ATOM      9  C   UNL     1     -27.423  17.852 -22.182  1.00  0.00     0.078 A 
ATOM     10  C   UNL     1     -26.262  17.467 -21.504  1.00  0.00     0.223 A 
ENDROOT
BRANCH   1  11
ATOM     11  C   UNL     1     -25.012  15.699 -20.200  1.00  0.00     0.091 A 
ATOM     12  C   UNL     1     -23.839  15.373 -20.901  1.00  0.00     0.068 A 
ATOM     13  C   UNL     1     -22.711  14.900 -20.219  1.00  0.00     0.162 A 
ATOM     14  C   UNL     1     -25.051  15.510 -18.808  1.00  0.00     0.068 A 
ATOM     15  C   UNL     1     -22.750  14.734 -18.829  1.00  0.00     0.200 A 
ATOM     16  C   UNL     1     -23.924  15.035 -18.121  1.00  0.00     0.162 A 
BRANCH  13  17
ATOM     17  O   UNL     1     -21.544  14.592 -20.918  1.00  0.00    -0.504 OA
ATOM     18  H   UNL     1     -21.256  15.125 -21.729  1.00  0.00     0.293 HD
ENDBRANCH  13  17
BRANCH  15  19
ATOM     19  O   UNL     1     -21.614  14.264 -18.166  1.00  0.00    -0.502 OA
ATOM     20  H   UNL     1     -20.779  13.982 -18.664  1.00  0.00     0.293 HD
ENDBRANCH  15  19
BRANCH  16  21
ATOM     21  O   UNL     1     -23.973  14.857 -16.739  1.00  0.00    -0.504 OA
ATOM     22  H   UNL     1     -24.849  14.706 -16.253  1.00  0.00     0.293 HD
ENDBRANCH  16  21
ENDBRANCH   1  11
BRANCH  10  23
ATOM     23  O   UNL     1     -25.181  18.343 -21.413  1.00  0.00    -0.500 OA
ATOM     24  H   UNL     1     -25.134  19.058 -20.697  1.00  0.00     0.294 HD
ENDBRANCH  10  23
BRANCH   5  25
ATOM     25  O   UNL     1     -31.566  14.095 -22.646  1.00  0.00    -0.507 OA
ATOM     26  H   UNL     1     -32.503  14.292 -22.317  1.00  0.00     0.293 HD
ENDBRANCH   5  25
BRANCH   7  27
ATOM     27  O   UNL     1     -29.942  18.515 -23.580  1.00  0.00    -0.507 OA
ATOM     28  H   UNL     1     -30.836  18.808 -23.945  1.00  0.00     0.293 HD
ENDBRANCH   7  27
TORSDOF 7
ENDMDL
MODEL 3
REMARK VINA RESULT:    -6.451      4.707      6.903
REMARK INTER + INTRA:          -8.250
REMARK INTER:                  -7.957
REMARK INTRA:                  -0.293
REMARK UNBOUND:                -0.290
REMARK SMILES Oc1cc(O)c2cc(O)c(-c3cc(O)c(O)c(O)c3)[o+]c2c1
REMARK SMILES IDX 10 1 20 2 21 3 22 4 2 5 3 6 4 7 6 8 7 9 8 10 11 11 12 12
REMARK SMILES IDX 13 13 19 14 15 15 17 16 14 17 16 19 18 21 9 23 1 25 5 27
REMARK H PARENT 14 18 16 20 18 22 9 24 1 26 5 28
REMARK Flexibility Score: inf
ROOT
ATOM      1  C   UNL     1     -26.239  16.012 -20.976  1.00  0.00     0.402 A 
ATOM      2  O   UNL     1     -27.250  15.160 -21.125  1.00  0.00    -0.202 OA
ATOM      3  C   UNL     1     -28.386  15.474 -21.737  1.00  0.00     0.368 A 
ATOM      4  C   UNL     1     -29.392  14.510 -21.841  1.00  0.00     0.162 A 
ATOM      5  C   UNL     1     -30.598  14.816 -22.478  1.00  0.00     0.128 A 
ATOM      6  C   UNL     1     -30.799  16.091 -23.012  1.00  0.00     0.093 A 
ATOM      7  C   UNL     1     -29.807  17.075 -22.921  1.00  0.00     0.136 A 
ATOM      8  C   UNL     1     -28.579  16.769 -22.278  1.00  0.00     0.125 A 
ATOM      9  C   UNL     1     -27.525  17.686 -22.152  1.00  0.00     0.078 A 
ATOM     10  C   UNL     1     -26.341  17.311 -21.507  1.00  0.00     0.223 A 
ENDROOT
BRANCH   1  11
ATOM     11  C   UNL     1     -25.027  15.545 -20.265  1.00  0.00     0.091 A 
ATOM     12  C   UNL     1     -25.054  15.411 -18.868  1.00  0.00     0.068 A 
ATOM     13  C   UNL     1     -23.914  14.990 -18.171  1.00  0.00     0.162 A 
ATOM     14  C   UNL     1     -23.829  15.287 -20.953  1.00  0.00     0.068 A 
ATOM     15  C   UNL     1     -22.729  14.714 -18.865  1.00  0.00     0.200 A 
ATOM     16  C   UNL     1     -22.685  14.867 -20.260  1.00  0.00     0.162 A 
BRANCH  13  17
ATOM     17  O   UNL     1     -23.952  14.844 -16.784  1.00  0.00    -0.504 OA
ATOM     18  H   UNL     1     -23.905  13.933 -16.346  1.00  0.00     0.293 HD
ENDBRANCH  13  17
BRANCH  15  19
ATOM     19  O   UNL     1     -21.605  14.293 -18.153  1.00  0.00    -0.502 OA
ATOM     20  H   UNL     1     -21.630  13.496 -17.529  1.00  0.00     0.293 HD
ENDBRANCH  15  19
BRANCH  16  21
ATOM     21  O   UNL     1     -21.503  14.607 -20.954  1.00  0.00    -0.504 OA
ATOM     22  H   UNL     1     -21.190  15.204 -21.710  1.00  0.00     0.293 HD
ENDBRANCH  16  21
ENDBRANCH   1  11
BRANCH  10  23
ATOM     23  O   UNL     1     -25.274  18.206 -21.426  1.00  0.00    -0.500 OA
ATOM     24  H   UNL     1     -24.351  17.908 -21.134  1.00  0.00     0.294 HD
ENDBRANCH  10  23
BRANCH   5  25
ATOM     25  O   UNL     1     -31.606  13.860 -22.585  1.00  0.00    -0.507 OA
ATOM     26  H   UNL     1     -32.425  14.017 -23.160  1.00  0.00     0.293 HD
ENDBRANCH   5  25
BRANCH   7  27
ATOM     27  O   UNL     1     -30.087  18.326 -23.478  1.00  0.00    -0.507 OA
ATOM     28  H   UNL     1     -30.133  19.187 -22.953  1.00  0.00     0.293 HD
ENDBRANCH   7  27
TORSDOF 7
ENDMDL
MODEL 4
REMARK VINA RESULT:    -6.040      5.498      9.236
REMARK INTER + INTRA:          -7.743
REMARK INTER:                  -7.494
REMARK INTRA:                  -0.249
REMARK UNBOUND:                -0.290
REMARK SMILES Oc1cc(O)c2cc(O)c(-c3cc(O)c(O)c(O)c3)[o+]c2c1
REMARK SMILES IDX 10 1 20 2 21 3 22 4 2 5 3 6 4 7 6 8 7 9 8 10 11 11 12 12
REMARK SMILES IDX 13 13 19 14 15 15 17 16 14 17 16 19 18 21 9 23 1 25 5 27
REMARK H PARENT 14 18 16 20 18 22 9 24 1 26 5 28
REMARK Flexibility Score: inf
ROOT
ATOM      1  C   UNL     1     -26.375  14.232 -22.059  1.00  0.00     0.402 A 
ATOM      2  O   UNL     1     -26.077  13.482 -23.116  1.00  0.00    -0.202 OA
ATOM      3  C   UNL     1     -26.990  13.013 -23.960  1.00  0.00     0.368 A 
ATOM      4  C   UNL     1     -26.579  12.231 -25.042  1.00  0.00     0.162 A 
ATOM      5  C   UNL     1     -27.519  11.723 -25.942  1.00  0.00     0.128 A 
ATOM      6  C   UNL     1     -28.877  11.998 -25.760  1.00  0.00     0.093 A 
ATOM      7  C   UNL     1     -29.315  12.780 -24.683  1.00  0.00     0.136 A 
ATOM      8  C   UNL     1     -28.363  13.301 -23.768  1.00  0.00     0.125 A 
ATOM      9  C   UNL     1     -28.709  14.104 -22.670  1.00  0.00     0.078 A 
ATOM     10  C   UNL     1     -27.714  14.585 -21.811  1.00  0.00     0.223 A 
ENDROOT
BRANCH   1  11
ATOM     11  C   UNL     1     -25.267  14.686 -21.187  1.00  0.00     0.091 A 
ATOM     12  C   UNL     1     -24.253  15.495 -21.724  1.00  0.00     0.068 A 
ATOM     13  C   UNL     1     -23.184  15.921 -20.925  1.00  0.00     0.162 A 
ATOM     14  C   UNL     1     -25.177  14.277 -19.845  1.00  0.00     0.068 A 
ATOM     15  C   UNL     1     -23.111  15.527 -19.583  1.00  0.00     0.200 A 
ATOM     16  C   UNL     1     -24.107  14.699 -19.042  1.00  0.00     0.162 A 
BRANCH  13  17
ATOM     17  O   UNL     1     -22.188  16.737 -21.460  1.00  0.00    -0.504 OA
ATOM     18  H   UNL     1     -22.011  16.775 -22.456  1.00  0.00     0.293 HD
ENDBRANCH  13  17
BRANCH  15  19
ATOM     19  O   UNL     1     -22.040  15.963 -18.802  1.00  0.00    -0.502 OA
ATOM     20  H   UNL     1     -21.090  15.984 -19.154  1.00  0.00     0.293 HD
ENDBRANCH  15  19
BRANCH  16  21
ATOM     21  O   UNL     1     -24.031  14.292 -17.711  1.00  0.00    -0.504 OA
ATOM     22  H   UNL     1     -24.863  14.101 -17.165  1.00  0.00     0.293 HD
ENDBRANCH  16  21
ENDBRANCH   1  11
BRANCH  10  23
ATOM     23  O   UNL     1     -28.051  15.424 -20.749  1.00  0.00    -0.500 OA
ATOM     24  H   UNL     1     -27.552  15.394 -19.869  1.00  0.00     0.294 HD
ENDBRANCH  10  23
BRANCH   5  25
ATOM     25  O   UNL     1     -27.117  10.941 -27.023  1.00  0.00    -0.507 OA
ATOM     26  H   UNL     1     -27.721  10.228 -27.414  1.00  0.00     0.293 HD
ENDBRANCH   5  25
BRANCH   7  27
ATOM     27  O   UNL     1     -30.689  13.007 -24.570  1.00  0.00    -0.507 OA
ATOM     28  H   UNL     1     -31.401  12.371 -24.899  1.00  0.00     0.293 HD
ENDBRANCH   7  27
TORSDOF 7
ENDMDL
MODEL 5
REMARK VINA RESULT:    -6.001      5.515      9.087
REMARK INTER + INTRA:          -7.695
REMARK INTER:                  -7.493
REMARK INTRA:                  -0.202
REMARK UNBOUND:                -0.290
REMARK SMILES Oc1cc(O)c2cc(O)c(-c3cc(O)c(O)c(O)c3)[o+]c2c1
REMARK SMILES IDX 10 1 20 2 21 3 22 4 2 5 3 6 4 7 6 8 7 9 8 10 11 11 12 12
REMARK SMILES IDX 13 13 19 14 15 15 17 16 14 17 16 19 18 21 9 23 1 25 5 27
REMARK H PARENT 14 18 16 20 18 22 9 24 1 26 5 28
REMARK Flexibility Score: inf
ROOT
ATOM      1  C   UNL     1     -26.359  14.216 -22.084  1.00  0.00     0.402 A 
ATOM      2  O   UNL     1     -26.119  13.435 -23.135  1.00  0.00    -0.202 OA
ATOM      3  C   UNL     1     -27.072  12.992 -23.948  1.00  0.00     0.368 A 
ATOM      4  C   UNL     1     -26.721  12.174 -25.025  1.00  0.00     0.162 A 
ATOM      5  C   UNL     1     -27.704  11.692 -25.894  1.00  0.00     0.128 A 
ATOM      6  C   UNL     1     -29.043  12.029 -25.685  1.00  0.00     0.093 A 
ATOM      7  C   UNL     1     -29.421  12.848 -24.613  1.00  0.00     0.136 A 
ATOM      8  C   UNL     1     -28.426  13.342 -23.729  1.00  0.00     0.125 A 
ATOM      9  C   UNL     1     -28.710  14.178 -22.638  1.00  0.00     0.078 A 
ATOM     10  C   UNL     1     -27.676  14.630 -21.812  1.00  0.00     0.223 A 
ENDROOT
BRANCH   1  11
ATOM     11  C   UNL     1     -25.212  14.636 -21.247  1.00  0.00     0.091 A 
ATOM     12  C   UNL     1     -25.173  14.267 -19.893  1.00  0.00     0.068 A 
ATOM     13  C   UNL     1     -24.110  14.670 -19.076  1.00  0.00     0.162 A 
ATOM     14  C   UNL     1     -24.187  15.447 -21.765  1.00  0.00     0.068 A 
ATOM     15  C   UNL     1     -23.080  15.460 -19.603  1.00  0.00     0.200 A 
ATOM     16  C   UNL     1     -23.121  15.854 -20.950  1.00  0.00     0.162 A 
BRANCH  13  17
ATOM     17  O   UNL     1     -24.069  14.288 -17.735  1.00  0.00    -0.504 OA
ATOM     18  H   UNL     1     -24.685  14.703 -17.047  1.00  0.00     0.293 HD
ENDBRANCH  13  17
BRANCH  15  19
ATOM     19  O   UNL     1     -22.027  15.849 -18.774  1.00  0.00    -0.502 OA
ATOM     20  H   UNL     1     -22.182  16.224 -17.846  1.00  0.00     0.293 HD
ENDBRANCH  15  19
BRANCH  16  21
ATOM     21  O   UNL     1     -22.106  16.653 -21.476  1.00  0.00    -0.504 OA
ATOM     22  H   UNL     1     -21.832  16.592 -22.449  1.00  0.00     0.293 HD
ENDBRANCH  16  21
ENDBRANCH   1  11
BRANCH  10  23
ATOM     23  O   UNL     1     -27.951  15.501 -20.758  1.00  0.00    -0.500 OA
ATOM     24  H   UNL     1     -28.818  16.022 -20.711  1.00  0.00     0.294 HD
ENDBRANCH  10  23
BRANCH   5  25
ATOM     25  O   UNL     1     -27.362  10.875 -26.970  1.00  0.00    -0.507 OA
ATOM     26  H   UNL     1     -27.723   9.933 -27.054  1.00  0.00     0.293 HD
ENDBRANCH   5  25
BRANCH   7  27
ATOM     27  O   UNL     1     -30.781  13.136 -24.472  1.00  0.00    -0.507 OA
ATOM     28  H   UNL     1     -31.342  13.597 -25.173  1.00  0.00     0.293 HD
ENDBRANCH   7  27
TORSDOF 7
ENDMDL
MODEL 6
REMARK VINA RESULT:    -5.861      4.473      6.364
REMARK INTER + INTRA:          -7.522
REMARK INTER:                  -7.332
REMARK INTRA:                  -0.190
REMARK UNBOUND:                -0.290
REMARK SMILES Oc1cc(O)c2cc(O)c(-c3cc(O)c(O)c(O)c3)[o+]c2c1
REMARK SMILES IDX 10 1 20 2 21 3 22 4 2 5 3 6 4 7 6 8 7 9 8 10 11 11 12 12
REMARK SMILES IDX 13 13 19 14 15 15 17 16 14 17 16 19 18 21 9 23 1 25 5 27
REMARK H PARENT 14 18 16 20 18 22 9 24 1 26 5 28
REMARK Flexibility Score: inf
ROOT
ATOM      1  C   UNL     1     -22.604  16.967 -22.306  1.00  0.00     0.402 A 
ATOM      2  O   UNL     1     -21.589  16.536 -23.050  1.00  0.00    -0.202 OA
ATOM      3  C   UNL     1     -21.031  17.259 -24.014  1.00  0.00     0.368 A 
ATOM      4  C   UNL     1     -19.970  16.718 -24.744  1.00  0.00     0.162 A 
ATOM      5  C   UNL     1     -19.366  17.457 -25.765  1.00  0.00     0.128 A 
ATOM      6  C   UNL     1     -19.825  18.743 -26.058  1.00  0.00     0.093 A 
ATOM      7  C   UNL     1     -20.887  19.310 -25.340  1.00  0.00     0.136 A 
ATOM      8  C   UNL     1     -21.501  18.564 -24.300  1.00  0.00     0.125 A 
ATOM      9  C   UNL     1     -22.560  19.055 -23.521  1.00  0.00     0.078 A 
ATOM     10  C   UNL     1     -23.113  18.263 -22.510  1.00  0.00     0.223 A 
ENDROOT
BRANCH   1  11
ATOM     11  C   UNL     1     -23.147  16.062 -21.268  1.00  0.00     0.091 A 
ATOM     12  C   UNL     1     -24.492  15.665 -21.332  1.00  0.00     0.068 A 
ATOM     13  C   UNL     1     -25.034  14.826 -20.351  1.00  0.00     0.162 A 
ATOM     14  C   UNL     1     -22.359  15.634 -20.185  1.00  0.00     0.068 A 
ATOM     15  C   UNL     1     -24.238  14.385 -19.286  1.00  0.00     0.200 A 
ATOM     16  C   UNL     1     -22.898  14.794 -19.200  1.00  0.00     0.162 A 
BRANCH  13  17
ATOM     17  O   UNL     1     -26.367  14.423 -20.428  1.00  0.00    -0.504 OA
ATOM     18  H   UNL     1     -26.639  13.580 -20.919  1.00  0.00     0.293 HD
ENDBRANCH  13  17
BRANCH  15  19
ATOM     19  O   UNL     1     -24.795  13.547 -18.319  1.00  0.00    -0.502 OA
ATOM     20  H   UNL     1     -25.509  12.865 -18.545  1.00  0.00     0.293 HD
ENDBRANCH  15  19
BRANCH  16  21
ATOM     21  O   UNL     1     -22.105  14.371 -18.133  1.00  0.00    -0.504 OA
ATOM     22  H   UNL     1     -22.445  14.391 -17.179  1.00  0.00     0.293 HD
ENDBRANCH  16  21
ENDBRANCH   1  11
BRANCH  10  23
ATOM     23  O   UNL     1     -24.132  18.769 -21.702  1.00  0.00    -0.500 OA
ATOM     24  H   UNL     1     -24.299  19.764 -21.617  1.00  0.00     0.294 HD
ENDBRANCH  10  23
BRANCH   5  25
ATOM     25  O   UNL     1     -18.309  16.923 -26.499  1.00  0.00    -0.507 OA
ATOM     26  H   UNL     1     -17.431  17.418 -26.599  1.00  0.00     0.293 HD
ENDBRANCH   5  25
BRANCH   7  27
ATOM     27  O   UNL     1     -21.287  20.600 -25.696  1.00  0.00    -0.507 OA
ATOM     28  H   UNL     1     -21.108  21.426 -25.143  1.00  0.00     0.293 HD
ENDBRANCH   7  27
TORSDOF 7
ENDMDL
MODEL 7
REMARK VINA RESULT:    -5.826      4.474      6.400
REMARK INTER + INTRA:          -7.478
REMARK INTER:                  -7.220
REMARK INTRA:                  -0.258
REMARK UNBOUND:                -0.290
REMARK SMILES Oc1cc(O)c2cc(O)c(-c3cc(O)c(O)c(O)c3)[o+]c2c1
REMARK SMILES IDX 10 1 20 2 21 3 22 4 2 5 3 6 4 7 6 8 7 9 8 10 11 11 12 12
REMARK SMILES IDX 13 13 19 14 15 15 17 16 14 17 16 19 18 21 9 23 1 25 5 27
REMARK H PARENT 14 18 16 20 18 22 9 24 1 26 5 28
REMARK Flexibility Score: inf
ROOT
ATOM      1  C   UNL     1     -22.618  17.003 -22.327  1.00  0.00     0.402 A 
ATOM      2  O   UNL     1     -21.595  16.548 -23.047  1.00  0.00    -0.202 OA
ATOM      3  C   UNL     1     -20.998  17.258 -23.998  1.00  0.00     0.368 A 
ATOM      4  C   UNL     1     -19.932  16.692 -24.702  1.00  0.00     0.162 A 
ATOM      5  C   UNL     1     -19.289  17.416 -25.710  1.00  0.00     0.128 A 
ATOM      6  C   UNL     1     -19.714  18.711 -26.015  1.00  0.00     0.093 A 
ATOM      7  C   UNL     1     -20.780  19.301 -25.324  1.00  0.00     0.136 A 
ATOM      8  C   UNL     1     -21.434  18.571 -24.298  1.00  0.00     0.125 A 
ATOM      9  C   UNL     1     -22.501  19.087 -23.546  1.00  0.00     0.078 A 
ATOM     10  C   UNL     1     -23.095  18.309 -22.546  1.00  0.00     0.223 A 
ENDROOT
BRANCH   1  11
ATOM     11  C   UNL     1     -23.204  16.112 -21.301  1.00  0.00     0.091 A 
ATOM     12  C   UNL     1     -22.408  15.673 -20.231  1.00  0.00     0.068 A 
ATOM     13  C   UNL     1     -22.934  14.813 -19.259  1.00  0.00     0.162 A 
ATOM     14  C   UNL     1     -24.526  15.647 -21.405  1.00  0.00     0.068 A 
ATOM     15  C   UNL     1     -24.259  14.370 -19.356  1.00  0.00     0.200 A 
ATOM     16  C   UNL     1     -25.057  14.784 -20.435  1.00  0.00     0.162 A 
BRANCH  13  17
ATOM     17  O   UNL     1     -22.143  14.393 -18.189  1.00  0.00    -0.504 OA
ATOM     18  H   UNL     1     -21.734  15.054 -17.541  1.00  0.00     0.293 HD
ENDBRANCH  13  17
BRANCH  15  19
ATOM     19  O   UNL     1     -24.766  13.516 -18.376  1.00  0.00    -0.502 OA
ATOM     20  H   UNL     1     -25.586  12.942 -18.533  1.00  0.00     0.293 HD
ENDBRANCH  15  19
BRANCH  16  21
ATOM     21  O   UNL     1     -26.372  14.334 -20.544  1.00  0.00    -0.504 OA
ATOM     22  H   UNL     1     -26.987  14.664 -21.278  1.00  0.00     0.293 HD
ENDBRANCH  16  21
ENDBRANCH   1  11
BRANCH  10  23
ATOM     23  O   UNL     1     -24.121  18.838 -21.764  1.00  0.00    -0.500 OA
ATOM     24  H   UNL     1     -25.068  18.924 -22.115  1.00  0.00     0.294 HD
ENDBRANCH  10  23
BRANCH   5  25
ATOM     25  O   UNL     1     -18.226  16.858 -26.416  1.00  0.00    -0.507 OA
ATOM     26  H   UNL     1     -17.656  17.414 -27.042  1.00  0.00     0.293 HD
ENDBRANCH   5  25
BRANCH   7  27
ATOM     27  O   UNL     1     -21.144  20.599 -25.692  1.00  0.00    -0.507 OA
ATOM     28  H   UNL     1     -20.499  21.371 -25.776  1.00  0.00     0.293 HD
ENDBRANCH   7  27
TORSDOF 7
ENDMDL
MODEL 8
REMARK VINA RESULT:    -5.800      5.780      7.509
REMARK INTER + INTRA:          -7.447
REMARK INTER:                  -7.257
REMARK INTRA:                  -0.190
REMARK UNBOUND:                -0.290
REMARK SMILES Oc1cc(O)c2cc(O)c(-c3cc(O)c(O)c(O)c3)[o+]c2c1
REMARK SMILES IDX 10 1 20 2 21 3 22 4 2 5 3 6 4 7 6 8 7 9 8 10 11 11 12 12
REMARK SMILES IDX 13 13 19 14 15 15 17 16 14 17 16 19 18 21 9 23 1 25 5 27
REMARK H PARENT 14 18 16 20 18 22 9 24 1 26 5 28
REMARK Flexibility Score: inf
ROOT
ATOM      1  C   UNL     1     -26.487  15.255 -21.802  1.00  0.00     0.402 A 
ATOM      2  O   UNL     1     -25.817  14.862 -20.721  1.00  0.00    -0.202 OA
ATOM      3  C   UNL     1     -24.501  14.982 -20.594  1.00  0.00     0.368 A 
ATOM      4  C   UNL     1     -23.887  14.537 -19.420  1.00  0.00     0.162 A 
ATOM      5  C   UNL     1     -22.503  14.649 -19.261  1.00  0.00     0.128 A 
ATOM      6  C   UNL     1     -21.729  15.208 -20.281  1.00  0.00     0.093 A 
ATOM      7  C   UNL     1     -22.320  15.663 -21.467  1.00  0.00     0.136 A 
ATOM      8  C   UNL     1     -23.725  15.554 -21.631  1.00  0.00     0.125 A 
ATOM      9  C   UNL     1     -24.404  15.994 -22.778  1.00  0.00     0.078 A 
ATOM     10  C   UNL     1     -25.793  15.857 -22.868  1.00  0.00     0.223 A 
ENDROOT
BRANCH   1  11
ATOM     11  C   UNL     1     -27.954  15.058 -21.828  1.00  0.00     0.091 A 
ATOM     12  C   UNL     1     -28.526  14.254 -22.826  1.00  0.00     0.068 A 
ATOM     13  C   UNL     1     -29.913  14.069 -22.885  1.00  0.00     0.162 A 
ATOM     14  C   UNL     1     -28.796  15.706 -20.907  1.00  0.00     0.068 A 
ATOM     15  C   UNL     1     -30.745  14.700 -21.951  1.00  0.00     0.200 A 
ATOM     16  C   UNL     1     -30.185  15.525 -20.962  1.00  0.00     0.162 A 
BRANCH  13  17
ATOM     17  O   UNL     1     -30.473  13.256 -23.870  1.00  0.00    -0.504 OA
ATOM     18  H   UNL     1     -31.445  12.974 -23.834  1.00  0.00     0.293 HD
ENDBRANCH  13  17
BRANCH  15  19
ATOM     19  O   UNL     1     -32.124  14.501 -22.023  1.00  0.00    -0.502 OA
ATOM     20  H   UNL     1     -32.580  14.198 -22.874  1.00  0.00     0.293 HD
ENDBRANCH  15  19
BRANCH  16  21
ATOM     21  O   UNL     1     -31.010  16.168 -20.040  1.00  0.00    -0.504 OA
ATOM     22  H   UNL     1     -30.818  17.110 -19.721  1.00  0.00     0.293 HD
ENDBRANCH  16  21
ENDBRANCH   1  11
BRANCH  10  23
ATOM     23  O   UNL     1     -26.474  16.340 -23.985  1.00  0.00    -0.500 OA
ATOM     24  H   UNL     1     -27.483  16.289 -24.057  1.00  0.00     0.294 HD
ENDBRANCH  10  23
BRANCH   5  25
ATOM     25  O   UNL     1     -21.884  14.205 -18.094  1.00  0.00    -0.507 OA
ATOM     26  H   UNL     1     -20.946  14.499 -17.849  1.00  0.00     0.293 HD
ENDBRANCH   5  25
BRANCH   7  27
ATOM     27  O   UNL     1     -21.476  16.208 -22.438  1.00  0.00    -0.507 OA
ATOM     28  H   UNL     1     -20.790  15.681 -22.958  1.00  0.00     0.293 HD
ENDBRANCH   7  27
TORSDOF 7
ENDMDL
MODEL 9
REMARK VINA RESULT:    -5.684      5.652      7.603
REMARK INTER + INTRA:          -7.303
REMARK INTER:                  -7.045
REMARK INTRA:                  -0.258
REMARK UNBOUND:                -0.290
REMARK SMILES Oc1cc(O)c2cc(O)c(-c3cc(O)c(O)c(O)c3)[o+]c2c1
REMARK SMILES IDX 10 1 20 2 21 3 22 4 2 5 3 6 4 7 6 8 7 9 8 10 11 11 12 12
REMARK SMILES IDX 13 13 19 14 15 15 17 16 14 17 16 19 18 21 9 23 1 25 5 27
REMARK H PARENT 14 18 16 20 18 22 9 24 1 26 5 28
REMARK Flexibility Score: inf
ROOT
ATOM      1  C   UNL     1     -26.302  15.239 -22.754  1.00  0.00     0.402 A 
ATOM      2  O   UNL     1     -27.286  16.094 -22.487  1.00  0.00    -0.202 OA
ATOM      3  C   UNL     1     -28.338  16.268 -23.279  1.00  0.00     0.368 A 
ATOM      4  C   UNL     1     -29.319  17.193 -22.914  1.00  0.00     0.162 A 
ATOM      5  C   UNL     1     -30.435  17.398 -23.732  1.00  0.00     0.128 A 
ATOM      6  C   UNL     1     -30.568  16.675 -24.919  1.00  0.00     0.093 A 
ATOM      7  C   UNL     1     -29.599  15.742 -25.308  1.00  0.00     0.136 A 
ATOM      8  C   UNL     1     -28.466  15.528 -24.480  1.00  0.00     0.125 A 
ATOM      9  C   UNL     1     -27.453  14.605 -24.782  1.00  0.00     0.078 A 
ATOM     10  C   UNL     1     -26.367  14.446 -23.915  1.00  0.00     0.223 A 
ENDROOT
BRANCH   1  11
ATOM     11  C   UNL     1     -25.178  15.142 -21.796  1.00  0.00     0.091 A 
ATOM     12  C   UNL     1     -25.427  14.726 -20.479  1.00  0.00     0.068 A 
ATOM     13  C   UNL     1     -24.384  14.647 -19.547  1.00  0.00     0.162 A 
ATOM     14  C   UNL     1     -23.872  15.514 -22.160  1.00  0.00     0.068 A 
ATOM     15  C   UNL     1     -23.080  14.998 -19.923  1.00  0.00     0.200 A 
ATOM     16  C   UNL     1     -22.824  15.438 -21.231  1.00  0.00     0.162 A 
BRANCH  13  17
ATOM     17  O   UNL     1     -24.634  14.218 -18.244  1.00  0.00    -0.504 OA
ATOM     18  H   UNL     1     -24.306  13.320 -17.910  1.00  0.00     0.293 HD
ENDBRANCH  13  17
BRANCH  15  19
ATOM     19  O   UNL     1     -22.053  14.910 -18.982  1.00  0.00    -0.502 OA
ATOM     20  H   UNL     1     -21.537  15.723 -18.671  1.00  0.00     0.293 HD
ENDBRANCH  15  19
BRANCH  16  21
ATOM     21  O   UNL     1     -21.532  15.803 -21.605  1.00  0.00    -0.504 OA
ATOM     22  H   UNL     1     -21.122  16.682 -21.311  1.00  0.00     0.293 HD
ENDBRANCH  16  21
ENDBRANCH   1  11
BRANCH  10  23
ATOM     23  O   UNL     1     -25.385  13.494 -24.189  1.00  0.00    -0.500 OA
ATOM     24  H   UNL     1     -24.720  13.197 -23.485  1.00  0.00     0.294 HD
ENDBRANCH  10  23
BRANCH   5  25
ATOM     25  O   UNL     1     -31.417  18.319 -23.374  1.00  0.00    -0.507 OA
ATOM     26  H   UNL     1     -31.221  19.081 -22.737  1.00  0.00     0.293 HD
ENDBRANCH   5  25
BRANCH   7  27
ATOM     27  O   UNL     1     -29.806  15.062 -26.512  1.00  0.00    -0.507 OA
ATOM     28  H   UNL     1     -30.607  14.479 -26.707  1.00  0.00     0.293 HD
ENDBRANCH   7  27
TORSDOF 7
ENDMDL
