MODEL 1
REMARK VINA RESULT:    -5.153      0.000      0.000
REMARK INTER + INTRA:          -6.215
REMARK INTER:                  -6.057
REMARK INTRA:                  -0.158
REMARK UNBOUND:                -0.158
REMARK SMILES COc1ccc(C=CC(=O)[O-])cc1
REMARK SMILES IDX 6 1 5 2 12 3 4 4 13 5 3 6 7 7 8 8 9 9 10 10 11 11 2 12 1 13
REMARK H PARENT
REMARK Flexibility Score: inf
ROOT
ATOM      1  C   UNL     1     -33.382  -3.498 -18.731  1.00  0.00    -0.025 A 
ATOM      2  C   UNL     1     -33.404  -3.242 -20.116  1.00  0.00     0.012 A 
ATOM      3  C   UNL     1     -32.184  -3.299 -18.026  1.00  0.00     0.012 A 
ATOM      4  C   UNL     1     -32.247  -2.822 -20.779  1.00  0.00     0.047 A 
ATOM      5  C   UNL     1     -31.029  -2.880 -18.691  1.00  0.00     0.047 A 
ATOM      6  C   UNL     1     -31.047  -2.640 -20.068  1.00  0.00     0.118 A 
ENDROOT
BRANCH   1   7
ATOM      7  C   UNL     1     -34.585  -3.934 -17.978  1.00  0.00     0.010 C 
ATOM      8  C   UNL     1     -35.285  -5.039 -18.269  1.00  0.00     0.025 C 
BRANCH   8   9
ATOM      9  C   UNL     1     -36.465  -5.440 -17.487  1.00  0.00     0.064 C 
ATOM     10  O   UNL     1     -37.488  -4.708 -17.487  1.00  0.00    -0.545 OA
ATOM     11  O   UNL     1     -36.468  -6.615 -16.743  1.00  0.00    -0.545 OA
ENDBRANCH   8   9
ENDBRANCH   1   7
BRANCH   6  12
ATOM     12  O   UNL     1     -29.860  -2.223 -20.689  1.00  0.00    -0.497 OA
ATOM     13  C   UNL     1     -29.796  -1.616 -21.975  1.00  0.00     0.278 C 
ENDBRANCH   6  12
TORSDOF 3
ENDMDL
MODEL 2
REMARK VINA RESULT:    -5.106      3.519      8.076
REMARK INTER + INTRA:          -6.159
REMARK INTER:                  -6.000
REMARK INTRA:                  -0.159
REMARK UNBOUND:                -0.158
REMARK SMILES COc1ccc(C=CC(=O)[O-])cc1
REMARK SMILES IDX 6 1 5 2 12 3 4 4 13 5 3 6 7 7 8 8 9 9 10 10 11 11 2 12 1 13
REMARK H PARENT
REMARK Flexibility Score: inf
ROOT
ATOM      1  C   UNL     1     -36.534  -6.142 -15.817  1.00  0.00    -0.025 A 
ATOM      2  C   UNL     1     -36.267  -7.503 -16.068  1.00  0.00     0.012 A 
ATOM      3  C   UNL     1     -37.530  -5.810 -14.885  1.00  0.00     0.012 A 
ATOM      4  C   UNL     1     -36.999  -8.501 -15.418  1.00  0.00     0.047 A 
ATOM      5  C   UNL     1     -38.260  -6.809 -14.237  1.00  0.00     0.047 A 
ATOM      6  C   UNL     1     -38.006  -8.160 -14.497  1.00  0.00     0.118 A 
ENDROOT
BRANCH   1   7
ATOM      7  C   UNL     1     -35.778  -5.045 -16.471  1.00  0.00     0.010 C 
ATOM      8  C   UNL     1     -35.566  -4.971 -17.792  1.00  0.00     0.025 C 
BRANCH   8   9
ATOM      9  C   UNL     1     -34.821  -3.857 -18.399  1.00  0.00     0.064 C 
ATOM     10  O   UNL     1     -33.712  -3.514 -17.913  1.00  0.00    -0.545 OA
ATOM     11  O   UNL     1     -35.324  -3.172 -19.499  1.00  0.00    -0.545 OA
ENDBRANCH   8   9
ENDBRANCH   1   7
BRANCH   6  12
ATOM     12  O   UNL     1     -38.769  -9.125 -13.823  1.00  0.00    -0.497 OA
ATOM     13  C   UNL     1     -40.191  -9.125 -13.760  1.00  0.00     0.278 C 
ENDBRANCH   6  12
TORSDOF 3
ENDMDL
MODEL 3
REMARK VINA RESULT:    -4.926      1.956      3.068
REMARK INTER + INTRA:          -5.948
REMARK INTER:                  -5.788
REMARK INTRA:                  -0.160
REMARK UNBOUND:                -0.158
REMARK SMILES COc1ccc(C=CC(=O)[O-])cc1
REMARK SMILES IDX 6 1 5 2 12 3 4 4 13 5 3 6 7 7 8 8 9 9 10 10 11 11 2 12 1 13
REMARK H PARENT
REMARK Flexibility Score: inf
ROOT
ATOM      1  C   UNL     1     -35.661  -5.126 -17.950  1.00  0.00    -0.025 A 
ATOM      2  C   UNL     1     -35.586  -5.368 -19.337  1.00  0.00     0.012 A 
ATOM      3  C   UNL     1     -34.799  -4.173 -17.383  1.00  0.00     0.012 A 
ATOM      4  C   UNL     1     -34.654  -4.688 -20.126  1.00  0.00     0.047 A 
ATOM      5  C   UNL     1     -33.868  -3.496 -18.174  1.00  0.00     0.047 A 
ATOM      6  C   UNL     1     -33.783  -3.746 -19.547  1.00  0.00     0.118 A 
ENDROOT
BRANCH   1   7
ATOM      7  C   UNL     1     -36.640  -5.811 -17.070  1.00  0.00     0.010 C 
ATOM      8  C   UNL     1     -36.370  -6.933 -16.388  1.00  0.00     0.025 C 
BRANCH   8   9
ATOM      9  C   UNL     1     -37.369  -7.572 -15.517  1.00  0.00     0.064 C 
ATOM     10  O   UNL     1     -38.245  -8.321 -16.021  1.00  0.00    -0.545 OA
ATOM     11  O   UNL     1     -37.363  -7.359 -14.143  1.00  0.00    -0.545 OA
ENDBRANCH   8   9
ENDBRANCH   1   7
BRANCH   6  12
ATOM     12  O   UNL     1     -32.830  -3.042 -20.297  1.00  0.00    -0.497 OA
ATOM     13  C   UNL     1     -31.601  -2.547 -19.774  1.00  0.00     0.278 C 
ENDBRANCH   6  12
TORSDOF 3
ENDMDL
MODEL 4
REMARK VINA RESULT:    -4.839      3.110      5.086
REMARK INTER + INTRA:          -5.846
REMARK INTER:                  -5.686
REMARK INTRA:                  -0.159
REMARK UNBOUND:                -0.158
REMARK SMILES COc1ccc(C=CC(=O)[O-])cc1
REMARK SMILES IDX 6 1 5 2 12 3 4 4 13 5 3 6 7 7 8 8 9 9 10 10 11 11 2 12 1 13
REMARK H PARENT
REMARK Flexibility Score: inf
ROOT
ATOM      1  C   UNL     1     -36.468  -5.853 -15.733  1.00  0.00    -0.025 A 
ATOM      2  C   UNL     1     -36.329  -6.215 -17.088  1.00  0.00     0.012 A 
ATOM      3  C   UNL     1     -35.926  -4.631 -15.301  1.00  0.00     0.012 A 
ATOM      4  C   UNL     1     -35.642  -5.383 -17.978  1.00  0.00     0.047 A 
ATOM      5  C   UNL     1     -35.239  -3.803 -16.192  1.00  0.00     0.047 A 
ATOM      6  C   UNL     1     -35.088  -4.169 -17.533  1.00  0.00     0.118 A 
ENDROOT
BRANCH   1   7
ATOM      7  C   UNL     1     -37.197  -6.693 -14.751  1.00  0.00     0.010 C 
ATOM      8  C   UNL     1     -38.524  -6.886 -14.776  1.00  0.00     0.025 C 
BRANCH   8   9
ATOM      9  C   UNL     1     -39.204  -7.737 -13.789  1.00  0.00     0.064 C 
ATOM     10  O   UNL     1     -40.018  -7.222 -12.979  1.00  0.00    -0.545 OA
ATOM     11  O   UNL     1     -38.960  -9.105 -13.731  1.00  0.00    -0.545 OA
ENDBRANCH   8   9
ENDBRANCH   1   7
BRANCH   6  12
ATOM     12  O   UNL     1     -34.388  -3.303 -18.387  1.00  0.00    -0.497 OA
ATOM     13  C   UNL     1     -34.165  -3.547 -19.772  1.00  0.00     0.278 C 
ENDBRANCH   6  12
TORSDOF 3
ENDMDL
MODEL 5
REMARK VINA RESULT:    -4.831      1.824      6.556
REMARK INTER + INTRA:          -5.836
REMARK INTER:                  -5.672
REMARK INTRA:                  -0.164
REMARK UNBOUND:                -0.158
REMARK SMILES COc1ccc(C=CC(=O)[O-])cc1
REMARK SMILES IDX 6 1 5 2 12 3 4 4 13 5 3 6 7 7 8 8 9 9 10 10 11 11 2 12 1 13
REMARK H PARENT
REMARK Flexibility Score: inf
ROOT
ATOM      1  C   UNL     1     -34.927  -4.246 -17.742  1.00  0.00    -0.025 A 
ATOM      2  C   UNL     1     -35.642  -5.429 -18.016  1.00  0.00     0.012 A 
ATOM      3  C   UNL     1     -34.938  -3.737 -16.433  1.00  0.00     0.012 A 
ATOM      4  C   UNL     1     -36.368  -6.068 -17.006  1.00  0.00     0.047 A 
ATOM      5  C   UNL     1     -35.665  -4.377 -15.427  1.00  0.00     0.047 A 
ATOM      6  C   UNL     1     -36.387  -5.543 -15.701  1.00  0.00     0.118 A 
ENDROOT
BRANCH   1   7
ATOM      7  C   UNL     1     -34.131  -3.535 -18.774  1.00  0.00     0.010 C 
ATOM      8  C   UNL     1     -32.791  -3.509 -18.793  1.00  0.00     0.025 C 
BRANCH   8   9
ATOM      9  C   UNL     1     -32.043  -2.801 -19.843  1.00  0.00     0.064 C 
ATOM     10  O   UNL     1     -30.877  -2.391 -19.606  1.00  0.00    -0.545 OA
ATOM     11  O   UNL     1     -32.603  -2.574 -21.095  1.00  0.00    -0.545 OA
ENDBRANCH   8   9
ENDBRANCH   1   7
BRANCH   6  12
ATOM     12  O   UNL     1     -37.102  -6.147 -14.657  1.00  0.00    -0.497 OA
ATOM     13  C   UNL     1     -37.550  -7.499 -14.665  1.00  0.00     0.278 C 
ENDBRANCH   6  12
TORSDOF 3
ENDMDL
MODEL 6
REMARK VINA RESULT:    -4.723      4.155      6.467
REMARK INTER + INTRA:          -5.709
REMARK INTER:                  -5.537
REMARK INTRA:                  -0.173
REMARK UNBOUND:                -0.158
REMARK SMILES COc1ccc(C=CC(=O)[O-])cc1
REMARK SMILES IDX 6 1 5 2 12 3 4 4 13 5 3 6 7 7 8 8 9 9 10 10 11 11 2 12 1 13
REMARK H PARENT
REMARK Flexibility Score: inf
ROOT
ATOM      1  C   UNL     1     -36.273  -5.110 -20.653  1.00  0.00    -0.025 A 
ATOM      2  C   UNL     1     -36.213  -6.133 -21.620  1.00  0.00     0.012 A 
ATOM      3  C   UNL     1     -37.385  -4.252 -20.646  1.00  0.00     0.012 A 
ATOM      4  C   UNL     1     -37.230  -6.273 -22.570  1.00  0.00     0.047 A 
ATOM      5  C   UNL     1     -38.399  -4.393 -21.596  1.00  0.00     0.047 A 
ATOM      6  C   UNL     1     -38.332  -5.398 -22.565  1.00  0.00     0.118 A 
ENDROOT
BRANCH   1   7
ATOM      7  C   UNL     1     -35.227  -4.927 -19.616  1.00  0.00     0.010 C 
ATOM      8  C   UNL     1     -34.879  -3.734 -19.114  1.00  0.00     0.025 C 
BRANCH   8   9
ATOM      9  C   UNL     1     -33.844  -3.599 -18.077  1.00  0.00     0.064 C 
ATOM     10  O   UNL     1     -34.138  -3.817 -16.874  1.00  0.00    -0.545 OA
ATOM     11  O   UNL     1     -32.543  -3.232 -18.405  1.00  0.00    -0.545 OA
ENDBRANCH   8   9
ENDBRANCH   1   7
BRANCH   6  12
ATOM     12  O   UNL     1     -39.375  -5.497 -23.499  1.00  0.00    -0.497 OA
ATOM     13  C   UNL     1     -40.754  -5.339 -23.183  1.00  0.00     0.278 C 
ENDBRANCH   6  12
TORSDOF 3
ENDMDL
MODEL 7
REMARK VINA RESULT:    -4.649      7.679      9.874
REMARK INTER + INTRA:          -5.623
REMARK INTER:                  -5.455
REMARK INTRA:                  -0.167
REMARK UNBOUND:                -0.158
REMARK SMILES COc1ccc(C=CC(=O)[O-])cc1
REMARK SMILES IDX 6 1 5 2 12 3 4 4 13 5 3 6 7 7 8 8 9 9 10 10 11 11 2 12 1 13
REMARK H PARENT
REMARK Flexibility Score: inf
ROOT
ATOM      1  C   UNL     1     -39.404  -5.586 -12.624  1.00  0.00    -0.025 A 
ATOM      2  C   UNL     1     -38.192  -5.381 -13.313  1.00  0.00     0.012 A 
ATOM      3  C   UNL     1     -40.133  -6.760 -12.875  1.00  0.00     0.012 A 
ATOM      4  C   UNL     1     -37.738  -6.319 -14.245  1.00  0.00     0.047 A 
ATOM      5  C   UNL     1     -39.679  -7.694 -13.808  1.00  0.00     0.047 A 
ATOM      6  C   UNL     1     -38.483  -7.485 -14.502  1.00  0.00     0.118 A 
ENDROOT
BRANCH   1   7
ATOM      7  C   UNL     1     -39.924  -4.628 -11.617  1.00  0.00     0.010 C 
ATOM      8  C   UNL     1     -40.334  -4.986 -10.392  1.00  0.00     0.025 C 
BRANCH   8   9
ATOM      9  C   UNL     1     -40.831  -4.001  -9.420  1.00  0.00     0.064 C 
ATOM     10  O   UNL     1     -40.096  -3.648  -8.461  1.00  0.00    -0.545 OA
ATOM     11  O   UNL     1     -42.103  -3.453  -9.540  1.00  0.00    -0.545 OA
ENDBRANCH   8   9
ENDBRANCH   1   7
BRANCH   6  12
ATOM     12  O   UNL     1     -38.071  -8.453 -15.430  1.00  0.00    -0.497 OA
ATOM     13  C   UNL     1     -36.712  -8.732 -15.750  1.00  0.00     0.278 C 
ENDBRANCH   6  12
TORSDOF 3
ENDMDL
MODEL 8
REMARK VINA RESULT:    -4.633      8.043      9.985
REMARK INTER + INTRA:          -5.603
REMARK INTER:                  -5.442
REMARK INTRA:                  -0.161
REMARK UNBOUND:                -0.158
REMARK SMILES COc1ccc(C=CC(=O)[O-])cc1
REMARK SMILES IDX 6 1 5 2 12 3 4 4 13 5 3 6 7 7 8 8 9 9 10 10 11 11 2 12 1 13
REMARK H PARENT
REMARK Flexibility Score: inf
ROOT
ATOM      1  C   UNL     1     -38.568  -4.528 -12.470  1.00  0.00    -0.025 A 
ATOM      2  C   UNL     1     -39.744  -5.252 -12.192  1.00  0.00     0.012 A 
ATOM      3  C   UNL     1     -37.658  -5.050 -13.405  1.00  0.00     0.012 A 
ATOM      4  C   UNL     1     -39.987  -6.479 -12.818  1.00  0.00     0.047 A 
ATOM      5  C   UNL     1     -37.903  -6.276 -14.028  1.00  0.00     0.047 A 
ATOM      6  C   UNL     1     -39.063  -7.001 -13.741  1.00  0.00     0.118 A 
ENDROOT
BRANCH   1   7
ATOM      7  C   UNL     1     -38.268  -3.217 -11.843  1.00  0.00     0.010 C 
ATOM      8  C   UNL     1     -37.537  -3.075 -10.728  1.00  0.00     0.025 C 
BRANCH   8   9
ATOM      9  C   UNL     1     -37.255  -1.753 -10.148  1.00  0.00     0.064 C 
ATOM     10  O   UNL     1     -37.154  -0.751 -10.902  1.00  0.00    -0.545 OA
ATOM     11  O   UNL     1     -37.094  -1.591  -8.776  1.00  0.00    -0.545 OA
ENDBRANCH   8   9
ENDBRANCH   1   7
BRANCH   6  12
ATOM     12  O   UNL     1     -39.261  -8.229 -14.392  1.00  0.00    -0.497 OA
ATOM     13  C   UNL     1     -40.331  -9.125 -14.110  1.00  0.00     0.278 C 
ENDBRANCH   6  12
TORSDOF 3
ENDMDL
