MODEL 1
REMARK VINA RESULT:    -5.603      0.000      0.000
REMARK INTER + INTRA:          -5.953
REMARK INTER:                  -5.931
REMARK INTRA:                  -0.022
REMARK UNBOUND:                -0.022
REMARK SMILES O=C([O-])c1cccnc1
REMARK SMILES IDX 4 1 5 2 9 3 6 4 8 5 7 6 2 7 1 8 3 9
REMARK H PARENT
REMARK Flexibility Score: inf
ROOT
ATOM      1  C   UNL     1     -20.253  -2.680  -5.206  1.00  0.00     0.016 A 
ATOM      2  C   UNL     1     -19.900  -1.363  -4.868  1.00  0.00     0.013 A 
ATOM      3  C   UNL     1     -19.389  -3.410  -6.040  1.00  0.00     0.120 A 
ATOM      4  C   UNL     1     -18.715  -0.807  -5.356  1.00  0.00     0.021 A 
ATOM      5  N   UNL     1     -18.242  -2.845  -6.503  1.00  0.00    -0.264 NA
ATOM      6  C   UNL     1     -17.891  -1.572  -6.181  1.00  0.00     0.111 A 
ENDROOT
BRANCH   1   7
ATOM      7  C   UNL     1     -21.502  -3.287  -4.698  1.00  0.00     0.073 C 
ATOM      8  O   UNL     1     -21.618  -4.539  -4.615  1.00  0.00    -0.545 OA
ATOM      9  O   UNL     1     -22.565  -2.484  -4.303  1.00  0.00    -0.545 OA
ENDBRANCH   1   7
TORSDOF 1
ENDMDL
MODEL 2
REMARK VINA RESULT:    -5.556      1.653      2.053
REMARK INTER + INTRA:          -5.903
REMARK INTER:                  -5.887
REMARK INTRA:                  -0.016
REMARK UNBOUND:                -0.022
REMARK SMILES O=C([O-])c1cccnc1
REMARK SMILES IDX 4 1 5 2 9 3 6 4 8 5 7 6 2 7 1 8 3 9
REMARK H PARENT
REMARK Flexibility Score: inf
ROOT
ATOM      1  C   UNL     1     -20.106  -3.326  -5.399  1.00  0.00     0.016 A 
ATOM      2  C   UNL     1     -18.897  -3.242  -6.109  1.00  0.00     0.013 A 
ATOM      3  C   UNL     1     -20.571  -2.178  -4.734  1.00  0.00     0.120 A 
ATOM      4  C   UNL     1     -18.187  -2.040  -6.145  1.00  0.00     0.021 A 
ATOM      5  N   UNL     1     -19.860  -1.020  -4.784  1.00  0.00    -0.264 NA
ATOM      6  C   UNL     1     -18.689  -0.928  -5.469  1.00  0.00     0.111 A 
ENDROOT
BRANCH   1   7
ATOM      7  C   UNL     1     -20.874  -4.588  -5.350  1.00  0.00     0.073 C 
ATOM      8  O   UNL     1     -20.567  -5.493  -4.528  1.00  0.00    -0.545 OA
ATOM      9  O   UNL     1     -21.947  -4.794  -6.209  1.00  0.00    -0.545 OA
ENDBRANCH   1   7
TORSDOF 1
ENDMDL
MODEL 3
REMARK VINA RESULT:    -5.488     11.132     11.400
REMARK INTER + INTRA:          -5.831
REMARK INTER:                  -5.808
REMARK INTRA:                  -0.023
REMARK UNBOUND:                -0.022
REMARK SMILES O=C([O-])c1cccnc1
REMARK SMILES IDX 4 1 5 2 9 3 6 4 8 5 7 6 2 7 1 8 3 9
REMARK H PARENT
REMARK Flexibility Score: inf
ROOT
ATOM      1  C   UNL     1     -24.781  -8.261 -13.548  1.00  0.00     0.016 A 
ATOM      2  C   UNL     1     -23.598  -8.080 -14.284  1.00  0.00     0.013 A 
ATOM      3  C   UNL     1     -25.876  -7.426 -13.828  1.00  0.00     0.120 A 
ATOM      4  C   UNL     1     -23.528  -7.090 -15.267  1.00  0.00     0.021 A 
ATOM      5  N   UNL     1     -25.782  -6.469 -14.790  1.00  0.00    -0.264 NA
ATOM      6  C   UNL     1     -24.643  -6.286 -15.508  1.00  0.00     0.111 A 
ENDROOT
BRANCH   1   7
ATOM      7  C   UNL     1     -24.875  -9.303 -12.504  1.00  0.00     0.073 C 
ATOM      8  O   UNL     1     -25.801  -9.273 -11.650  1.00  0.00    -0.545 OA
ATOM      9  O   UNL     1     -23.943 -10.333 -12.450  1.00  0.00    -0.545 OA
ENDBRANCH   1   7
TORSDOF 1
ENDMDL
MODEL 4
REMARK VINA RESULT:    -5.479     10.992     11.321
REMARK INTER + INTRA:          -5.822
REMARK INTER:                  -5.799
REMARK INTRA:                  -0.023
REMARK UNBOUND:                -0.022
REMARK SMILES O=C([O-])c1cccnc1
REMARK SMILES IDX 4 1 5 2 9 3 6 4 8 5 7 6 2 7 1 8 3 9
REMARK H PARENT
REMARK Flexibility Score: inf
ROOT
ATOM      1  C   UNL     1     -24.747  -8.260 -13.558  1.00  0.00     0.016 A 
ATOM      2  C   UNL     1     -25.832  -7.460 -13.953  1.00  0.00     0.013 A 
ATOM      3  C   UNL     1     -23.505  -8.055 -14.182  1.00  0.00     0.120 A 
ATOM      4  C   UNL     1     -25.664  -6.489 -14.943  1.00  0.00     0.021 A 
ATOM      5  N   UNL     1     -23.368  -7.103 -15.143  1.00  0.00    -0.264 NA
ATOM      6  C   UNL     1     -24.411  -6.324 -15.533  1.00  0.00     0.111 A 
ENDROOT
BRANCH   1   7
ATOM      7  C   UNL     1     -24.904  -9.292 -12.511  1.00  0.00     0.073 C 
ATOM      8  O   UNL     1     -25.853  -9.227 -11.684  1.00  0.00    -0.545 OA
ATOM      9  O   UNL     1     -24.008 -10.351 -12.426  1.00  0.00    -0.545 OA
ENDBRANCH   1   7
TORSDOF 1
ENDMDL
MODEL 5
REMARK VINA RESULT:    -5.408     11.427     11.667
REMARK INTER + INTRA:          -5.747
REMARK INTER:                  -5.723
REMARK INTRA:                  -0.024
REMARK UNBOUND:                -0.022
REMARK SMILES O=C([O-])c1cccnc1
REMARK SMILES IDX 4 1 5 2 9 3 6 4 8 5 7 6 2 7 1 8 3 9
REMARK H PARENT
REMARK Flexibility Score: inf
ROOT
ATOM      1  C   UNL     1     -24.663  -7.784 -14.102  1.00  0.00     0.016 A 
ATOM      2  C   UNL     1     -25.876  -7.780 -13.393  1.00  0.00     0.013 A 
ATOM      3  C   UNL     1     -23.686  -8.731 -13.748  1.00  0.00     0.120 A 
ATOM      4  C   UNL     1     -26.092  -8.701 -12.366  1.00  0.00     0.021 A 
ATOM      5  N   UNL     1     -23.921  -9.616 -12.743  1.00  0.00    -0.264 NA
ATOM      6  C   UNL     1     -25.091  -9.621 -12.052  1.00  0.00     0.111 A 
ENDROOT
BRANCH   1   7
ATOM      7  C   UNL     1     -24.415  -6.818 -15.193  1.00  0.00     0.073 C 
ATOM      8  O   UNL     1     -23.331  -6.839 -15.834  1.00  0.00    -0.545 OA
ATOM      9  O   UNL     1     -25.378  -5.873 -15.529  1.00  0.00    -0.545 OA
ENDBRANCH   1   7
TORSDOF 1
ENDMDL
MODEL 6
REMARK VINA RESULT:    -5.384     11.486     12.215
REMARK INTER + INTRA:          -5.721
REMARK INTER:                  -5.703
REMARK INTRA:                  -0.018
REMARK UNBOUND:                -0.022
REMARK SMILES O=C([O-])c1cccnc1
REMARK SMILES IDX 4 1 5 2 9 3 6 4 8 5 7 6 2 7 1 8 3 9
REMARK H PARENT
REMARK Flexibility Score: inf
ROOT
ATOM      1  C   UNL     1     -24.278  -8.590 -14.458  1.00  0.00     0.016 A 
ATOM      2  C   UNL     1     -23.564  -9.544 -15.204  1.00  0.00     0.013 A 
ATOM      3  C   UNL     1     -24.599  -8.891 -13.124  1.00  0.00     0.120 A 
ATOM      4  C   UNL     1     -23.189 -10.754 -14.619  1.00  0.00     0.021 A 
ATOM      5  N   UNL     1     -24.222 -10.078 -12.578  1.00  0.00    -0.264 NA
ATOM      6  C   UNL     1     -23.531 -11.006 -13.290  1.00  0.00     0.111 A 
ENDROOT
BRANCH   1   7
ATOM      7  C   UNL     1     -24.683  -7.302 -15.060  1.00  0.00     0.073 C 
ATOM      8  O   UNL     1     -23.815  -6.487 -15.474  1.00  0.00    -0.545 OA
ATOM      9  O   UNL     1     -26.028  -6.971 -15.177  1.00  0.00    -0.545 OA
ENDBRANCH   1   7
TORSDOF 1
ENDMDL
MODEL 7
REMARK VINA RESULT:    -5.333     11.466     12.042
REMARK INTER + INTRA:          -5.667
REMARK INTER:                  -5.646
REMARK INTRA:                  -0.021
REMARK UNBOUND:                -0.022
REMARK SMILES O=C([O-])c1cccnc1
REMARK SMILES IDX 4 1 5 2 9 3 6 4 8 5 7 6 2 7 1 8 3 9
REMARK H PARENT
REMARK Flexibility Score: inf
ROOT
ATOM      1  C   UNL     1     -24.127  -9.664 -13.706  1.00  0.00     0.016 A 
ATOM      2  C   UNL     1     -24.052  -8.777 -14.793  1.00  0.00     0.013 A 
ATOM      3  C   UNL     1     -24.992  -9.348 -12.644  1.00  0.00     0.120 A 
ATOM      4  C   UNL     1     -24.826  -7.614 -14.803  1.00  0.00     0.021 A 
ATOM      5  N   UNL     1     -25.733  -8.209 -12.678  1.00  0.00    -0.264 NA
ATOM      6  C   UNL     1     -25.669  -7.344 -13.725  1.00  0.00     0.111 A 
ENDROOT
BRANCH   1   7
ATOM      7  C   UNL     1     -23.317 -10.901 -13.677  1.00  0.00     0.073 C 
ATOM      8  O   UNL     1     -23.068 -11.528 -14.740  1.00  0.00    -0.545 OA
ATOM      9  O   UNL     1     -22.818 -11.387 -12.474  1.00  0.00    -0.545 OA
ENDBRANCH   1   7
TORSDOF 1
ENDMDL
MODEL 8
REMARK VINA RESULT:    -5.283      2.818      3.529
REMARK INTER + INTRA:          -5.614
REMARK INTER:                  -5.590
REMARK INTRA:                  -0.024
REMARK UNBOUND:                -0.022
REMARK SMILES O=C([O-])c1cccnc1
REMARK SMILES IDX 4 1 5 2 9 3 6 4 8 5 7 6 2 7 1 8 3 9
REMARK H PARENT
REMARK Flexibility Score: inf
ROOT
ATOM      1  C   UNL     1     -19.671  -2.171  -5.394  1.00  0.00     0.016 A 
ATOM      2  C   UNL     1     -20.127  -1.062  -4.661  1.00  0.00     0.013 A 
ATOM      3  C   UNL     1     -20.422  -3.357  -5.348  1.00  0.00     0.120 A 
ATOM      4  C   UNL     1     -21.302  -1.153  -3.911  1.00  0.00     0.021 A 
ATOM      5  N   UNL     1     -21.562  -3.419  -4.609  1.00  0.00    -0.264 NA
ATOM      6  C   UNL     1     -22.013  -2.353  -3.897  1.00  0.00     0.111 A 
ENDROOT
BRANCH   1   7
ATOM      7  C   UNL     1     -18.430  -2.094  -6.195  1.00  0.00     0.073 C 
ATOM      8  O   UNL     1     -18.031  -3.091  -6.855  1.00  0.00    -0.545 OA
ATOM      9  O   UNL     1     -17.688  -0.920  -6.234  1.00  0.00    -0.545 OA
ENDBRANCH   1   7
TORSDOF 1
ENDMDL
MODEL 9
REMARK VINA RESULT:    -5.005     11.263     11.854
REMARK INTER + INTRA:          -5.320
REMARK INTER:                  -5.297
REMARK INTRA:                  -0.024
REMARK UNBOUND:                -0.022
REMARK SMILES O=C([O-])c1cccnc1
REMARK SMILES IDX 4 1 5 2 9 3 6 4 8 5 7 6 2 7 1 8 3 9
REMARK H PARENT
REMARK Flexibility Score: inf
ROOT
ATOM      1  C   UNL     1     -24.318  -9.390 -13.587  1.00  0.00     0.016 A 
ATOM      2  C   UNL     1     -23.810  -8.781 -14.746  1.00  0.00     0.013 A 
ATOM      3  C   UNL     1     -23.853 -10.672 -13.248  1.00  0.00     0.120 A 
ATOM      4  C   UNL     1     -22.865  -9.445 -15.531  1.00  0.00     0.021 A 
ATOM      5  N   UNL     1     -22.934 -11.298 -14.030  1.00  0.00    -0.264 NA
ATOM      6  C   UNL     1     -22.435 -10.717 -15.153  1.00  0.00     0.111 A 
ENDROOT
BRANCH   1   7
ATOM      7  C   UNL     1     -25.318  -8.703 -12.741  1.00  0.00     0.073 C 
ATOM      8  O   UNL     1     -25.796  -9.272 -11.724  1.00  0.00    -0.545 OA
ATOM      9  O   UNL     1     -25.743  -7.418 -13.057  1.00  0.00    -0.545 OA
ENDBRANCH   1   7
TORSDOF 1
ENDMDL
