MODEL 1
REMARK VINA RESULT:    -4.282      0.000      0.000
REMARK INTER + INTRA:          -9.696
REMARK INTER:                  -7.787
REMARK INTRA:                  -1.909
REMARK UNBOUND:                -1.909
REMARK SMILES CCCCCCCCCCCCCC[C@@H](C)C(=O)[O-]
REMARK SMILES IDX 9 1 10 2 11 3 12 4 13 5 14 6 15 7 16 8 17 9 18 10 19 11 8 12
REMARK SMILES IDX 7 13 6 14 5 15 4 16 3 17 2 18 1 19
REMARK H PARENT
REMARK Flexibility Score: inf
ROOT
ATOM      1  C   UNL     1      29.604  -3.828  -4.790  1.00  0.00     0.000 C 
ENDROOT
BRANCH   1   2
ATOM      2  C   UNL     1      29.231  -4.112  -3.330  1.00  0.00     0.000 C 
BRANCH   2   3
ATOM      3  C   UNL     1      29.764  -3.015  -2.401  1.00  0.00     0.000 C 
BRANCH   3   4
ATOM      4  C   UNL     1      28.798  -1.821  -2.351  1.00  0.00     0.000 C 
BRANCH   4   5
ATOM      5  C   UNL     1      27.634  -2.040  -1.370  1.00  0.00     0.001 C 
BRANCH   5   6
ATOM      6  C   UNL     1      28.083  -2.728  -0.066  1.00  0.00     0.009 C 
BRANCH   6   7
ATOM      7  C   UNL     1      28.448  -1.753   1.076  1.00  0.00     0.032 C 
ATOM      8  C   UNL     1      27.760  -0.387   0.937  1.00  0.00     0.014 C 
BRANCH   7   9
ATOM      9  C   UNL     1      28.209  -2.368   2.432  1.00  0.00     0.044 C 
ATOM     10  O   UNL     1      27.932  -1.649   3.428  1.00  0.00    -0.550 OA
ATOM     11  O   UNL     1      28.242  -3.749   2.575  1.00  0.00    -0.550 OA
ENDBRANCH   7   9
ENDBRANCH   6   7
ENDBRANCH   5   6
ENDBRANCH   4   5
ENDBRANCH   3   4
ENDBRANCH   2   3
ENDBRANCH   1   2
BRANCH   1  12
ATOM     12  C   UNL     1      28.347  -3.697  -5.663  1.00  0.00     0.000 C 
BRANCH  12  13
ATOM     13  C   UNL     1      27.041  -3.819  -4.858  1.00  0.00    -0.000 C 
BRANCH  13  14
ATOM     14  C   UNL     1      26.142  -5.005  -5.254  1.00  0.00    -0.000 C 
BRANCH  14  15
ATOM     15  C   UNL     1      26.694  -5.805  -6.442  1.00  0.00    -0.000 C 
BRANCH  15  16
ATOM     16  C   UNL     1      26.889  -7.281  -6.067  1.00  0.00    -0.000 C 
BRANCH  16  17
ATOM     17  C   UNL     1      28.333  -7.770  -6.284  1.00  0.00    -0.000 C 
BRANCH  17  18
ATOM     18  C   UNL     1      29.238  -7.684  -5.042  1.00  0.00    -0.003 C 
ATOM     19  C   UNL     1      28.452  -7.549  -3.738  1.00  0.00     0.004 C 
ENDBRANCH  17  18
ENDBRANCH  16  17
ENDBRANCH  15  16
ENDBRANCH  14  15
ENDBRANCH  13  14
ENDBRANCH  12  13
ENDBRANCH   1  12
TORSDOF 14
ENDMDL
MODEL 2
REMARK VINA RESULT:    -4.258      3.750      7.044
REMARK INTER + INTRA:          -9.652
REMARK INTER:                  -7.388
REMARK INTRA:                  -2.264
REMARK UNBOUND:                -1.909
REMARK SMILES CCCCCCCCCCCCCC[C@@H](C)C(=O)[O-]
REMARK SMILES IDX 9 1 10 2 11 3 12 4 13 5 14 6 15 7 16 8 17 9 18 10 19 11 8 12
REMARK SMILES IDX 7 13 6 14 5 15 4 16 3 17 2 18 1 19
REMARK H PARENT
REMARK Flexibility Score: inf
ROOT
ATOM      1  C   UNL     1      28.945  -3.327  -5.762  1.00  0.00     0.000 C 
ENDROOT
BRANCH   1   2
ATOM      2  C   UNL     1      29.546  -3.457  -4.357  1.00  0.00     0.000 C 
BRANCH   2   3
ATOM      3  C   UNL     1      28.880  -4.596  -3.576  1.00  0.00     0.000 C 
BRANCH   3   4
ATOM      4  C   UNL     1      27.354  -4.418  -3.541  1.00  0.00     0.000 C 
BRANCH   4   5
ATOM      5  C   UNL     1      26.597  -5.725  -3.831  1.00  0.00     0.001 C 
BRANCH   5   6
ATOM      6  C   UNL     1      27.513  -6.822  -4.410  1.00  0.00     0.009 C 
BRANCH   6   7
ATOM      7  C   UNL     1      27.143  -7.271  -5.841  1.00  0.00     0.032 C 
ATOM      8  C   UNL     1      26.612  -6.120  -6.709  1.00  0.00     0.014 C 
BRANCH   7   9
ATOM      9  C   UNL     1      28.281  -8.000  -6.509  1.00  0.00     0.044 C 
ATOM     10  O   UNL     1      29.128  -8.639  -5.830  1.00  0.00    -0.550 OA
ATOM     11  O   UNL     1      28.370  -8.011  -7.896  1.00  0.00    -0.550 OA
ENDBRANCH   7   9
ENDBRANCH   6   7
ENDBRANCH   5   6
ENDBRANCH   4   5
ENDBRANCH   3   4
ENDBRANCH   2   3
ENDBRANCH   1   2
BRANCH   1  12
ATOM     12  C   UNL     1      28.656  -1.857  -6.102  1.00  0.00     0.000 C 
BRANCH  12  13
ATOM     13  C   UNL     1      27.370  -1.329  -5.441  1.00  0.00    -0.000 C 
BRANCH  13  14
ATOM     14  C   UNL     1      27.513   0.036  -4.743  1.00  0.00    -0.000 C 
BRANCH  14  15
ATOM     15  C   UNL     1      28.908   0.259  -4.142  1.00  0.00    -0.000 C 
BRANCH  15  16
ATOM     16  C   UNL     1      28.828   0.432  -2.618  1.00  0.00    -0.000 C 
BRANCH  16  17
ATOM     17  C   UNL     1      28.869  -0.907  -1.859  1.00  0.00    -0.000 C 
BRANCH  17  18
ATOM     18  C   UNL     1      27.505  -1.406  -1.352  1.00  0.00    -0.003 C 
ATOM     19  C   UNL     1      27.622  -2.572  -0.371  1.00  0.00     0.004 C 
ENDBRANCH  17  18
ENDBRANCH  16  17
ENDBRANCH  15  16
ENDBRANCH  14  15
ENDBRANCH  13  14
ENDBRANCH  12  13
ENDBRANCH   1  12
TORSDOF 14
ENDMDL
MODEL 3
REMARK VINA RESULT:    -4.239      1.406      2.866
REMARK INTER + INTRA:          -9.616
REMARK INTER:                  -7.748
REMARK INTRA:                  -1.868
REMARK UNBOUND:                -1.909
REMARK SMILES CCCCCCCCCCCCCC[C@@H](C)C(=O)[O-]
REMARK SMILES IDX 9 1 10 2 11 3 12 4 13 5 14 6 15 7 16 8 17 9 18 10 19 11 8 12
REMARK SMILES IDX 7 13 6 14 5 15 4 16 3 17 2 18 1 19
REMARK H PARENT
REMARK Flexibility Score: inf
ROOT
ATOM      1  C   UNL     1      29.543  -5.285  -3.804  1.00  0.00     0.000 C 
ENDROOT
BRANCH   1   2
ATOM      2  C   UNL     1      30.125  -4.005  -4.416  1.00  0.00     0.000 C 
BRANCH   2   3
ATOM      3  C   UNL     1      29.118  -3.338  -5.360  1.00  0.00     0.000 C 
BRANCH   3   4
ATOM      4  C   UNL     1      28.545  -2.056  -4.737  1.00  0.00     0.000 C 
BRANCH   4   5
ATOM      5  C   UNL     1      28.960  -1.873  -3.268  1.00  0.00     0.001 C 
BRANCH   5   6
ATOM      6  C   UNL     1      27.756  -1.905  -2.305  1.00  0.00     0.009 C 
BRANCH   6   7
ATOM      7  C   UNL     1      27.958  -1.094  -1.006  1.00  0.00     0.032 C 
ATOM      8  C   UNL     1      26.681  -0.375  -0.547  1.00  0.00     0.014 C 
BRANCH   7   9
ATOM      9  C   UNL     1      28.553  -1.939   0.092  1.00  0.00     0.044 C 
ATOM     10  O   UNL     1      27.912  -2.904   0.586  1.00  0.00    -0.550 OA
ATOM     11  O   UNL     1      29.847  -1.684   0.530  1.00  0.00    -0.550 OA
ENDBRANCH   7   9
ENDBRANCH   6   7
ENDBRANCH   5   6
ENDBRANCH   4   5
ENDBRANCH   3   4
ENDBRANCH   2   3
ENDBRANCH   1   2
BRANCH   1  12
ATOM     12  C   UNL     1      30.083  -6.532  -4.521  1.00  0.00     0.000 C 
BRANCH  12  13
ATOM     13  C   UNL     1      29.086  -7.704  -4.520  1.00  0.00    -0.000 C 
BRANCH  13  14
ATOM     14  C   UNL     1      28.899  -8.399  -5.882  1.00  0.00    -0.000 C 
BRANCH  14  15
ATOM     15  C   UNL     1      27.941  -7.644  -6.814  1.00  0.00    -0.000 C 
BRANCH  15  16
ATOM     16  C   UNL     1      26.676  -7.203  -6.061  1.00  0.00    -0.000 C 
BRANCH  16  17
ATOM     17  C   UNL     1      26.434  -5.684  -6.133  1.00  0.00    -0.000 C 
BRANCH  17  18
ATOM     18  C   UNL     1      26.089  -5.020  -4.789  1.00  0.00    -0.003 C 
ATOM     19  C   UNL     1      25.988  -6.020  -3.637  1.00  0.00     0.004 C 
ENDBRANCH  17  18
ENDBRANCH  16  17
ENDBRANCH  15  16
ENDBRANCH  14  15
ENDBRANCH  13  14
ENDBRANCH  12  13
ENDBRANCH   1  12
TORSDOF 14
ENDMDL
MODEL 4
REMARK VINA RESULT:    -4.225      3.956      6.980
REMARK INTER + INTRA:          -9.591
REMARK INTER:                  -8.005
REMARK INTRA:                  -1.586
REMARK UNBOUND:                -1.909
REMARK SMILES CCCCCCCCCCCCCC[C@@H](C)C(=O)[O-]
REMARK SMILES IDX 9 1 10 2 11 3 12 4 13 5 14 6 15 7 16 8 17 9 18 10 19 11 8 12
REMARK SMILES IDX 7 13 6 14 5 15 4 16 3 17 2 18 1 19
REMARK H PARENT
REMARK Flexibility Score: inf
ROOT
ATOM      1  C   UNL     1      28.088  -2.655  -1.784  1.00  0.00     0.000 C 
ENDROOT
BRANCH   1   2
ATOM      2  C   UNL     1      27.058  -3.560  -2.473  1.00  0.00     0.000 C 
BRANCH   2   3
ATOM      3  C   UNL     1      27.556  -4.010  -3.851  1.00  0.00     0.000 C 
BRANCH   3   4
ATOM      4  C   UNL     1      26.388  -4.146  -4.840  1.00  0.00     0.000 C 
BRANCH   4   5
ATOM      5  C   UNL     1      26.610  -5.264  -5.872  1.00  0.00     0.001 C 
BRANCH   5   6
ATOM      6  C   UNL     1      26.825  -6.641  -5.215  1.00  0.00     0.009 C 
BRANCH   6   7
ATOM      7  C   UNL     1      28.307  -7.058  -5.080  1.00  0.00     0.032 C 
ATOM      8  C   UNL     1      28.677  -7.493  -3.655  1.00  0.00     0.014 C 
BRANCH   7   9
ATOM      9  C   UNL     1      28.689  -8.098  -6.103  1.00  0.00     0.044 C 
ATOM     10  O   UNL     1      29.367  -9.108  -5.776  1.00  0.00    -0.550 OA
ATOM     11  O   UNL     1      28.242  -7.970  -7.413  1.00  0.00    -0.550 OA
ENDBRANCH   7   9
ENDBRANCH   6   7
ENDBRANCH   5   6
ENDBRANCH   4   5
ENDBRANCH   3   4
ENDBRANCH   2   3
ENDBRANCH   1   2
BRANCH   1  12
ATOM     12  C   UNL     1      27.465  -1.304  -1.404  1.00  0.00     0.000 C 
BRANCH  12  13
ATOM     13  C   UNL     1      28.056  -0.126  -2.199  1.00  0.00    -0.000 C 
BRANCH  13  14
ATOM     14  C   UNL     1      27.143   0.435  -3.304  1.00  0.00    -0.000 C 
BRANCH  14  15
ATOM     15  C   UNL     1      27.170  -0.406  -4.588  1.00  0.00    -0.000 C 
BRANCH  15  16
ATOM     16  C   UNL     1      28.604  -0.548  -5.122  1.00  0.00    -0.000 C 
BRANCH  16  17
ATOM     17  C   UNL     1      28.734  -1.631  -6.208  1.00  0.00    -0.000 C 
BRANCH  17  18
ATOM     18  C   UNL     1      30.109  -1.694  -6.896  1.00  0.00    -0.003 C 
ATOM     19  C   UNL     1      30.038  -1.424  -8.399  1.00  0.00     0.004 C 
ENDBRANCH  17  18
ENDBRANCH  16  17
ENDBRANCH  15  16
ENDBRANCH  14  15
ENDBRANCH  13  14
ENDBRANCH  12  13
ENDBRANCH   1  12
TORSDOF 14
ENDMDL
MODEL 5
REMARK VINA RESULT:    -4.202      0.952      2.389
REMARK INTER + INTRA:          -9.549
REMARK INTER:                  -7.994
REMARK INTRA:                  -1.555
REMARK UNBOUND:                -1.909
REMARK SMILES CCCCCCCCCCCCCC[C@@H](C)C(=O)[O-]
REMARK SMILES IDX 9 1 10 2 11 3 12 4 13 5 14 6 15 7 16 8 17 9 18 10 19 11 8 12
REMARK SMILES IDX 7 13 6 14 5 15 4 16 3 17 2 18 1 19
REMARK H PARENT
REMARK Flexibility Score: inf
ROOT
ATOM      1  C   UNL     1      29.901  -4.059  -3.081  1.00  0.00     0.000 C 
ENDROOT
BRANCH   1   2
ATOM      2  C   UNL     1      29.595  -2.676  -3.668  1.00  0.00     0.000 C 
BRANCH   2   3
ATOM      3  C   UNL     1      28.165  -2.238  -3.332  1.00  0.00     0.000 C 
BRANCH   3   4
ATOM      4  C   UNL     1      27.603  -3.052  -2.156  1.00  0.00     0.000 C 
BRANCH   4   5
ATOM      5  C   UNL     1      27.313  -2.186  -0.919  1.00  0.00     0.001 C 
BRANCH   5   6
ATOM      6  C   UNL     1      28.153  -2.604   0.304  1.00  0.00     0.009 C 
BRANCH   6   7
ATOM      7  C   UNL     1      28.453  -1.455   1.293  1.00  0.00     0.032 C 
ATOM      8  C   UNL     1      27.880  -0.107   0.832  1.00  0.00     0.014 C 
BRANCH   7   9
ATOM      9  C   UNL     1      28.019  -1.799   2.695  1.00  0.00     0.044 C 
ATOM     10  O   UNL     1      28.160  -2.966   3.148  1.00  0.00    -0.550 OA
ATOM     11  O   UNL     1      27.507  -0.805   3.520  1.00  0.00    -0.550 OA
ENDBRANCH   7   9
ENDBRANCH   6   7
ENDBRANCH   5   6
ENDBRANCH   4   5
ENDBRANCH   3   4
ENDBRANCH   2   3
ENDBRANCH   1   2
BRANCH   1  12
ATOM     12  C   UNL     1      29.870  -5.139  -4.172  1.00  0.00     0.000 C 
BRANCH  12  13
ATOM     13  C   UNL     1      29.965  -6.568  -3.607  1.00  0.00    -0.000 C 
BRANCH  13  14
ATOM     14  C   UNL     1      28.828  -7.513  -4.035  1.00  0.00    -0.000 C 
BRANCH  14  15
ATOM     15  C   UNL     1      29.150  -8.297  -5.315  1.00  0.00    -0.000 C 
BRANCH  15  16
ATOM     16  C   UNL     1      28.239  -7.857  -6.471  1.00  0.00    -0.000 C 
BRANCH  16  17
ATOM     17  C   UNL     1      26.909  -7.250  -5.989  1.00  0.00    -0.000 C 
BRANCH  17  18
ATOM     18  C   UNL     1      26.702  -5.771  -6.358  1.00  0.00    -0.003 C 
ATOM     19  C   UNL     1      26.318  -4.904  -5.159  1.00  0.00     0.004 C 
ENDBRANCH  17  18
ENDBRANCH  16  17
ENDBRANCH  15  16
ENDBRANCH  14  15
ENDBRANCH  13  14
ENDBRANCH  12  13
ENDBRANCH   1  12
TORSDOF 14
ENDMDL
MODEL 6
REMARK VINA RESULT:    -4.117      3.769      7.893
REMARK INTER + INTRA:          -9.395
REMARK INTER:                  -7.938
REMARK INTRA:                  -1.457
REMARK UNBOUND:                -1.909
REMARK SMILES CCCCCCCCCCCCCC[C@@H](C)C(=O)[O-]
REMARK SMILES IDX 9 1 10 2 11 3 12 4 13 5 14 6 15 7 16 8 17 9 18 10 19 11 8 12
REMARK SMILES IDX 7 13 6 14 5 15 4 16 3 17 2 18 1 19
REMARK H PARENT
REMARK Flexibility Score: inf
ROOT
ATOM      1  C   UNL     1      28.249  -3.319  -2.773  1.00  0.00     0.000 C 
ENDROOT
BRANCH   1   2
ATOM      2  C   UNL     1      27.665  -2.643  -4.019  1.00  0.00     0.000 C 
BRANCH   2   3
ATOM      3  C   UNL     1      26.394  -3.358  -4.491  1.00  0.00     0.000 C 
BRANCH   3   4
ATOM      4  C   UNL     1      26.740  -4.644  -5.258  1.00  0.00     0.000 C 
BRANCH   4   5
ATOM      5  C   UNL     1      26.309  -5.916  -4.510  1.00  0.00     0.001 C 
BRANCH   5   6
ATOM      6  C   UNL     1      27.507  -6.794  -4.097  1.00  0.00     0.009 C 
BRANCH   6   7
ATOM      7  C   UNL     1      28.701  -6.742  -5.076  1.00  0.00     0.032 C 
ATOM      8  C   UNL     1      30.053  -6.599  -4.360  1.00  0.00     0.014 C 
BRANCH   7   9
ATOM      9  C   UNL     1      28.691  -7.908  -6.031  1.00  0.00     0.044 C 
ATOM     10  O   UNL     1      29.239  -9.000  -5.725  1.00  0.00    -0.550 OA
ATOM     11  O   UNL     1      28.022  -7.797  -7.244  1.00  0.00    -0.550 OA
ENDBRANCH   7   9
ENDBRANCH   6   7
ENDBRANCH   5   6
ENDBRANCH   4   5
ENDBRANCH   3   4
ENDBRANCH   2   3
ENDBRANCH   1   2
BRANCH   1  12
ATOM     12  C   UNL     1      27.730  -2.653  -1.491  1.00  0.00     0.000 C 
BRANCH  12  13
ATOM     13  C   UNL     1      27.806  -1.116  -1.539  1.00  0.00    -0.000 C 
BRANCH  13  14
ATOM     14  C   UNL     1      26.895  -0.388  -0.534  1.00  0.00    -0.000 C 
BRANCH  14  15
ATOM     15  C   UNL     1      27.679   0.372   0.545  1.00  0.00    -0.000 C 
BRANCH  15  16
ATOM     16  C   UNL     1      27.178   0.004   1.949  1.00  0.00    -0.000 C 
BRANCH  16  17
ATOM     17  C   UNL     1      28.310  -0.449   2.890  1.00  0.00    -0.000 C 
BRANCH  17  18
ATOM     18  C   UNL     1      28.222  -1.916   3.348  1.00  0.00    -0.003 C 
ATOM     19  C   UNL     1      28.221  -2.906   2.183  1.00  0.00     0.004 C 
ENDBRANCH  17  18
ENDBRANCH  16  17
ENDBRANCH  15  16
ENDBRANCH  14  15
ENDBRANCH  13  14
ENDBRANCH  12  13
ENDBRANCH   1  12
TORSDOF 14
ENDMDL
MODEL 7
REMARK VINA RESULT:    -4.061      1.615      2.502
REMARK INTER + INTRA:          -9.294
REMARK INTER:                  -7.255
REMARK INTRA:                  -2.039
REMARK UNBOUND:                -1.909
REMARK SMILES CCCCCCCCCCCCCC[C@@H](C)C(=O)[O-]
REMARK SMILES IDX 9 1 10 2 11 3 12 4 13 5 14 6 15 7 16 8 17 9 18 10 19 11 8 12
REMARK SMILES IDX 7 13 6 14 5 15 4 16 3 17 2 18 1 19
REMARK H PARENT
REMARK Flexibility Score: inf
ROOT
ATOM      1  C   UNL     1      28.588  -3.588  -5.348  1.00  0.00     0.000 C 
ENDROOT
BRANCH   1   2
ATOM      2  C   UNL     1      28.132  -2.232  -5.901  1.00  0.00     0.000 C 
BRANCH   2   3
ATOM      3  C   UNL     1      29.190  -1.151  -5.651  1.00  0.00     0.000 C 
BRANCH   3   4
ATOM      4  C   UNL     1      28.599   0.024  -4.857  1.00  0.00     0.000 C 
BRANCH   4   5
ATOM      5  C   UNL     1      28.908  -0.059  -3.353  1.00  0.00     0.001 C 
BRANCH   5   6
ATOM      6  C   UNL     1      27.770  -0.723  -2.553  1.00  0.00     0.009 C 
BRANCH   6   7
ATOM      7  C   UNL     1      28.212  -1.939  -1.707  1.00  0.00     0.032 C 
ATOM      8  C   UNL     1      29.684  -2.316  -1.929  1.00  0.00     0.014 C 
BRANCH   7   9
ATOM      9  C   UNL     1      27.895  -1.747  -0.246  1.00  0.00     0.044 C 
ATOM     10  O   UNL     1      27.521  -0.627   0.194  1.00  0.00    -0.550 OA
ATOM     11  O   UNL     1      27.964  -2.832   0.620  1.00  0.00    -0.550 OA
ENDBRANCH   7   9
ENDBRANCH   6   7
ENDBRANCH   5   6
ENDBRANCH   4   5
ENDBRANCH   3   4
ENDBRANCH   2   3
ENDBRANCH   1   2
BRANCH   1  12
ATOM     12  C   UNL     1      27.516  -4.198  -4.434  1.00  0.00     0.000 C 
BRANCH  12  13
ATOM     13  C   UNL     1      26.332  -4.799  -5.213  1.00  0.00    -0.000 C 
BRANCH  13  14
ATOM     14  C   UNL     1      26.725  -5.675  -6.417  1.00  0.00    -0.000 C 
BRANCH  14  15
ATOM     15  C   UNL     1      26.721  -7.176  -6.093  1.00  0.00    -0.000 C 
BRANCH  15  16
ATOM     16  C   UNL     1      27.931  -7.877  -6.728  1.00  0.00    -0.000 C 
BRANCH  16  17
ATOM     17  C   UNL     1      29.000  -8.282  -5.695  1.00  0.00    -0.000 C 
BRANCH  17  18
ATOM     18  C   UNL     1      28.812  -7.670  -4.296  1.00  0.00    -0.003 C 
ATOM     19  C   UNL     1      30.049  -6.922  -3.799  1.00  0.00     0.004 C 
ENDBRANCH  17  18
ENDBRANCH  16  17
ENDBRANCH  15  16
ENDBRANCH  14  15
ENDBRANCH  13  14
ENDBRANCH  12  13
ENDBRANCH   1  12
TORSDOF 14
ENDMDL
MODEL 8
REMARK VINA RESULT:    -4.047      3.686      7.671
REMARK INTER + INTRA:          -9.268
REMARK INTER:                  -7.963
REMARK INTRA:                  -1.305
REMARK UNBOUND:                -1.909
REMARK SMILES CCCCCCCCCCCCCC[C@@H](C)C(=O)[O-]
REMARK SMILES IDX 9 1 10 2 11 3 12 4 13 5 14 6 15 7 16 8 17 9 18 10 19 11 8 12
REMARK SMILES IDX 7 13 6 14 5 15 4 16 3 17 2 18 1 19
REMARK H PARENT
REMARK Flexibility Score: inf
ROOT
ATOM      1  C   UNL     1      28.295  -3.064  -2.507  1.00  0.00     0.000 C 
ENDROOT
BRANCH   1   2
ATOM      2  C   UNL     1      27.992  -2.798  -3.987  1.00  0.00     0.000 C 
BRANCH   2   3
ATOM      3  C   UNL     1      29.019  -3.487  -4.892  1.00  0.00     0.000 C 
BRANCH   3   4
ATOM      4  C   UNL     1      29.808  -4.553  -4.116  1.00  0.00     0.000 C 
BRANCH   4   5
ATOM      5  C   UNL     1      29.580  -5.973  -4.660  1.00  0.00     0.001 C 
BRANCH   5   6
ATOM      6  C   UNL     1      28.171  -6.510  -4.340  1.00  0.00     0.009 C 
BRANCH   6   7
ATOM      7  C   UNL     1      27.410  -7.070  -5.563  1.00  0.00     0.032 C 
ATOM      8  C   UNL     1      26.728  -5.973  -6.394  1.00  0.00     0.014 C 
BRANCH   7   9
ATOM      9  C   UNL     1      28.290  -7.952  -6.411  1.00  0.00     0.044 C 
ATOM     10  O   UNL     1      28.273  -7.867  -7.668  1.00  0.00    -0.550 OA
ATOM     11  O   UNL     1      29.172  -8.835  -5.799  1.00  0.00    -0.550 OA
ENDBRANCH   7   9
ENDBRANCH   6   7
ENDBRANCH   5   6
ENDBRANCH   4   5
ENDBRANCH   3   4
ENDBRANCH   2   3
ENDBRANCH   1   2
BRANCH   1  12
ATOM     12  C   UNL     1      27.063  -2.784  -1.634  1.00  0.00     0.000 C 
BRANCH  12  13
ATOM     13  C   UNL     1      27.234  -1.548  -0.732  1.00  0.00    -0.000 C 
BRANCH  13  14
ATOM     14  C   UNL     1      28.670  -1.001  -0.644  1.00  0.00    -0.000 C 
BRANCH  14  15
ATOM     15  C   UNL     1      29.247  -1.057   0.777  1.00  0.00    -0.000 C 
BRANCH  15  16
ATOM     16  C   UNL     1      28.123  -1.104   1.824  1.00  0.00    -0.000 C 
BRANCH  16  17
ATOM     17  C   UNL     1      28.229  -2.318   2.764  1.00  0.00    -0.000 C 
BRANCH  17  18
ATOM     18  C   UNL     1      28.485  -3.662   2.059  1.00  0.00    -0.003 C 
ATOM     19  C   UNL     1      28.115  -4.869   2.921  1.00  0.00     0.004 C 
ENDBRANCH  17  18
ENDBRANCH  16  17
ENDBRANCH  15  16
ENDBRANCH  14  15
ENDBRANCH  13  14
ENDBRANCH  12  13
ENDBRANCH   1  12
TORSDOF 14
ENDMDL
MODEL 9
REMARK VINA RESULT:    -4.005      1.094      2.307
REMARK INTER + INTRA:          -9.192
REMARK INTER:                  -7.562
REMARK INTRA:                  -1.630
REMARK UNBOUND:                -1.909
REMARK SMILES CCCCCCCCCCCCCC[C@@H](C)C(=O)[O-]
REMARK SMILES IDX 9 1 10 2 11 3 12 4 13 5 14 6 15 7 16 8 17 9 18 10 19 11 8 12
REMARK SMILES IDX 7 13 6 14 5 15 4 16 3 17 2 18 1 19
REMARK H PARENT
REMARK Flexibility Score: inf
ROOT
ATOM      1  C   UNL     1      26.761  -3.279  -4.447  1.00  0.00     0.000 C 
ENDROOT
BRANCH   1   2
ATOM      2  C   UNL     1      27.355  -1.868  -4.345  1.00  0.00     0.000 C 
BRANCH   2   3
ATOM      3  C   UNL     1      27.644  -1.497  -2.886  1.00  0.00     0.000 C 
BRANCH   3   4
ATOM      4  C   UNL     1      27.681  -2.749  -1.997  1.00  0.00     0.000 C 
BRANCH   4   5
ATOM      5  C   UNL     1      28.660  -2.613  -0.819  1.00  0.00     0.001 C 
BRANCH   5   6
ATOM      6  C   UNL     1      27.945  -2.623   0.547  1.00  0.00     0.009 C 
BRANCH   6   7
ATOM      7  C   UNL     1      28.361  -1.473   1.492  1.00  0.00     0.032 C 
ATOM      8  C   UNL     1      27.609  -0.165   1.206  1.00  0.00     0.014 C 
BRANCH   7   9
ATOM      9  C   UNL     1      28.257  -1.877   2.941  1.00  0.00     0.044 C 
ATOM     10  O   UNL     1      28.205  -3.091   3.273  1.00  0.00    -0.550 OA
ATOM     11  O   UNL     1      28.270  -0.899   3.929  1.00  0.00    -0.550 OA
ENDBRANCH   7   9
ENDBRANCH   6   7
ENDBRANCH   5   6
ENDBRANCH   4   5
ENDBRANCH   3   4
ENDBRANCH   2   3
ENDBRANCH   1   2
BRANCH   1  12
ATOM     12  C   UNL     1      27.601  -4.164  -5.379  1.00  0.00     0.000 C 
BRANCH  12  13
ATOM     13  C   UNL     1      29.110  -3.874  -5.284  1.00  0.00    -0.000 C 
BRANCH  13  14
ATOM     14  C   UNL     1      29.901  -4.836  -4.379  1.00  0.00    -0.000 C 
BRANCH  14  15
ATOM     15  C   UNL     1      29.128  -6.121  -4.050  1.00  0.00    -0.000 C 
BRANCH  15  16
ATOM     16  C   UNL     1      29.815  -7.348  -4.667  1.00  0.00    -0.000 C 
BRANCH  16  17
ATOM     17  C   UNL     1      28.838  -8.264  -5.427  1.00  0.00    -0.000 C 
BRANCH  17  18
ATOM     18  C   UNL     1      28.220  -7.642  -6.691  1.00  0.00    -0.003 C 
ATOM     19  C   UNL     1      26.709  -7.436  -6.578  1.00  0.00     0.004 C 
ENDBRANCH  17  18
ENDBRANCH  16  17
ENDBRANCH  15  16
ENDBRANCH  14  15
ENDBRANCH  13  14
ENDBRANCH  12  13
ENDBRANCH   1  12
TORSDOF 14
ENDMDL
