MODEL 1
REMARK VINA RESULT:    -6.020      0.000      0.000
REMARK INTER + INTRA:          -6.859
REMARK INTER:                  -6.548
REMARK INTRA:                  -0.311
REMARK UNBOUND:                -0.311
REMARK SMILES C[C@H]1[C@H]2C3=CC[C@H]4[C@@]5(C)CC[C@H](O)C(C)(C)[C@@H]5CC[C@@]4(C)[C@]3(C)CC[C@@]2(C(=O)[O-])CC[C@@H]1C
REMARK SMILES IDX 26 1 30 2 25 3 3 4 31 5 24 6 4 7 2 8 32 9 22 10 5 11 1 12
REMARK SMILES IDX 33 13 23 14 20 15 6 16 7 17 19 18 21 19 8 20 18 21 17 22
REMARK SMILES IDX 10 23 9 24 14 25 11 26 12 27 15 28 16 29 27 30 28 31 29 32
REMARK SMILES IDX 13 33
REMARK H PARENT 13 34
REMARK Flexibility Score: inf
ROOT
ATOM      1  C   UNL     1      40.780  23.989  81.033  1.00  0.00     0.017 C 
ATOM      2  C   UNL     1      39.381  24.604  81.346  1.00  0.00     0.014 C 
ATOM      3  C   UNL     1      41.438  24.830  79.917  1.00  0.00     0.014 C 
ATOM      4  C   UNL     1      40.658  22.484  80.567  1.00  0.00     0.030 C 
ATOM      5  C   UNL     1      38.442  23.569  81.962  1.00  0.00     0.004 C 
ATOM      6  C   UNL     1      42.844  24.331  79.587  1.00  0.00     0.013 C 
ATOM      7  C   UNL     1      41.821  21.967  79.698  1.00  0.00    -0.063 C 
ATOM      8  C   UNL     1      39.254  22.098  79.976  1.00  0.00    -0.003 C 
ATOM      9  C   UNL     1      38.068  22.488  80.926  1.00  0.00    -0.011 C 
ATOM     10  C   UNL     1      42.896  22.857  79.032  1.00  0.00    -0.006 C 
ATOM     11  C   UNL     1      41.930  20.630  79.563  1.00  0.00    -0.027 C 
ATOM     12  C   UNL     1      39.012  22.612  78.545  1.00  0.00     0.008 C 
ATOM     13  C   UNL     1      37.499  21.256  81.647  1.00  0.00     0.008 C 
ATOM     14  C   UNL     1      42.542  22.990  77.520  1.00  0.00     0.017 C 
ATOM     15  C   UNL     1      44.353  22.168  79.266  1.00  0.00    -0.020 C 
ATOM     16  C   UNL     1      42.970  19.996  78.697  1.00  0.00     0.032 C 
ATOM     17  C   UNL     1      44.384  20.588  78.930  1.00  0.00     0.006 C 
ATOM     18  C   UNL     1      45.480  22.964  78.516  1.00  0.00     0.008 C 
ATOM     19  C   UNL     1      44.723  22.270  80.790  1.00  0.00     0.012 C 
ATOM     20  C   UNL     1      45.485  20.108  77.869  1.00  0.00    -0.025 C 
ATOM     21  C   UNL     1      45.843  22.547  77.075  1.00  0.00     0.005 C 
ATOM     22  C   UNL     1      45.455  21.104  76.656  1.00  0.00     0.003 C 
ATOM     23  C   UNL     1      45.187  18.648  77.378  1.00  0.00     0.010 C 
ATOM     24  C   UNL     1      46.877  20.058  78.586  1.00  0.00     0.012 C 
ATOM     25  C   UNL     1      46.153  20.633  75.302  1.00  0.00    -0.006 C 
ATOM     26  C   UNL     1      45.997  18.223  76.152  1.00  0.00     0.033 C 
ATOM     27  C   UNL     1      45.722  19.166  74.981  1.00  0.00     0.120 C 
ATOM     28  C   UNL     1      45.650  21.528  74.138  1.00  0.00     0.014 C 
ATOM     29  C   UNL     1      47.705  20.752  75.318  1.00  0.00     0.014 C 
ENDROOT
BRANCH   1  30
ATOM     30  C   UNL     1      41.620  24.125  82.307  1.00  0.00     0.048 C 
ATOM     31  O   UNL     1      42.029  23.117  82.946  1.00  0.00    -0.550 OA
ATOM     32  O   UNL     1      41.900  25.389  82.818  1.00  0.00    -0.550 OA
ENDBRANCH   1  30
BRANCH  27  33
ATOM     33  O   UNL     1      46.384  18.670  73.841  1.00  0.00    -0.393 OA
ATOM     34  H   UNL     1      45.693  18.300  73.232  1.00  0.00     0.210 HD
ENDBRANCH  27  33
TORSDOF 2
ENDMDL
MODEL 2
REMARK VINA RESULT:    -5.812      2.177      3.240
REMARK INTER + INTRA:          -6.633
REMARK INTER:                  -6.321
REMARK INTRA:                  -0.311
REMARK UNBOUND:                -0.311
REMARK SMILES C[C@H]1[C@H]2C3=CC[C@H]4[C@@]5(C)CC[C@H](O)C(C)(C)[C@@H]5CC[C@@]4(C)[C@]3(C)CC[C@@]2(C(=O)[O-])CC[C@@H]1C
REMARK SMILES IDX 26 1 30 2 25 3 3 4 31 5 24 6 4 7 2 8 32 9 22 10 5 11 1 12
REMARK SMILES IDX 33 13 23 14 20 15 6 16 7 17 19 18 21 19 8 20 18 21 17 22
REMARK SMILES IDX 10 23 9 24 14 25 11 26 12 27 15 28 16 29 27 30 28 31 29 32
REMARK SMILES IDX 13 33
REMARK H PARENT 13 34
REMARK Flexibility Score: inf
ROOT
ATOM      1  C   UNL     1      39.718  23.695  79.050  1.00  0.00     0.017 C 
ATOM      2  C   UNL     1      38.603  24.782  79.150  1.00  0.00     0.014 C 
ATOM      3  C   UNL     1      40.970  24.218  79.788  1.00  0.00     0.014 C 
ATOM      4  C   UNL     1      40.078  23.374  77.546  1.00  0.00     0.030 C 
ATOM      5  C   UNL     1      37.590  24.647  78.016  1.00  0.00     0.004 C 
ATOM      6  C   UNL     1      42.097  23.186  79.790  1.00  0.00     0.013 C 
ATOM      7  C   UNL     1      41.491  22.804  77.313  1.00  0.00    -0.063 C 
ATOM      8  C   UNL     1      39.723  24.523  76.533  1.00  0.00    -0.003 C 
ATOM      9  C   UNL     1      38.237  25.007  76.662  1.00  0.00    -0.011 C 
ATOM     10  C   UNL     1      42.632  22.806  78.357  1.00  0.00    -0.006 C 
ATOM     11  C   UNL     1      41.718  22.211  76.124  1.00  0.00    -0.027 C 
ATOM     12  C   UNL     1      40.701  25.711  76.565  1.00  0.00     0.008 C 
ATOM     13  C   UNL     1      37.370  24.467  75.515  1.00  0.00     0.008 C 
ATOM     14  C   UNL     1      43.622  23.951  77.986  1.00  0.00     0.017 C 
ATOM     15  C   UNL     1      43.347  21.343  78.342  1.00  0.00    -0.020 C 
ATOM     16  C   UNL     1      43.060  21.676  75.741  1.00  0.00     0.032 C 
ATOM     17  C   UNL     1      43.698  20.808  76.858  1.00  0.00     0.006 C 
ATOM     18  C   UNL     1      44.590  21.313  79.300  1.00  0.00     0.008 C 
ATOM     19  C   UNL     1      42.347  20.283  78.933  1.00  0.00     0.012 C 
ATOM     20  C   UNL     1      45.225  20.405  76.590  1.00  0.00    -0.025 C 
ATOM     21  C   UNL     1      45.976  21.668  78.722  1.00  0.00     0.005 C 
ATOM     22  C   UNL     1      46.137  21.537  77.185  1.00  0.00     0.003 C 
ATOM     23  C   UNL     1      45.499  20.243  75.054  1.00  0.00     0.010 C 
ATOM     24  C   UNL     1      45.490  19.003  77.237  1.00  0.00     0.012 C 
ATOM     25  C   UNL     1      47.656  21.585  76.704  1.00  0.00    -0.006 C 
ATOM     26  C   UNL     1      46.981  20.160  74.686  1.00  0.00     0.033 C 
ATOM     27  C   UNL     1      47.713  21.418  75.152  1.00  0.00     0.120 C 
ATOM     28  C   UNL     1      48.248  22.979  77.043  1.00  0.00     0.014 C 
ATOM     29  C   UNL     1      48.570  20.532  77.397  1.00  0.00     0.014 C 
ENDROOT
BRANCH   1  30
ATOM     30  C   UNL     1      39.198  22.457  79.789  1.00  0.00     0.048 C 
ATOM     31  O   UNL     1      38.986  21.366  79.192  1.00  0.00    -0.550 OA
ATOM     32  O   UNL     1      38.894  22.539  81.145  1.00  0.00    -0.550 OA
ENDBRANCH   1  30
BRANCH  27  33
ATOM     33  O   UNL     1      49.042  21.362  74.686  1.00  0.00    -0.393 OA
ATOM     34  H   UNL     1      49.063  20.731  73.920  1.00  0.00     0.210 HD
ENDBRANCH  27  33
TORSDOF 2
ENDMDL
MODEL 3
REMARK VINA RESULT:    -5.731     11.428     14.597
REMARK INTER + INTRA:          -6.545
REMARK INTER:                  -6.234
REMARK INTRA:                  -0.311
REMARK UNBOUND:                -0.311
REMARK SMILES C[C@H]1[C@H]2C3=CC[C@H]4[C@@]5(C)CC[C@H](O)C(C)(C)[C@@H]5CC[C@@]4(C)[C@]3(C)CC[C@@]2(C(=O)[O-])CC[C@@H]1C
REMARK SMILES IDX 26 1 30 2 25 3 3 4 31 5 24 6 4 7 2 8 32 9 22 10 5 11 1 12
REMARK SMILES IDX 33 13 23 14 20 15 6 16 7 17 19 18 21 19 8 20 18 21 17 22
REMARK SMILES IDX 10 23 9 24 14 25 11 26 12 27 15 28 16 29 27 30 28 31 29 32
REMARK SMILES IDX 13 33
REMARK H PARENT 13 34
REMARK Flexibility Score: inf
ROOT
ATOM      1  C   UNL     1      46.113  27.683  88.350  1.00  0.00     0.017 C 
ATOM      2  C   UNL     1      45.618  26.555  89.306  1.00  0.00     0.014 C 
ATOM      3  C   UNL     1      47.592  27.407  88.001  1.00  0.00     0.014 C 
ATOM      4  C   UNL     1      45.978  29.108  89.020  1.00  0.00     0.030 C 
ATOM      5  C   UNL     1      44.434  27.018  90.150  1.00  0.00     0.004 C 
ATOM      6  C   UNL     1      48.142  28.438  87.016  1.00  0.00     0.013 C 
ATOM      7  C   UNL     1      46.929  30.189  88.469  1.00  0.00    -0.063 C 
ATOM      8  C   UNL     1      45.947  29.086  90.591  1.00  0.00    -0.003 C 
ATOM      9  C   UNL     1      44.874  28.095  91.163  1.00  0.00    -0.011 C 
ATOM     10  C   UNL     1      48.151  29.916  87.560  1.00  0.00    -0.006 C 
ATOM     11  C   UNL     1      46.627  31.469  88.761  1.00  0.00    -0.027 C 
ATOM     12  C   UNL     1      47.322  28.855  91.244  1.00  0.00     0.008 C 
ATOM     13  C   UNL     1      43.641  28.846  91.688  1.00  0.00     0.008 C 
ATOM     14  C   UNL     1      49.434  30.008  88.440  1.00  0.00     0.017 C 
ATOM     15  C   UNL     1      48.151  31.011  86.354  1.00  0.00    -0.020 C 
ATOM     16  C   UNL     1      47.498  32.611  88.347  1.00  0.00     0.032 C 
ATOM     17  C   UNL     1      47.921  32.529  86.857  1.00  0.00     0.006 C 
ATOM     18  C   UNL     1      49.431  30.862  85.458  1.00  0.00     0.008 C 
ATOM     19  C   UNL     1      46.941  30.709  85.397  1.00  0.00     0.012 C 
ATOM     20  C   UNL     1      49.036  33.596  86.427  1.00  0.00    -0.025 C 
ATOM     21  C   UNL     1      50.681  31.693  85.814  1.00  0.00     0.005 C 
ATOM     22  C   UNL     1      50.447  32.955  86.686  1.00  0.00     0.003 C 
ATOM     23  C   UNL     1      48.887  34.923  87.252  1.00  0.00     0.010 C 
ATOM     24  C   UNL     1      48.804  33.981  84.926  1.00  0.00     0.012 C 
ATOM     25  C   UNL     1      51.703  33.935  86.726  1.00  0.00    -0.006 C 
ATOM     26  C   UNL     1      50.079  35.873  87.131  1.00  0.00     0.033 C 
ATOM     27  C   UNL     1      51.358  35.182  87.602  1.00  0.00     0.120 C 
ATOM     28  C   UNL     1      52.890  33.205  87.407  1.00  0.00     0.014 C 
ATOM     29  C   UNL     1      52.201  34.380  85.320  1.00  0.00     0.014 C 
ENDROOT
BRANCH   1  30
ATOM     30  C   UNL     1      45.280  27.576  87.068  1.00  0.00     0.048 C 
ATOM     31  O   UNL     1      44.494  28.494  86.706  1.00  0.00    -0.550 OA
ATOM     32  O   UNL     1      45.340  26.416  86.301  1.00  0.00    -0.550 OA
ENDBRANCH   1  30
BRANCH  27  33
ATOM     33  O   UNL     1      52.405  36.125  87.595  1.00  0.00    -0.393 OA
ATOM     34  H   UNL     1      52.772  36.158  86.673  1.00  0.00     0.210 HD
ENDBRANCH  27  33
TORSDOF 2
ENDMDL
MODEL 4
REMARK VINA RESULT:    -5.611      5.288     10.445
REMARK INTER + INTRA:          -6.414
REMARK INTER:                  -6.102
REMARK INTRA:                  -0.312
REMARK UNBOUND:                -0.311
REMARK SMILES C[C@H]1[C@H]2C3=CC[C@H]4[C@@]5(C)CC[C@H](O)C(C)(C)[C@@H]5CC[C@@]4(C)[C@]3(C)CC[C@@]2(C(=O)[O-])CC[C@@H]1C
REMARK SMILES IDX 26 1 30 2 25 3 3 4 31 5 24 6 4 7 2 8 32 9 22 10 5 11 1 12
REMARK SMILES IDX 33 13 23 14 20 15 6 16 7 17 19 18 21 19 8 20 18 21 17 22
REMARK SMILES IDX 10 23 9 24 14 25 11 26 12 27 15 28 16 29 27 30 28 31 29 32
REMARK SMILES IDX 13 33
REMARK H PARENT 13 34
REMARK Flexibility Score: inf
ROOT
ATOM      1  C   UNL     1      53.627  24.052  76.611  1.00  0.00     0.017 C 
ATOM      2  C   UNL     1      55.186  24.080  76.568  1.00  0.00     0.014 C 
ATOM      3  C   UNL     1      53.190  23.568  78.011  1.00  0.00     0.014 C 
ATOM      4  C   UNL     1      53.036  23.092  75.504  1.00  0.00     0.030 C 
ATOM      5  C   UNL     1      55.706  23.966  75.138  1.00  0.00     0.004 C 
ATOM      6  C   UNL     1      51.669  23.567  78.161  1.00  0.00     0.013 C 
ATOM      7  C   UNL     1      51.631  22.530  75.800  1.00  0.00    -0.063 C 
ATOM      8  C   UNL     1      54.031  21.981  75.009  1.00  0.00    -0.003 C 
ATOM      9  C   UNL     1      55.417  22.564  74.562  1.00  0.00    -0.011 C 
ATOM     10  C   UNL     1      50.920  22.595  77.172  1.00  0.00    -0.006 C 
ATOM     11  C   UNL     1      50.960  21.995  74.761  1.00  0.00    -0.027 C 
ATOM     12  C   UNL     1      54.210  20.814  75.996  1.00  0.00     0.008 C 
ATOM     13  C   UNL     1      55.544  22.597  73.032  1.00  0.00     0.008 C 
ATOM     14  C   UNL     1      51.029  21.190  77.838  1.00  0.00     0.017 C 
ATOM     15  C   UNL     1      49.374  23.045  76.930  1.00  0.00    -0.020 C 
ATOM     16  C   UNL     1      49.619  21.355  74.920  1.00  0.00     0.032 C 
ATOM     17  C   UNL     1      48.637  22.224  75.749  1.00  0.00     0.006 C 
ATOM     18  C   UNL     1      48.563  23.020  78.274  1.00  0.00     0.008 C 
ATOM     19  C   UNL     1      49.349  24.545  76.463  1.00  0.00     0.012 C 
ATOM     20  C   UNL     1      47.271  21.485  76.142  1.00  0.00    -0.025 C 
ATOM     21  C   UNL     1      47.816  21.727  78.662  1.00  0.00     0.005 C 
ATOM     22  C   UNL     1      47.497  20.741  77.507  1.00  0.00     0.003 C 
ATOM     23  C   UNL     1      46.851  20.460  75.031  1.00  0.00     0.010 C 
ATOM     24  C   UNL     1      46.129  22.555  76.210  1.00  0.00     0.012 C 
ATOM     25  C   UNL     1      46.444  19.615  77.913  1.00  0.00    -0.006 C 
ATOM     26  C   UNL     1      45.739  19.498  75.453  1.00  0.00     0.033 C 
ATOM     27  C   UNL     1      46.170  18.695  76.680  1.00  0.00     0.120 C 
ATOM     28  C   UNL     1      47.060  18.727  79.026  1.00  0.00     0.014 C 
ATOM     29  C   UNL     1      45.107  20.176  78.479  1.00  0.00     0.014 C 
ENDROOT
BRANCH   1  30
ATOM     30  C   UNL     1      53.152  25.497  76.425  1.00  0.00     0.048 C 
ATOM     31  O   UNL     1      52.496  25.857  75.409  1.00  0.00    -0.550 OA
ATOM     32  O   UNL     1      53.495  26.464  77.366  1.00  0.00    -0.550 OA
ENDBRANCH   1  30
BRANCH  27  33
ATOM     33  O   UNL     1      45.176  17.737  76.960  1.00  0.00    -0.393 OA
ATOM     34  H   UNL     1      44.454  17.850  76.288  1.00  0.00     0.210 HD
ENDBRANCH  27  33
TORSDOF 2
ENDMDL
MODEL 5
REMARK VINA RESULT:    -5.588     14.003     16.965
REMARK INTER + INTRA:          -6.390
REMARK INTER:                  -6.079
REMARK INTRA:                  -0.311
REMARK UNBOUND:                -0.311
REMARK SMILES C[C@H]1[C@H]2C3=CC[C@H]4[C@@]5(C)CC[C@H](O)C(C)(C)[C@@H]5CC[C@@]4(C)[C@]3(C)CC[C@@]2(C(=O)[O-])CC[C@@H]1C
REMARK SMILES IDX 26 1 30 2 25 3 3 4 31 5 24 6 4 7 2 8 32 9 22 10 5 11 1 12
REMARK SMILES IDX 33 13 23 14 20 15 6 16 7 17 19 18 21 19 8 20 18 21 17 22
REMARK SMILES IDX 10 23 9 24 14 25 11 26 12 27 15 28 16 29 27 30 28 31 29 32
REMARK SMILES IDX 13 33
REMARK H PARENT 13 34
REMARK Flexibility Score: inf
ROOT
ATOM      1  C   UNL     1      50.442  33.563  81.754  1.00  0.00     0.017 C 
ATOM      2  C   UNL     1      50.328  34.243  80.355  1.00  0.00     0.014 C 
ATOM      3  C   UNL     1      50.107  34.618  82.832  1.00  0.00     0.014 C 
ATOM      4  C   UNL     1      51.893  32.989  82.000  1.00  0.00     0.030 C 
ATOM      5  C   UNL     1      51.172  33.515  79.311  1.00  0.00     0.004 C 
ATOM      6  C   UNL     1      50.137  34.018  84.237  1.00  0.00     0.013 C 
ATOM      7  C   UNL     1      52.301  32.840  83.480  1.00  0.00    -0.063 C 
ATOM      8  C   UNL     1      53.017  33.670  81.137  1.00  0.00    -0.003 C 
ATOM      9  C   UNL     1      52.676  33.691  79.606  1.00  0.00    -0.011 C 
ATOM     10  C   UNL     1      51.544  33.462  84.676  1.00  0.00    -0.006 C 
ATOM     11  C   UNL     1      53.368  32.058  83.739  1.00  0.00    -0.027 C 
ATOM     12  C   UNL     1      53.432  35.066  81.635  1.00  0.00     0.008 C 
ATOM     13  C   UNL     1      53.481  32.633  78.837  1.00  0.00     0.008 C 
ATOM     14  C   UNL     1      52.338  34.718  85.147  1.00  0.00     0.017 C 
ATOM     15  C   UNL     1      51.417  32.337  85.847  1.00  0.00    -0.020 C 
ATOM     16  C   UNL     1      53.911  31.879  85.120  1.00  0.00     0.032 C 
ATOM     17  C   UNL     1      52.804  31.570  86.162  1.00  0.00     0.006 C 
ATOM     18  C   UNL     1      50.758  32.939  87.138  1.00  0.00     0.008 C 
ATOM     19  C   UNL     1      50.429  31.214  85.366  1.00  0.00     0.012 C 
ATOM     20  C   UNL     1      53.303  31.600  87.684  1.00  0.00    -0.025 C 
ATOM     21  C   UNL     1      51.675  33.539  88.224  1.00  0.00     0.005 C 
ATOM     22  C   UNL     1      53.154  33.070  88.215  1.00  0.00     0.003 C 
ATOM     23  C   UNL     1      54.798  31.136  87.791  1.00  0.00     0.010 C 
ATOM     24  C   UNL     1      52.459  30.564  88.504  1.00  0.00     0.012 C 
ATOM     25  C   UNL     1      53.945  33.455  89.545  1.00  0.00    -0.006 C 
ATOM     26  C   UNL     1      55.447  31.420  89.146  1.00  0.00     0.033 C 
ATOM     27  C   UNL     1      55.408  32.917  89.450  1.00  0.00     0.120 C 
ATOM     28  C   UNL     1      54.025  35.001  89.654  1.00  0.00     0.014 C 
ATOM     29  C   UNL     1      53.264  32.950  90.851  1.00  0.00     0.014 C 
ENDROOT
BRANCH   1  30
ATOM     30  C   UNL     1      49.378  32.462  81.801  1.00  0.00     0.048 C 
ATOM     31  O   UNL     1      49.686  31.241  81.878  1.00  0.00    -0.550 OA
ATOM     32  O   UNL     1      48.031  32.798  81.698  1.00  0.00    -0.550 OA
ENDBRANCH   1  30
BRANCH  27  33
ATOM     33  O   UNL     1      56.124  33.152  90.640  1.00  0.00    -0.393 OA
ATOM     34  H   UNL     1      57.049  32.817  90.504  1.00  0.00     0.210 HD
ENDBRANCH  27  33
TORSDOF 2
ENDMDL
MODEL 6
REMARK VINA RESULT:    -5.563     11.674     15.440
REMARK INTER + INTRA:          -6.363
REMARK INTER:                  -6.082
REMARK INTRA:                  -0.281
REMARK UNBOUND:                -0.311
REMARK SMILES C[C@H]1[C@H]2C3=CC[C@H]4[C@@]5(C)CC[C@H](O)C(C)(C)[C@@H]5CC[C@@]4(C)[C@]3(C)CC[C@@]2(C(=O)[O-])CC[C@@H]1C
REMARK SMILES IDX 26 1 30 2 25 3 3 4 31 5 24 6 4 7 2 8 32 9 22 10 5 11 1 12
REMARK SMILES IDX 33 13 23 14 20 15 6 16 7 17 19 18 21 19 8 20 18 21 17 22
REMARK SMILES IDX 10 23 9 24 14 25 11 26 12 27 15 28 16 29 27 30 28 31 29 32
REMARK SMILES IDX 13 33
REMARK H PARENT 13 34
REMARK Flexibility Score: inf
ROOT
ATOM      1  C   UNL     1      50.872  32.172  87.889  1.00  0.00     0.017 C 
ATOM      2  C   UNL     1      51.557  33.156  86.891  1.00  0.00     0.014 C 
ATOM      3  C   UNL     1      50.820  30.776  87.231  1.00  0.00     0.014 C 
ATOM      4  C   UNL     1      49.410  32.647  88.255  1.00  0.00     0.030 C 
ATOM      5  C   UNL     1      51.146  34.601  87.163  1.00  0.00     0.004 C 
ATOM      6  C   UNL     1      50.214  29.732  88.168  1.00  0.00     0.013 C 
ATOM      7  C   UNL     1      48.453  31.531  88.721  1.00  0.00    -0.063 C 
ATOM      8  C   UNL     1      48.748  33.595  87.191  1.00  0.00    -0.003 C 
ATOM      9  C   UNL     1      49.657  34.819  86.821  1.00  0.00    -0.011 C 
ATOM     10  C   UNL     1      48.719  30.015  88.576  1.00  0.00    -0.006 C 
ATOM     11  C   UNL     1      47.328  31.922  89.353  1.00  0.00    -0.027 C 
ATOM     12  C   UNL     1      48.250  32.870  85.928  1.00  0.00     0.008 C 
ATOM     13  C   UNL     1      49.157  36.110  87.486  1.00  0.00     0.008 C 
ATOM     14  C   UNL     1      47.873  29.491  87.376  1.00  0.00     0.017 C 
ATOM     15  C   UNL     1      48.320  29.285  89.976  1.00  0.00    -0.020 C 
ATOM     16  C   UNL     1      46.283  30.952  89.798  1.00  0.00     0.032 C 
ATOM     17  C   UNL     1      46.880  29.736  90.555  1.00  0.00     0.006 C 
ATOM     18  C   UNL     1      48.458  27.726  89.858  1.00  0.00     0.008 C 
ATOM     19  C   UNL     1      49.355  29.707  91.081  1.00  0.00     0.012 C 
ATOM     20  C   UNL     1      45.832  28.560  90.847  1.00  0.00    -0.025 C 
ATOM     21  C   UNL     1      47.226  26.906  89.423  1.00  0.00     0.005 C 
ATOM     22  C   UNL     1      45.843  27.583  89.617  1.00  0.00     0.003 C 
ATOM     23  C   UNL     1      44.390  29.138  91.064  1.00  0.00     0.010 C 
ATOM     24  C   UNL     1      46.234  27.858  92.189  1.00  0.00     0.012 C 
ATOM     25  C   UNL     1      44.620  26.570  89.472  1.00  0.00    -0.006 C 
ATOM     26  C   UNL     1      43.282  28.084  91.046  1.00  0.00     0.033 C 
ATOM     27  C   UNL     1      43.281  27.339  89.711  1.00  0.00     0.120 C 
ATOM     28  C   UNL     1      44.588  26.024  88.020  1.00  0.00     0.014 C 
ATOM     29  C   UNL     1      44.712  25.333  90.412  1.00  0.00     0.014 C 
ENDROOT
BRANCH   1  30
ATOM     30  C   UNL     1      51.773  32.096  89.126  1.00  0.00     0.048 C 
ATOM     31  O   UNL     1      51.348  32.384  90.278  1.00  0.00    -0.550 OA
ATOM     32  O   UNL     1      53.115  31.755  88.982  1.00  0.00    -0.550 OA
ENDBRANCH   1  30
BRANCH  27  33
ATOM     33  O   UNL     1      42.173  26.469  89.685  1.00  0.00    -0.393 OA
ATOM     34  H   UNL     1      41.742  26.507  90.578  1.00  0.00     0.210 HD
ENDBRANCH  27  33
TORSDOF 2
ENDMDL
MODEL 7
REMARK VINA RESULT:    -5.539      1.957      8.009
REMARK INTER + INTRA:          -6.336
REMARK INTER:                  -6.058
REMARK INTRA:                  -0.278
REMARK UNBOUND:                -0.311
REMARK SMILES C[C@H]1[C@H]2C3=CC[C@H]4[C@@]5(C)CC[C@H](O)C(C)(C)[C@@H]5CC[C@@]4(C)[C@]3(C)CC[C@@]2(C(=O)[O-])CC[C@@H]1C
REMARK SMILES IDX 26 1 30 2 25 3 3 4 31 5 24 6 4 7 2 8 32 9 22 10 5 11 1 12
REMARK SMILES IDX 33 13 23 14 20 15 6 16 7 17 19 18 21 19 8 20 18 21 17 22
REMARK SMILES IDX 10 23 9 24 14 25 11 26 12 27 15 28 16 29 27 30 28 31 29 32
REMARK SMILES IDX 13 33
REMARK H PARENT 13 34
REMARK Flexibility Score: inf
ROOT
ATOM      1  C   UNL     1      44.322  21.801  76.223  1.00  0.00     0.017 C 
ATOM      2  C   UNL     1      45.793  21.415  75.877  1.00  0.00     0.014 C 
ATOM      3  C   UNL     1      44.326  23.215  76.844  1.00  0.00     0.014 C 
ATOM      4  C   UNL     1      43.678  20.774  77.236  1.00  0.00     0.030 C 
ATOM      5  C   UNL     1      45.974  19.900  75.823  1.00  0.00     0.004 C 
ATOM      6  C   UNL     1      42.911  23.699  77.160  1.00  0.00     0.013 C 
ATOM      7  C   UNL     1      42.514  21.325  78.084  1.00  0.00    -0.063 C 
ATOM      8  C   UNL     1      44.719  19.974  78.100  1.00  0.00    -0.003 C 
ATOM      9  C   UNL     1      45.826  19.283  77.230  1.00  0.00    -0.011 C 
ATOM     10  C   UNL     1      42.147  22.821  78.222  1.00  0.00    -0.006 C 
ATOM     11  C   UNL     1      41.731  20.418  78.701  1.00  0.00    -0.027 C 
ATOM     12  C   UNL     1      45.342  20.790  79.247  1.00  0.00     0.008 C 
ATOM     13  C   UNL     1      45.581  17.772  77.108  1.00  0.00     0.008 C 
ATOM     14  C   UNL     1      42.672  23.320  79.602  1.00  0.00     0.017 C 
ATOM     15  C   UNL     1      40.531  22.969  78.087  1.00  0.00    -0.020 C 
ATOM     16  C   UNL     1      40.609  20.815  79.606  1.00  0.00     0.032 C 
ATOM     17  C   UNL     1      39.705  21.915  78.990  1.00  0.00     0.006 C 
ATOM     18  C   UNL     1      40.079  24.453  78.332  1.00  0.00     0.008 C 
ATOM     19  C   UNL     1      40.115  22.652  76.604  1.00  0.00     0.012 C 
ATOM     20  C   UNL     1      38.634  22.535  80.007  1.00  0.00    -0.025 C 
ATOM     21  C   UNL     1      39.701  24.882  79.765  1.00  0.00     0.005 C 
ATOM     22  C   UNL     1      39.311  23.745  80.746  1.00  0.00     0.003 C 
ATOM     23  C   UNL     1      38.165  21.460  81.049  1.00  0.00     0.010 C 
ATOM     24  C   UNL     1      37.360  22.949  79.195  1.00  0.00     0.012 C 
ATOM     25  C   UNL     1      38.614  24.275  82.078  1.00  0.00    -0.006 C 
ATOM     26  C   UNL     1      37.385  22.034  82.233  1.00  0.00     0.033 C 
ATOM     27  C   UNL     1      38.236  23.059  82.983  1.00  0.00     0.120 C 
ATOM     28  C   UNL     1      39.631  25.141  82.868  1.00  0.00     0.014 C 
ATOM     29  C   UNL     1      37.367  25.171  81.824  1.00  0.00     0.014 C 
ENDROOT
BRANCH   1  30
ATOM     30  C   UNL     1      43.553  21.852  74.898  1.00  0.00     0.048 C 
ATOM     31  O   UNL     1      42.527  21.147  74.696  1.00  0.00    -0.550 OA
ATOM     32  O   UNL     1      44.021  22.652  73.859  1.00  0.00    -0.550 OA
ENDBRANCH   1  30
BRANCH  27  33
ATOM     33  O   UNL     1      37.534  23.468  84.134  1.00  0.00    -0.393 OA
ATOM     34  H   UNL     1      37.936  23.000  84.911  1.00  0.00     0.210 HD
ENDBRANCH  27  33
TORSDOF 2
ENDMDL
MODEL 8
REMARK VINA RESULT:    -5.531     12.778     15.203
REMARK INTER + INTRA:          -6.327
REMARK INTER:                  -6.027
REMARK INTRA:                  -0.301
REMARK UNBOUND:                -0.311
REMARK SMILES C[C@H]1[C@H]2C3=CC[C@H]4[C@@]5(C)CC[C@H](O)C(C)(C)[C@@H]5CC[C@@]4(C)[C@]3(C)CC[C@@]2(C(=O)[O-])CC[C@@H]1C
REMARK SMILES IDX 26 1 30 2 25 3 3 4 31 5 24 6 4 7 2 8 32 9 22 10 5 11 1 12
REMARK SMILES IDX 33 13 23 14 20 15 6 16 7 17 19 18 21 19 8 20 18 21 17 22
REMARK SMILES IDX 10 23 9 24 14 25 11 26 12 27 15 28 16 29 27 30 28 31 29 32
REMARK SMILES IDX 13 33
REMARK H PARENT 13 34
REMARK Flexibility Score: inf
ROOT
ATOM      1  C   UNL     1      47.445  28.035  89.893  1.00  0.00     0.017 C 
ATOM      2  C   UNL     1      47.398  26.603  90.508  1.00  0.00     0.014 C 
ATOM      3  C   UNL     1      47.337  27.906  88.358  1.00  0.00     0.014 C 
ATOM      4  C   UNL     1      48.783  28.784  90.274  1.00  0.00     0.030 C 
ATOM      5  C   UNL     1      48.064  26.563  91.881  1.00  0.00     0.004 C 
ATOM      6  C   UNL     1      47.316  29.273  87.675  1.00  0.00     0.013 C 
ATOM      7  C   UNL     1      49.214  29.901  89.303  1.00  0.00    -0.063 C 
ATOM      8  C   UNL     1      49.975  27.832  90.654  1.00  0.00    -0.003 C 
ATOM      9  C   UNL     1      49.586  26.784  91.756  1.00  0.00    -0.011 C 
ATOM     10  C   UNL     1      48.621  30.128  87.893  1.00  0.00    -0.006 C 
ATOM     11  C   UNL     1      50.138  30.773  89.752  1.00  0.00    -0.027 C 
ATOM     12  C   UNL     1      50.642  27.148  89.448  1.00  0.00     0.008 C 
ATOM     13  C   UNL     1      50.167  27.167  93.125  1.00  0.00     0.008 C 
ATOM     14  C   UNL     1      49.637  29.575  86.849  1.00  0.00     0.017 C 
ATOM     15  C   UNL     1      48.346  31.722  87.701  1.00  0.00    -0.020 C 
ATOM     16  C   UNL     1      50.694  31.862  88.894  1.00  0.00     0.032 C 
ATOM     17  C   UNL     1      49.590  32.653  88.143  1.00  0.00     0.006 C 
ATOM     18  C   UNL     1      47.848  32.037  86.245  1.00  0.00     0.008 C 
ATOM     19  C   UNL     1      47.160  32.149  88.641  1.00  0.00     0.012 C 
ATOM     20  C   UNL     1      50.143  33.673  87.039  1.00  0.00    -0.025 C 
ATOM     21  C   UNL     1      48.895  32.389  85.168  1.00  0.00     0.005 C 
ATOM     22  C   UNL     1      50.270  32.895  85.680  1.00  0.00     0.003 C 
ATOM     23  C   UNL     1      51.538  34.252  87.462  1.00  0.00     0.010 C 
ATOM     24  C   UNL     1      49.164  34.894  86.956  1.00  0.00     0.012 C 
ATOM     25  C   UNL     1      51.164  33.555  84.537  1.00  0.00    -0.006 C 
ATOM     26  C   UNL     1      52.276  34.989  86.343  1.00  0.00     0.033 C 
ATOM     27  C   UNL     1      52.508  34.055  85.156  1.00  0.00     0.120 C 
ATOM     28  C   UNL     1      51.514  32.471  83.483  1.00  0.00     0.014 C 
ATOM     29  C   UNL     1      50.456  34.709  83.770  1.00  0.00     0.014 C 
ENDROOT
BRANCH   1  30
ATOM     30  C   UNL     1      46.209  28.781  90.408  1.00  0.00     0.048 C 
ATOM     31  O   UNL     1      46.300  29.727  91.237  1.00  0.00    -0.550 OA
ATOM     32  O   UNL     1      44.940  28.376  90.003  1.00  0.00    -0.550 OA
ENDBRANCH   1  30
BRANCH  27  33
ATOM     33  O   UNL     1      53.297  34.729  84.203  1.00  0.00    -0.393 OA
ATOM     34  H   UNL     1      53.846  35.398  84.689  1.00  0.00     0.210 HD
ENDBRANCH  27  33
TORSDOF 2
ENDMDL
MODEL 9
REMARK VINA RESULT:    -5.528      2.357      7.653
REMARK INTER + INTRA:          -6.324
REMARK INTER:                  -6.017
REMARK INTRA:                  -0.308
REMARK UNBOUND:                -0.311
REMARK SMILES C[C@H]1[C@H]2C3=CC[C@H]4[C@@]5(C)CC[C@H](O)C(C)(C)[C@@H]5CC[C@@]4(C)[C@]3(C)CC[C@@]2(C(=O)[O-])CC[C@@H]1C
REMARK SMILES IDX 26 1 30 2 25 3 3 4 31 5 24 6 4 7 2 8 32 9 22 10 5 11 1 12
REMARK SMILES IDX 33 13 23 14 20 15 6 16 7 17 19 18 21 19 8 20 18 21 17 22
REMARK SMILES IDX 10 23 9 24 14 25 11 26 12 27 15 28 16 29 27 30 28 31 29 32
REMARK SMILES IDX 13 33
REMARK H PARENT 13 34
REMARK Flexibility Score: inf
ROOT
ATOM      1  C   UNL     1      47.106  21.587  77.615  1.00  0.00     0.017 C 
ATOM      2  C   UNL     1      48.251  20.805  76.902  1.00  0.00     0.014 C 
ATOM      3  C   UNL     1      46.632  20.753  78.826  1.00  0.00     0.014 C 
ATOM      4  C   UNL     1      45.892  21.850  76.639  1.00  0.00     0.030 C 
ATOM      5  C   UNL     1      48.378  21.214  75.437  1.00  0.00     0.004 C 
ATOM      6  C   UNL     1      45.545  21.476  79.620  1.00  0.00     0.013 C 
ATOM      7  C   UNL     1      44.527  22.062  77.325  1.00  0.00    -0.063 C 
ATOM      8  C   UNL     1      45.802  20.851  75.429  1.00  0.00    -0.003 C 
ATOM      9  C   UNL     1      47.149  20.743  74.631  1.00  0.00    -0.011 C 
ATOM     10  C   UNL     1      44.223  21.752  78.809  1.00  0.00    -0.006 C 
ATOM     11  C   UNL     1      43.551  22.613  76.577  1.00  0.00    -0.027 C 
ATOM     12  C   UNL     1      45.263  19.459  75.802  1.00  0.00     0.008 C 
ATOM     13  C   UNL     1      47.077  21.510  73.302  1.00  0.00     0.008 C 
ATOM     14  C   UNL     1      43.433  20.410  78.868  1.00  0.00     0.017 C 
ATOM     15  C   UNL     1      43.374  22.995  79.431  1.00  0.00    -0.020 C 
ATOM     16  C   UNL     1      42.163  22.813  77.094  1.00  0.00     0.032 C 
ATOM     17  C   UNL     1      42.139  23.467  78.501  1.00  0.00     0.006 C 
ATOM     18  C   UNL     1      42.932  22.693  80.907  1.00  0.00     0.008 C 
ATOM     19  C   UNL     1      44.314  24.251  79.532  1.00  0.00     0.012 C 
ATOM     20  C   UNL     1      40.696  23.489  79.195  1.00  0.00    -0.025 C 
ATOM     21  C   UNL     1      41.563  22.025  81.146  1.00  0.00     0.005 C 
ATOM     22  C   UNL     1      40.523  22.153  80.001  1.00  0.00     0.003 C 
ATOM     23  C   UNL     1      39.561  23.622  78.118  1.00  0.00     0.010 C 
ATOM     24  C   UNL     1      40.598  24.766  80.098  1.00  0.00     0.012 C 
ATOM     25  C   UNL     1      39.046  21.747  80.443  1.00  0.00    -0.006 C 
ATOM     26  C   UNL     1      38.155  23.347  78.653  1.00  0.00     0.033 C 
ATOM     27  C   UNL     1      38.075  21.936  79.234  1.00  0.00     0.120 C 
ATOM     28  C   UNL     1      39.029  20.242  80.820  1.00  0.00     0.014 C 
ATOM     29  C   UNL     1      38.524  22.524  81.686  1.00  0.00     0.014 C 
ENDROOT
BRANCH   1  30
ATOM     30  C   UNL     1      47.715  22.894  78.132  1.00  0.00     0.048 C 
ATOM     31  O   UNL     1      47.324  24.020  77.719  1.00  0.00    -0.550 OA
ATOM     32  O   UNL     1      48.770  22.853  79.040  1.00  0.00    -0.550 OA
ENDBRANCH   1  30
BRANCH  27  33
ATOM     33  O   UNL     1      36.739  21.677  79.599  1.00  0.00    -0.393 OA
ATOM     34  H   UNL     1      36.750  21.261  80.500  1.00  0.00     0.210 HD
ENDBRANCH  27  33
TORSDOF 2
ENDMDL
