MODEL 1
REMARK VINA RESULT:    -4.259      0.000      0.000
REMARK INTER + INTRA:          -5.626
REMARK INTER:                  -5.255
REMARK INTRA:                  -0.371
REMARK UNBOUND:                -0.371
REMARK SMILES COc1cc(-c2oc3cc(O)cc(O)c3c(=O)c2O)ccc1O
REMARK SMILES IDX 6 1 18 2 16 3 17 4 15 5 13 6 12 7 10 8 9 9 8 10 7 11 5 12
REMARK SMILES IDX 3 13 22 14 4 15 21 16 20 17 2 18 1 19 23 20 19 22 14 24
REMARK SMILES IDX 11 26
REMARK H PARENT 23 21 19 23 14 25 11 27
REMARK Flexibility Score: inf
ROOT
ATOM      1  C   UNL     1      18.668  34.565  43.517  1.00  0.00     0.180 A 
ATOM      2  C   UNL     1      19.376  33.350  43.423  1.00  0.00     0.208 A 
ATOM      3  C   UNL     1      20.608  33.230  44.086  1.00  0.00     0.238 A 
ATOM      4  O   UNL     1      21.255  32.152  44.001  1.00  0.00    -0.285 OA
ATOM      5  C   UNL     1      21.099  34.312  44.844  1.00  0.00     0.111 A 
ATOM      6  C   UNL     1      22.328  34.272  45.545  1.00  0.00     0.134 A 
ATOM      7  C   UNL     1      22.745  35.388  46.286  1.00  0.00     0.093 A 
ATOM      8  C   UNL     1      21.955  36.542  46.339  1.00  0.00     0.123 A 
ATOM      9  C   UNL     1      20.744  36.588  45.649  1.00  0.00     0.094 A 
ATOM     10  C   UNL     1      20.311  35.486  44.904  1.00  0.00     0.146 A 
ATOM     11  O   UNL     1      19.156  35.559  44.254  1.00  0.00    -0.452 OA
ENDROOT
BRANCH   1  12
ATOM     12  C   UNL     1      17.373  34.775  42.830  1.00  0.00     0.025 A 
ATOM     13  C   UNL     1      16.071  35.267  40.818  1.00  0.00     0.161 A 
ATOM     14  C   UNL     1      14.891  35.220  41.582  1.00  0.00     0.157 A 
ATOM     15  C   UNL     1      17.311  35.050  41.453  1.00  0.00     0.062 A 
ATOM     16  C   UNL     1      14.956  34.968  42.955  1.00  0.00     0.051 A 
ATOM     17  C   UNL     1      16.187  34.755  43.578  1.00  0.00     0.016 A 
BRANCH  13  18
ATOM     18  O   UNL     1      15.978  35.534  39.443  1.00  0.00    -0.493 OA
ATOM     19  C   UNL     1      16.578  36.649  38.792  1.00  0.00     0.278 C 
ENDBRANCH  13  18
BRANCH  14  20
ATOM     20  O   UNL     1      13.644  35.426  40.994  1.00  0.00    -0.504 OA
ATOM     21  H   UNL     1      12.938  34.700  40.955  1.00  0.00     0.293 HD
ENDBRANCH  14  20
ENDBRANCH   1  12
BRANCH   2  22
ATOM     22  O   UNL     1      18.842  32.276  42.705  1.00  0.00    -0.502 OA
ATOM     23  H   UNL     1      18.870  32.234  41.693  1.00  0.00     0.293 HD
ENDBRANCH   2  22
BRANCH   6  24
ATOM     24  O   UNL     1      23.137  33.134  45.511  1.00  0.00    -0.507 OA
ATOM     25  H   UNL     1      23.164  32.476  46.281  1.00  0.00     0.293 HD
ENDBRANCH   6  24
BRANCH   8  26
ATOM     26  O   UNL     1      22.369  37.650  47.075  1.00  0.00    -0.508 OA
ATOM     27  H   UNL     1      21.889  38.540  47.009  1.00  0.00     0.293 HD
ENDBRANCH   8  26
TORSDOF 6
ENDMDL
MODEL 2
REMARK VINA RESULT:    -4.190      3.598      4.003
REMARK INTER + INTRA:          -5.540
REMARK INTER:                  -5.162
REMARK INTRA:                  -0.378
REMARK UNBOUND:                -0.371
REMARK SMILES COc1cc(-c2oc3cc(O)cc(O)c3c(=O)c2O)ccc1O
REMARK SMILES IDX 6 1 18 2 16 3 17 4 15 5 13 6 12 7 10 8 9 9 8 10 7 11 5 12
REMARK SMILES IDX 3 13 22 14 4 15 21 16 20 17 2 18 1 19 23 20 19 22 14 24
REMARK SMILES IDX 11 26
REMARK H PARENT 23 21 19 23 14 25 11 27
REMARK Flexibility Score: inf
ROOT
ATOM      1  C   UNL     1      21.390  34.120  42.768  1.00  0.00     0.180 A 
ATOM      2  C   UNL     1      22.645  33.753  43.294  1.00  0.00     0.208 A 
ATOM      3  C   UNL     1      23.049  34.295  44.524  1.00  0.00     0.238 A 
ATOM      4  O   UNL     1      24.174  33.982  44.999  1.00  0.00    -0.285 OA
ATOM      5  C   UNL     1      22.190  35.173  45.215  1.00  0.00     0.111 A 
ATOM      6  C   UNL     1      22.519  35.759  46.461  1.00  0.00     0.134 A 
ATOM      7  C   UNL     1      21.605  36.617  47.091  1.00  0.00     0.093 A 
ATOM      8  C   UNL     1      20.369  36.898  46.499  1.00  0.00     0.123 A 
ATOM      9  C   UNL     1      20.040  36.324  45.271  1.00  0.00     0.094 A 
ATOM     10  C   UNL     1      20.938  35.468  44.626  1.00  0.00     0.146 A 
ATOM     11  O   UNL     1      20.600  34.940  43.456  1.00  0.00    -0.452 OA
ENDROOT
BRANCH   1  12
ATOM     12  C   UNL     1      20.903  33.607  41.468  1.00  0.00     0.025 A 
ATOM     13  C   UNL     1      20.513  33.881  39.067  1.00  0.00     0.161 A 
ATOM     14  C   UNL     1      19.912  32.609  39.030  1.00  0.00     0.157 A 
ATOM     15  C   UNL     1      21.000  34.376  40.295  1.00  0.00     0.062 A 
ATOM     16  C   UNL     1      19.797  31.855  40.201  1.00  0.00     0.051 A 
ATOM     17  C   UNL     1      20.281  32.352  41.413  1.00  0.00     0.016 A 
BRANCH  13  18
ATOM     18  O   UNL     1      20.605  34.622  37.878  1.00  0.00    -0.493 OA
ATOM     19  C   UNL     1      21.761  34.679  37.049  1.00  0.00     0.278 C 
ENDBRANCH  13  18
BRANCH  14  20
ATOM     20  O   UNL     1      19.420  32.080  37.838  1.00  0.00    -0.504 OA
ATOM     21  H   UNL     1      19.152  31.107  37.748  1.00  0.00     0.293 HD
ENDBRANCH  14  20
ENDBRANCH   1  12
BRANCH   2  22
ATOM     22  O   UNL     1      23.457  32.843  42.612  1.00  0.00    -0.502 OA
ATOM     23  H   UNL     1      24.137  32.262  43.087  1.00  0.00     0.293 HD
ENDBRANCH   2  22
BRANCH   6  24
ATOM     24  O   UNL     1      23.744  35.496  47.076  1.00  0.00    -0.507 OA
ATOM     25  H   UNL     1      24.151  34.568  47.080  1.00  0.00     0.293 HD
ENDBRANCH   6  24
BRANCH   8  26
ATOM     26  O   UNL     1      19.461  37.749  47.125  1.00  0.00    -0.508 OA
ATOM     27  H   UNL     1      19.762  38.441  47.801  1.00  0.00     0.293 HD
ENDBRANCH   8  26
TORSDOF 6
ENDMDL
MODEL 3
REMARK VINA RESULT:    -4.143      1.351      2.960
REMARK INTER + INTRA:          -5.483
REMARK INTER:                  -5.095
REMARK INTRA:                  -0.388
REMARK UNBOUND:                -0.371
REMARK SMILES COc1cc(-c2oc3cc(O)cc(O)c3c(=O)c2O)ccc1O
REMARK SMILES IDX 6 1 18 2 16 3 17 4 15 5 13 6 12 7 10 8 9 9 8 10 7 11 5 12
REMARK SMILES IDX 3 13 22 14 4 15 21 16 20 17 2 18 1 19 23 20 19 22 14 24
REMARK SMILES IDX 11 26
REMARK H PARENT 23 21 19 23 14 25 11 27
REMARK Flexibility Score: inf
ROOT
ATOM      1  C   UNL     1      19.255  34.918  44.419  1.00  0.00     0.180 A 
ATOM      2  C   UNL     1      19.785  36.108  44.954  1.00  0.00     0.208 A 
ATOM      3  C   UNL     1      21.045  36.071  45.573  1.00  0.00     0.238 A 
ATOM      4  O   UNL     1      21.525  37.128  46.065  1.00  0.00    -0.285 OA
ATOM      5  C   UNL     1      21.759  34.856  45.629  1.00  0.00     0.111 A 
ATOM      6  C   UNL     1      23.034  34.735  46.231  1.00  0.00     0.134 A 
ATOM      7  C   UNL     1      23.685  33.492  46.237  1.00  0.00     0.093 A 
ATOM      8  C   UNL     1      23.084  32.371  45.654  1.00  0.00     0.123 A 
ATOM      9  C   UNL     1      21.827  32.485  45.061  1.00  0.00     0.094 A 
ATOM     10  C   UNL     1      21.161  33.715  45.044  1.00  0.00     0.146 A 
ATOM     11  O   UNL     1      19.964  33.794  44.477  1.00  0.00    -0.452 OA
ENDROOT
BRANCH   1  12
ATOM     12  C   UNL     1      17.925  34.872  43.769  1.00  0.00     0.025 A 
ATOM     13  C   UNL     1      16.499  35.078  41.791  1.00  0.00     0.161 A 
ATOM     14  C   UNL     1      15.370  34.827  42.591  1.00  0.00     0.157 A 
ATOM     15  C   UNL     1      17.775  35.107  42.391  1.00  0.00     0.062 A 
ATOM     16  C   UNL     1      15.519  34.616  43.965  1.00  0.00     0.051 A 
ATOM     17  C   UNL     1      16.784  34.646  44.552  1.00  0.00     0.016 A 
BRANCH  13  18
ATOM     18  O   UNL     1      16.320  35.299  40.416  1.00  0.00    -0.493 OA
ATOM     19  C   UNL     1      17.373  35.564  39.496  1.00  0.00     0.278 C 
ENDBRANCH  13  18
BRANCH  14  20
ATOM     20  O   UNL     1      14.091  34.787  42.039  1.00  0.00    -0.504 OA
ATOM     21  H   UNL     1      13.369  35.449  42.299  1.00  0.00     0.293 HD
ENDBRANCH  14  20
ENDBRANCH   1  12
BRANCH   2  22
ATOM     22  O   UNL     1      19.079  37.309  44.842  1.00  0.00    -0.502 OA
ATOM     23  H   UNL     1      19.481  38.201  45.105  1.00  0.00     0.293 HD
ENDBRANCH   2  22
BRANCH   6  24
ATOM     24  O   UNL     1      23.658  35.835  46.820  1.00  0.00    -0.507 OA
ATOM     25  H   UNL     1      24.621  35.798  47.133  1.00  0.00     0.293 HD
ENDBRANCH   6  24
BRANCH   8  26
ATOM     26  O   UNL     1      23.731  31.137  45.660  1.00  0.00    -0.508 OA
ATOM     27  H   UNL     1      23.229  30.273  45.489  1.00  0.00     0.293 HD
ENDBRANCH   8  26
TORSDOF 6
ENDMDL
MODEL 4
REMARK VINA RESULT:    -4.106      1.745      7.209
REMARK INTER + INTRA:          -5.437
REMARK INTER:                  -5.037
REMARK INTRA:                  -0.400
REMARK UNBOUND:                -0.371
REMARK SMILES COc1cc(-c2oc3cc(O)cc(O)c3c(=O)c2O)ccc1O
REMARK SMILES IDX 6 1 18 2 16 3 17 4 15 5 13 6 12 7 10 8 9 9 8 10 7 11 5 12
REMARK SMILES IDX 3 13 22 14 4 15 21 16 20 17 2 18 1 19 23 20 19 22 14 24
REMARK SMILES IDX 11 26
REMARK H PARENT 23 21 19 23 14 25 11 27
REMARK Flexibility Score: inf
ROOT
ATOM      1  C   UNL     1      17.844  35.349  44.199  1.00  0.00     0.180 A 
ATOM      2  C   UNL     1      16.801  34.791  44.964  1.00  0.00     0.208 A 
ATOM      3  C   UNL     1      15.645  34.339  44.307  1.00  0.00     0.238 A 
ATOM      4  O   UNL     1      14.701  33.847  44.983  1.00  0.00    -0.285 OA
ATOM      5  C   UNL     1      15.559  34.432  42.903  1.00  0.00     0.111 A 
ATOM      6  C   UNL     1      14.433  33.996  42.165  1.00  0.00     0.134 A 
ATOM      7  C   UNL     1      14.428  34.115  40.767  1.00  0.00     0.093 A 
ATOM      8  C   UNL     1      15.528  34.660  40.095  1.00  0.00     0.123 A 
ATOM      9  C   UNL     1      16.639  35.092  40.818  1.00  0.00     0.094 A 
ATOM     10  C   UNL     1      16.664  34.984  42.212  1.00  0.00     0.146 A 
ATOM     11  O   UNL     1      17.733  35.407  42.874  1.00  0.00    -0.452 OA
ENDROOT
BRANCH   1  12
ATOM     12  C   UNL     1      19.084  35.866  44.820  1.00  0.00     0.025 A 
ATOM     13  C   UNL     1      21.345  35.528  45.693  1.00  0.00     0.161 A 
ATOM     14  C   UNL     1      21.400  36.887  46.050  1.00  0.00     0.157 A 
ATOM     15  C   UNL     1      20.177  35.023  45.084  1.00  0.00     0.062 A 
ATOM     16  C   UNL     1      20.304  37.720  45.806  1.00  0.00     0.051 A 
ATOM     17  C   UNL     1      19.152  37.214  45.203  1.00  0.00     0.016 A 
BRANCH  13  18
ATOM     18  O   UNL     1      22.456  34.712  45.960  1.00  0.00    -0.493 OA
ATOM     19  C   UNL     1      23.269  34.101  44.963  1.00  0.00     0.278 C 
ENDBRANCH  13  18
BRANCH  14  20
ATOM     20  O   UNL     1      22.536  37.428  46.651  1.00  0.00    -0.504 OA
ATOM     21  H   UNL     1      22.553  38.370  47.024  1.00  0.00     0.293 HD
ENDBRANCH  14  20
ENDBRANCH   1  12
BRANCH   2  22
ATOM     22  O   UNL     1      16.932  34.665  46.350  1.00  0.00    -0.502 OA
ATOM     23  H   UNL     1      17.583  35.227  46.886  1.00  0.00     0.293 HD
ENDBRANCH   2  22
BRANCH   6  24
ATOM     24  O   UNL     1      13.322  33.448  42.808  1.00  0.00    -0.507 OA
ATOM     25  H   UNL     1      12.662  32.854  42.320  1.00  0.00     0.293 HD
ENDBRANCH   6  24
BRANCH   8  26
ATOM     26  O   UNL     1      15.522  34.777  38.707  1.00  0.00    -0.508 OA
ATOM     27  H   UNL     1      16.027  34.126  38.117  1.00  0.00     0.293 HD
ENDBRANCH   8  26
TORSDOF 6
ENDMDL
MODEL 5
REMARK VINA RESULT:    -4.091      3.145      7.709
REMARK INTER + INTRA:          -5.418
REMARK INTER:                  -5.065
REMARK INTRA:                  -0.353
REMARK UNBOUND:                -0.371
REMARK SMILES COc1cc(-c2oc3cc(O)cc(O)c3c(=O)c2O)ccc1O
REMARK SMILES IDX 6 1 18 2 16 3 17 4 15 5 13 6 12 7 10 8 9 9 8 10 7 11 5 12
REMARK SMILES IDX 3 13 22 14 4 15 21 16 20 17 2 18 1 19 23 20 19 22 14 24
REMARK SMILES IDX 11 26
REMARK H PARENT 23 21 19 23 14 25 11 27
REMARK Flexibility Score: inf
ROOT
ATOM      1  C   UNL     1      23.199  33.917  45.021  1.00  0.00     0.180 A 
ATOM      2  C   UNL     1      23.388  34.896  46.016  1.00  0.00     0.208 A 
ATOM      3  C   UNL     1      22.371  35.837  46.244  1.00  0.00     0.238 A 
ATOM      4  O   UNL     1      22.534  36.725  47.125  1.00  0.00    -0.285 OA
ATOM      5  C   UNL     1      21.180  35.773  45.493  1.00  0.00     0.111 A 
ATOM      6  C   UNL     1      20.107  36.679  45.663  1.00  0.00     0.134 A 
ATOM      7  C   UNL     1      18.949  36.543  44.882  1.00  0.00     0.093 A 
ATOM      8  C   UNL     1      18.846  35.516  43.936  1.00  0.00     0.123 A 
ATOM      9  C   UNL     1      19.901  34.621  43.763  1.00  0.00     0.094 A 
ATOM     10  C   UNL     1      21.065  34.741  44.531  1.00  0.00     0.146 A 
ATOM     11  O   UNL     1      22.055  33.878  44.343  1.00  0.00    -0.452 OA
ENDROOT
BRANCH   1  12
ATOM     12  C   UNL     1      24.231  32.904  44.708  1.00  0.00     0.025 A 
ATOM     13  C   UNL     1      26.014  32.034  43.276  1.00  0.00     0.161 A 
ATOM     14  C   UNL     1      26.144  30.923  44.129  1.00  0.00     0.157 A 
ATOM     15  C   UNL     1      25.048  33.018  43.570  1.00  0.00     0.062 A 
ATOM     16  C   UNL     1      25.317  30.800  45.248  1.00  0.00     0.051 A 
ATOM     17  C   UNL     1      24.362  31.777  45.533  1.00  0.00     0.016 A 
BRANCH  13  18
ATOM     18  O   UNL     1      26.851  32.127  42.152  1.00  0.00    -0.493 OA
ATOM     19  C   UNL     1      26.403  32.425  40.833  1.00  0.00     0.278 C 
ENDBRANCH  13  18
BRANCH  14  20
ATOM     20  O   UNL     1      27.089  29.929  43.877  1.00  0.00    -0.504 OA
ATOM     21  H   UNL     1      26.845  28.946  43.854  1.00  0.00     0.293 HD
ENDBRANCH  14  20
ENDBRANCH   1  12
BRANCH   2  22
ATOM     22  O   UNL     1      24.558  34.908  46.780  1.00  0.00    -0.502 OA
ATOM     23  H   UNL     1      25.308  35.569  46.613  1.00  0.00     0.293 HD
ENDBRANCH   2  22
BRANCH   6  24
ATOM     24  O   UNL     1      20.181  37.711  46.599  1.00  0.00    -0.507 OA
ATOM     25  H   UNL     1      20.954  37.788  47.249  1.00  0.00     0.293 HD
ENDBRANCH   6  24
BRANCH   8  26
ATOM     26  O   UNL     1      17.696  35.381  43.161  1.00  0.00    -0.508 OA
ATOM     27  H   UNL     1      16.937  34.770  43.439  1.00  0.00     0.293 HD
ENDBRANCH   8  26
TORSDOF 6
ENDMDL
MODEL 6
REMARK VINA RESULT:    -4.029      0.749      2.008
REMARK INTER + INTRA:          -5.342
REMARK INTER:                  -4.977
REMARK INTRA:                  -0.365
REMARK UNBOUND:                -0.371
REMARK SMILES COc1cc(-c2oc3cc(O)cc(O)c3c(=O)c2O)ccc1O
REMARK SMILES IDX 6 1 18 2 16 3 17 4 15 5 13 6 12 7 10 8 9 9 8 10 7 11 5 12
REMARK SMILES IDX 3 13 22 14 4 15 21 16 20 17 2 18 1 19 23 20 19 22 14 24
REMARK SMILES IDX 11 26
REMARK H PARENT 23 21 19 23 14 25 11 27
REMARK Flexibility Score: inf
ROOT
ATOM      1  C   UNL     1      18.604  34.534  43.400  1.00  0.00     0.180 A 
ATOM      2  C   UNL     1      19.186  33.252  43.408  1.00  0.00     0.208 A 
ATOM      3  C   UNL     1      20.394  33.059  44.097  1.00  0.00     0.238 A 
ATOM      4  O   UNL     1      20.930  31.917  44.102  1.00  0.00    -0.285 OA
ATOM      5  C   UNL     1      20.988  34.140  44.780  1.00  0.00     0.111 A 
ATOM      6  C   UNL     1      22.201  34.029  45.500  1.00  0.00     0.134 A 
ATOM      7  C   UNL     1      22.722  35.151  46.163  1.00  0.00     0.093 A 
ATOM      8  C   UNL     1      22.053  36.379  46.118  1.00  0.00     0.123 A 
ATOM      9  C   UNL     1      20.858  36.494  45.408  1.00  0.00     0.094 A 
ATOM     10  C   UNL     1      20.322  35.388  44.740  1.00  0.00     0.146 A 
ATOM     11  O   UNL     1      19.185  35.527  44.069  1.00  0.00    -0.452 OA
ENDROOT
BRANCH   1  12
ATOM     12  C   UNL     1      17.343  34.821  42.680  1.00  0.00     0.025 A 
ATOM     13  C   UNL     1      14.909  35.073  42.639  1.00  0.00     0.161 A 
ATOM     14  C   UNL     1      14.968  35.320  41.256  1.00  0.00     0.157 A 
ATOM     15  C   UNL     1      16.104  34.816  43.344  1.00  0.00     0.062 A 
ATOM     16  C   UNL     1      16.199  35.304  40.593  1.00  0.00     0.051 A 
ATOM     17  C   UNL     1      17.377  35.049  41.297  1.00  0.00     0.016 A 
BRANCH  13  18
ATOM     18  O   UNL     1      13.659  35.084  43.277  1.00  0.00    -0.493 OA
ATOM     19  C   UNL     1      13.468  35.001  44.686  1.00  0.00     0.278 C 
ENDBRANCH  13  18
BRANCH  14  20
ATOM     20  O   UNL     1      13.812  35.581  40.521  1.00  0.00    -0.504 OA
ATOM     21  H   UNL     1      13.137  36.280  40.807  1.00  0.00     0.293 HD
ENDBRANCH  14  20
ENDBRANCH   1  12
BRANCH   2  22
ATOM     22  O   UNL     1      18.553  32.185  42.764  1.00  0.00    -0.502 OA
ATOM     23  H   UNL     1      18.046  31.469  43.271  1.00  0.00     0.293 HD
ENDBRANCH   2  22
BRANCH   6  24
ATOM     24  O   UNL     1      22.890  32.818  45.564  1.00  0.00    -0.507 OA
ATOM     25  H   UNL     1      22.413  31.927  45.477  1.00  0.00     0.293 HD
ENDBRANCH   6  24
BRANCH   8  26
ATOM     26  O   UNL     1      22.571  37.493  46.776  1.00  0.00    -0.508 OA
ATOM     27  H   UNL     1      22.814  38.339  46.275  1.00  0.00     0.293 HD
ENDBRANCH   8  26
TORSDOF 6
ENDMDL
MODEL 7
REMARK VINA RESULT:    -3.960      2.026      7.072
REMARK INTER + INTRA:          -5.257
REMARK INTER:                  -4.898
REMARK INTRA:                  -0.359
REMARK UNBOUND:                -0.371
REMARK SMILES COc1cc(-c2oc3cc(O)cc(O)c3c(=O)c2O)ccc1O
REMARK SMILES IDX 6 1 18 2 16 3 17 4 15 5 13 6 12 7 10 8 9 9 8 10 7 11 5 12
REMARK SMILES IDX 3 13 22 14 4 15 21 16 20 17 2 18 1 19 23 20 19 22 14 24
REMARK SMILES IDX 11 26
REMARK H PARENT 23 21 19 23 14 25 11 27
REMARK Flexibility Score: inf
ROOT
ATOM      1  C   UNL     1      17.937  35.159  44.310  1.00  0.00     0.180 A 
ATOM      2  C   UNL     1      17.877  34.731  42.969  1.00  0.00     0.208 A 
ATOM      3  C   UNL     1      16.677  34.187  42.483  1.00  0.00     0.238 A 
ATOM      4  O   UNL     1      16.616  33.791  41.288  1.00  0.00    -0.285 OA
ATOM      5  C   UNL     1      15.557  34.099  43.335  1.00  0.00     0.111 A 
ATOM      6  C   UNL     1      14.311  33.568  42.923  1.00  0.00     0.134 A 
ATOM      7  C   UNL     1      13.240  33.524  43.827  1.00  0.00     0.093 A 
ATOM      8  C   UNL     1      13.392  34.000  45.134  1.00  0.00     0.123 A 
ATOM      9  C   UNL     1      14.618  34.523  45.546  1.00  0.00     0.094 A 
ATOM     10  C   UNL     1      15.699  34.575  44.659  1.00  0.00     0.146 A 
ATOM     11  O   UNL     1      16.855  35.073  45.079  1.00  0.00    -0.452 OA
ENDROOT
BRANCH   1  12
ATOM     12  C   UNL     1      19.171  35.723  44.901  1.00  0.00     0.025 A 
ATOM     13  C   UNL     1      21.392  35.449  45.890  1.00  0.00     0.161 A 
ATOM     14  C   UNL     1      21.475  36.842  46.067  1.00  0.00     0.157 A 
ATOM     15  C   UNL     1      20.231  34.896  45.312  1.00  0.00     0.062 A 
ATOM     16  C   UNL     1      20.411  37.661  45.678  1.00  0.00     0.051 A 
ATOM     17  C   UNL     1      19.265  37.107  45.106  1.00  0.00     0.016 A 
BRANCH  13  18
ATOM     18  O   UNL     1      22.471  34.649  46.301  1.00  0.00    -0.493 OA
ATOM     19  C   UNL     1      23.578  34.300  45.477  1.00  0.00     0.278 C 
ENDBRANCH  13  18
BRANCH  14  20
ATOM     20  O   UNL     1      22.605  37.430  46.632  1.00  0.00    -0.504 OA
ATOM     21  H   UNL     1      22.550  38.256  47.217  1.00  0.00     0.293 HD
ENDBRANCH  14  20
ENDBRANCH   1  12
BRANCH   2  22
ATOM     22  O   UNL     1      18.988  34.874  42.132  1.00  0.00    -0.502 OA
ATOM     23  H   UNL     1      19.120  35.686  41.542  1.00  0.00     0.293 HD
ENDBRANCH   2  22
BRANCH   6  24
ATOM     24  O   UNL     1      14.130  33.087  41.625  1.00  0.00    -0.507 OA
ATOM     25  H   UNL     1      13.387  33.430  41.028  1.00  0.00     0.293 HD
ENDBRANCH   6  24
BRANCH   8  26
ATOM     26  O   UNL     1      12.328  33.956  46.033  1.00  0.00    -0.508 OA
ATOM     27  H   UNL     1      11.365  33.973  45.717  1.00  0.00     0.293 HD
ENDBRANCH   8  26
TORSDOF 6
ENDMDL
MODEL 8
REMARK VINA RESULT:    -3.943      1.729      3.782
REMARK INTER + INTRA:          -5.236
REMARK INTER:                  -4.851
REMARK INTRA:                  -0.386
REMARK UNBOUND:                -0.371
REMARK SMILES COc1cc(-c2oc3cc(O)cc(O)c3c(=O)c2O)ccc1O
REMARK SMILES IDX 6 1 18 2 16 3 17 4 15 5 13 6 12 7 10 8 9 9 8 10 7 11 5 12
REMARK SMILES IDX 3 13 22 14 4 15 21 16 20 17 2 18 1 19 23 20 19 22 14 24
REMARK SMILES IDX 11 26
REMARK H PARENT 23 21 19 23 14 25 11 27
REMARK Flexibility Score: inf
ROOT
ATOM      1  C   UNL     1      19.005  35.050  44.488  1.00  0.00     0.180 A 
ATOM      2  C   UNL     1      19.507  36.216  45.099  1.00  0.00     0.208 A 
ATOM      3  C   UNL     1      20.821  36.211  45.593  1.00  0.00     0.238 A 
ATOM      4  O   UNL     1      21.277  37.246  46.151  1.00  0.00    -0.285 OA
ATOM      5  C   UNL     1      21.615  35.055  45.452  1.00  0.00     0.111 A 
ATOM      6  C   UNL     1      22.948  34.969  45.918  1.00  0.00     0.134 A 
ATOM      7  C   UNL     1      23.677  33.785  45.731  1.00  0.00     0.093 A 
ATOM      8  C   UNL     1      23.097  32.687  45.086  1.00  0.00     0.123 A 
ATOM      9  C   UNL     1      21.782  32.766  44.626  1.00  0.00     0.094 A 
ATOM     10  C   UNL     1      21.039  33.937  44.803  1.00  0.00     0.146 A 
ATOM     11  O   UNL     1      19.789  33.983  44.360  1.00  0.00    -0.452 OA
ENDROOT
BRANCH   1  12
ATOM     12  C   UNL     1      17.624  34.970  43.961  1.00  0.00     0.025 A 
ATOM     13  C   UNL     1      15.230  34.579  44.278  1.00  0.00     0.161 A 
ATOM     14  C   UNL     1      15.025  34.778  42.901  1.00  0.00     0.157 A 
ATOM     15  C   UNL     1      16.537  34.669  44.799  1.00  0.00     0.062 A 
ATOM     16  C   UNL     1      16.110  35.055  42.065  1.00  0.00     0.051 A 
ATOM     17  C   UNL     1      17.401  35.144  42.587  1.00  0.00     0.016 A 
BRANCH  13  18
ATOM     18  O   UNL     1      14.123  34.290  45.093  1.00  0.00    -0.493 OA
ATOM     19  C   UNL     1      14.047  34.578  46.485  1.00  0.00     0.278 C 
ENDBRANCH  13  18
BRANCH  14  20
ATOM     20  O   UNL     1      13.749  34.700  42.344  1.00  0.00    -0.504 OA
ATOM     21  H   UNL     1      13.545  34.120  41.539  1.00  0.00     0.293 HD
ENDBRANCH  14  20
ENDBRANCH   1  12
BRANCH   2  22
ATOM     22  O   UNL     1      18.715  37.365  45.183  1.00  0.00    -0.502 OA
ATOM     23  H   UNL     1      18.751  37.991  45.979  1.00  0.00     0.293 HD
ENDBRANCH   2  22
BRANCH   6  24
ATOM     24  O   UNL     1      23.554  36.048  46.564  1.00  0.00    -0.507 OA
ATOM     25  H   UNL     1      23.879  36.861  46.054  1.00  0.00     0.293 HD
ENDBRANCH   6  24
BRANCH   8  26
ATOM     26  O   UNL     1      23.820  31.511  44.900  1.00  0.00    -0.508 OA
ATOM     27  H   UNL     1      23.446  30.609  45.170  1.00  0.00     0.293 HD
ENDBRANCH   8  26
TORSDOF 6
ENDMDL
MODEL 9
REMARK VINA RESULT:    -3.931      3.362      4.365
REMARK INTER + INTRA:          -5.220
REMARK INTER:                  -4.824
REMARK INTRA:                  -0.396
REMARK UNBOUND:                -0.371
REMARK SMILES COc1cc(-c2oc3cc(O)cc(O)c3c(=O)c2O)ccc1O
REMARK SMILES IDX 6 1 18 2 16 3 17 4 15 5 13 6 12 7 10 8 9 9 8 10 7 11 5 12
REMARK SMILES IDX 3 13 22 14 4 15 21 16 20 17 2 18 1 19 23 20 19 22 14 24
REMARK SMILES IDX 11 26
REMARK H PARENT 23 21 19 23 14 25 11 27
REMARK Flexibility Score: inf
ROOT
ATOM      1  C   UNL     1      21.586  33.941  42.695  1.00  0.00     0.180 A 
ATOM      2  C   UNL     1      21.079  34.757  43.726  1.00  0.00     0.208 A 
ATOM      3  C   UNL     1      21.877  34.998  44.856  1.00  0.00     0.238 A 
ATOM      4  O   UNL     1      21.430  35.718  45.789  1.00  0.00    -0.285 OA
ATOM      5  C   UNL     1      23.170  34.439  44.928  1.00  0.00     0.111 A 
ATOM      6  C   UNL     1      24.038  34.636  46.028  1.00  0.00     0.134 A 
ATOM      7  C   UNL     1      25.315  34.054  46.020  1.00  0.00     0.093 A 
ATOM      8  C   UNL     1      25.738  33.280  44.933  1.00  0.00     0.123 A 
ATOM      9  C   UNL     1      24.885  33.082  43.848  1.00  0.00     0.094 A 
ATOM     10  C   UNL     1      23.608  33.653  43.836  1.00  0.00     0.146 A 
ATOM     11  O   UNL     1      22.816  33.444  42.792  1.00  0.00    -0.452 OA
ENDROOT
BRANCH   1  12
ATOM     12  C   UNL     1      20.798  33.625  41.483  1.00  0.00     0.025 A 
ATOM     13  C   UNL     1      20.128  34.102  39.178  1.00  0.00     0.161 A 
ATOM     14  C   UNL     1      19.238  33.014  39.222  1.00  0.00     0.157 A 
ATOM     15  C   UNL     1      20.901  34.406  40.318  1.00  0.00     0.062 A 
ATOM     16  C   UNL     1      19.121  32.252  40.388  1.00  0.00     0.051 A 
ATOM     17  C   UNL     1      19.888  32.558  41.513  1.00  0.00     0.016 A 
BRANCH  13  18
ATOM     18  O   UNL     1      20.218  34.857  37.998  1.00  0.00    -0.493 OA
ATOM     19  C   UNL     1      21.213  34.678  36.996  1.00  0.00     0.278 C 
ENDBRANCH  13  18
BRANCH  14  20
ATOM     20  O   UNL     1      18.458  32.677  38.116  1.00  0.00    -0.504 OA
ATOM     21  H   UNL     1      18.055  31.755  38.000  1.00  0.00     0.293 HD
ENDBRANCH  14  20
ENDBRANCH   1  12
BRANCH   2  22
ATOM     22  O   UNL     1      19.813  35.338  43.608  1.00  0.00    -0.502 OA
ATOM     23  H   UNL     1      18.987  34.926  44.024  1.00  0.00     0.293 HD
ENDBRANCH   2  22
BRANCH   6  24
ATOM     24  O   UNL     1      23.645  35.404  47.125  1.00  0.00    -0.507 OA
ATOM     25  H   UNL     1      23.330  36.361  47.021  1.00  0.00     0.293 HD
ENDBRANCH   6  24
BRANCH   8  26
ATOM     26  O   UNL     1      27.005  32.702  44.926  1.00  0.00    -0.508 OA
ATOM     27  H   UNL     1      27.592  32.718  44.100  1.00  0.00     0.293 HD
ENDBRANCH   8  26
TORSDOF 6
ENDMDL
