MODEL 1
REMARK VINA RESULT:    -4.872      0.000      0.000
REMARK INTER + INTRA:          -9.630
REMARK INTER:                  -8.432
REMARK INTRA:                  -1.198
REMARK UNBOUND:                -1.198
REMARK SMILES CCCCCCCCCCCCCCO
REMARK SMILES IDX 8 1 7 2 6 3 5 4 4 5 3 6 2 7 1 8 9 9 10 10 11 11 12 12 13 13
REMARK SMILES IDX 14 14 15 15
REMARK H PARENT 15 16
REMARK Flexibility Score: inf
ROOT
ATOM      1  C   UNL     1      -6.147 -21.250 -10.627  1.00  0.00     0.000 C 
ENDROOT
BRANCH   1   2
ATOM      2  C   UNL     1      -5.110 -20.956  -9.529  1.00  0.00    -0.000 C 
BRANCH   2   3
ATOM      3  C   UNL     1      -4.112 -22.110  -9.328  1.00  0.00    -0.000 C 
BRANCH   3   4
ATOM      4  C   UNL     1      -2.695 -21.682  -8.898  1.00  0.00    -0.000 C 
BRANCH   4   5
ATOM      5  C   UNL     1      -1.563 -22.104  -9.857  1.00  0.00    -0.000 C 
BRANCH   5   6
ATOM      6  C   UNL     1      -1.832 -21.819 -11.345  1.00  0.00    -0.000 C 
BRANCH   6   7
ATOM      7  C   UNL     1      -1.564 -23.037 -12.241  1.00  0.00    -0.003 C 
ATOM      8  C   UNL     1      -2.563 -24.156 -11.959  1.00  0.00     0.004 C 
ENDBRANCH   6   7
ENDBRANCH   5   6
ENDBRANCH   4   5
ENDBRANCH   3   4
ENDBRANCH   2   3
ENDBRANCH   1   2
BRANCH   1   9
ATOM      9  C   UNL     1      -5.510 -21.381 -12.020  1.00  0.00     0.000 C 
BRANCH   9  10
ATOM     10  C   UNL     1      -4.906 -20.057 -12.518  1.00  0.00     0.000 C 
BRANCH  10  11
ATOM     11  C   UNL     1      -5.972 -19.089 -13.060  1.00  0.00     0.000 C 
BRANCH  11  12
ATOM     12  C   UNL     1      -6.197 -19.244 -14.575  1.00  0.00     0.002 C 
BRANCH  12  13
ATOM     13  C   UNL     1      -7.313 -18.328 -15.101  1.00  0.00     0.028 C 
BRANCH  13  14
ATOM     14  C   UNL     1      -7.745 -17.273 -14.080  1.00  0.00     0.156 C 
BRANCH  14  15
ATOM     15  O   UNL     1      -7.143 -16.049 -14.395  1.00  0.00    -0.396 OA
ATOM     16  H   UNL     1      -6.194 -16.252 -14.601  1.00  0.00     0.210 HD
ENDBRANCH  14  15
ENDBRANCH  13  14
ENDBRANCH  12  13
ENDBRANCH  11  12
ENDBRANCH  10  11
ENDBRANCH   9  10
ENDBRANCH   1   9
TORSDOF 13
ENDMDL
MODEL 2
REMARK VINA RESULT:    -4.689      3.084      6.893
REMARK INTER + INTRA:          -9.313
REMARK INTER:                  -8.379
REMARK INTRA:                  -0.934
REMARK UNBOUND:                -1.198
REMARK SMILES CCCCCCCCCCCCCCO
REMARK SMILES IDX 8 1 7 2 6 3 5 4 4 5 3 6 2 7 1 8 9 9 10 10 11 11 12 12 13 13
REMARK SMILES IDX 14 14 15 15
REMARK H PARENT 15 16
REMARK Flexibility Score: inf
ROOT
ATOM      1  C   UNL     1      -6.092 -21.041 -11.289  1.00  0.00     0.000 C 
ENDROOT
BRANCH   1   2
ATOM      2  C   UNL     1      -5.700 -19.598 -11.651  1.00  0.00    -0.000 C 
BRANCH   2   3
ATOM      3  C   UNL     1      -5.228 -19.456 -13.109  1.00  0.00    -0.000 C 
BRANCH   3   4
ATOM      4  C   UNL     1      -6.158 -20.090 -14.162  1.00  0.00    -0.000 C 
BRANCH   4   5
ATOM      5  C   UNL     1      -6.287 -19.304 -15.483  1.00  0.00    -0.000 C 
BRANCH   5   6
ATOM      6  C   UNL     1      -6.792 -17.858 -15.332  1.00  0.00    -0.000 C 
BRANCH   6   7
ATOM      7  C   UNL     1      -8.204 -17.782 -14.733  1.00  0.00    -0.003 C 
ATOM      8  C   UNL     1      -8.202 -17.003 -13.420  1.00  0.00     0.004 C 
ENDBRANCH   6   7
ENDBRANCH   5   6
ENDBRANCH   4   5
ENDBRANCH   3   4
ENDBRANCH   2   3
ENDBRANCH   1   2
BRANCH   1   9
ATOM      9  C   UNL     1      -5.529 -21.481  -9.928  1.00  0.00     0.000 C 
BRANCH   9  10
ATOM     10  C   UNL     1      -4.010 -21.713  -9.966  1.00  0.00     0.000 C 
BRANCH  10  11
ATOM     11  C   UNL     1      -3.534 -22.286 -11.312  1.00  0.00     0.000 C 
BRANCH  11  12
ATOM     12  C   UNL     1      -2.016 -22.133 -11.518  1.00  0.00     0.002 C 
BRANCH  12  13
ATOM     13  C   UNL     1      -1.305 -23.486 -11.681  1.00  0.00     0.028 C 
BRANCH  13  14
ATOM     14  C   UNL     1      -2.210 -24.562 -12.285  1.00  0.00     0.156 C 
BRANCH  14  15
ATOM     15  O   UNL     1      -1.464 -25.726 -12.507  1.00  0.00    -0.396 OA
ATOM     16  H   UNL     1      -0.699 -25.458 -13.080  1.00  0.00     0.210 HD
ENDBRANCH  14  15
ENDBRANCH  13  14
ENDBRANCH  12  13
ENDBRANCH  11  12
ENDBRANCH  10  11
ENDBRANCH   9  10
ENDBRANCH   1   9
TORSDOF 13
ENDMDL
MODEL 3
REMARK VINA RESULT:    -4.664      2.790      6.736
REMARK INTER + INTRA:          -9.271
REMARK INTER:                  -8.532
REMARK INTRA:                  -0.740
REMARK UNBOUND:                -1.198
REMARK SMILES CCCCCCCCCCCCCCO
REMARK SMILES IDX 8 1 7 2 6 3 5 4 4 5 3 6 2 7 1 8 9 9 10 10 11 11 12 12 13 13
REMARK SMILES IDX 14 14 15 15
REMARK H PARENT 15 16
REMARK Flexibility Score: inf
ROOT
ATOM      1  C   UNL     1      -6.101 -21.321 -10.538  1.00  0.00     0.000 C 
ENDROOT
BRANCH   1   2
ATOM      2  C   UNL     1      -5.644 -20.108 -11.368  1.00  0.00    -0.000 C 
BRANCH   2   3
ATOM      3  C   UNL     1      -5.675 -20.378 -12.884  1.00  0.00    -0.000 C 
BRANCH   3   4
ATOM      4  C   UNL     1      -5.690 -19.118 -13.772  1.00  0.00    -0.000 C 
BRANCH   4   5
ATOM      5  C   UNL     1      -6.715 -19.139 -14.924  1.00  0.00    -0.000 C 
BRANCH   5   6
ATOM      6  C   UNL     1      -7.267 -17.760 -15.328  1.00  0.00    -0.000 C 
BRANCH   6   7
ATOM      7  C   UNL     1      -7.382 -16.795 -14.139  1.00  0.00    -0.003 C 
ATOM      8  C   UNL     1      -8.693 -17.006 -13.386  1.00  0.00     0.004 C 
ENDBRANCH   6   7
ENDBRANCH   5   6
ENDBRANCH   4   5
ENDBRANCH   3   4
ENDBRANCH   2   3
ENDBRANCH   1   2
BRANCH   1   9
ATOM      9  C   UNL     1      -5.278 -21.497  -9.251  1.00  0.00     0.000 C 
BRANCH   9  10
ATOM     10  C   UNL     1      -3.765 -21.550  -9.522  1.00  0.00     0.000 C 
BRANCH  10  11
ATOM     11  C   UNL     1      -3.378 -22.678 -10.492  1.00  0.00     0.000 C 
BRANCH  11  12
ATOM     12  C   UNL     1      -2.701 -22.154 -11.772  1.00  0.00     0.002 C 
BRANCH  12  13
ATOM     13  C   UNL     1      -1.422 -22.930 -12.121  1.00  0.00     0.028 C 
BRANCH  13  14
ATOM     14  C   UNL     1      -0.147 -22.154 -11.784  1.00  0.00     0.156 C 
BRANCH  14  15
ATOM     15  O   UNL     1       0.728 -22.199 -12.876  1.00  0.00    -0.396 OA
ATOM     16  H   UNL     1       1.416 -22.875 -12.651  1.00  0.00     0.210 HD
ENDBRANCH  14  15
ENDBRANCH  13  14
ENDBRANCH  12  13
ENDBRANCH  11  12
ENDBRANCH  10  11
ENDBRANCH   9  10
ENDBRANCH   1   9
TORSDOF 13
ENDMDL
MODEL 4
REMARK VINA RESULT:    -4.524      3.319      7.783
REMARK INTER + INTRA:          -9.028
REMARK INTER:                  -8.613
REMARK INTRA:                  -0.415
REMARK UNBOUND:                -1.198
REMARK SMILES CCCCCCCCCCCCCCO
REMARK SMILES IDX 8 1 7 2 6 3 5 4 4 5 3 6 2 7 1 8 9 9 10 10 11 11 12 12 13 13
REMARK SMILES IDX 14 14 15 15
REMARK H PARENT 15 16
REMARK Flexibility Score: inf
ROOT
ATOM      1  C   UNL     1      -5.872 -19.443 -12.415  1.00  0.00     0.000 C 
ENDROOT
BRANCH   1   2
ATOM      2  C   UNL     1      -5.661 -20.024 -13.824  1.00  0.00    -0.000 C 
BRANCH   2   3
ATOM      3  C   UNL     1      -6.439 -19.256 -14.907  1.00  0.00    -0.000 C 
BRANCH   3   4
ATOM      4  C   UNL     1      -7.171 -17.992 -14.415  1.00  0.00    -0.000 C 
BRANCH   4   5
ATOM      5  C   UNL     1      -8.427 -17.604 -15.222  1.00  0.00    -0.000 C 
BRANCH   5   6
ATOM      6  C   UNL     1      -8.272 -17.698 -16.750  1.00  0.00    -0.000 C 
BRANCH   6   7
ATOM      7  C   UNL     1      -9.617 -17.835 -17.477  1.00  0.00    -0.003 C 
ATOM      8  C   UNL     1      -9.430 -17.790 -18.991  1.00  0.00     0.004 C 
ENDBRANCH   6   7
ENDBRANCH   5   6
ENDBRANCH   4   5
ENDBRANCH   3   4
ENDBRANCH   2   3
ENDBRANCH   1   2
BRANCH   1   9
ATOM      9  C   UNL     1      -5.142 -20.251 -11.329  1.00  0.00     0.000 C 
BRANCH   9  10
ATOM     10  C   UNL     1      -4.303 -21.400 -11.913  1.00  0.00     0.000 C 
BRANCH  10  11
ATOM     11  C   UNL     1      -3.448 -22.107 -10.848  1.00  0.00     0.000 C 
BRANCH  11  12
ATOM     12  C   UNL     1      -1.940 -22.009 -11.137  1.00  0.00     0.002 C 
BRANCH  12  13
ATOM     13  C   UNL     1      -1.402 -23.238 -11.885  1.00  0.00     0.028 C 
BRANCH  13  14
ATOM     14  C   UNL     1      -2.449 -24.343 -12.040  1.00  0.00     0.156 C 
BRANCH  14  15
ATOM     15  O   UNL     1      -1.863 -25.457 -12.653  1.00  0.00    -0.396 OA
ATOM     16  H   UNL     1      -1.665 -25.186 -13.586  1.00  0.00     0.210 HD
ENDBRANCH  14  15
ENDBRANCH  13  14
ENDBRANCH  12  13
ENDBRANCH  11  12
ENDBRANCH  10  11
ENDBRANCH   9  10
ENDBRANCH   1   9
TORSDOF 13
ENDMDL
MODEL 5
REMARK VINA RESULT:    -4.513      2.198      3.248
REMARK INTER + INTRA:          -9.010
REMARK INTER:                  -8.439
REMARK INTRA:                  -0.571
REMARK UNBOUND:                -1.198
REMARK SMILES CCCCCCCCCCCCCCO
REMARK SMILES IDX 8 1 7 2 6 3 5 4 4 5 3 6 2 7 1 8 9 9 10 10 11 11 12 12 13 13
REMARK SMILES IDX 14 14 15 15
REMARK H PARENT 15 16
REMARK Flexibility Score: inf
ROOT
ATOM      1  C   UNL     1      -5.917 -20.183 -13.678  1.00  0.00     0.000 C 
ENDROOT
BRANCH   1   2
ATOM      2  C   UNL     1      -5.934 -19.427 -12.337  1.00  0.00    -0.000 C 
BRANCH   2   3
ATOM      3  C   UNL     1      -5.152 -20.159 -11.231  1.00  0.00    -0.000 C 
BRANCH   3   4
ATOM      4  C   UNL     1      -4.625 -21.555 -11.616  1.00  0.00    -0.000 C 
BRANCH   4   5
ATOM      5  C   UNL     1      -3.386 -22.029 -10.830  1.00  0.00    -0.000 C 
BRANCH   5   6
ATOM      6  C   UNL     1      -2.075 -22.051 -11.636  1.00  0.00    -0.000 C 
BRANCH   6   7
ATOM      7  C   UNL     1      -1.456 -23.453 -11.726  1.00  0.00    -0.003 C 
ATOM      8  C   UNL     1      -2.472 -24.471 -12.236  1.00  0.00     0.004 C 
ENDBRANCH   6   7
ENDBRANCH   5   6
ENDBRANCH   4   5
ENDBRANCH   3   4
ENDBRANCH   2   3
ENDBRANCH   1   2
BRANCH   1   9
ATOM      9  C   UNL     1      -6.415 -19.319 -14.848  1.00  0.00     0.000 C 
BRANCH   9  10
ATOM     10  C   UNL     1      -6.840 -17.910 -14.401  1.00  0.00     0.000 C 
BRANCH  10  11
ATOM     11  C   UNL     1      -8.021 -17.362 -15.221  1.00  0.00     0.000 C 
BRANCH  11  12
ATOM     12  C   UNL     1      -8.018 -17.868 -16.674  1.00  0.00     0.002 C 
BRANCH  12  13
ATOM     13  C   UNL     1      -9.402 -17.767 -17.335  1.00  0.00     0.028 C 
BRANCH  13  14
ATOM     14  C   UNL     1      -9.336 -17.834 -18.862  1.00  0.00     0.156 C 
BRANCH  14  15
ATOM     15  O   UNL     1      -9.401 -16.538 -19.388  1.00  0.00    -0.396 OA
ATOM     16  H   UNL     1      -8.680 -16.478 -20.066  1.00  0.00     0.210 HD
ENDBRANCH  14  15
ENDBRANCH  13  14
ENDBRANCH  12  13
ENDBRANCH  11  12
ENDBRANCH  10  11
ENDBRANCH   9  10
ENDBRANCH   1   9
TORSDOF 13
ENDMDL
MODEL 6
REMARK VINA RESULT:    -4.506      1.378      2.498
REMARK INTER + INTRA:          -8.996
REMARK INTER:                  -8.541
REMARK INTRA:                  -0.455
REMARK UNBOUND:                -1.198
REMARK SMILES CCCCCCCCCCCCCCO
REMARK SMILES IDX 8 1 7 2 6 3 5 4 4 5 3 6 2 7 1 8 9 9 10 10 11 11 12 12 13 13
REMARK SMILES IDX 14 14 15 15
REMARK H PARENT 15 16
REMARK Flexibility Score: inf
ROOT
ATOM      1  C   UNL     1      -4.782 -21.680 -11.234  1.00  0.00     0.000 C 
ENDROOT
BRANCH   1   2
ATOM      2  C   UNL     1      -3.374 -22.076 -10.756  1.00  0.00    -0.000 C 
BRANCH   2   3
ATOM      3  C   UNL     1      -2.882 -23.394 -11.382  1.00  0.00    -0.000 C 
BRANCH   3   4
ATOM      4  C   UNL     1      -1.604 -23.275 -12.237  1.00  0.00    -0.000 C 
BRANCH   4   5
ATOM      5  C   UNL     1      -0.648 -22.134 -11.833  1.00  0.00    -0.000 C 
BRANCH   5   6
ATOM      6  C   UNL     1       0.178 -22.399 -10.561  1.00  0.00    -0.000 C 
BRANCH   6   7
ATOM      7  C   UNL     1       0.026 -21.289  -9.512  1.00  0.00    -0.003 C 
ATOM      8  C   UNL     1       1.378 -20.672  -9.164  1.00  0.00     0.004 C 
ENDBRANCH   6   7
ENDBRANCH   5   6
ENDBRANCH   4   5
ENDBRANCH   3   4
ENDBRANCH   2   3
ENDBRANCH   1   2
BRANCH   1   9
ATOM      9  C   UNL     1      -4.783 -20.371 -12.041  1.00  0.00     0.000 C 
BRANCH   9  10
ATOM     10  C   UNL     1      -5.929 -20.311 -13.065  1.00  0.00     0.000 C 
BRANCH  10  11
ATOM     11  C   UNL     1      -6.014 -18.950 -13.777  1.00  0.00     0.000 C 
BRANCH  11  12
ATOM     12  C   UNL     1      -6.352 -19.083 -15.273  1.00  0.00     0.002 C 
BRANCH  12  13
ATOM     13  C   UNL     1      -7.287 -17.969 -15.767  1.00  0.00     0.028 C 
BRANCH  13  14
ATOM     14  C   UNL     1      -7.894 -17.154 -14.622  1.00  0.00     0.156 C 
BRANCH  14  15
ATOM     15  O   UNL     1      -7.170 -15.967 -14.461  1.00  0.00    -0.396 OA
ATOM     16  H   UNL     1      -7.229 -15.487 -15.327  1.00  0.00     0.210 HD
ENDBRANCH  14  15
ENDBRANCH  13  14
ENDBRANCH  12  13
ENDBRANCH  11  12
ENDBRANCH  10  11
ENDBRANCH   9  10
ENDBRANCH   1   9
TORSDOF 13
ENDMDL
MODEL 7
REMARK VINA RESULT:    -4.438      3.857      7.695
REMARK INTER + INTRA:          -8.879
REMARK INTER:                  -8.173
REMARK INTRA:                  -0.706
REMARK UNBOUND:                -1.198
REMARK SMILES CCCCCCCCCCCCCCO
REMARK SMILES IDX 8 1 7 2 6 3 5 4 4 5 3 6 2 7 1 8 9 9 10 10 11 11 12 12 13 13
REMARK SMILES IDX 14 14 15 15
REMARK H PARENT 15 16
REMARK Flexibility Score: inf
ROOT
ATOM      1  C   UNL     1      -3.416 -23.126 -11.695  1.00  0.00     0.000 C 
ENDROOT
BRANCH   1   2
ATOM      2  C   UNL     1      -3.756 -21.753 -11.090  1.00  0.00    -0.000 C 
BRANCH   2   3
ATOM      3  C   UNL     1      -5.013 -21.121 -11.713  1.00  0.00    -0.000 C 
BRANCH   3   4
ATOM      4  C   UNL     1      -4.753 -19.900 -12.616  1.00  0.00    -0.000 C 
BRANCH   4   5
ATOM      5  C   UNL     1      -6.015 -19.232 -13.198  1.00  0.00    -0.000 C 
BRANCH   5   6
ATOM      6  C   UNL     1      -6.269 -19.514 -14.690  1.00  0.00    -0.000 C 
BRANCH   6   7
ATOM      7  C   UNL     1      -6.834 -18.297 -15.436  1.00  0.00    -0.003 C 
ATOM      8  C   UNL     1      -7.241 -17.195 -14.461  1.00  0.00     0.004 C 
ENDBRANCH   6   7
ENDBRANCH   5   6
ENDBRANCH   4   5
ENDBRANCH   3   4
ENDBRANCH   2   3
ENDBRANCH   1   2
BRANCH   1   9
ATOM      9  C   UNL     1      -1.902 -23.372 -11.789  1.00  0.00     0.000 C 
BRANCH   9  10
ATOM     10  C   UNL     1      -1.097 -22.064 -11.877  1.00  0.00     0.000 C 
BRANCH  10  11
ATOM     11  C   UNL     1      -0.140 -21.878 -10.687  1.00  0.00     0.000 C 
BRANCH  11  12
ATOM     12  C   UNL     1      -0.277 -22.994  -9.637  1.00  0.00     0.002 C 
BRANCH  12  13
ATOM     13  C   UNL     1       1.058 -23.698  -9.348  1.00  0.00     0.028 C 
BRANCH  13  14
ATOM     14  C   UNL     1       1.137 -25.096  -9.964  1.00  0.00     0.156 C 
BRANCH  14  15
ATOM     15  O   UNL     1       2.246 -25.167 -10.815  1.00  0.00    -0.396 OA
ATOM     16  H   UNL     1       2.164 -26.025 -11.306  1.00  0.00     0.210 HD
ENDBRANCH  14  15
ENDBRANCH  13  14
ENDBRANCH  12  13
ENDBRANCH  11  12
ENDBRANCH  10  11
ENDBRANCH   9  10
ENDBRANCH   1   9
TORSDOF 13
ENDMDL
MODEL 8
REMARK VINA RESULT:    -4.434      1.577      2.213
REMARK INTER + INTRA:          -8.873
REMARK INTER:                  -8.145
REMARK INTRA:                  -0.728
REMARK UNBOUND:                -1.198
REMARK SMILES CCCCCCCCCCCCCCO
REMARK SMILES IDX 8 1 7 2 6 3 5 4 4 5 3 6 2 7 1 8 9 9 10 10 11 11 12 12 13 13
REMARK SMILES IDX 14 14 15 15
REMARK H PARENT 15 16
REMARK Flexibility Score: inf
ROOT
ATOM      1  C   UNL     1      -5.599 -21.023 -11.969  1.00  0.00     0.000 C 
ENDROOT
BRANCH   1   2
ATOM      2  C   UNL     1      -5.080 -21.100 -10.523  1.00  0.00    -0.000 C 
BRANCH   2   3
ATOM      3  C   UNL     1      -3.750 -21.867 -10.407  1.00  0.00    -0.000 C 
BRANCH   3   4
ATOM      4  C   UNL     1      -3.516 -22.939 -11.490  1.00  0.00    -0.000 C 
BRANCH   4   5
ATOM      5  C   UNL     1      -2.038 -23.271 -11.776  1.00  0.00    -0.000 C 
BRANCH   5   6
ATOM      6  C   UNL     1      -1.081 -22.066 -11.733  1.00  0.00    -0.000 C 
BRANCH   6   7
ATOM      7  C   UNL     1      -0.047 -22.169 -10.604  1.00  0.00    -0.003 C 
ATOM      8  C   UNL     1       0.047 -23.598 -10.073  1.00  0.00     0.004 C 
ENDBRANCH   6   7
ENDBRANCH   5   6
ENDBRANCH   4   5
ENDBRANCH   3   4
ENDBRANCH   2   3
ENDBRANCH   1   2
BRANCH   1   9
ATOM      9  C   UNL     1      -5.051 -19.803 -12.728  1.00  0.00     0.000 C 
BRANCH   9  10
ATOM     10  C   UNL     1      -6.004 -19.322 -13.835  1.00  0.00     0.000 C 
BRANCH  10  11
ATOM     11  C   UNL     1      -6.876 -18.136 -13.389  1.00  0.00     0.000 C 
BRANCH  11  12
ATOM     12  C   UNL     1      -7.359 -17.277 -14.572  1.00  0.00     0.002 C 
BRANCH  12  13
ATOM     13  C   UNL     1      -7.319 -18.038 -15.906  1.00  0.00     0.028 C 
BRANCH  13  14
ATOM     14  C   UNL     1      -8.492 -17.686 -16.825  1.00  0.00     0.156 C 
BRANCH  14  15
ATOM     15  O   UNL     1      -9.672 -18.225 -16.299  1.00  0.00    -0.396 OA
ATOM     16  H   UNL     1      -9.501 -19.194 -16.176  1.00  0.00     0.210 HD
ENDBRANCH  14  15
ENDBRANCH  13  14
ENDBRANCH  12  13
ENDBRANCH  11  12
ENDBRANCH  10  11
ENDBRANCH   9  10
ENDBRANCH   1   9
TORSDOF 13
ENDMDL
MODEL 9
REMARK VINA RESULT:    -4.227      2.671      6.874
REMARK INTER + INTRA:          -8.514
REMARK INTER:                  -7.713
REMARK INTRA:                  -0.801
REMARK UNBOUND:                -1.198
REMARK SMILES CCCCCCCCCCCCCCO
REMARK SMILES IDX 8 1 7 2 6 3 5 4 4 5 3 6 2 7 1 8 9 9 10 10 11 11 12 12 13 13
REMARK SMILES IDX 14 14 15 15
REMARK H PARENT 15 16
REMARK Flexibility Score: inf
ROOT
ATOM      1  C   UNL     1      -3.794 -21.459 -11.600  1.00  0.00     0.000 C 
ENDROOT
BRANCH   1   2
ATOM      2  C   UNL     1      -5.017 -20.890 -10.861  1.00  0.00    -0.000 C 
BRANCH   2   3
ATOM      3  C   UNL     1      -5.856 -19.942 -11.738  1.00  0.00    -0.000 C 
BRANCH   3   4
ATOM      4  C   UNL     1      -5.215 -19.561 -13.087  1.00  0.00    -0.000 C 
BRANCH   4   5
ATOM      5  C   UNL     1      -6.207 -19.126 -14.185  1.00  0.00    -0.000 C 
BRANCH   5   6
ATOM      6  C   UNL     1      -6.898 -17.774 -13.937  1.00  0.00    -0.000 C 
BRANCH   6   7
ATOM      7  C   UNL     1      -8.124 -17.559 -14.837  1.00  0.00    -0.003 C 
ATOM      8  C   UNL     1      -7.770 -17.773 -16.306  1.00  0.00     0.004 C 
ENDBRANCH   6   7
ENDBRANCH   5   6
ENDBRANCH   4   5
ENDBRANCH   3   4
ENDBRANCH   2   3
ENDBRANCH   1   2
BRANCH   1   9
ATOM      9  C   UNL     1      -3.673 -22.984 -11.452  1.00  0.00     0.000 C 
BRANCH   9  10
ATOM     10  C   UNL     1      -2.218 -23.472 -11.549  1.00  0.00     0.000 C 
BRANCH  10  11
ATOM     11  C   UNL     1      -1.294 -22.443 -12.222  1.00  0.00     0.000 C 
BRANCH  11  12
ATOM     12  C   UNL     1      -0.025 -22.158 -11.398  1.00  0.00     0.002 C 
BRANCH  12  13
ATOM     13  C   UNL     1      -0.167 -22.588  -9.930  1.00  0.00     0.028 C 
BRANCH  13  14
ATOM     14  C   UNL     1      -0.291 -21.400  -8.973  1.00  0.00     0.156 C 
BRANCH  14  15
ATOM     15  O   UNL     1      -1.590 -20.882  -9.042  1.00  0.00    -0.396 OA
ATOM     16  H   UNL     1      -2.118 -21.367  -8.357  1.00  0.00     0.210 HD
ENDBRANCH  14  15
ENDBRANCH  13  14
ENDBRANCH  12  13
ENDBRANCH  11  12
ENDBRANCH  10  11
ENDBRANCH   9  10
ENDBRANCH   1   9
TORSDOF 13
ENDMDL
