MODEL 1
REMARK VINA RESULT:    -4.439      0.000      0.000
REMARK INTER + INTRA:          -5.781
REMARK INTER:                  -5.348
REMARK INTRA:                  -0.433
REMARK UNBOUND:                -0.433
REMARK SMILES O=c1c(O)c(-c2ccc(O)cc2O)oc2cc(O)cc(O)c12
REMARK SMILES IDX 5 1 3 2 2 3 1 4 22 5 20 6 19 7 17 8 16 9 15 10 14 11 6 12
REMARK SMILES IDX 8 13 7 14 9 15 11 16 12 17 10 18 13 20 4 22 21 24 18 26
REMARK H PARENT 10 19 13 21 4 23 21 25 18 27
REMARK Flexibility Score: inf
ROOT
ATOM      1  C   UNL     1       3.110  -0.879  -7.828  1.00  0.00     0.184 A 
ATOM      2  C   UNL     1       3.711   0.083  -8.654  1.00  0.00     0.208 A 
ATOM      3  C   UNL     1       4.977   0.580  -8.310  1.00  0.00     0.238 A 
ATOM      4  O   UNL     1       5.477   1.495  -9.014  1.00  0.00    -0.285 OA
ATOM      5  C   UNL     1       5.649   0.069  -7.172  1.00  0.00     0.111 A 
ATOM      6  C   UNL     1       6.955   0.468  -6.752  1.00  0.00     0.134 A 
ATOM      7  C   UNL     1       7.475  -0.029  -5.552  1.00  0.00     0.093 A 
ATOM      8  C   UNL     1       6.765  -0.959  -4.787  1.00  0.00     0.123 A 
ATOM      9  C   UNL     1       5.515  -1.396  -5.217  1.00  0.00     0.094 A 
ATOM     10  C   UNL     1       4.951  -0.890  -6.390  1.00  0.00     0.146 A 
ATOM     11  O   UNL     1       3.747  -1.318  -6.750  1.00  0.00    -0.451 OA
ENDROOT
BRANCH   1  12
ATOM     12  C   UNL     1       1.776  -1.438  -8.130  1.00  0.00     0.063 A 
ATOM     13  C   UNL     1       0.419  -2.994  -9.413  1.00  0.00     0.047 A 
ATOM     14  C   UNL     1       1.663  -2.439  -9.107  1.00  0.00     0.020 A 
ATOM     15  C   UNL     1      -0.727  -2.566  -8.737  1.00  0.00     0.119 A 
ATOM     16  C   UNL     1      -0.623  -1.586  -7.743  1.00  0.00     0.093 A 
ATOM     17  C   UNL     1       0.625  -1.027  -7.426  1.00  0.00     0.130 A 
BRANCH  15  18
ATOM     18  O   UNL     1      -1.962  -3.126  -9.056  1.00  0.00    -0.508 OA
ATOM     19  H   UNL     1      -2.827  -2.613  -8.922  1.00  0.00     0.293 HD
ENDBRANCH  15  18
BRANCH  17  20
ATOM     20  O   UNL     1       0.724  -0.086  -6.400  1.00  0.00    -0.507 OA
ATOM     21  H   UNL     1       0.717   0.909  -6.590  1.00  0.00     0.293 HD
ENDBRANCH  17  20
ENDBRANCH   1  12
BRANCH   2  22
ATOM     22  O   UNL     1       3.057   0.518  -9.811  1.00  0.00    -0.502 OA
ATOM     23  H   UNL     1       3.487   0.476 -10.727  1.00  0.00     0.293 HD
ENDBRANCH   2  22
BRANCH   6  24
ATOM     24  O   UNL     1       7.785   1.323  -7.483  1.00  0.00    -0.507 OA
ATOM     25  H   UNL     1       8.724   1.103  -7.778  1.00  0.00     0.293 HD
ENDBRANCH   6  24
BRANCH   8  26
ATOM     26  O   UNL     1       7.300  -1.460  -3.603  1.00  0.00    -0.508 OA
ATOM     27  H   UNL     1       7.913  -2.268  -3.597  1.00  0.00     0.293 HD
ENDBRANCH   8  26
TORSDOF 6
ENDMDL
MODEL 2
REMARK VINA RESULT:    -4.340      3.010      7.086
REMARK INTER + INTRA:          -5.661
REMARK INTER:                  -5.351
REMARK INTRA:                  -0.311
REMARK UNBOUND:                -0.433
REMARK SMILES O=c1c(O)c(-c2ccc(O)cc2O)oc2cc(O)cc(O)c12
REMARK SMILES IDX 5 1 3 2 2 3 1 4 22 5 20 6 19 7 17 8 16 9 15 10 14 11 6 12
REMARK SMILES IDX 8 13 7 14 9 15 11 16 12 17 10 18 13 20 4 22 21 24 18 26
REMARK H PARENT 10 19 13 21 4 23 21 25 18 27
REMARK Flexibility Score: inf
ROOT
ATOM      1  C   UNL     1       4.353  -3.828  -6.299  1.00  0.00     0.184 A 
ATOM      2  C   UNL     1       4.248  -2.464  -6.610  1.00  0.00     0.208 A 
ATOM      3  C   UNL     1       3.343  -2.059  -7.604  1.00  0.00     0.238 A 
ATOM      4  O   UNL     1       3.308  -0.844  -7.929  1.00  0.00    -0.285 OA
ATOM      5  C   UNL     1       2.516  -3.020  -8.235  1.00  0.00     0.111 A 
ATOM      6  C   UNL     1       1.531  -2.718  -9.226  1.00  0.00     0.134 A 
ATOM      7  C   UNL     1       0.845  -3.763  -9.857  1.00  0.00     0.093 A 
ATOM      8  C   UNL     1       1.061  -5.094  -9.490  1.00  0.00     0.123 A 
ATOM      9  C   UNL     1       1.978  -5.393  -8.486  1.00  0.00     0.094 A 
ATOM     10  C   UNL     1       2.707  -4.378  -7.864  1.00  0.00     0.146 A 
ATOM     11  O   UNL     1       3.588  -4.711  -6.928  1.00  0.00    -0.451 OA
ENDROOT
BRANCH   1  12
ATOM     12  C   UNL     1       5.290  -4.321  -5.269  1.00  0.00     0.063 A 
ATOM     13  C   UNL     1       5.630  -5.364  -3.100  1.00  0.00     0.047 A 
ATOM     14  C   UNL     1       4.772  -4.883  -4.092  1.00  0.00     0.020 A 
ATOM     15  C   UNL     1       7.015  -5.303  -3.277  1.00  0.00     0.119 A 
ATOM     16  C   UNL     1       7.542  -4.766  -4.458  1.00  0.00     0.093 A 
ATOM     17  C   UNL     1       6.687  -4.286  -5.462  1.00  0.00     0.130 A 
BRANCH  15  18
ATOM     18  O   UNL     1       7.858  -5.783  -2.277  1.00  0.00    -0.508 OA
ATOM     19  H   UNL     1       8.022  -5.258  -1.425  1.00  0.00     0.293 HD
ENDBRANCH  15  18
BRANCH  17  20
ATOM     20  O   UNL     1       7.222  -3.797  -6.655  1.00  0.00    -0.507 OA
ATOM     21  H   UNL     1       8.102  -3.298  -6.677  1.00  0.00     0.293 HD
ENDBRANCH  17  20
ENDBRANCH   1  12
BRANCH   2  22
ATOM     22  O   UNL     1       5.026  -1.528  -5.921  1.00  0.00    -0.502 OA
ATOM     23  H   UNL     1       4.948  -0.532  -6.084  1.00  0.00     0.293 HD
ENDBRANCH   2  22
BRANCH   6  24
ATOM     24  O   UNL     1       1.174  -1.421  -9.605  1.00  0.00    -0.507 OA
ATOM     25  H   UNL     1       1.090  -1.100 -10.558  1.00  0.00     0.293 HD
ENDBRANCH   6  24
BRANCH   8  26
ATOM     26  O   UNL     1       0.360  -6.124 -10.111  1.00  0.00    -0.508 OA
ATOM     27  H   UNL     1      -0.631  -6.266  -9.949  1.00  0.00     0.293 HD
ENDBRANCH   8  26
TORSDOF 6
ENDMDL
MODEL 3
REMARK VINA RESULT:    -4.274      2.998      4.621
REMARK INTER + INTRA:          -5.581
REMARK INTER:                  -5.170
REMARK INTRA:                  -0.411
REMARK UNBOUND:                -0.433
REMARK SMILES O=c1c(O)c(-c2ccc(O)cc2O)oc2cc(O)cc(O)c12
REMARK SMILES IDX 5 1 3 2 2 3 1 4 22 5 20 6 19 7 17 8 16 9 15 10 14 11 6 12
REMARK SMILES IDX 8 13 7 14 9 15 11 16 12 17 10 18 13 20 4 22 21 24 18 26
REMARK H PARENT 10 19 13 21 4 23 21 25 18 27
REMARK Flexibility Score: inf
ROOT
ATOM      1  C   UNL     1       2.662   0.988  -8.974  1.00  0.00     0.184 A 
ATOM      2  C   UNL     1       4.051   0.893  -8.797  1.00  0.00     0.208 A 
ATOM      3  C   UNL     1       4.821   2.067  -8.811  1.00  0.00     0.238 A 
ATOM      4  O   UNL     1       6.073   1.968  -8.727  1.00  0.00    -0.285 OA
ATOM      5  C   UNL     1       4.184   3.325  -8.947  1.00  0.00     0.111 A 
ATOM      6  C   UNL     1       4.860   4.583  -8.930  1.00  0.00     0.134 A 
ATOM      7  C   UNL     1       4.139   5.757  -9.179  1.00  0.00     0.093 A 
ATOM      8  C   UNL     1       2.757   5.726  -9.381  1.00  0.00     0.123 A 
ATOM      9  C   UNL     1       2.081   4.509  -9.343  1.00  0.00     0.094 A 
ATOM     10  C   UNL     1       2.777   3.316  -9.136  1.00  0.00     0.146 A 
ATOM     11  O   UNL     1       2.094   2.177  -9.130  1.00  0.00    -0.451 OA
ENDROOT
BRANCH   1  12
ATOM     12  C   UNL     1       1.796  -0.209  -8.977  1.00  0.00     0.063 A 
ATOM     13  C   UNL     1       1.015  -2.204 -10.125  1.00  0.00     0.047 A 
ATOM     14  C   UNL     1       1.817  -1.061 -10.092  1.00  0.00     0.020 A 
ATOM     15  C   UNL     1       0.192  -2.517  -9.040  1.00  0.00     0.119 A 
ATOM     16  C   UNL     1       0.181  -1.686  -7.913  1.00  0.00     0.093 A 
ATOM     17  C   UNL     1       0.988  -0.539  -7.869  1.00  0.00     0.130 A 
BRANCH  15  18
ATOM     18  O   UNL     1      -0.606  -3.658  -9.089  1.00  0.00    -0.508 OA
ATOM     19  H   UNL     1      -0.981  -4.004  -9.965  1.00  0.00     0.293 HD
ENDBRANCH  15  18
BRANCH  17  20
ATOM     20  O   UNL     1       1.005   0.255  -6.722  1.00  0.00    -0.507 OA
ATOM     21  H   UNL     1       0.392   1.055  -6.620  1.00  0.00     0.293 HD
ENDBRANCH  17  20
ENDBRANCH   1  12
BRANCH   2  22
ATOM     22  O   UNL     1       4.647  -0.355  -8.594  1.00  0.00    -0.502 OA
ATOM     23  H   UNL     1       4.552  -0.868  -7.726  1.00  0.00     0.293 HD
ENDBRANCH   2  22
BRANCH   6  24
ATOM     24  O   UNL     1       6.222   4.738  -8.652  1.00  0.00    -0.507 OA
ATOM     25  H   UNL     1       6.752   5.580  -8.812  1.00  0.00     0.293 HD
ENDBRANCH   6  24
BRANCH   8  26
ATOM     26  O   UNL     1       2.045   6.901  -9.610  1.00  0.00    -0.508 OA
ATOM     27  H   UNL     1       2.374   7.796  -9.266  1.00  0.00     0.293 HD
ENDBRANCH   8  26
TORSDOF 6
ENDMDL
MODEL 4
REMARK VINA RESULT:    -4.257      1.842      6.848
REMARK INTER + INTRA:          -5.562
REMARK INTER:                  -5.246
REMARK INTRA:                  -0.315
REMARK UNBOUND:                -0.433
REMARK SMILES O=c1c(O)c(-c2ccc(O)cc2O)oc2cc(O)cc(O)c12
REMARK SMILES IDX 5 1 3 2 2 3 1 4 22 5 20 6 19 7 17 8 16 9 15 10 14 11 6 12
REMARK SMILES IDX 8 13 7 14 9 15 11 16 12 17 10 18 13 20 4 22 21 24 18 26
REMARK H PARENT 10 19 13 21 4 23 21 25 18 27
REMARK Flexibility Score: inf
ROOT
ATOM      1  C   UNL     1       3.837  -1.669  -7.568  1.00  0.00     0.184 A 
ATOM      2  C   UNL     1       4.161  -2.997  -7.882  1.00  0.00     0.208 A 
ATOM      3  C   UNL     1       3.148  -3.857  -8.334  1.00  0.00     0.238 A 
ATOM      4  O   UNL     1       3.431  -5.066  -8.542  1.00  0.00    -0.285 OA
ATOM      5  C   UNL     1       1.834  -3.361  -8.518  1.00  0.00     0.111 A 
ATOM      6  C   UNL     1       0.737  -4.131  -9.013  1.00  0.00     0.134 A 
ATOM      7  C   UNL     1      -0.542  -3.563  -9.053  1.00  0.00     0.093 A 
ATOM      8  C   UNL     1      -0.754  -2.234  -8.677  1.00  0.00     0.123 A 
ATOM      9  C   UNL     1       0.320  -1.459  -8.247  1.00  0.00     0.094 A 
ATOM     10  C   UNL     1       1.601  -2.007  -8.158  1.00  0.00     0.146 A 
ATOM     11  O   UNL     1       2.591  -1.238  -7.720  1.00  0.00    -0.451 OA
ENDROOT
BRANCH   1  12
ATOM     12  C   UNL     1       4.854  -0.714  -7.081  1.00  0.00     0.063 A 
ATOM     13  C   UNL     1       6.173   1.291  -7.466  1.00  0.00     0.047 A 
ATOM     14  C   UNL     1       5.219   0.366  -7.898  1.00  0.00     0.020 A 
ATOM     15  C   UNL     1       6.764   1.155  -6.208  1.00  0.00     0.119 A 
ATOM     16  C   UNL     1       6.390   0.093  -5.374  1.00  0.00     0.093 A 
ATOM     17  C   UNL     1       5.428  -0.836  -5.799  1.00  0.00     0.130 A 
BRANCH  15  18
ATOM     18  O   UNL     1       7.717   2.082  -5.792  1.00  0.00    -0.508 OA
ATOM     19  H   UNL     1       7.481   3.057  -5.651  1.00  0.00     0.293 HD
ENDBRANCH  15  18
BRANCH  17  20
ATOM     20  O   UNL     1       5.028  -1.862  -4.941  1.00  0.00    -0.507 OA
ATOM     21  H   UNL     1       5.296  -1.873  -3.965  1.00  0.00     0.293 HD
ENDBRANCH  17  20
ENDBRANCH   1  12
BRANCH   2  22
ATOM     22  O   UNL     1       5.480  -3.443  -7.760  1.00  0.00    -0.502 OA
ATOM     23  H   UNL     1       6.180  -3.272  -8.471  1.00  0.00     0.293 HD
ENDBRANCH   2  22
BRANCH   6  24
ATOM     24  O   UNL     1       0.852  -5.438  -9.496  1.00  0.00    -0.507 OA
ATOM     25  H   UNL     1       0.159  -5.909 -10.057  1.00  0.00     0.293 HD
ENDBRANCH   6  24
BRANCH   8  26
ATOM     26  O   UNL     1      -2.027  -1.672  -8.738  1.00  0.00    -0.508 OA
ATOM     27  H   UNL     1      -2.526  -1.395  -7.901  1.00  0.00     0.293 HD
ENDBRANCH   8  26
TORSDOF 6
ENDMDL
MODEL 5
REMARK VINA RESULT:    -4.232     16.003     17.602
REMARK INTER + INTRA:          -5.531
REMARK INTER:                  -5.482
REMARK INTRA:                  -0.049
REMARK UNBOUND:                -0.433
REMARK SMILES O=c1c(O)c(-c2ccc(O)cc2O)oc2cc(O)cc(O)c12
REMARK SMILES IDX 5 1 3 2 2 3 1 4 22 5 20 6 19 7 17 8 16 9 15 10 14 11 6 12
REMARK SMILES IDX 8 13 7 14 9 15 11 16 12 17 10 18 13 20 4 22 21 24 18 26
REMARK H PARENT 10 19 13 21 4 23 21 25 18 27
REMARK Flexibility Score: inf
ROOT
ATOM      1  C   UNL     1     -11.545   6.786  -7.534  1.00  0.00     0.184 A 
ATOM      2  C   UNL     1     -11.702   6.693  -6.143  1.00  0.00     0.208 A 
ATOM      3  C   UNL     1     -11.905   5.431  -5.563  1.00  0.00     0.238 A 
ATOM      4  O   UNL     1     -12.120   5.364  -4.325  1.00  0.00    -0.285 OA
ATOM      5  C   UNL     1     -11.894   4.273  -6.378  1.00  0.00     0.111 A 
ATOM      6  C   UNL     1     -12.047   2.937  -5.893  1.00  0.00     0.134 A 
ATOM      7  C   UNL     1     -12.125   1.877  -6.805  1.00  0.00     0.093 A 
ATOM      8  C   UNL     1     -11.992   2.096  -8.179  1.00  0.00     0.123 A 
ATOM      9  C   UNL     1     -11.788   3.387  -8.656  1.00  0.00     0.094 A 
ATOM     10  C   UNL     1     -11.744   4.471  -7.776  1.00  0.00     0.146 A 
ATOM     11  O   UNL     1     -11.569   5.688  -8.278  1.00  0.00    -0.451 OA
ENDROOT
BRANCH   1  12
ATOM     12  C   UNL     1     -11.335   8.085  -8.207  1.00  0.00     0.063 A 
ATOM     13  C   UNL     1     -11.897  10.442  -8.394  1.00  0.00     0.047 A 
ATOM     14  C   UNL     1     -12.076   9.198  -7.783  1.00  0.00     0.020 A 
ATOM     15  C   UNL     1     -10.967  10.592  -9.426  1.00  0.00     0.119 A 
ATOM     16  C   UNL     1     -10.205   9.492  -9.841  1.00  0.00     0.093 A 
ATOM     17  C   UNL     1     -10.375   8.241  -9.229  1.00  0.00     0.130 A 
BRANCH  15  18
ATOM     18  O   UNL     1     -10.804  11.837 -10.029  1.00  0.00    -0.508 OA
ATOM     19  H   UNL     1      -9.944  12.086 -10.504  1.00  0.00     0.293 HD
ENDBRANCH  15  18
BRANCH  17  20
ATOM     20  O   UNL     1      -9.576   7.164  -9.617  1.00  0.00    -0.507 OA
ATOM     21  H   UNL     1      -9.430   6.936 -10.593  1.00  0.00     0.293 HD
ENDBRANCH  17  20
ENDBRANCH   1  12
BRANCH   2  22
ATOM     22  O   UNL     1     -11.638   7.845  -5.353  1.00  0.00    -0.502 OA
ATOM     23  H   UNL     1     -10.765   8.207  -4.990  1.00  0.00     0.293 HD
ENDBRANCH   2  22
BRANCH   6  24
ATOM     24  O   UNL     1     -12.100   2.597  -4.539  1.00  0.00    -0.507 OA
ATOM     25  H   UNL     1     -11.765   1.730  -4.147  1.00  0.00     0.293 HD
ENDBRANCH   6  24
BRANCH   8  26
ATOM     26  O   UNL     1     -12.053   1.032  -9.076  1.00  0.00    -0.508 OA
ATOM     27  H   UNL     1     -12.079   0.070  -8.758  1.00  0.00     0.293 HD
ENDBRANCH   8  26
TORSDOF 6
ENDMDL
MODEL 6
REMARK VINA RESULT:    -4.156      1.479      3.185
REMARK INTER + INTRA:          -5.440
REMARK INTER:                  -5.031
REMARK INTRA:                  -0.408
REMARK UNBOUND:                -0.433
REMARK SMILES O=c1c(O)c(-c2ccc(O)cc2O)oc2cc(O)cc(O)c12
REMARK SMILES IDX 5 1 3 2 2 3 1 4 22 5 20 6 19 7 17 8 16 9 15 10 14 11 6 12
REMARK SMILES IDX 8 13 7 14 9 15 11 16 12 17 10 18 13 20 4 22 21 24 18 26
REMARK H PARENT 10 19 13 21 4 23 21 25 18 27
REMARK Flexibility Score: inf
ROOT
ATOM      1  C   UNL     1       2.928  -0.680  -8.224  1.00  0.00     0.184 A 
ATOM      2  C   UNL     1       3.921  -1.273  -7.429  1.00  0.00     0.208 A 
ATOM      3  C   UNL     1       5.160  -0.627  -7.293  1.00  0.00     0.238 A 
ATOM      4  O   UNL     1       6.070  -1.200  -6.640  1.00  0.00    -0.285 OA
ATOM      5  C   UNL     1       5.370   0.630  -7.911  1.00  0.00     0.111 A 
ATOM      6  C   UNL     1       6.571   1.396  -7.806  1.00  0.00     0.134 A 
ATOM      7  C   UNL     1       6.704   2.576  -8.547  1.00  0.00     0.093 A 
ATOM      8  C   UNL     1       5.656   3.052  -9.340  1.00  0.00     0.123 A 
ATOM      9  C   UNL     1       4.461   2.341  -9.405  1.00  0.00     0.094 A 
ATOM     10  C   UNL     1       4.311   1.140  -8.709  1.00  0.00     0.146 A 
ATOM     11  O   UNL     1       3.162   0.483  -8.818  1.00  0.00    -0.451 OA
ENDROOT
BRANCH   1  12
ATOM     12  C   UNL     1       1.605  -1.311  -8.413  1.00  0.00     0.063 A 
ATOM     13  C   UNL     1       0.201  -2.855  -9.659  1.00  0.00     0.047 A 
ATOM     14  C   UNL     1       1.436  -2.236  -9.455  1.00  0.00     0.020 A 
ATOM     15  C   UNL     1      -0.877  -2.568  -8.817  1.00  0.00     0.119 A 
ATOM     16  C   UNL     1      -0.712  -1.664  -7.759  1.00  0.00     0.093 A 
ATOM     17  C   UNL     1       0.527  -1.043  -7.545  1.00  0.00     0.130 A 
BRANCH  15  18
ATOM     18  O   UNL     1      -2.104  -3.190  -9.035  1.00  0.00    -0.508 OA
ATOM     19  H   UNL     1      -2.242  -4.174  -8.836  1.00  0.00     0.293 HD
ENDBRANCH  15  18
BRANCH  17  20
ATOM     20  O   UNL     1       0.693  -0.181  -6.459  1.00  0.00    -0.507 OA
ATOM     21  H   UNL     1       0.052   0.583  -6.285  1.00  0.00     0.293 HD
ENDBRANCH  17  20
ENDBRANCH   1  12
BRANCH   2  22
ATOM     22  O   UNL     1       3.663  -2.479  -6.771  1.00  0.00    -0.502 OA
ATOM     23  H   UNL     1       3.567  -2.540  -5.765  1.00  0.00     0.293 HD
ENDBRANCH   2  22
BRANCH   6  24
ATOM     24  O   UNL     1       7.645   1.060  -6.977  1.00  0.00    -0.507 OA
ATOM     25  H   UNL     1       8.549   0.751  -7.299  1.00  0.00     0.293 HD
ENDBRANCH   6  24
BRANCH   8  26
ATOM     26  O   UNL     1       5.791   4.237 -10.060  1.00  0.00    -0.508 OA
ATOM     27  H   UNL     1       5.951   4.235 -11.060  1.00  0.00     0.293 HD
ENDBRANCH   8  26
TORSDOF 6
ENDMDL
MODEL 7
REMARK VINA RESULT:    -3.965     16.316     17.333
REMARK INTER + INTRA:          -5.209
REMARK INTER:                  -5.809
REMARK INTRA:                   0.600
REMARK UNBOUND:                -0.433
REMARK SMILES O=c1c(O)c(-c2ccc(O)cc2O)oc2cc(O)cc(O)c12
REMARK SMILES IDX 5 1 3 2 2 3 1 4 22 5 20 6 19 7 17 8 16 9 15 10 14 11 6 12
REMARK SMILES IDX 8 13 7 14 9 15 11 16 12 17 10 18 13 20 4 22 21 24 18 26
REMARK H PARENT 10 19 13 21 4 23 21 25 18 27
REMARK Flexibility Score: inf
ROOT
ATOM      1  C   UNL     1     -11.853   4.491  -5.119  1.00  0.00     0.184 A 
ATOM      2  C   UNL     1     -11.816   3.730  -6.297  1.00  0.00     0.208 A 
ATOM      3  C   UNL     1     -11.747   4.390  -7.534  1.00  0.00     0.238 A 
ATOM      4  O   UNL     1     -11.788   3.704  -8.587  1.00  0.00    -0.285 OA
ATOM      5  C   UNL     1     -11.662   5.804  -7.572  1.00  0.00     0.111 A 
ATOM      6  C   UNL     1     -11.544   6.578  -8.767  1.00  0.00     0.134 A 
ATOM      7  C   UNL     1     -11.573   7.975  -8.690  1.00  0.00     0.093 A 
ATOM      8  C   UNL     1     -11.653   8.628  -7.457  1.00  0.00     0.123 A 
ATOM      9  C   UNL     1     -11.712   7.882  -6.283  1.00  0.00     0.094 A 
ATOM     10  C   UNL     1     -11.724   6.487  -6.328  1.00  0.00     0.146 A 
ATOM     11  O   UNL     1     -11.803   5.816  -5.185  1.00  0.00    -0.451 OA
ENDROOT
BRANCH   1  12
ATOM     12  C   UNL     1     -11.933   3.858  -3.787  1.00  0.00     0.063 A 
ATOM     13  C   UNL     1     -11.900   1.831  -2.445  1.00  0.00     0.047 A 
ATOM     14  C   UNL     1     -11.835   2.462  -3.690  1.00  0.00     0.020 A 
ATOM     15  C   UNL     1     -12.050   2.589  -1.281  1.00  0.00     0.119 A 
ATOM     16  C   UNL     1     -12.125   3.985  -1.364  1.00  0.00     0.093 A 
ATOM     17  C   UNL     1     -12.055   4.626  -2.610  1.00  0.00     0.130 A 
BRANCH  15  18
ATOM     18  O   UNL     1     -12.118   1.946  -0.047  1.00  0.00    -0.508 OA
ATOM     19  H   UNL     1     -11.875   2.424   0.814  1.00  0.00     0.293 HD
ENDBRANCH  15  18
BRANCH  17  20
ATOM     20  O   UNL     1     -12.082   6.020  -2.676  1.00  0.00    -0.507 OA
ATOM     21  H   UNL     1     -11.553   6.529  -3.373  1.00  0.00     0.293 HD
ENDBRANCH  17  20
ENDBRANCH   1  12
BRANCH   2  22
ATOM     22  O   UNL     1     -11.829   2.333  -6.228  1.00  0.00    -0.502 OA
ATOM     23  H   UNL     1     -11.336   1.820  -5.508  1.00  0.00     0.293 HD
ENDBRANCH   2  22
BRANCH   6  24
ATOM     24  O   UNL     1     -11.371   6.030 -10.042  1.00  0.00    -0.507 OA
ATOM     25  H   UNL     1     -11.842   6.347 -10.875  1.00  0.00     0.293 HD
ENDBRANCH   6  24
BRANCH   8  26
ATOM     26  O   UNL     1     -11.664  10.019  -7.389  1.00  0.00    -0.508 OA
ATOM     27  H   UNL     1     -12.400  10.566  -7.821  1.00  0.00     0.293 HD
ENDBRANCH   8  26
TORSDOF 6
ENDMDL
MODEL 8
REMARK VINA RESULT:    -1.448      2.091      7.199
REMARK INTER + INTRA:          -2.178
REMARK INTER:                  -1.897
REMARK INTRA:                  -0.281
REMARK UNBOUND:                -0.433
REMARK SMILES O=c1c(O)c(-c2ccc(O)cc2O)oc2cc(O)cc(O)c12
REMARK SMILES IDX 5 1 3 2 2 3 1 4 22 5 20 6 19 7 17 8 16 9 15 10 14 11 6 12
REMARK SMILES IDX 8 13 7 14 9 15 11 16 12 17 10 18 13 20 4 22 21 24 18 26
REMARK H PARENT 10 19 13 21 4 23 21 25 18 27
REMARK Flexibility Score: inf
ROOT
ATOM      1  C   UNL     1       2.591  -2.131  -8.713  1.00  0.00     0.184 A 
ATOM      2  C   UNL     1       2.816  -3.450  -8.291  1.00  0.00     0.208 A 
ATOM      3  C   UNL     1       1.735  -4.344  -8.241  1.00  0.00     0.238 A 
ATOM      4  O   UNL     1       1.930  -5.502  -7.792  1.00  0.00    -0.285 OA
ATOM      5  C   UNL     1       0.451  -3.919  -8.667  1.00  0.00     0.111 A 
ATOM      6  C   UNL     1      -0.709  -4.752  -8.701  1.00  0.00     0.134 A 
ATOM      7  C   UNL     1      -1.948  -4.195  -9.041  1.00  0.00     0.093 A 
ATOM      8  C   UNL     1      -2.059  -2.852  -9.409  1.00  0.00     0.123 A 
ATOM      9  C   UNL     1      -0.923  -2.046  -9.432  1.00  0.00     0.094 A 
ATOM     10  C   UNL     1       0.320  -2.561  -9.061  1.00  0.00     0.146 A 
ATOM     11  O   UNL     1       1.372  -1.751  -9.076  1.00  0.00    -0.451 OA
ENDROOT
BRANCH   1  12
ATOM     12  C   UNL     1       3.684  -1.139  -8.781  1.00  0.00     0.063 A 
ATOM     13  C   UNL     1       5.047   0.359 -10.125  1.00  0.00     0.047 A 
ATOM     14  C   UNL     1       4.023  -0.586 -10.025  1.00  0.00     0.020 A 
ATOM     15  C   UNL     1       5.736   0.773  -8.981  1.00  0.00     0.119 A 
ATOM     16  C   UNL     1       5.388   0.245  -7.731  1.00  0.00     0.093 A 
ATOM     17  C   UNL     1       4.357  -0.700  -7.622  1.00  0.00     0.130 A 
BRANCH  15  18
ATOM     18  O   UNL     1       6.758   1.712  -9.097  1.00  0.00    -0.508 OA
ATOM     19  H   UNL     1       6.621   2.585  -9.594  1.00  0.00     0.293 HD
ENDBRANCH  15  18
BRANCH  17  20
ATOM     20  O   UNL     1       3.988  -1.183  -6.366  1.00  0.00    -0.507 OA
ATOM     21  H   UNL     1       3.863  -2.173  -6.193  1.00  0.00     0.293 HD
ENDBRANCH  17  20
ENDBRANCH   1  12
BRANCH   2  22
ATOM     22  O   UNL     1       4.106  -3.863  -7.944  1.00  0.00    -0.502 OA
ATOM     23  H   UNL     1       4.607  -3.475  -7.154  1.00  0.00     0.293 HD
ENDBRANCH   2  22
BRANCH   6  24
ATOM     24  O   UNL     1      -0.696  -6.125  -8.438  1.00  0.00    -0.507 OA
ATOM     25  H   UNL     1      -0.101  -6.796  -8.898  1.00  0.00     0.293 HD
ENDBRANCH   6  24
BRANCH   8  26
ATOM     26  O   UNL     1      -3.293  -2.312  -9.762  1.00  0.00    -0.508 OA
ATOM     27  H   UNL     1      -4.120  -2.460  -9.195  1.00  0.00     0.293 HD
ENDBRANCH   8  26
TORSDOF 6
ENDMDL
