MODEL 1
REMARK VINA RESULT:    -4.358      0.000      0.000
REMARK INTER + INTRA:          -9.744
REMARK INTER:                  -7.669
REMARK INTRA:                  -2.075
REMARK UNBOUND:                -2.075
REMARK SMILES CCCCCCCCCCCCCCC(=O)[O-]
REMARK SMILES IDX 9 1 10 2 11 3 12 4 13 5 14 6 15 7 16 8 17 9 8 10 7 11 6 12
REMARK SMILES IDX 5 13 4 14 3 15 2 16 1 17
REMARK H PARENT
REMARK Flexibility Score: inf
ROOT
ATOM      1  C   UNL     1      15.281 -33.994  22.235  1.00  0.00     0.000 C 
ENDROOT
BRANCH   1   2
ATOM      2  C   UNL     1      15.191 -33.294  20.869  1.00  0.00     0.000 C 
BRANCH   2   3
ATOM      3  C   UNL     1      13.776 -32.770  20.567  1.00  0.00     0.000 C 
BRANCH   3   4
ATOM      4  C   UNL     1      13.596 -31.295  20.957  1.00  0.00     0.000 C 
BRANCH   4   5
ATOM      5  C   UNL     1      12.530 -31.094  22.047  1.00  0.00     0.006 C 
BRANCH   5   6
ATOM      6  C   UNL     1      13.169 -30.626  23.357  1.00  0.00     0.053 C 
BRANCH   6   7
ATOM      7  C   UNL     1      12.990 -29.150  23.529  1.00  0.00     0.041 C 
ATOM      8  O   UNL     1      13.880 -28.353  23.134  1.00  0.00    -0.550 OA
ATOM      9  O   UNL     1      11.861 -28.658  24.172  1.00  0.00    -0.550 OA
ENDBRANCH   6   7
ENDBRANCH   5   6
ENDBRANCH   4   5
ENDBRANCH   3   4
ENDBRANCH   2   3
ENDBRANCH   1   2
BRANCH   1  10
ATOM     10  C   UNL     1      16.672 -34.598  22.498  1.00  0.00     0.000 C 
BRANCH  10  11
ATOM     11  C   UNL     1      17.436 -33.863  23.612  1.00  0.00    -0.000 C 
BRANCH  11  12
ATOM     12  C   UNL     1      16.654 -32.667  24.178  1.00  0.00    -0.000 C 
BRANCH  12  13
ATOM     13  C   UNL     1      17.401 -31.351  23.916  1.00  0.00    -0.000 C 
BRANCH  13  14
ATOM     14  C   UNL     1      16.724 -30.489  22.838  1.00  0.00    -0.000 C 
BRANCH  14  15
ATOM     15  C   UNL     1      17.676 -30.131  21.683  1.00  0.00    -0.000 C 
BRANCH  15  16
ATOM     16  C   UNL     1      18.149 -31.369  20.905  1.00  0.00    -0.003 C 
ATOM     17  C   UNL     1      19.653 -31.609  21.039  1.00  0.00     0.004 C 
ENDBRANCH  15  16
ENDBRANCH  14  15
ENDBRANCH  13  14
ENDBRANCH  12  13
ENDBRANCH  11  12
ENDBRANCH  10  11
ENDBRANCH   1  10
TORSDOF 13
ENDMDL
MODEL 2
REMARK VINA RESULT:    -4.352      1.443      3.705
REMARK INTER + INTRA:          -9.734
REMARK INTER:                  -7.984
REMARK INTRA:                  -1.750
REMARK UNBOUND:                -2.075
REMARK SMILES CCCCCCCCCCCCCCC(=O)[O-]
REMARK SMILES IDX 9 1 10 2 11 3 12 4 13 5 14 6 15 7 16 8 17 9 8 10 7 11 6 12
REMARK SMILES IDX 5 13 4 14 3 15 2 16 1 17
REMARK H PARENT
REMARK Flexibility Score: inf
ROOT
ATOM      1  C   UNL     1      17.364 -31.347  20.871  1.00  0.00     0.000 C 
ENDROOT
BRANCH   1   2
ATOM      2  C   UNL     1      17.255 -30.094  21.756  1.00  0.00     0.000 C 
BRANCH   2   3
ATOM      3  C   UNL     1      16.134 -30.207  22.803  1.00  0.00     0.000 C 
BRANCH   3   4
ATOM      4  C   UNL     1      14.736 -30.011  22.196  1.00  0.00     0.000 C 
BRANCH   4   5
ATOM      5  C   UNL     1      13.607 -30.399  23.163  1.00  0.00     0.006 C 
BRANCH   5   6
ATOM      6  C   UNL     1      12.289 -29.730  22.763  1.00  0.00     0.053 C 
BRANCH   6   7
ATOM      7  C   UNL     1      12.070 -28.483  23.562  1.00  0.00     0.041 C 
ATOM      8  O   UNL     1      12.701 -28.300  24.636  1.00  0.00    -0.550 OA
ATOM      9  O   UNL     1      11.134 -27.546  23.145  1.00  0.00    -0.550 OA
ENDBRANCH   6   7
ENDBRANCH   5   6
ENDBRANCH   4   5
ENDBRANCH   3   4
ENDBRANCH   2   3
ENDBRANCH   1   2
BRANCH   1  10
ATOM     10  C   UNL     1      18.584 -32.215  21.225  1.00  0.00     0.000 C 
BRANCH  10  11
ATOM     11  C   UNL     1      18.510 -33.620  20.606  1.00  0.00    -0.000 C 
BRANCH  11  12
ATOM     12  C   UNL     1      17.434 -33.732  19.515  1.00  0.00    -0.000 C 
BRANCH  12  13
ATOM     13  C   UNL     1      16.388 -34.796  19.883  1.00  0.00    -0.000 C 
BRANCH  13  14
ATOM     14  C   UNL     1      14.961 -34.227  19.943  1.00  0.00    -0.000 C 
BRANCH  14  15
ATOM     15  C   UNL     1      14.645 -33.564  21.295  1.00  0.00    -0.000 C 
BRANCH  15  16
ATOM     16  C   UNL     1      15.443 -34.182  22.454  1.00  0.00    -0.003 C 
ATOM     17  C   UNL     1      15.072 -33.583  23.811  1.00  0.00     0.004 C 
ENDBRANCH  15  16
ENDBRANCH  14  15
ENDBRANCH  13  14
ENDBRANCH  12  13
ENDBRANCH  11  12
ENDBRANCH  10  11
ENDBRANCH   1  10
TORSDOF 13
ENDMDL
MODEL 3
REMARK VINA RESULT:    -4.349      2.157      5.044
REMARK INTER + INTRA:          -9.730
REMARK INTER:                  -8.180
REMARK INTRA:                  -1.550
REMARK UNBOUND:                -2.075
REMARK SMILES CCCCCCCCCCCCCCC(=O)[O-]
REMARK SMILES IDX 9 1 10 2 11 3 12 4 13 5 14 6 15 7 16 8 17 9 8 10 7 11 6 12
REMARK SMILES IDX 5 13 4 14 3 15 2 16 1 17
REMARK H PARENT
REMARK Flexibility Score: inf
ROOT
ATOM      1  C   UNL     1      14.971 -34.589  20.377  1.00  0.00     0.000 C 
ENDROOT
BRANCH   1   2
ATOM      2  C   UNL     1      16.212 -35.163  19.672  1.00  0.00     0.000 C 
BRANCH   2   3
ATOM      3  C   UNL     1      17.111 -34.067  19.074  1.00  0.00     0.000 C 
BRANCH   3   4
ATOM      4  C   UNL     1      18.461 -33.951  19.799  1.00  0.00     0.000 C 
BRANCH   4   5
ATOM      5  C   UNL     1      18.410 -32.998  21.003  1.00  0.00     0.006 C 
BRANCH   5   6
ATOM      6  C   UNL     1      17.788 -31.654  20.612  1.00  0.00     0.053 C 
BRANCH   6   7
ATOM      7  C   UNL     1      17.578 -30.801  21.823  1.00  0.00     0.041 C 
ATOM      8  O   UNL     1      16.880 -29.757  21.749  1.00  0.00    -0.550 OA
ATOM      9  O   UNL     1      18.193 -31.135  23.023  1.00  0.00    -0.550 OA
ENDBRANCH   6   7
ENDBRANCH   5   6
ENDBRANCH   4   5
ENDBRANCH   3   4
ENDBRANCH   2   3
ENDBRANCH   1   2
BRANCH   1  10
ATOM     10  C   UNL     1      15.200 -34.362  21.882  1.00  0.00     0.000 C 
BRANCH  10  11
ATOM     11  C   UNL     1      14.718 -32.980  22.351  1.00  0.00    -0.000 C 
BRANCH  11  12
ATOM     12  C   UNL     1      14.091 -32.153  21.218  1.00  0.00    -0.000 C 
BRANCH  12  13
ATOM     13  C   UNL     1      12.910 -31.319  21.737  1.00  0.00    -0.000 C 
BRANCH  13  14
ATOM     14  C   UNL     1      13.129 -30.811  23.172  1.00  0.00    -0.000 C 
BRANCH  14  15
ATOM     15  C   UNL     1      13.640 -29.360  23.214  1.00  0.00    -0.000 C 
BRANCH  15  16
ATOM     16  C   UNL     1      12.756 -28.451  24.083  1.00  0.00    -0.003 C 
ATOM     17  C   UNL     1      11.345 -28.288  23.519  1.00  0.00     0.004 C 
ENDBRANCH  15  16
ENDBRANCH  14  15
ENDBRANCH  13  14
ENDBRANCH  12  13
ENDBRANCH  11  12
ENDBRANCH  10  11
ENDBRANCH   1  10
TORSDOF 13
ENDMDL
MODEL 4
REMARK VINA RESULT:    -4.342      3.289      5.584
REMARK INTER + INTRA:          -9.717
REMARK INTER:                  -7.823
REMARK INTRA:                  -1.893
REMARK UNBOUND:                -2.075
REMARK SMILES CCCCCCCCCCCCCCC(=O)[O-]
REMARK SMILES IDX 9 1 10 2 11 3 12 4 13 5 14 6 15 7 16 8 17 9 8 10 7 11 6 12
REMARK SMILES IDX 5 13 4 14 3 15 2 16 1 17
REMARK H PARENT
REMARK Flexibility Score: inf
ROOT
ATOM      1  C   UNL     1      17.429 -32.516  24.442  1.00  0.00     0.000 C 
ENDROOT
BRANCH   1   2
ATOM      2  C   UNL     1      16.348 -33.609  24.408  1.00  0.00     0.000 C 
BRANCH   2   3
ATOM      3  C   UNL     1      16.294 -34.344  23.058  1.00  0.00     0.000 C 
BRANCH   3   4
ATOM      4  C   UNL     1      15.071 -33.946  22.217  1.00  0.00     0.000 C 
BRANCH   4   5
ATOM      5  C   UNL     1      15.422 -33.677  20.746  1.00  0.00     0.006 C 
BRANCH   5   6
ATOM      6  C   UNL     1      15.335 -34.962  19.918  1.00  0.00     0.053 C 
BRANCH   6   7
ATOM      7  C   UNL     1      16.679 -35.322  19.367  1.00  0.00     0.041 C 
ATOM      8  O   UNL     1      17.533 -34.426  19.141  1.00  0.00    -0.550 OA
ATOM      9  O   UNL     1      16.971 -36.644  19.057  1.00  0.00    -0.550 OA
ENDBRANCH   6   7
ENDBRANCH   5   6
ENDBRANCH   4   5
ENDBRANCH   3   4
ENDBRANCH   2   3
ENDBRANCH   1   2
BRANCH   1  10
ATOM     10  C   UNL     1      16.966 -31.208  23.774  1.00  0.00     0.000 C 
BRANCH  10  11
ATOM     11  C   UNL     1      17.688 -30.937  22.444  1.00  0.00    -0.000 C 
BRANCH  11  12
ATOM     12  C   UNL     1      16.823 -30.147  21.450  1.00  0.00    -0.000 C 
BRANCH  12  13
ATOM     13  C   UNL     1      15.501 -29.712  22.099  1.00  0.00    -0.000 C 
BRANCH  13  14
ATOM     14  C   UNL     1      14.269 -30.217  21.329  1.00  0.00    -0.000 C 
BRANCH  14  15
ATOM     15  C   UNL     1      13.174 -30.767  22.260  1.00  0.00    -0.000 C 
BRANCH  15  16
ATOM     16  C   UNL     1      13.330 -30.273  23.707  1.00  0.00    -0.003 C 
ATOM     17  C   UNL     1      12.467 -29.047  24.007  1.00  0.00     0.004 C 
ENDBRANCH  15  16
ENDBRANCH  14  15
ENDBRANCH  13  14
ENDBRANCH  12  13
ENDBRANCH  11  12
ENDBRANCH  10  11
ENDBRANCH   1  10
TORSDOF 13
ENDMDL
MODEL 5
REMARK VINA RESULT:    -4.313      1.881      3.044
REMARK INTER + INTRA:          -9.666
REMARK INTER:                  -7.790
REMARK INTRA:                  -1.876
REMARK UNBOUND:                -2.075
REMARK SMILES CCCCCCCCCCCCCCC(=O)[O-]
REMARK SMILES IDX 9 1 10 2 11 3 12 4 13 5 14 6 15 7 16 8 17 9 8 10 7 11 6 12
REMARK SMILES IDX 5 13 4 14 3 15 2 16 1 17
REMARK H PARENT
REMARK Flexibility Score: inf
ROOT
ATOM      1  C   UNL     1      14.979 -34.780  20.075  1.00  0.00     0.000 C 
ENDROOT
BRANCH   1   2
ATOM      2  C   UNL     1      14.578 -33.552  20.910  1.00  0.00     0.000 C 
BRANCH   2   3
ATOM      3  C   UNL     1      13.588 -32.634  20.171  1.00  0.00     0.000 C 
BRANCH   3   4
ATOM      4  C   UNL     1      13.165 -31.422  21.015  1.00  0.00     0.000 C 
BRANCH   4   5
ATOM      5  C   UNL     1      14.316 -30.432  21.255  1.00  0.00     0.006 C 
BRANCH   5   6
ATOM      6  C   UNL     1      14.877 -30.579  22.672  1.00  0.00     0.053 C 
BRANCH   6   7
ATOM      7  C   UNL     1      13.778 -30.874  23.643  1.00  0.00     0.041 C 
ATOM      8  O   UNL     1      12.984 -29.963  23.997  1.00  0.00    -0.550 OA
ATOM      9  O   UNL     1      13.661 -32.143  24.196  1.00  0.00    -0.550 OA
ENDBRANCH   6   7
ENDBRANCH   5   6
ENDBRANCH   4   5
ENDBRANCH   3   4
ENDBRANCH   2   3
ENDBRANCH   1   2
BRANCH   1  10
ATOM     10  C   UNL     1      16.271 -34.551  19.270  1.00  0.00     0.000 C 
BRANCH  10  11
ATOM     11  C   UNL     1      17.235 -35.746  19.348  1.00  0.00    -0.000 C 
BRANCH  11  12
ATOM     12  C   UNL     1      17.292 -36.373  20.749  1.00  0.00    -0.000 C 
BRANCH  12  13
ATOM     13  C   UNL     1      18.254 -35.595  21.659  1.00  0.00    -0.000 C 
BRANCH  13  14
ATOM     14  C   UNL     1      17.539 -34.931  22.847  1.00  0.00    -0.000 C 
BRANCH  14  15
ATOM     15  C   UNL     1      17.602 -33.395  22.792  1.00  0.00    -0.000 C 
BRANCH  15  16
ATOM     16  C   UNL     1      18.516 -32.884  21.668  1.00  0.00    -0.003 C 
ATOM     17  C   UNL     1      17.894 -31.729  20.882  1.00  0.00     0.004 C 
ENDBRANCH  15  16
ENDBRANCH  14  15
ENDBRANCH  13  14
ENDBRANCH  12  13
ENDBRANCH  11  12
ENDBRANCH  10  11
ENDBRANCH   1  10
TORSDOF 13
ENDMDL
MODEL 6
REMARK VINA RESULT:    -4.295      1.797      3.378
REMARK INTER + INTRA:          -9.634
REMARK INTER:                  -7.311
REMARK INTRA:                  -2.323
REMARK UNBOUND:                -2.075
REMARK SMILES CCCCCCCCCCCCCCC(=O)[O-]
REMARK SMILES IDX 9 1 10 2 11 3 12 4 13 5 14 6 15 7 16 8 17 9 8 10 7 11 6 12
REMARK SMILES IDX 5 13 4 14 3 15 2 16 1 17
REMARK H PARENT
REMARK Flexibility Score: inf
ROOT
ATOM      1  C   UNL     1      18.881 -32.057  21.360  1.00  0.00     0.000 C 
ENDROOT
BRANCH   1   2
ATOM      2  C   UNL     1      17.805 -31.069  20.880  1.00  0.00     0.000 C 
BRANCH   2   3
ATOM      3  C   UNL     1      17.116 -30.336  22.044  1.00  0.00     0.000 C 
BRANCH   3   4
ATOM      4  C   UNL     1      15.602 -30.183  21.832  1.00  0.00     0.000 C 
BRANCH   4   5
ATOM      5  C   UNL     1      14.800 -30.328  23.135  1.00  0.00     0.006 C 
BRANCH   5   6
ATOM      6  C   UNL     1      13.682 -31.362  22.978  1.00  0.00     0.053 C 
BRANCH   6   7
ATOM      7  C   UNL     1      12.623 -30.852  22.051  1.00  0.00     0.041 C 
ATOM      8  O   UNL     1      11.836 -29.944  22.425  1.00  0.00    -0.550 OA
ATOM      9  O   UNL     1      12.475 -31.415  20.789  1.00  0.00    -0.550 OA
ENDBRANCH   6   7
ENDBRANCH   5   6
ENDBRANCH   4   5
ENDBRANCH   3   4
ENDBRANCH   2   3
ENDBRANCH   1   2
BRANCH   1  10
ATOM     10  C   UNL     1      18.483 -32.775  22.662  1.00  0.00     0.000 C 
BRANCH  10  11
ATOM     11  C   UNL     1      18.607 -34.304  22.555  1.00  0.00    -0.000 C 
BRANCH  11  12
ATOM     12  C   UNL     1      17.301 -35.032  22.910  1.00  0.00    -0.000 C 
BRANCH  12  13
ATOM     13  C   UNL     1      16.100 -34.081  22.812  1.00  0.00    -0.000 C 
BRANCH  13  14
ATOM     14  C   UNL     1      15.176 -34.413  21.629  1.00  0.00    -0.000 C 
BRANCH  14  15
ATOM     15  C   UNL     1      15.643 -33.765  20.314  1.00  0.00    -0.000 C 
BRANCH  15  16
ATOM     16  C   UNL     1      16.262 -34.783  19.343  1.00  0.00    -0.003 C 
ATOM     17  C   UNL     1      17.664 -34.383  18.885  1.00  0.00     0.004 C 
ENDBRANCH  15  16
ENDBRANCH  14  15
ENDBRANCH  13  14
ENDBRANCH  12  13
ENDBRANCH  11  12
ENDBRANCH  10  11
ENDBRANCH   1  10
TORSDOF 13
ENDMDL
MODEL 7
REMARK VINA RESULT:    -4.291      1.377      2.318
REMARK INTER + INTRA:          -9.627
REMARK INTER:                  -7.955
REMARK INTRA:                  -1.671
REMARK UNBOUND:                -2.075
REMARK SMILES CCCCCCCCCCCCCCC(=O)[O-]
REMARK SMILES IDX 9 1 10 2 11 3 12 4 13 5 14 6 15 7 16 8 17 9 8 10 7 11 6 12
REMARK SMILES IDX 5 13 4 14 3 15 2 16 1 17
REMARK H PARENT
REMARK Flexibility Score: inf
ROOT
ATOM      1  C   UNL     1      15.373 -34.964  20.337  1.00  0.00     0.000 C 
ENDROOT
BRANCH   1   2
ATOM      2  C   UNL     1      14.557 -33.703  20.003  1.00  0.00     0.000 C 
BRANCH   2   3
ATOM      3  C   UNL     1      14.235 -32.862  21.250  1.00  0.00     0.000 C 
BRANCH   3   4
ATOM      4  C   UNL     1      13.566 -31.523  20.902  1.00  0.00     0.000 C 
BRANCH   4   5
ATOM      5  C   UNL     1      12.668 -30.995  22.032  1.00  0.00     0.006 C 
BRANCH   5   6
ATOM      6  C   UNL     1      13.460 -30.100  22.989  1.00  0.00     0.053 C 
BRANCH   6   7
ATOM      7  C   UNL     1      12.671 -28.878  23.338  1.00  0.00     0.041 C 
ATOM      8  O   UNL     1      13.238 -27.889  23.873  1.00  0.00    -0.550 OA
ATOM      9  O   UNL     1      11.300 -28.849  23.118  1.00  0.00    -0.550 OA
ENDBRANCH   6   7
ENDBRANCH   5   6
ENDBRANCH   4   5
ENDBRANCH   3   4
ENDBRANCH   2   3
ENDBRANCH   1   2
BRANCH   1  10
ATOM     10  C   UNL     1      16.649 -35.083  19.486  1.00  0.00     0.000 C 
BRANCH  10  11
ATOM     11  C   UNL     1      17.494 -33.799  19.504  1.00  0.00    -0.000 C 
BRANCH  11  12
ATOM     12  C   UNL     1      18.425 -33.717  20.723  1.00  0.00    -0.000 C 
BRANCH  12  13
ATOM     13  C   UNL     1      18.758 -32.256  21.062  1.00  0.00    -0.000 C 
BRANCH  13  14
ATOM     14  C   UNL     1      17.555 -31.317  20.876  1.00  0.00    -0.000 C 
BRANCH  14  15
ATOM     15  C   UNL     1      17.123 -30.642  22.190  1.00  0.00    -0.000 C 
BRANCH  15  16
ATOM     16  C   UNL     1      16.895 -31.654  23.324  1.00  0.00    -0.003 C 
ATOM     17  C   UNL     1      17.919 -31.519  24.450  1.00  0.00     0.004 C 
ENDBRANCH  15  16
ENDBRANCH  14  15
ENDBRANCH  13  14
ENDBRANCH  12  13
ENDBRANCH  11  12
ENDBRANCH  10  11
ENDBRANCH   1  10
TORSDOF 13
ENDMDL
MODEL 8
REMARK VINA RESULT:    -4.282      1.092      1.604
REMARK INTER + INTRA:          -9.611
REMARK INTER:                  -7.531
REMARK INTRA:                  -2.080
REMARK UNBOUND:                -2.075
REMARK SMILES CCCCCCCCCCCCCCC(=O)[O-]
REMARK SMILES IDX 9 1 10 2 11 3 12 4 13 5 14 6 15 7 16 8 17 9 8 10 7 11 6 12
REMARK SMILES IDX 5 13 4 14 3 15 2 16 1 17
REMARK H PARENT
REMARK Flexibility Score: inf
ROOT
ATOM      1  C   UNL     1      14.655 -33.742  21.200  1.00  0.00     0.000 C 
ENDROOT
BRANCH   1   2
ATOM      2  C   UNL     1      14.663 -32.205  21.148  1.00  0.00     0.000 C 
BRANCH   2   3
ATOM      3  C   UNL     1      13.246 -31.606  21.162  1.00  0.00     0.000 C 
BRANCH   3   4
ATOM      4  C   UNL     1      12.774 -31.240  22.578  1.00  0.00     0.000 C 
BRANCH   4   5
ATOM      5  C   UNL     1      13.784 -30.362  23.334  1.00  0.00     0.006 C 
BRANCH   5   6
ATOM      6  C   UNL     1      13.688 -28.903  22.879  1.00  0.00     0.053 C 
BRANCH   6   7
ATOM      7  C   UNL     1      12.894 -28.100  23.860  1.00  0.00     0.041 C 
ATOM      8  O   UNL     1      11.662 -28.313  24.005  1.00  0.00    -0.550 OA
ATOM      9  O   UNL     1      13.505 -27.081  24.581  1.00  0.00    -0.550 OA
ENDBRANCH   6   7
ENDBRANCH   5   6
ENDBRANCH   4   5
ENDBRANCH   3   4
ENDBRANCH   2   3
ENDBRANCH   1   2
BRANCH   1  10
ATOM     10  C   UNL     1      15.629 -34.302  22.252  1.00  0.00     0.000 C 
BRANCH  10  11
ATOM     11  C   UNL     1      15.559 -33.539  23.586  1.00  0.00    -0.000 C 
BRANCH  11  12
ATOM     12  C   UNL     1      16.948 -33.238  24.170  1.00  0.00    -0.000 C 
BRANCH  12  13
ATOM     13  C   UNL     1      17.173 -31.723  24.294  1.00  0.00    -0.000 C 
BRANCH  13  14
ATOM     14  C   UNL     1      17.439 -31.051  22.937  1.00  0.00    -0.000 C 
BRANCH  14  15
ATOM     15  C   UNL     1      18.571 -31.734  22.151  1.00  0.00    -0.000 C 
BRANCH  15  16
ATOM     16  C   UNL     1      18.204 -31.972  20.678  1.00  0.00    -0.003 C 
ATOM     17  C   UNL     1      18.420 -33.422  20.243  1.00  0.00     0.004 C 
ENDBRANCH  15  16
ENDBRANCH  14  15
ENDBRANCH  13  14
ENDBRANCH  12  13
ENDBRANCH  11  12
ENDBRANCH  10  11
ENDBRANCH   1  10
TORSDOF 13
ENDMDL
MODEL 9
REMARK VINA RESULT:    -4.246      3.428      5.010
REMARK INTER + INTRA:          -9.548
REMARK INTER:                  -7.986
REMARK INTRA:                  -1.562
REMARK UNBOUND:                -2.075
REMARK SMILES CCCCCCCCCCCCCCC(=O)[O-]
REMARK SMILES IDX 9 1 10 2 11 3 12 4 13 5 14 6 15 7 16 8 17 9 8 10 7 11 6 12
REMARK SMILES IDX 5 13 4 14 3 15 2 16 1 17
REMARK H PARENT
REMARK Flexibility Score: inf
ROOT
ATOM      1  C   UNL     1      13.279 -31.101  22.800  1.00  0.00     0.000 C 
ENDROOT
BRANCH   1   2
ATOM      2  C   UNL     1      12.692 -31.146  21.378  1.00  0.00     0.000 C 
BRANCH   2   3
ATOM      3  C   UNL     1      13.453 -32.115  20.457  1.00  0.00     0.000 C 
BRANCH   3   4
ATOM      4  C   UNL     1      14.357 -33.084  21.235  1.00  0.00     0.000 C 
BRANCH   4   5
ATOM      5  C   UNL     1      14.928 -34.205  20.353  1.00  0.00     0.006 C 
BRANCH   5   6
ATOM      6  C   UNL     1      16.058 -34.947  21.073  1.00  0.00     0.053 C 
BRANCH   6   7
ATOM      7  C   UNL     1      16.984 -35.579  20.083  1.00  0.00     0.041 C 
ATOM      8  O   UNL     1      17.425 -36.741  20.279  1.00  0.00    -0.550 OA
ATOM      9  O   UNL     1      17.400 -34.865  18.966  1.00  0.00    -0.550 OA
ENDBRANCH   6   7
ENDBRANCH   5   6
ENDBRANCH   4   5
ENDBRANCH   3   4
ENDBRANCH   2   3
ENDBRANCH   1   2
BRANCH   1  10
ATOM     10  C   UNL     1      13.871 -29.725  23.150  1.00  0.00     0.000 C 
BRANCH  10  11
ATOM     11  C   UNL     1      15.156 -29.417  22.364  1.00  0.00    -0.000 C 
BRANCH  11  12
ATOM     12  C   UNL     1      16.324 -30.338  22.751  1.00  0.00    -0.000 C 
BRANCH  12  13
ATOM     13  C   UNL     1      17.485 -30.199  21.756  1.00  0.00    -0.000 C 
BRANCH  13  14
ATOM     14  C   UNL     1      17.606 -31.408  20.814  1.00  0.00    -0.000 C 
BRANCH  14  15
ATOM     15  C   UNL     1      18.895 -32.215  21.050  1.00  0.00    -0.000 C 
BRANCH  15  16
ATOM     16  C   UNL     1      20.161 -31.358  20.894  1.00  0.00    -0.003 C 
ATOM     17  C   UNL     1      21.293 -31.807  21.818  1.00  0.00     0.004 C 
ENDBRANCH  15  16
ENDBRANCH  14  15
ENDBRANCH  13  14
ENDBRANCH  12  13
ENDBRANCH  11  12
ENDBRANCH  10  11
ENDBRANCH   1  10
TORSDOF 13
ENDMDL
