MODEL 1
REMARK VINA RESULT:    -4.722      0.000      0.000
REMARK INTER + INTRA:          -8.255
REMARK INTER:                  -7.207
REMARK INTRA:                  -1.048
REMARK UNBOUND:                -1.048
REMARK SMILES O=C([O-])CCCCCCCCC(=O)[O-]
REMARK SMILES IDX 7 1 6 2 5 3 4 4 2 5 1 6 3 7 8 8 9 9 10 10 11 11 12 12 13 13
REMARK SMILES IDX 14 14
REMARK H PARENT
REMARK Flexibility Score: inf
ROOT
ATOM      1  C   UNL     1      14.346  15.543 163.148  1.00  0.00     0.000 C 
ENDROOT
BRANCH   1   2
ATOM      2  C   UNL     1      13.836  14.662 161.998  1.00  0.00     0.000 C 
BRANCH   2   3
ATOM      3  C   UNL     1      13.473  13.259 162.501  1.00  0.00     0.006 C 
BRANCH   3   4
ATOM      4  C   UNL     1      12.200  12.744 161.825  1.00  0.00     0.053 C 
BRANCH   4   5
ATOM      5  C   UNL     1      11.027  12.879 162.744  1.00  0.00     0.041 C 
ATOM      6  O   UNL     1      11.197  12.898 163.991  1.00  0.00    -0.550 OA
ATOM      7  O   UNL     1       9.749  13.033 162.221  1.00  0.00    -0.550 OA
ENDBRANCH   4   5
ENDBRANCH   3   4
ENDBRANCH   2   3
ENDBRANCH   1   2
BRANCH   1   8
ATOM      8  C   UNL     1      13.443  16.759 163.411  1.00  0.00     0.000 C 
BRANCH   8   9
ATOM      9  C   UNL     1      12.086  16.366 164.023  1.00  0.00     0.000 C 
BRANCH   9  10
ATOM     10  C   UNL     1      10.914  16.606 163.058  1.00  0.00     0.006 C 
BRANCH  10  11
ATOM     11  C   UNL     1      11.266  17.583 161.928  1.00  0.00     0.053 C 
BRANCH  11  12
ATOM     12  C   UNL     1      11.053  16.937 160.595  1.00  0.00     0.041 C 
ATOM     13  O   UNL     1      10.628  15.754 160.525  1.00  0.00    -0.550 OA
ATOM     14  O   UNL     1      11.372  17.624 159.431  1.00  0.00    -0.550 OA
ENDBRANCH  11  12
ENDBRANCH  10  11
ENDBRANCH   9  10
ENDBRANCH   8   9
ENDBRANCH   1   8
TORSDOF 9
ENDMDL
MODEL 2
REMARK VINA RESULT:    -4.700      0.943      4.224
REMARK INTER + INTRA:          -8.221
REMARK INTER:                  -7.079
REMARK INTRA:                  -1.141
REMARK UNBOUND:                -1.048
REMARK SMILES O=C([O-])CCCCCCCCC(=O)[O-]
REMARK SMILES IDX 7 1 6 2 5 3 4 4 2 5 1 6 3 7 8 8 9 9 10 10 11 11 12 12 13 13
REMARK SMILES IDX 14 14
REMARK H PARENT
REMARK Flexibility Score: inf
ROOT
ATOM      1  C   UNL     1      12.383  16.084 164.525  1.00  0.00     0.000 C 
ENDROOT
BRANCH   1   2
ATOM      2  C   UNL     1      10.989  16.432 163.982  1.00  0.00     0.000 C 
BRANCH   2   3
ATOM      3  C   UNL     1      11.090  17.144 162.628  1.00  0.00     0.006 C 
BRANCH   3   4
ATOM      4  C   UNL     1      10.643  16.225 161.488  1.00  0.00     0.053 C 
BRANCH   4   5
ATOM      5  C   UNL     1      11.489  16.446 160.273  1.00  0.00     0.041 C 
ATOM      6  O   UNL     1      12.374  15.608 159.956  1.00  0.00    -0.550 OA
ATOM      7  O   UNL     1      11.265  17.552 159.463  1.00  0.00    -0.550 OA
ENDBRANCH   4   5
ENDBRANCH   3   4
ENDBRANCH   2   3
ENDBRANCH   1   2
BRANCH   1   8
ATOM      8  C   UNL     1      13.516  16.528 163.585  1.00  0.00     0.000 C 
BRANCH   8   9
ATOM      9  C   UNL     1      14.306  15.339 163.010  1.00  0.00     0.000 C 
BRANCH   9  10
ATOM     10  C   UNL     1      13.768  13.984 163.496  1.00  0.00     0.006 C 
BRANCH  10  11
ATOM     11  C   UNL     1      13.292  13.088 162.345  1.00  0.00     0.053 C 
BRANCH  11  12
ATOM     12  C   UNL     1      11.819  12.847 162.445  1.00  0.00     0.041 C 
ATOM     13  O   UNL     1      11.138  12.645 161.407  1.00  0.00    -0.550 OA
ATOM     14  O   UNL     1      11.190  12.896 163.683  1.00  0.00    -0.550 OA
ENDBRANCH  11  12
ENDBRANCH  10  11
ENDBRANCH   9  10
ENDBRANCH   8   9
ENDBRANCH   1   8
TORSDOF 9
ENDMDL
MODEL 3
REMARK VINA RESULT:    -4.675      2.230      3.768
REMARK INTER + INTRA:          -8.183
REMARK INTER:                  -7.143
REMARK INTRA:                  -1.040
REMARK UNBOUND:                -1.048
REMARK SMILES O=C([O-])CCCCCCCCC(=O)[O-]
REMARK SMILES IDX 7 1 6 2 5 3 4 4 2 5 1 6 3 7 8 8 9 9 10 10 11 11 12 12 13 13
REMARK SMILES IDX 14 14
REMARK H PARENT
REMARK Flexibility Score: inf
ROOT
ATOM      1  C   UNL     1      10.946  16.711 161.422  1.00  0.00     0.000 C 
ENDROOT
BRANCH   1   2
ATOM      2  C   UNL     1      10.494  15.312 160.975  1.00  0.00     0.000 C 
BRANCH   2   3
ATOM      3  C   UNL     1       9.761  14.584 162.109  1.00  0.00     0.006 C 
BRANCH   3   4
ATOM      4  C   UNL     1      10.121  13.096 162.130  1.00  0.00     0.053 C 
BRANCH   4   5
ATOM      5  C   UNL     1      11.484  12.894 162.713  1.00  0.00     0.041 C 
ATOM      6  O   UNL     1      11.667  13.010 163.953  1.00  0.00    -0.550 OA
ATOM      7  O   UNL     1      12.543  12.527 161.891  1.00  0.00    -0.550 OA
ENDBRANCH   4   5
ENDBRANCH   3   4
ENDBRANCH   2   3
ENDBRANCH   1   2
BRANCH   1   8
ATOM      8  C   UNL     1      11.158  16.810 162.942  1.00  0.00     0.000 C 
BRANCH   8   9
ATOM      9  C   UNL     1      12.602  17.190 163.313  1.00  0.00     0.000 C 
BRANCH   9  10
ATOM     10  C   UNL     1      13.450  15.968 163.704  1.00  0.00     0.006 C 
BRANCH  10  11
ATOM     11  C   UNL     1      14.339  15.471 162.557  1.00  0.00     0.053 C 
BRANCH  11  12
ATOM     12  C   UNL     1      15.316  14.454 163.056  1.00  0.00     0.041 C 
ATOM     13  O   UNL     1      14.968  13.617 163.929  1.00  0.00    -0.550 OA
ATOM     14  O   UNL     1      16.626  14.463 162.595  1.00  0.00    -0.550 OA
ENDBRANCH  11  12
ENDBRANCH  10  11
ENDBRANCH   9  10
ENDBRANCH   8   9
ENDBRANCH   1   8
TORSDOF 9
ENDMDL
MODEL 4
REMARK VINA RESULT:    -4.651      2.199      4.197
REMARK INTER + INTRA:          -8.147
REMARK INTER:                  -7.137
REMARK INTRA:                  -1.010
REMARK UNBOUND:                -1.048
REMARK SMILES O=C([O-])CCCCCCCCC(=O)[O-]
REMARK SMILES IDX 7 1 6 2 5 3 4 4 2 5 1 6 3 7 8 8 9 9 10 10 11 11 12 12 13 13
REMARK SMILES IDX 14 14
REMARK H PARENT
REMARK Flexibility Score: inf
ROOT
ATOM      1  C   UNL     1      11.230  16.853 162.853  1.00  0.00     0.000 C 
ENDROOT
BRANCH   1   2
ATOM      2  C   UNL     1      12.637  17.311 163.267  1.00  0.00     0.000 C 
BRANCH   2   3
ATOM      3  C   UNL     1      13.484  16.122 163.736  1.00  0.00     0.006 C 
BRANCH   3   4
ATOM      4  C   UNL     1      14.196  15.453 162.557  1.00  0.00     0.053 C 
BRANCH   4   5
ATOM      5  C   UNL     1      15.193  14.451 163.046  1.00  0.00     0.041 C 
ATOM      6  O   UNL     1      14.838  13.534 163.832  1.00  0.00    -0.550 OA
ATOM      7  O   UNL     1      16.506  14.500 162.594  1.00  0.00    -0.550 OA
ENDBRANCH   4   5
ENDBRANCH   3   4
ENDBRANCH   2   3
ENDBRANCH   1   2
BRANCH   1   8
ATOM      8  C   UNL     1      11.018  16.885 161.331  1.00  0.00     0.000 C 
BRANCH   8   9
ATOM      9  C   UNL     1      10.440  15.566 160.788  1.00  0.00     0.000 C 
BRANCH   9  10
ATOM     10  C   UNL     1       9.746  14.734 161.879  1.00  0.00     0.006 C 
BRANCH  10  11
ATOM     11  C   UNL     1      10.086  13.240 161.790  1.00  0.00     0.053 C 
BRANCH  11  12
ATOM     12  C   UNL     1      11.353  12.949 162.530  1.00  0.00     0.041 C 
ATOM     13  O   UNL     1      11.447  13.216 163.755  1.00  0.00    -0.550 OA
ATOM     14  O   UNL     1      12.449  12.427 161.853  1.00  0.00    -0.550 OA
ENDBRANCH  11  12
ENDBRANCH  10  11
ENDBRANCH   9  10
ENDBRANCH   8   9
ENDBRANCH   1   8
TORSDOF 9
ENDMDL
MODEL 5
REMARK VINA RESULT:    -4.570      2.301      4.081
REMARK INTER + INTRA:          -8.023
REMARK INTER:                  -6.999
REMARK INTRA:                  -1.024
REMARK UNBOUND:                -1.048
REMARK SMILES O=C([O-])CCCCCCCCC(=O)[O-]
REMARK SMILES IDX 7 1 6 2 5 3 4 4 2 5 1 6 3 7 8 8 9 9 10 10 11 11 12 12 13 13
REMARK SMILES IDX 14 14
REMARK H PARENT
REMARK Flexibility Score: inf
ROOT
ATOM      1  C   UNL     1      10.204  13.293 161.851  1.00  0.00     0.000 C 
ENDROOT
BRANCH   1   2
ATOM      2  C   UNL     1      11.319  12.961 162.854  1.00  0.00     0.000 C 
BRANCH   2   3
ATOM      3  C   UNL     1      12.650  12.716 162.134  1.00  0.00     0.006 C 
BRANCH   3   4
ATOM      4  C   UNL     1      13.801  13.433 162.845  1.00  0.00     0.053 C 
BRANCH   4   5
ATOM      5  C   UNL     1      14.112  14.729 162.165  1.00  0.00     0.041 C 
ATOM      6  O   UNL     1      14.672  15.660 162.801  1.00  0.00    -0.550 OA
ATOM      7  O   UNL     1      13.828  14.891 160.815  1.00  0.00    -0.550 OA
ENDBRANCH   4   5
ENDBRANCH   3   4
ENDBRANCH   2   3
ENDBRANCH   1   2
BRANCH   1   8
ATOM      8  C   UNL     1       9.642  14.712 162.035  1.00  0.00     0.000 C 
BRANCH   8   9
ATOM      9  C   UNL     1      10.679  15.804 161.719  1.00  0.00     0.000 C 
BRANCH   9  10
ATOM     10  C   UNL     1      10.974  16.704 162.930  1.00  0.00     0.006 C 
BRANCH  10  11
ATOM     11  C   UNL     1      10.146  16.326 164.165  1.00  0.00     0.053 C 
BRANCH  11  12
ATOM     12  C   UNL     1      11.040  15.860 165.271  1.00  0.00     0.041 C 
ATOM     13  O   UNL     1      12.273  15.715 165.069  1.00  0.00    -0.550 OA
ATOM     14  O   UNL     1      10.502  15.539 166.511  1.00  0.00    -0.550 OA
ENDBRANCH  11  12
ENDBRANCH  10  11
ENDBRANCH   9  10
ENDBRANCH   8   9
ENDBRANCH   1   8
TORSDOF 9
ENDMDL
MODEL 6
REMARK VINA RESULT:    -4.525      1.141      4.121
REMARK INTER + INTRA:          -7.955
REMARK INTER:                  -7.070
REMARK INTRA:                  -0.884
REMARK UNBOUND:                -1.048
REMARK SMILES O=C([O-])CCCCCCCCC(=O)[O-]
REMARK SMILES IDX 7 1 6 2 5 3 4 4 2 5 1 6 3 7 8 8 9 9 10 10 11 11 12 12 13 13
REMARK SMILES IDX 14 14
REMARK H PARENT
REMARK Flexibility Score: inf
ROOT
ATOM      1  C   UNL     1      14.098  15.686 162.690  1.00  0.00     0.000 C 
ENDROOT
BRANCH   1   2
ATOM      2  C   UNL     1      13.430  16.517 163.795  1.00  0.00     0.000 C 
BRANCH   2   3
ATOM      3  C   UNL     1      12.384  17.473 163.207  1.00  0.00     0.006 C 
BRANCH   3   4
ATOM      4  C   UNL     1      11.189  16.701 162.641  1.00  0.00     0.053 C 
BRANCH   4   5
ATOM      5  C   UNL     1      10.954  17.073 161.211  1.00  0.00     0.041 C 
ATOM      6  O   UNL     1      11.113  18.263 160.831  1.00  0.00    -0.550 OA
ATOM      7  O   UNL     1      10.607  16.096 160.287  1.00  0.00    -0.550 OA
ENDBRANCH   4   5
ENDBRANCH   3   4
ENDBRANCH   2   3
ENDBRANCH   1   2
BRANCH   1   8
ATOM      8  C   UNL     1      14.799  14.429 163.232  1.00  0.00     0.000 C 
BRANCH   8   9
ATOM      9  C   UNL     1      14.073  13.131 162.835  1.00  0.00     0.000 C 
BRANCH   9  10
ATOM     10  C   UNL     1      12.801  13.395 162.014  1.00  0.00     0.006 C 
BRANCH  10  11
ATOM     11  C   UNL     1      11.518  13.033 162.774  1.00  0.00     0.053 C 
BRANCH  11  12
ATOM     12  C   UNL     1      10.371  12.890 161.824  1.00  0.00     0.041 C 
ATOM     13  O   UNL     1       9.332  13.584 161.977  1.00  0.00    -0.550 OA
ATOM     14  O   UNL     1      10.430  11.954 160.799  1.00  0.00    -0.550 OA
ENDBRANCH  11  12
ENDBRANCH  10  11
ENDBRANCH   9  10
ENDBRANCH   8   9
ENDBRANCH   1   8
TORSDOF 9
ENDMDL
MODEL 7
REMARK VINA RESULT:    -4.521      2.259      4.495
REMARK INTER + INTRA:          -7.948
REMARK INTER:                  -6.737
REMARK INTRA:                  -1.212
REMARK UNBOUND:                -1.048
REMARK SMILES O=C([O-])CCCCCCCCC(=O)[O-]
REMARK SMILES IDX 7 1 6 2 5 3 4 4 2 5 1 6 3 7 8 8 9 9 10 10 11 11 12 12 13 13
REMARK SMILES IDX 14 14
REMARK H PARENT
REMARK Flexibility Score: inf
ROOT
ATOM      1  C   UNL     1       9.734  14.621 161.791  1.00  0.00     0.000 C 
ENDROOT
BRANCH   1   2
ATOM      2  C   UNL     1      10.449  15.631 160.881  1.00  0.00     0.000 C 
BRANCH   2   3
ATOM      3  C   UNL     1      10.986  16.816 161.692  1.00  0.00     0.006 C 
BRANCH   3   4
ATOM      4  C   UNL     1      10.675  16.651 163.181  1.00  0.00     0.053 C 
BRANCH   4   5
ATOM      5  C   UNL     1      11.931  16.725 163.992  1.00  0.00     0.041 C 
ATOM      6  O   UNL     1      12.898  17.427 163.598  1.00  0.00    -0.550 OA
ATOM      7  O   UNL     1      12.014  16.057 165.207  1.00  0.00    -0.550 OA
ENDBRANCH   4   5
ENDBRANCH   3   4
ENDBRANCH   2   3
ENDBRANCH   1   2
BRANCH   1   8
ATOM      8  C   UNL     1      10.408  13.239 161.791  1.00  0.00     0.000 C 
BRANCH   8   9
ATOM      9  C   UNL     1      10.816  12.781 163.202  1.00  0.00     0.000 C 
BRANCH   9  10
ATOM     10  C   UNL     1      12.286  13.097 163.522  1.00  0.00     0.006 C 
BRANCH  10  11
ATOM     11  C   UNL     1      13.188  13.038 162.283  1.00  0.00     0.053 C 
BRANCH  11  12
ATOM     12  C   UNL     1      13.978  14.302 162.152  1.00  0.00     0.041 C 
ATOM     13  O   UNL     1      13.895  14.995 161.105  1.00  0.00    -0.550 OA
ATOM     14  O   UNL     1      14.844  14.689 163.167  1.00  0.00    -0.550 OA
ENDBRANCH  11  12
ENDBRANCH  10  11
ENDBRANCH   9  10
ENDBRANCH   8   9
ENDBRANCH   1   8
TORSDOF 9
ENDMDL
MODEL 8
REMARK VINA RESULT:    -4.496      1.755      4.204
REMARK INTER + INTRA:          -7.910
REMARK INTER:                  -6.853
REMARK INTRA:                  -1.057
REMARK UNBOUND:                -1.048
REMARK SMILES O=C([O-])CCCCCCCCC(=O)[O-]
REMARK SMILES IDX 7 1 6 2 5 3 4 4 2 5 1 6 3 7 8 8 9 9 10 10 11 11 12 12 13 13
REMARK SMILES IDX 14 14
REMARK H PARENT
REMARK Flexibility Score: inf
ROOT
ATOM      1  C   UNL     1      11.185  14.795 165.257  1.00  0.00     0.000 C 
ENDROOT
BRANCH   1   2
ATOM      2  C   UNL     1      11.800  16.083 164.690  1.00  0.00     0.000 C 
BRANCH   2   3
ATOM      3  C   UNL     1      10.798  16.822 163.795  1.00  0.00     0.006 C 
BRANCH   3   4
ATOM      4  C   UNL     1      11.488  17.405 162.559  1.00  0.00     0.053 C 
BRANCH   4   5
ATOM      5  C   UNL     1      10.941  16.786 161.312  1.00  0.00     0.041 C 
ATOM      6  O   UNL     1      10.161  15.800 161.383  1.00  0.00    -0.550 OA
ATOM      7  O   UNL     1      11.252  17.329 160.072  1.00  0.00    -0.550 OA
ENDBRANCH   4   5
ENDBRANCH   3   4
ENDBRANCH   2   3
ENDBRANCH   1   2
BRANCH   1   8
ATOM      8  C   UNL     1      11.786  13.525 164.633  1.00  0.00     0.000 C 
BRANCH   8   9
ATOM      9  C   UNL     1      11.119  13.150 163.298  1.00  0.00     0.000 C 
BRANCH   9  10
ATOM     10  C   UNL     1      12.142  12.919 162.173  1.00  0.00     0.006 C 
BRANCH  10  11
ATOM     11  C   UNL     1      13.568  13.310 162.580  1.00  0.00     0.053 C 
BRANCH  11  12
ATOM     12  C   UNL     1      13.950  14.614 161.954  1.00  0.00     0.041 C 
ATOM     13  O   UNL     1      14.515  15.505 162.641  1.00  0.00    -0.550 OA
ATOM     14  O   UNL     1      13.637  14.866 160.624  1.00  0.00    -0.550 OA
ENDBRANCH  11  12
ENDBRANCH  10  11
ENDBRANCH   9  10
ENDBRANCH   8   9
ENDBRANCH   1   8
TORSDOF 9
ENDMDL
MODEL 9
REMARK VINA RESULT:    -4.487      2.153      3.218
REMARK INTER + INTRA:          -7.896
REMARK INTER:                  -6.880
REMARK INTRA:                  -1.016
REMARK UNBOUND:                -1.048
REMARK SMILES O=C([O-])CCCCCCCCC(=O)[O-]
REMARK SMILES IDX 7 1 6 2 5 3 4 4 2 5 1 6 3 7 8 8 9 9 10 10 11 11 12 12 13 13
REMARK SMILES IDX 14 14
REMARK H PARENT
REMARK Flexibility Score: inf
ROOT
ATOM      1  C   UNL     1      13.982  13.962 162.355  1.00  0.00     0.000 C 
ENDROOT
BRANCH   1   2
ATOM      2  C   UNL     1      13.273  14.528 161.116  1.00  0.00     0.000 C 
BRANCH   2   3
ATOM      3  C   UNL     1      11.801  14.098 161.082  1.00  0.00     0.006 C 
BRANCH   3   4
ATOM      4  C   UNL     1      11.620  12.707 161.694  1.00  0.00     0.053 C 
BRANCH   4   5
ATOM      5  C   UNL     1      10.166  12.386 161.845  1.00  0.00     0.041 C 
ATOM      6  O   UNL     1       9.345  13.291 162.147  1.00  0.00    -0.550 OA
ATOM      7  O   UNL     1       9.710  11.096 161.604  1.00  0.00    -0.550 OA
ENDBRANCH   4   5
ENDBRANCH   3   4
ENDBRANCH   2   3
ENDBRANCH   1   2
BRANCH   1   8
ATOM      8  C   UNL     1      14.602  15.058 163.238  1.00  0.00     0.000 C 
BRANCH   8   9
ATOM      9  C   UNL     1      13.870  16.405 163.107  1.00  0.00     0.000 C 
BRANCH   9  10
ATOM     10  C   UNL     1      12.993  16.720 164.330  1.00  0.00     0.006 C 
BRANCH  10  11
ATOM     11  C   UNL     1      11.547  16.236 164.163  1.00  0.00     0.053 C 
BRANCH  11  12
ATOM     12  C   UNL     1      11.226  15.190 165.184  1.00  0.00     0.041 C 
ATOM     13  O   UNL     1      11.531  13.987 164.976  1.00  0.00    -0.550 OA
ATOM     14  O   UNL     1      10.544  15.537 166.343  1.00  0.00    -0.550 OA
ENDBRANCH  11  12
ENDBRANCH  10  11
ENDBRANCH   9  10
ENDBRANCH   8   9
ENDBRANCH   1   8
TORSDOF 9
ENDMDL
