MODEL 1
REMARK VINA RESULT:    -4.595      0.000      0.000
REMARK INTER + INTRA:          -6.541
REMARK INTER:                  -6.206
REMARK INTRA:                  -0.334
REMARK UNBOUND:                -0.334
REMARK SMILES C[C@@H](O)[C@@H](O)[C@H](O)[C@@H](O)C=O
REMARK SMILES IDX 4 1 2 2 1 3 3 4 6 6 8 7 10 8 11 9 9 10 7 12 5 14
REMARK H PARENT 3 5 9 11 7 13 5 15
REMARK Flexibility Score: inf
ROOT
ATOM      1  C   UNL     1      30.365   8.967  28.491  1.00  0.00     0.174 C 
ENDROOT
BRANCH   1   2
ATOM      2  C   UNL     1      29.400  10.175  28.402  1.00  0.00     0.142 C 
ATOM      3  C   UNL     1      28.867  10.560  29.787  1.00  0.00     0.041 C 
BRANCH   2   4
ATOM      4  O   UNL     1      30.074  11.275  27.846  1.00  0.00    -0.391 OA
ATOM      5  H   UNL     1      31.019  10.998  27.715  1.00  0.00     0.211 HD
ENDBRANCH   2   4
ENDBRANCH   1   2
BRANCH   1   6
ATOM      6  C   UNL     1      31.790   9.317  27.980  1.00  0.00     0.181 C 
BRANCH   6   7
ATOM      7  C   UNL     1      32.840   8.257  28.401  1.00  0.00     0.209 C 
BRANCH   7   8
ATOM      8  C   UNL     1      33.793   8.797  29.436  1.00  0.00     0.258 C 
ATOM      9  O   UNL     1      33.475   9.746  30.134  1.00  0.00    -0.300 OA
ENDBRANCH   7   8
BRANCH   7  10
ATOM     10  O   UNL     1      33.566   7.806  27.284  1.00  0.00    -0.383 OA
ATOM     11  H   UNL     1      32.918   7.424  26.636  1.00  0.00     0.211 HD
ENDBRANCH   7  10
ENDBRANCH   6   7
BRANCH   6  12
ATOM     12  O   UNL     1      31.770   9.426  26.578  1.00  0.00    -0.387 OA
ATOM     13  H   UNL     1      31.286   8.634  26.229  1.00  0.00     0.211 HD
ENDBRANCH   6  12
ENDBRANCH   1   6
BRANCH   1  14
ATOM     14  O   UNL     1      29.846   7.856  27.800  1.00  0.00    -0.388 OA
ATOM     15  H   UNL     1      29.620   8.152  26.878  1.00  0.00     0.211 HD
ENDBRANCH   1  14
TORSDOF 8
ENDMDL
MODEL 2
REMARK VINA RESULT:    -4.514      1.347      4.098
REMARK INTER + INTRA:          -6.432
REMARK INTER:                  -5.705
REMARK INTRA:                  -0.727
REMARK UNBOUND:                -0.334
REMARK SMILES C[C@@H](O)[C@@H](O)[C@H](O)[C@@H](O)C=O
REMARK SMILES IDX 4 1 2 2 1 3 3 4 6 6 8 7 10 8 11 9 9 10 7 12 5 14
REMARK H PARENT 3 5 9 11 7 13 5 15
REMARK Flexibility Score: inf
ROOT
ATOM      1  C   UNL     1      31.473   8.396  28.692  1.00  0.00     0.174 C 
ENDROOT
BRANCH   1   2
ATOM      2  C   UNL     1      32.957   8.686  28.358  1.00  0.00     0.142 C 
ATOM      3  C   UNL     1      33.849   8.493  29.591  1.00  0.00     0.041 C 
BRANCH   2   4
ATOM      4  O   UNL     1      33.386   7.819  27.339  1.00  0.00    -0.391 OA
ATOM      5  H   UNL     1      32.756   7.932  26.579  1.00  0.00     0.211 HD
ENDBRANCH   2   4
ENDBRANCH   1   2
BRANCH   1   6
ATOM      6  C   UNL     1      30.501   9.228  27.811  1.00  0.00     0.181 C 
BRANCH   6   7
ATOM      7  C   UNL     1      29.909  10.440  28.576  1.00  0.00     0.209 C 
BRANCH   7   8
ATOM      8  C   UNL     1      28.698  11.001  27.876  1.00  0.00     0.258 C 
ATOM      9  O   UNL     1      28.655  11.052  26.657  1.00  0.00    -0.300 OA
ENDBRANCH   7   8
BRANCH   7  10
ATOM     10  O   UNL     1      30.874  11.451  28.728  1.00  0.00    -0.383 OA
ATOM     11  H   UNL     1      30.594  12.223  28.169  1.00  0.00     0.211 HD
ENDBRANCH   7  10
ENDBRANCH   6   7
BRANCH   6  12
ATOM     12  O   UNL     1      31.181   9.683  26.667  1.00  0.00    -0.387 OA
ATOM     13  H   UNL     1      31.434  10.628  26.832  1.00  0.00     0.211 HD
ENDBRANCH   6  12
ENDBRANCH   1   6
BRANCH   1  14
ATOM     14  O   UNL     1      31.215   8.610  30.060  1.00  0.00    -0.388 OA
ATOM     15  H   UNL     1      31.806   8.003  30.578  1.00  0.00     0.211 HD
ENDBRANCH   1  14
TORSDOF 8
ENDMDL
MODEL 3
REMARK VINA RESULT:    -4.466      1.533      4.181
REMARK INTER + INTRA:          -6.366
REMARK INTER:                  -5.615
REMARK INTRA:                  -0.751
REMARK UNBOUND:                -0.334
REMARK SMILES C[C@@H](O)[C@@H](O)[C@H](O)[C@@H](O)C=O
REMARK SMILES IDX 4 1 2 2 1 3 3 4 6 6 8 7 10 8 11 9 9 10 7 12 5 14
REMARK H PARENT 3 5 9 11 7 13 5 15
REMARK Flexibility Score: inf
ROOT
ATOM      1  C   UNL     1      30.239   9.057  28.367  1.00  0.00     0.174 C 
ENDROOT
BRANCH   1   2
ATOM      2  C   UNL     1      31.703   9.340  27.949  1.00  0.00     0.142 C 
ATOM      3  C   UNL     1      32.651   8.262  28.490  1.00  0.00     0.041 C 
BRANCH   2   4
ATOM      4  O   UNL     1      31.793   9.371  26.547  1.00  0.00    -0.391 OA
ATOM      5  H   UNL     1      31.892  10.324  26.285  1.00  0.00     0.211 HD
ENDBRANCH   2   4
ENDBRANCH   1   2
BRANCH   1   6
ATOM      6  C   UNL     1      29.417  10.363  28.543  1.00  0.00     0.181 C 
BRANCH   6   7
ATOM      7  C   UNL     1      28.926  10.555  30.001  1.00  0.00     0.209 C 
BRANCH   7   8
ATOM      8  C   UNL     1      27.931  11.681  30.109  1.00  0.00     0.258 C 
ATOM      9  O   UNL     1      28.305  12.843  30.081  1.00  0.00    -0.300 OA
ENDBRANCH   7   8
BRANCH   7  10
ATOM     10  O   UNL     1      30.009  10.801  30.862  1.00  0.00    -0.383 OA
ATOM     11  H   UNL     1      29.696  10.652  31.793  1.00  0.00     0.211 HD
ENDBRANCH   7  10
ENDBRANCH   6   7
BRANCH   6  12
ATOM     12  O   UNL     1      30.205  11.465  28.166  1.00  0.00    -0.387 OA
ATOM     13  H   UNL     1      31.147  11.154  28.128  1.00  0.00     0.211 HD
ENDBRANCH   6  12
ENDBRANCH   1   6
BRANCH   1  14
ATOM     14  O   UNL     1      30.193   8.276  29.539  1.00  0.00    -0.388 OA
ATOM     15  H   UNL     1      30.571   8.820  30.279  1.00  0.00     0.211 HD
ENDBRANCH   1  14
TORSDOF 8
ENDMDL
MODEL 4
REMARK VINA RESULT:    -4.429      1.792      3.953
REMARK INTER + INTRA:          -6.317
REMARK INTER:                  -5.998
REMARK INTRA:                  -0.319
REMARK UNBOUND:                -0.334
REMARK SMILES C[C@@H](O)[C@@H](O)[C@H](O)[C@@H](O)C=O
REMARK SMILES IDX 4 1 2 2 1 3 3 4 6 6 8 7 10 8 11 9 9 10 7 12 5 14
REMARK H PARENT 3 5 9 11 7 13 5 15
REMARK Flexibility Score: inf
ROOT
ATOM      1  C   UNL     1      31.449   9.285  27.886  1.00  0.00     0.174 C 
ENDROOT
BRANCH   1   2
ATOM      2  C   UNL     1      31.330   7.824  28.384  1.00  0.00     0.142 C 
ATOM      3  C   UNL     1      31.375   7.756  29.915  1.00  0.00     0.041 C 
BRANCH   2   4
ATOM      4  O   UNL     1      30.121   7.271  27.933  1.00  0.00    -0.391 OA
ATOM      5  H   UNL     1      30.262   6.291  27.854  1.00  0.00     0.211 HD
ENDBRANCH   2   4
ENDBRANCH   1   2
BRANCH   1   6
ATOM      6  C   UNL     1      30.113  10.064  28.034  1.00  0.00     0.181 C 
BRANCH   6   7
ATOM      7  C   UNL     1      30.158  11.089  29.196  1.00  0.00     0.209 C 
BRANCH   7   8
ATOM      8  C   UNL     1      28.793  11.308  29.798  1.00  0.00     0.258 C 
ATOM      9  O   UNL     1      27.797  11.303  29.092  1.00  0.00    -0.300 OA
ENDBRANCH   7   8
BRANCH   7  10
ATOM     10  O   UNL     1      30.680  12.318  28.757  1.00  0.00    -0.383 OA
ATOM     11  H   UNL     1      31.067  12.176  27.853  1.00  0.00     0.211 HD
ENDBRANCH   7  10
ENDBRANCH   6   7
BRANCH   6  12
ATOM     12  O   UNL     1      29.826  10.734  26.830  1.00  0.00    -0.387 OA
ATOM     13  H   UNL     1      30.384  10.318  26.123  1.00  0.00     0.211 HD
ENDBRANCH   6  12
ENDBRANCH   1   6
BRANCH   1  14
ATOM     14  O   UNL     1      31.907   9.328  26.555  1.00  0.00    -0.388 OA
ATOM     15  H   UNL     1      31.611  10.191  26.161  1.00  0.00     0.211 HD
ENDBRANCH   1  14
TORSDOF 8
ENDMDL
MODEL 5
REMARK VINA RESULT:    -4.315      1.384      1.911
REMARK INTER + INTRA:          -6.163
REMARK INTER:                  -5.529
REMARK INTRA:                  -0.635
REMARK UNBOUND:                -0.334
REMARK SMILES C[C@@H](O)[C@@H](O)[C@H](O)[C@@H](O)C=O
REMARK SMILES IDX 4 1 2 2 1 3 3 4 6 6 8 7 10 8 11 9 9 10 7 12 5 14
REMARK H PARENT 3 5 9 11 7 13 5 15
REMARK Flexibility Score: inf
ROOT
ATOM      1  C   UNL     1      30.035   9.765  28.944  1.00  0.00     0.174 C 
ENDROOT
BRANCH   1   2
ATOM      2  C   UNL     1      29.060  10.533  28.017  1.00  0.00     0.142 C 
ATOM      3  C   UNL     1      28.420  11.719  28.749  1.00  0.00     0.041 C 
BRANCH   2   4
ATOM      4  O   UNL     1      29.755  11.006  26.893  1.00  0.00    -0.391 OA
ATOM      5  H   UNL     1      29.629  10.336  26.171  1.00  0.00     0.211 HD
ENDBRANCH   2   4
ENDBRANCH   1   2
BRANCH   1   6
ATOM      6  C   UNL     1      30.447   8.390  28.350  1.00  0.00     0.181 C 
BRANCH   6   7
ATOM      7  C   UNL     1      31.917   8.383  27.857  1.00  0.00     0.209 C 
BRANCH   7   8
ATOM      8  C   UNL     1      32.865   8.862  28.927  1.00  0.00     0.258 C 
ATOM      9  O   UNL     1      32.967   8.254  29.981  1.00  0.00    -0.300 OA
ENDBRANCH   7   8
BRANCH   7  10
ATOM     10  O   UNL     1      32.062   9.182  26.710  1.00  0.00    -0.383 OA
ATOM     11  H   UNL     1      31.582   8.733  25.965  1.00  0.00     0.211 HD
ENDBRANCH   7  10
ENDBRANCH   6   7
BRANCH   6  12
ATOM     12  O   UNL     1      30.274   7.390  29.323  1.00  0.00    -0.387 OA
ATOM     13  H   UNL     1      29.556   6.786  29.000  1.00  0.00     0.211 HD
ENDBRANCH   6  12
ENDBRANCH   1   6
BRANCH   1  14
ATOM     14  O   UNL     1      29.486   9.609  30.231  1.00  0.00    -0.388 OA
ATOM     15  H   UNL     1      28.959   8.767  30.235  1.00  0.00     0.211 HD
ENDBRANCH   1  14
TORSDOF 8
ENDMDL
MODEL 6
REMARK VINA RESULT:    -4.267      1.338      2.193
REMARK INTER + INTRA:          -6.099
REMARK INTER:                  -5.752
REMARK INTRA:                  -0.347
REMARK UNBOUND:                -0.334
REMARK SMILES C[C@@H](O)[C@@H](O)[C@H](O)[C@@H](O)C=O
REMARK SMILES IDX 4 1 2 2 1 3 3 4 6 6 8 7 10 8 11 9 9 10 7 12 5 14
REMARK H PARENT 3 5 9 11 7 13 5 15
REMARK Flexibility Score: inf
ROOT
ATOM      1  C   UNL     1      29.457  10.445  27.811  1.00  0.00     0.174 C 
ENDROOT
BRANCH   1   2
ATOM      2  C   UNL     1      29.157  11.326  29.049  1.00  0.00     0.142 C 
ATOM      3  C   UNL     1      30.384  12.155  29.447  1.00  0.00     0.041 C 
BRANCH   2   4
ATOM      4  O   UNL     1      28.089  12.192  28.762  1.00  0.00    -0.391 OA
ATOM      5  H   UNL     1      27.296  11.845  29.250  1.00  0.00     0.211 HD
ENDBRANCH   2   4
ENDBRANCH   1   2
BRANCH   1   6
ATOM      6  C   UNL     1      30.856   9.775  27.894  1.00  0.00     0.181 C 
BRANCH   6   7
ATOM      7  C   UNL     1      30.815   8.428  28.660  1.00  0.00     0.209 C 
BRANCH   7   8
ATOM      8  C   UNL     1      32.180   8.031  29.160  1.00  0.00     0.258 C 
ATOM      9  O   UNL     1      33.185   8.384  28.564  1.00  0.00    -0.300 OA
ENDBRANCH   7   8
BRANCH   7  10
ATOM     10  O   UNL     1      30.299   7.406  27.843  1.00  0.00    -0.383 OA
ATOM     11  H   UNL     1      31.039   6.773  27.647  1.00  0.00     0.211 HD
ENDBRANCH   7  10
ENDBRANCH   6   7
BRANCH   6  12
ATOM     12  O   UNL     1      31.349   9.560  26.594  1.00  0.00    -0.387 OA
ATOM     13  H   UNL     1      30.969   8.701  26.274  1.00  0.00     0.211 HD
ENDBRANCH   6  12
ENDBRANCH   1   6
BRANCH   1  14
ATOM     14  O   UNL     1      29.329  11.189  26.622  1.00  0.00    -0.388 OA
ATOM     15  H   UNL     1      29.343  10.549  25.862  1.00  0.00     0.211 HD
ENDBRANCH   1  14
TORSDOF 8
ENDMDL
MODEL 7
REMARK VINA RESULT:    -4.159      2.034      3.852
REMARK INTER + INTRA:          -5.952
REMARK INTER:                  -5.452
REMARK INTRA:                  -0.500
REMARK UNBOUND:                -0.334
REMARK SMILES C[C@@H](O)[C@@H](O)[C@H](O)[C@@H](O)C=O
REMARK SMILES IDX 4 1 2 2 1 3 3 4 6 6 8 7 10 8 11 9 9 10 7 12 5 14
REMARK H PARENT 3 5 9 11 7 13 5 15
REMARK Flexibility Score: inf
ROOT
ATOM      1  C   UNL     1      31.253   8.162  29.771  1.00  0.00     0.174 C 
ENDROOT
BRANCH   1   2
ATOM      2  C   UNL     1      30.884   6.875  30.550  1.00  0.00     0.142 C 
ATOM      3  C   UNL     1      31.264   6.998  32.030  1.00  0.00     0.041 C 
BRANCH   2   4
ATOM      4  O   UNL     1      29.503   6.644  30.446  1.00  0.00    -0.391 OA
ATOM      5  H   UNL     1      29.363   5.668  30.565  1.00  0.00     0.211 HD
ENDBRANCH   2   4
ENDBRANCH   1   2
BRANCH   1   6
ATOM      6  C   UNL     1      30.272   8.440  28.599  1.00  0.00     0.181 C 
BRANCH   6   7
ATOM      7  C   UNL     1      30.642   9.725  27.817  1.00  0.00     0.209 C 
BRANCH   7   8
ATOM      8  C   UNL     1      29.420  10.409  27.259  1.00  0.00     0.258 C 
ATOM      9  O   UNL     1      29.033  11.467  27.730  1.00  0.00    -0.300 OA
ENDBRANCH   7   8
BRANCH   7  10
ATOM     10  O   UNL     1      31.534   9.431  26.770  1.00  0.00    -0.383 OA
ATOM     11  H   UNL     1      32.160  10.197  26.682  1.00  0.00     0.211 HD
ENDBRANCH   7  10
ENDBRANCH   6   7
BRANCH   6  12
ATOM     12  O   UNL     1      30.271   7.341  27.721  1.00  0.00    -0.387 OA
ATOM     13  H   UNL     1      29.429   6.840  27.879  1.00  0.00     0.211 HD
ENDBRANCH   6  12
ENDBRANCH   1   6
BRANCH   1  14
ATOM     14  O   UNL     1      32.582   8.106  29.307  1.00  0.00    -0.388 OA
ATOM     15  H   UNL     1      32.928   7.193  29.491  1.00  0.00     0.211 HD
ENDBRANCH   1  14
TORSDOF 8
ENDMDL
MODEL 8
REMARK VINA RESULT:    -4.105      9.243     10.545
REMARK INTER + INTRA:          -5.880
REMARK INTER:                  -4.893
REMARK INTRA:                  -0.986
REMARK UNBOUND:                -0.334
REMARK SMILES C[C@@H](O)[C@@H](O)[C@H](O)[C@@H](O)C=O
REMARK SMILES IDX 4 1 2 2 1 3 3 4 6 6 8 7 10 8 11 9 9 10 7 12 5 14
REMARK H PARENT 3 5 9 11 7 13 5 15
REMARK Flexibility Score: inf
ROOT
ATOM      1  C   UNL     1      29.193  17.332  20.996  1.00  0.00     0.174 C 
ENDROOT
BRANCH   1   2
ATOM      2  C   UNL     1      27.766  17.722  20.537  1.00  0.00     0.142 C 
ATOM      3  C   UNL     1      26.848  16.494  20.486  1.00  0.00     0.041 C 
BRANCH   2   4
ATOM      4  O   UNL     1      27.227  18.663  21.429  1.00  0.00    -0.391 OA
ATOM      5  H   UNL     1      26.475  18.218  21.900  1.00  0.00     0.211 HD
ENDBRANCH   2   4
ENDBRANCH   1   2
BRANCH   1   6
ATOM      6  C   UNL     1      29.197  16.683  22.407  1.00  0.00     0.181 C 
BRANCH   6   7
ATOM      7  C   UNL     1      30.476  15.845  22.663  1.00  0.00     0.209 C 
BRANCH   7   8
ATOM      8  C   UNL     1      31.444  16.567  23.565  1.00  0.00     0.258 C 
ATOM      9  O   UNL     1      32.009  17.579  23.184  1.00  0.00    -0.300 OA
ENDBRANCH   7   8
BRANCH   7  10
ATOM     10  O   UNL     1      31.113  15.527  21.450  1.00  0.00    -0.383 OA
ATOM     11  H   UNL     1      30.912  16.253  20.803  1.00  0.00     0.211 HD
ENDBRANCH   7  10
ENDBRANCH   6   7
BRANCH   6  12
ATOM     12  O   UNL     1      29.095  17.690  23.385  1.00  0.00    -0.387 OA
ATOM     13  H   UNL     1      28.345  17.441  23.985  1.00  0.00     0.211 HD
ENDBRANCH   6  12
ENDBRANCH   1   6
BRANCH   1  14
ATOM     14  O   UNL     1      30.056  18.444  20.954  1.00  0.00    -0.388 OA
ATOM     15  H   UNL     1      30.974  18.107  20.780  1.00  0.00     0.211 HD
ENDBRANCH   1  14
TORSDOF 8
ENDMDL
MODEL 9
REMARK VINA RESULT:    -4.014      9.605     10.860
REMARK INTER + INTRA:          -5.756
REMARK INTER:                  -4.764
REMARK INTRA:                  -0.992
REMARK UNBOUND:                -0.334
REMARK SMILES C[C@@H](O)[C@@H](O)[C@H](O)[C@@H](O)C=O
REMARK SMILES IDX 4 1 2 2 1 3 3 4 6 6 8 7 10 8 11 9 9 10 7 12 5 14
REMARK H PARENT 3 5 9 11 7 13 5 15
REMARK Flexibility Score: inf
ROOT
ATOM      1  C   UNL     1      22.154   3.381  25.922  1.00  0.00     0.174 C 
ENDROOT
BRANCH   1   2
ATOM      2  C   UNL     1      22.153   3.033  24.413  1.00  0.00     0.142 C 
ATOM      3  C   UNL     1      22.468   4.269  23.561  1.00  0.00     0.041 C 
BRANCH   2   4
ATOM      4  O   UNL     1      23.114   2.041  24.160  1.00  0.00    -0.391 OA
ATOM      5  H   UNL     1      23.865   2.481  23.682  1.00  0.00     0.211 HD
ENDBRANCH   2   4
ENDBRANCH   1   2
BRANCH   1   6
ATOM      6  C   UNL     1      23.520   3.955  26.390  1.00  0.00     0.181 C 
BRANCH   6   7
ATOM      7  C   UNL     1      23.399   4.747  27.716  1.00  0.00     0.209 C 
BRANCH   7   8
ATOM      8  C   UNL     1      23.920   3.955  28.888  1.00  0.00     0.258 C 
ATOM      9  O   UNL     1      23.349   2.939  29.251  1.00  0.00    -0.300 OA
ENDBRANCH   7   8
BRANCH   7  10
ATOM     10  O   UNL     1      22.063   5.116  27.956  1.00  0.00    -0.383 OA
ATOM     11  H   UNL     1      21.481   4.498  27.439  1.00  0.00     0.211 HD
ENDBRANCH   7  10
ENDBRANCH   6   7
BRANCH   6  12
ATOM     12  O   UNL     1      24.437   2.901  26.556  1.00  0.00    -0.387 OA
ATOM     13  H   UNL     1      24.011   2.081  26.195  1.00  0.00     0.211 HD
ENDBRANCH   6  12
ENDBRANCH   1   6
BRANCH   1  14
ATOM     14  O   UNL     1      21.791   2.262  26.697  1.00  0.00    -0.388 OA
ATOM     15  H   UNL     1      21.330   2.596  27.511  1.00  0.00     0.211 HD
ENDBRANCH   1  14
TORSDOF 8
ENDMDL
