MODEL 1
REMARK VINA RESULT:    -3.902      0.000      0.000
REMARK INTER + INTRA:          -8.348
REMARK INTER:                  -7.096
REMARK INTRA:                  -1.252
REMARK UNBOUND:                -1.252
REMARK SMILES CCCCCCCCCCCCCCCC(=O)[O-]
REMARK SMILES IDX 9 1 10 2 11 3 12 4 13 5 14 6 15 7 16 8 17 9 18 10 8 11 7 12
REMARK SMILES IDX 6 13 5 14 4 15 3 16 2 17 1 18
REMARK H PARENT
REMARK Flexibility Score: inf
ROOT
ATOM      1  C   UNL     1     -19.098  21.765  45.151  1.00  0.00     0.000 C 
ENDROOT
BRANCH   1   2
ATOM      2  C   UNL     1     -17.959  20.843  44.689  1.00  0.00     0.000 C 
BRANCH   2   3
ATOM      3  C   UNL     1     -17.134  21.507  43.576  1.00  0.00     0.000 C 
BRANCH   3   4
ATOM      4  C   UNL     1     -18.009  22.166  42.494  1.00  0.00     0.000 C 
BRANCH   4   5
ATOM      5  C   UNL     1     -17.857  23.695  42.370  1.00  0.00     0.000 C 
BRANCH   5   6
ATOM      6  C   UNL     1     -19.162  24.495  42.524  1.00  0.00     0.006 C 
BRANCH   6   7
ATOM      7  C   UNL     1     -19.048  25.929  41.990  1.00  0.00     0.053 C 
BRANCH   7   8
ATOM      8  C   UNL     1     -19.990  26.834  42.719  1.00  0.00     0.041 C 
ATOM      9  O   UNL     1     -19.771  28.073  42.765  1.00  0.00    -0.550 OA
ATOM     10  O   UNL     1     -21.139  26.316  43.304  1.00  0.00    -0.550 OA
ENDBRANCH   7   8
ENDBRANCH   6   7
ENDBRANCH   5   6
ENDBRANCH   4   5
ENDBRANCH   3   4
ENDBRANCH   2   3
ENDBRANCH   1   2
BRANCH   1  11
ATOM     11  C   UNL     1     -20.016  21.102  46.190  1.00  0.00     0.000 C 
BRANCH  11  12
ATOM     12  C   UNL     1     -21.224  21.980  46.556  1.00  0.00    -0.000 C 
BRANCH  12  13
ATOM     13  C   UNL     1     -21.291  23.280  45.734  1.00  0.00    -0.000 C 
BRANCH  13  14
ATOM     14  C   UNL     1     -22.594  24.092  45.890  1.00  0.00    -0.000 C 
BRANCH  14  15
ATOM     15  C   UNL     1     -23.573  23.992  44.706  1.00  0.00    -0.000 C 
BRANCH  15  16
ATOM     16  C   UNL     1     -25.044  23.753  45.100  1.00  0.00    -0.000 C 
BRANCH  16  17
ATOM     17  C   UNL     1     -25.230  22.660  46.172  1.00  0.00    -0.003 C 
ATOM     18  C   UNL     1     -25.161  21.247  45.594  1.00  0.00     0.004 C 
ENDBRANCH  16  17
ENDBRANCH  15  16
ENDBRANCH  14  15
ENDBRANCH  13  14
ENDBRANCH  12  13
ENDBRANCH  11  12
ENDBRANCH   1  11
TORSDOF 14
ENDMDL
MODEL 2
REMARK VINA RESULT:    -3.894      3.527      5.244
REMARK INTER + INTRA:          -8.334
REMARK INTER:                  -6.018
REMARK INTRA:                  -2.316
REMARK UNBOUND:                -1.252
REMARK SMILES CCCCCCCCCCCCCCCC(=O)[O-]
REMARK SMILES IDX 9 1 10 2 11 3 12 4 13 5 14 6 15 7 16 8 17 9 18 10 8 11 7 12
REMARK SMILES IDX 6 13 5 14 4 15 3 16 2 17 1 18
REMARK H PARENT
REMARK Flexibility Score: inf
ROOT
ATOM      1  C   UNL     1     -18.708  21.785  45.845  1.00  0.00     0.000 C 
ENDROOT
BRANCH   1   2
ATOM      2  C   UNL     1     -18.320  20.661  44.872  1.00  0.00     0.000 C 
BRANCH   2   3
ATOM      3  C   UNL     1     -17.370  21.182  43.783  1.00  0.00     0.000 C 
BRANCH   3   4
ATOM      4  C   UNL     1     -18.056  22.153  42.805  1.00  0.00     0.000 C 
BRANCH   4   5
ATOM      5  C   UNL     1     -17.263  23.439  42.496  1.00  0.00     0.000 C 
BRANCH   5   6
ATOM      6  C   UNL     1     -16.247  23.853  43.575  1.00  0.00     0.006 C 
BRANCH   6   7
ATOM      7  C   UNL     1     -14.968  24.463  42.985  1.00  0.00     0.053 C 
BRANCH   7   8
ATOM      8  C   UNL     1     -14.055  23.386  42.491  1.00  0.00     0.041 C 
ATOM      9  O   UNL     1     -13.267  23.612  41.536  1.00  0.00    -0.550 OA
ATOM     10  O   UNL     1     -14.039  22.146  43.119  1.00  0.00    -0.550 OA
ENDBRANCH   7   8
ENDBRANCH   6   7
ENDBRANCH   5   6
ENDBRANCH   4   5
ENDBRANCH   3   4
ENDBRANCH   2   3
ENDBRANCH   1   2
BRANCH   1  11
ATOM     11  C   UNL     1     -20.216  22.076  45.847  1.00  0.00     0.000 C 
BRANCH  11  12
ATOM     12  C   UNL     1     -20.540  23.523  45.435  1.00  0.00    -0.000 C 
BRANCH  12  13
ATOM     13  C   UNL     1     -19.340  24.474  45.597  1.00  0.00    -0.000 C 
BRANCH  13  14
ATOM     14  C   UNL     1     -19.335  25.695  44.654  1.00  0.00    -0.000 C 
BRANCH  14  15
ATOM     15  C   UNL     1     -20.098  25.503  43.330  1.00  0.00    -0.000 C 
BRANCH  15  16
ATOM     16  C   UNL     1     -19.528  26.290  42.134  1.00  0.00    -0.000 C 
BRANCH  16  17
ATOM     17  C   UNL     1     -18.232  27.061  42.459  1.00  0.00    -0.003 C 
ATOM     18  C   UNL     1     -18.120  28.379  41.693  1.00  0.00     0.004 C 
ENDBRANCH  16  17
ENDBRANCH  15  16
ENDBRANCH  14  15
ENDBRANCH  13  14
ENDBRANCH  12  13
ENDBRANCH  11  12
ENDBRANCH   1  11
TORSDOF 14
ENDMDL
MODEL 3
REMARK VINA RESULT:    -3.862      2.400      6.620
REMARK INTER + INTRA:          -8.275
REMARK INTER:                  -6.277
REMARK INTRA:                  -1.997
REMARK UNBOUND:                -1.252
REMARK SMILES CCCCCCCCCCCCCCCC(=O)[O-]
REMARK SMILES IDX 9 1 10 2 11 3 12 4 13 5 14 6 15 7 16 8 17 9 18 10 8 11 7 12
REMARK SMILES IDX 6 13 5 14 4 15 3 16 2 17 1 18
REMARK H PARENT
REMARK Flexibility Score: inf
ROOT
ATOM      1  C   UNL     1     -17.011  21.178  44.042  1.00  0.00     0.000 C 
ENDROOT
BRANCH   1   2
ATOM      2  C   UNL     1     -17.986  20.267  44.804  1.00  0.00     0.000 C 
BRANCH   2   3
ATOM      3  C   UNL     1     -19.142  21.083  45.402  1.00  0.00     0.000 C 
BRANCH   3   4
ATOM      4  C   UNL     1     -18.670  22.128  46.428  1.00  0.00     0.000 C 
BRANCH   4   5
ATOM      5  C   UNL     1     -19.348  23.508  46.316  1.00  0.00     0.000 C 
BRANCH   5   6
ATOM      6  C   UNL     1     -20.346  23.652  45.154  1.00  0.00     0.006 C 
BRANCH   6   7
ATOM      7  C   UNL     1     -21.730  24.128  45.613  1.00  0.00     0.053 C 
BRANCH   7   8
ATOM      8  C   UNL     1     -22.414  24.882  44.517  1.00  0.00     0.041 C 
ATOM      9  O   UNL     1     -21.845  25.863  43.972  1.00  0.00    -0.550 OA
ATOM     10  O   UNL     1     -23.660  24.468  44.061  1.00  0.00    -0.550 OA
ENDBRANCH   7   8
ENDBRANCH   6   7
ENDBRANCH   5   6
ENDBRANCH   4   5
ENDBRANCH   3   4
ENDBRANCH   2   3
ENDBRANCH   1   2
BRANCH   1  11
ATOM     11  C   UNL     1     -17.675  21.905  42.863  1.00  0.00     0.000 C 
BRANCH  11  12
ATOM     12  C   UNL     1     -17.219  23.369  42.740  1.00  0.00    -0.000 C 
BRANCH  12  13
ATOM     13  C   UNL     1     -16.417  23.852  43.963  1.00  0.00    -0.000 C 
BRANCH  13  14
ATOM     14  C   UNL     1     -15.073  24.537  43.640  1.00  0.00    -0.000 C 
BRANCH  14  15
ATOM     15  C   UNL     1     -14.555  24.319  42.206  1.00  0.00    -0.000 C 
BRANCH  15  16
ATOM     16  C   UNL     1     -13.488  23.217  42.064  1.00  0.00    -0.000 C 
BRANCH  16  17
ATOM     17  C   UNL     1     -12.857  22.786  43.404  1.00  0.00    -0.003 C 
ATOM     18  C   UNL     1     -13.273  21.378  43.829  1.00  0.00     0.004 C 
ENDBRANCH  16  17
ENDBRANCH  15  16
ENDBRANCH  14  15
ENDBRANCH  13  14
ENDBRANCH  12  13
ENDBRANCH  11  12
ENDBRANCH   1  11
TORSDOF 14
ENDMDL
MODEL 4
REMARK VINA RESULT:    -3.823      2.466      6.233
REMARK INTER + INTRA:          -8.204
REMARK INTER:                  -6.184
REMARK INTRA:                  -2.020
REMARK UNBOUND:                -1.252
REMARK SMILES CCCCCCCCCCCCCCCC(=O)[O-]
REMARK SMILES IDX 9 1 10 2 11 3 12 4 13 5 14 6 15 7 16 8 17 9 18 10 8 11 7 12
REMARK SMILES IDX 6 13 5 14 4 15 3 16 2 17 1 18
REMARK H PARENT
REMARK Flexibility Score: inf
ROOT
ATOM      1  C   UNL     1     -18.087  20.905  45.775  1.00  0.00     0.000 C 
ENDROOT
BRANCH   1   2
ATOM      2  C   UNL     1     -19.608  21.027  45.958  1.00  0.00     0.000 C 
BRANCH   2   3
ATOM      3  C   UNL     1     -20.101  22.417  45.529  1.00  0.00     0.000 C 
BRANCH   3   4
ATOM      4  C   UNL     1     -19.194  23.555  46.030  1.00  0.00     0.000 C 
BRANCH   4   5
ATOM      5  C   UNL     1     -19.395  24.911  45.325  1.00  0.00     0.000 C 
BRANCH   5   6
ATOM      6  C   UNL     1     -20.360  24.886  44.127  1.00  0.00     0.006 C 
BRANCH   6   7
ATOM      7  C   UNL     1     -21.584  25.789  44.329  1.00  0.00     0.053 C 
BRANCH   7   8
ATOM      8  C   UNL     1     -22.725  25.003  44.894  1.00  0.00     0.041 C 
ATOM      9  O   UNL     1     -22.855  24.882  46.141  1.00  0.00    -0.550 OA
ATOM     10  O   UNL     1     -23.674  24.448  44.046  1.00  0.00    -0.550 OA
ENDBRANCH   7   8
ENDBRANCH   6   7
ENDBRANCH   5   6
ENDBRANCH   4   5
ENDBRANCH   3   4
ENDBRANCH   2   3
ENDBRANCH   1   2
BRANCH   1  11
ATOM     11  C   UNL     1     -17.693  20.465  44.357  1.00  0.00     0.000 C 
BRANCH  11  12
ATOM     12  C   UNL     1     -16.903  21.548  43.601  1.00  0.00    -0.000 C 
BRANCH  12  13
ATOM     13  C   UNL     1     -17.785  22.376  42.648  1.00  0.00    -0.000 C 
BRANCH  13  14
ATOM     14  C   UNL     1     -17.294  23.814  42.380  1.00  0.00    -0.000 C 
BRANCH  14  15
ATOM     15  C   UNL     1     -16.269  24.356  43.393  1.00  0.00    -0.000 C 
BRANCH  15  16
ATOM     16  C   UNL     1     -14.976  24.915  42.769  1.00  0.00    -0.000 C 
BRANCH  16  17
ATOM     17  C   UNL     1     -14.120  23.849  42.053  1.00  0.00    -0.003 C 
ATOM     18  C   UNL     1     -13.302  24.425  40.898  1.00  0.00     0.004 C 
ENDBRANCH  16  17
ENDBRANCH  15  16
ENDBRANCH  14  15
ENDBRANCH  13  14
ENDBRANCH  12  13
ENDBRANCH  11  12
ENDBRANCH   1  11
TORSDOF 14
ENDMDL
MODEL 5
REMARK VINA RESULT:    -3.778      1.876      5.398
REMARK INTER + INTRA:          -8.123
REMARK INTER:                  -5.958
REMARK INTRA:                  -2.165
REMARK UNBOUND:                -1.252
REMARK SMILES CCCCCCCCCCCCCCCC(=O)[O-]
REMARK SMILES IDX 9 1 10 2 11 3 12 4 13 5 14 6 15 7 16 8 17 9 18 10 8 11 7 12
REMARK SMILES IDX 6 13 5 14 4 15 3 16 2 17 1 18
REMARK H PARENT
REMARK Flexibility Score: inf
ROOT
ATOM      1  C   UNL     1     -17.503  20.737  44.601  1.00  0.00     0.000 C 
ENDROOT
BRANCH   1   2
ATOM      2  C   UNL     1     -18.866  21.206  45.133  1.00  0.00     0.000 C 
BRANCH   2   3
ATOM      3  C   UNL     1     -18.690  22.165  46.320  1.00  0.00     0.000 C 
BRANCH   3   4
ATOM      4  C   UNL     1     -19.039  23.622  45.968  1.00  0.00     0.000 C 
BRANCH   4   5
ATOM      5  C   UNL     1     -20.347  23.809  45.174  1.00  0.00     0.000 C 
BRANCH   5   6
ATOM      6  C   UNL     1     -21.582  24.156  46.023  1.00  0.00     0.006 C 
BRANCH   6   7
ATOM      7  C   UNL     1     -22.741  23.172  45.819  1.00  0.00     0.053 C 
BRANCH   7   8
ATOM      8  C   UNL     1     -23.773  23.761  44.911  1.00  0.00     0.041 C 
ATOM      9  O   UNL     1     -24.979  23.416  45.014  1.00  0.00    -0.550 OA
ATOM     10  O   UNL     1     -23.411  24.731  43.984  1.00  0.00    -0.550 OA
ENDBRANCH   7   8
ENDBRANCH   6   7
ENDBRANCH   5   6
ENDBRANCH   4   5
ENDBRANCH   3   4
ENDBRANCH   2   3
ENDBRANCH   1   2
BRANCH   1  11
ATOM     11  C   UNL     1     -16.910  21.698  43.558  1.00  0.00     0.000 C 
BRANCH  11  12
ATOM     12  C   UNL     1     -17.951  22.161  42.524  1.00  0.00    -0.000 C 
BRANCH  12  13
ATOM     13  C   UNL     1     -17.985  23.691  42.352  1.00  0.00    -0.000 C 
BRANCH  13  14
ATOM     14  C   UNL     1     -16.801  24.451  42.986  1.00  0.00    -0.000 C 
BRANCH  14  15
ATOM     15  C   UNL     1     -17.159  25.803  43.630  1.00  0.00    -0.000 C 
BRANCH  15  16
ATOM     16  C   UNL     1     -18.122  26.678  42.805  1.00  0.00    -0.000 C 
BRANCH  16  17
ATOM     17  C   UNL     1     -19.358  27.157  43.594  1.00  0.00    -0.003 C 
ATOM     18  C   UNL     1     -20.675  26.773  42.921  1.00  0.00     0.004 C 
ENDBRANCH  16  17
ENDBRANCH  15  16
ENDBRANCH  14  15
ENDBRANCH  13  14
ENDBRANCH  12  13
ENDBRANCH  11  12
ENDBRANCH   1  11
TORSDOF 14
ENDMDL
MODEL 6
REMARK VINA RESULT:    -3.742      2.585      4.888
REMARK INTER + INTRA:          -8.056
REMARK INTER:                  -6.504
REMARK INTRA:                  -1.552
REMARK UNBOUND:                -1.252
REMARK SMILES CCCCCCCCCCCCCCCC(=O)[O-]
REMARK SMILES IDX 9 1 10 2 11 3 12 4 13 5 14 6 15 7 16 8 17 9 18 10 8 11 7 12
REMARK SMILES IDX 6 13 5 14 4 15 3 16 2 17 1 18
REMARK H PARENT
REMARK Flexibility Score: inf
ROOT
ATOM      1  C   UNL     1     -22.357  25.840  44.758  1.00  0.00     0.000 C 
ENDROOT
BRANCH   1   2
ATOM      2  C   UNL     1     -20.853  25.702  44.472  1.00  0.00     0.000 C 
BRANCH   2   3
ATOM      3  C   UNL     1     -20.483  26.386  43.147  1.00  0.00     0.000 C 
BRANCH   3   4
ATOM      4  C   UNL     1     -19.381  25.639  42.375  1.00  0.00     0.000 C 
BRANCH   4   5
ATOM      5  C   UNL     1     -18.827  24.382  43.076  1.00  0.00     0.000 C 
BRANCH   5   6
ATOM      6  C   UNL     1     -17.999  23.446  42.179  1.00  0.00     0.006 C 
BRANCH   6   7
ATOM      7  C   UNL     1     -17.731  22.082  42.828  1.00  0.00     0.053 C 
BRANCH   7   8
ATOM      8  C   UNL     1     -16.342  22.031  43.381  1.00  0.00     0.041 C 
ATOM      9  O   UNL     1     -15.939  21.005  43.990  1.00  0.00    -0.550 OA
ATOM     10  O   UNL     1     -15.474  23.097  43.180  1.00  0.00    -0.550 OA
ENDBRANCH   7   8
ENDBRANCH   6   7
ENDBRANCH   5   6
ENDBRANCH   4   5
ENDBRANCH   3   4
ENDBRANCH   2   3
ENDBRANCH   1   2
BRANCH   1  11
ATOM     11  C   UNL     1     -23.192  24.739  44.086  1.00  0.00     0.000 C 
BRANCH  11  12
ATOM     12  C   UNL     1     -24.179  24.071  45.059  1.00  0.00    -0.000 C 
BRANCH  12  13
ATOM     13  C   UNL     1     -23.526  23.674  46.396  1.00  0.00    -0.000 C 
BRANCH  13  14
ATOM     14  C   UNL     1     -23.276  22.163  46.584  1.00  0.00    -0.000 C 
BRANCH  14  15
ATOM     15  C   UNL     1     -21.803  21.763  46.785  1.00  0.00    -0.000 C 
BRANCH  15  16
ATOM     16  C   UNL     1     -20.797  22.535  45.908  1.00  0.00    -0.000 C 
BRANCH  16  17
ATOM     17  C   UNL     1     -19.391  21.901  45.872  1.00  0.00    -0.003 C 
ATOM     18  C   UNL     1     -19.430  20.373  45.886  1.00  0.00     0.004 C 
ENDBRANCH  16  17
ENDBRANCH  15  16
ENDBRANCH  14  15
ENDBRANCH  13  14
ENDBRANCH  12  13
ENDBRANCH  11  12
ENDBRANCH   1  11
TORSDOF 14
ENDMDL
MODEL 7
REMARK VINA RESULT:    -3.726      2.227      5.932
REMARK INTER + INTRA:          -8.028
REMARK INTER:                  -6.044
REMARK INTRA:                  -1.984
REMARK UNBOUND:                -1.252
REMARK SMILES CCCCCCCCCCCCCCCC(=O)[O-]
REMARK SMILES IDX 9 1 10 2 11 3 12 4 13 5 14 6 15 7 16 8 17 9 18 10 8 11 7 12
REMARK SMILES IDX 6 13 5 14 4 15 3 16 2 17 1 18
REMARK H PARENT
REMARK Flexibility Score: inf
ROOT
ATOM      1  C   UNL     1     -19.207  21.974  46.122  1.00  0.00     0.000 C 
ENDROOT
BRANCH   1   2
ATOM      2  C   UNL     1     -20.598  22.608  45.967  1.00  0.00     0.000 C 
BRANCH   2   3
ATOM      3  C   UNL     1     -20.537  23.848  45.064  1.00  0.00     0.000 C 
BRANCH   3   4
ATOM      4  C   UNL     1     -19.304  24.729  45.338  1.00  0.00     0.000 C 
BRANCH   4   5
ATOM      5  C   UNL     1     -18.451  25.065  44.099  1.00  0.00     0.000 C 
BRANCH   5   6
ATOM      6  C   UNL     1     -19.134  24.804  42.745  1.00  0.00     0.006 C 
BRANCH   6   7
ATOM      7  C   UNL     1     -19.284  26.074  41.899  1.00  0.00     0.053 C 
BRANCH   7   8
ATOM      8  C   UNL     1     -20.127  27.082  42.614  1.00  0.00     0.041 C 
ATOM      9  O   UNL     1     -19.708  28.258  42.776  1.00  0.00    -0.550 OA
ATOM     10  O   UNL     1     -21.398  26.736  43.056  1.00  0.00    -0.550 OA
ENDBRANCH   7   8
ENDBRANCH   6   7
ENDBRANCH   5   6
ENDBRANCH   4   5
ENDBRANCH   3   4
ENDBRANCH   2   3
ENDBRANCH   1   2
BRANCH   1  11
ATOM     11  C   UNL     1     -19.096  20.608  45.427  1.00  0.00     0.000 C 
BRANCH  11  12
ATOM     12  C   UNL     1     -17.784  20.452  44.639  1.00  0.00    -0.000 C 
BRANCH  12  13
ATOM     13  C   UNL     1     -17.712  21.373  43.407  1.00  0.00    -0.000 C 
BRANCH  13  14
ATOM     14  C   UNL     1     -16.417  22.202  43.280  1.00  0.00    -0.000 C 
BRANCH  14  15
ATOM     15  C   UNL     1     -15.727  22.548  44.613  1.00  0.00    -0.000 C 
BRANCH  15  16
ATOM     16  C   UNL     1     -14.221  22.855  44.502  1.00  0.00    -0.000 C 
BRANCH  16  17
ATOM     17  C   UNL     1     -13.596  22.421  43.160  1.00  0.00    -0.003 C 
ATOM     18  C   UNL     1     -13.047  23.598  42.354  1.00  0.00     0.004 C 
ENDBRANCH  16  17
ENDBRANCH  15  16
ENDBRANCH  14  15
ENDBRANCH  13  14
ENDBRANCH  12  13
ENDBRANCH  11  12
ENDBRANCH   1  11
TORSDOF 14
ENDMDL
MODEL 8
REMARK VINA RESULT:    -3.718      2.471      5.229
REMARK INTER + INTRA:          -8.013
REMARK INTER:                  -5.295
REMARK INTRA:                  -2.718
REMARK UNBOUND:                -1.252
REMARK SMILES CCCCCCCCCCCCCCCC(=O)[O-]
REMARK SMILES IDX 9 1 10 2 11 3 12 4 13 5 14 6 15 7 16 8 17 9 18 10 8 11 7 12
REMARK SMILES IDX 6 13 5 14 4 15 3 16 2 17 1 18
REMARK H PARENT
REMARK Flexibility Score: inf
ROOT
ATOM      1  C   UNL     1     -19.060  21.097  45.401  1.00  0.00     0.000 C 
ENDROOT
BRANCH   1   2
ATOM      2  C   UNL     1     -18.500  22.037  46.480  1.00  0.00     0.000 C 
BRANCH   2   3
ATOM      3  C   UNL     1     -19.159  23.422  46.395  1.00  0.00     0.000 C 
BRANCH   3   4
ATOM      4  C   UNL     1     -20.380  23.447  45.458  1.00  0.00     0.000 C 
BRANCH   4   5
ATOM      5  C   UNL     1     -20.340  24.527  44.359  1.00  0.00     0.000 C 
BRANCH   5   6
ATOM      6  C   UNL     1     -20.472  25.975  44.862  1.00  0.00     0.006 C 
BRANCH   6   7
ATOM      7  C   UNL     1     -19.608  26.963  44.068  1.00  0.00     0.053 C 
BRANCH   7   8
ATOM      8  C   UNL     1     -20.010  26.968  42.627  1.00  0.00     0.041 C 
ATOM      9  O   UNL     1     -19.209  26.564  41.744  1.00  0.00    -0.550 OA
ATOM     10  O   UNL     1     -21.289  27.372  42.264  1.00  0.00    -0.550 OA
ENDBRANCH   7   8
ENDBRANCH   6   7
ENDBRANCH   5   6
ENDBRANCH   4   5
ENDBRANCH   3   4
ENDBRANCH   2   3
ENDBRANCH   1   2
BRANCH   1  11
ATOM     11  C   UNL     1     -17.959  20.329  44.652  1.00  0.00     0.000 C 
BRANCH  11  12
ATOM     12  C   UNL     1     -17.102  21.245  43.762  1.00  0.00    -0.000 C 
BRANCH  12  13
ATOM     13  C   UNL     1     -17.940  22.065  42.763  1.00  0.00    -0.000 C 
BRANCH  13  14
ATOM     14  C   UNL     1     -17.473  23.519  42.549  1.00  0.00    -0.000 C 
BRANCH  14  15
ATOM     15  C   UNL     1     -16.239  23.938  43.369  1.00  0.00    -0.000 C 
BRANCH  15  16
ATOM     16  C   UNL     1     -16.491  25.063  44.390  1.00  0.00    -0.000 C 
BRANCH  16  17
ATOM     17  C   UNL     1     -15.837  24.813  45.765  1.00  0.00    -0.003 C 
ATOM     18  C   UNL     1     -15.045  23.507  45.814  1.00  0.00     0.004 C 
ENDBRANCH  16  17
ENDBRANCH  15  16
ENDBRANCH  14  15
ENDBRANCH  13  14
ENDBRANCH  12  13
ENDBRANCH  11  12
ENDBRANCH   1  11
TORSDOF 14
ENDMDL
MODEL 9
REMARK VINA RESULT:    -3.703      2.146      5.721
REMARK INTER + INTRA:          -7.986
REMARK INTER:                  -6.101
REMARK INTRA:                  -1.884
REMARK UNBOUND:                -1.252
REMARK SMILES CCCCCCCCCCCCCCCC(=O)[O-]
REMARK SMILES IDX 9 1 10 2 11 3 12 4 13 5 14 6 15 7 16 8 17 9 18 10 8 11 7 12
REMARK SMILES IDX 6 13 5 14 4 15 3 16 2 17 1 18
REMARK H PARENT
REMARK Flexibility Score: inf
ROOT
ATOM      1  C   UNL     1     -17.878  20.260  44.732  1.00  0.00     0.000 C 
ENDROOT
BRANCH   1   2
ATOM      2  C   UNL     1     -18.375  20.424  46.176  1.00  0.00     0.000 C 
BRANCH   2   3
ATOM      3  C   UNL     1     -19.897  20.233  46.255  1.00  0.00     0.000 C 
BRANCH   3   4
ATOM      4  C   UNL     1     -20.645  21.528  46.623  1.00  0.00     0.000 C 
BRANCH   4   5
ATOM      5  C   UNL     1     -20.236  22.773  45.811  1.00  0.00     0.000 C 
BRANCH   5   6
ATOM      6  C   UNL     1     -21.403  23.666  45.353  1.00  0.00     0.006 C 
BRANCH   6   7
ATOM      7  C   UNL     1     -22.748  23.243  45.957  1.00  0.00     0.053 C 
BRANCH   7   8
ATOM      8  C   UNL     1     -23.864  23.541  45.007  1.00  0.00     0.041 C 
ATOM      9  O   UNL     1     -23.690  24.350  44.057  1.00  0.00    -0.550 OA
ATOM     10  O   UNL     1     -25.083  22.887  45.139  1.00  0.00    -0.550 OA
ENDBRANCH   7   8
ENDBRANCH   6   7
ENDBRANCH   5   6
ENDBRANCH   4   5
ENDBRANCH   3   4
ENDBRANCH   2   3
ENDBRANCH   1   2
BRANCH   1  11
ATOM     11  C   UNL     1     -16.552  20.994  44.473  1.00  0.00     0.000 C 
BRANCH  11  12
ATOM     12  C   UNL     1     -16.603  21.879  43.215  1.00  0.00    -0.000 C 
BRANCH  12  13
ATOM     13  C   UNL     1     -18.028  22.355  42.875  1.00  0.00    -0.000 C 
BRANCH  13  14
ATOM     14  C   UNL     1     -18.119  23.759  42.244  1.00  0.00    -0.000 C 
BRANCH  14  15
ATOM     15  C   UNL     1     -18.092  24.930  43.244  1.00  0.00    -0.000 C 
BRANCH  15  16
ATOM     16  C   UNL     1     -16.711  25.586  43.435  1.00  0.00    -0.000 C 
BRANCH  16  17
ATOM     17  C   UNL     1     -16.022  25.208  44.763  1.00  0.00    -0.003 C 
ATOM     18  C   UNL     1     -16.982  24.574  45.768  1.00  0.00     0.004 C 
ENDBRANCH  16  17
ENDBRANCH  15  16
ENDBRANCH  14  15
ENDBRANCH  13  14
ENDBRANCH  12  13
ENDBRANCH  11  12
ENDBRANCH   1  11
TORSDOF 14
ENDMDL
