MODEL 1
REMARK VINA RESULT:    -4.232      0.000      0.000
REMARK INTER + INTRA:          -9.912
REMARK INTER:                  -7.695
REMARK INTRA:                  -2.216
REMARK UNBOUND:                -2.216
REMARK SMILES CCCCCCCCCCCCCC[C@@H](C)C(=O)[O-]
REMARK SMILES IDX 9 1 10 2 11 3 12 4 13 5 14 6 15 7 16 8 17 9 18 10 19 11 8 12
REMARK SMILES IDX 7 13 6 14 5 15 4 16 3 17 2 18 1 19
REMARK H PARENT
REMARK Flexibility Score: inf
ROOT
ATOM      1  C   UNL     1      -0.470   4.982   5.991  1.00  0.00     0.000 C 
ENDROOT
BRANCH   1   2
ATOM      2  C   UNL     1       1.006   5.411   5.888  1.00  0.00     0.000 C 
BRANCH   2   3
ATOM      3  C   UNL     1       2.001   4.536   6.678  1.00  0.00     0.000 C 
BRANCH   3   4
ATOM      4  C   UNL     1       1.447   3.930   7.982  1.00  0.00     0.000 C 
BRANCH   4   5
ATOM      5  C   UNL     1       1.761   2.434   8.188  1.00  0.00     0.001 C 
BRANCH   5   6
ATOM      6  C   UNL     1       1.650   1.562   6.919  1.00  0.00     0.009 C 
BRANCH   6   7
ATOM      7  C   UNL     1       2.988   0.946   6.450  1.00  0.00     0.032 C 
ATOM      8  C   UNL     1       4.144   1.450   7.321  1.00  0.00     0.014 C 
BRANCH   7   9
ATOM      9  C   UNL     1       2.941  -0.558   6.475  1.00  0.00     0.044 C 
ATOM     10  O   UNL     1       2.325  -1.195   5.579  1.00  0.00    -0.550 OA
ATOM     11  O   UNL     1       3.595  -1.256   7.483  1.00  0.00    -0.550 OA
ENDBRANCH   7   9
ENDBRANCH   6   7
ENDBRANCH   5   6
ENDBRANCH   4   5
ENDBRANCH   3   4
ENDBRANCH   2   3
ENDBRANCH   1   2
BRANCH   1  12
ATOM     12  C   UNL     1      -0.917   4.090   4.821  1.00  0.00     0.000 C 
BRANCH  12  13
ATOM     13  C   UNL     1      -1.445   2.717   5.277  1.00  0.00    -0.000 C 
BRANCH  13  14
ATOM     14  C   UNL     1      -2.031   2.673   6.701  1.00  0.00    -0.000 C 
BRANCH  14  15
ATOM     15  C   UNL     1      -3.472   2.137   6.742  1.00  0.00    -0.000 C 
BRANCH  15  16
ATOM     16  C   UNL     1      -4.442   2.987   5.906  1.00  0.00    -0.000 C 
BRANCH  16  17
ATOM     17  C   UNL     1      -4.729   4.360   6.540  1.00  0.00    -0.000 C 
BRANCH  17  18
ATOM     18  C   UNL     1      -4.327   5.526   5.623  1.00  0.00    -0.003 C 
ATOM     19  C   UNL     1      -3.710   6.695   6.392  1.00  0.00     0.004 C 
ENDBRANCH  17  18
ENDBRANCH  16  17
ENDBRANCH  15  16
ENDBRANCH  14  15
ENDBRANCH  13  14
ENDBRANCH  12  13
ENDBRANCH   1  12
TORSDOF 14
ENDMDL
MODEL 2
REMARK VINA RESULT:    -4.091      1.228      1.868
REMARK INTER + INTRA:          -9.655
REMARK INTER:                  -7.360
REMARK INTRA:                  -2.295
REMARK UNBOUND:                -2.216
REMARK SMILES CCCCCCCCCCCCCC[C@@H](C)C(=O)[O-]
REMARK SMILES IDX 9 1 10 2 11 3 12 4 13 5 14 6 15 7 16 8 17 9 18 10 19 11 8 12
REMARK SMILES IDX 7 13 6 14 5 15 4 16 3 17 2 18 1 19
REMARK H PARENT
REMARK Flexibility Score: inf
ROOT
ATOM      1  C   UNL     1      -0.546   6.139   6.026  1.00  0.00     0.000 C 
ENDROOT
BRANCH   1   2
ATOM      2  C   UNL     1       0.045   6.220   7.445  1.00  0.00     0.000 C 
BRANCH   2   3
ATOM      3  C   UNL     1       0.030   4.899   8.241  1.00  0.00     0.000 C 
BRANCH   3   4
ATOM      4  C   UNL     1       1.374   4.508   8.884  1.00  0.00     0.000 C 
BRANCH   4   5
ATOM      5  C   UNL     1       2.558   4.396   7.902  1.00  0.00     0.001 C 
BRANCH   5   6
ATOM      6  C   UNL     1       2.432   3.271   6.852  1.00  0.00     0.009 C 
BRANCH   6   7
ATOM      7  C   UNL     1       2.597   1.845   7.423  1.00  0.00     0.032 C 
ATOM      8  C   UNL     1       1.237   1.142   7.510  1.00  0.00     0.014 C 
BRANCH   7   9
ATOM      9  C   UNL     1       3.549   1.025   6.594  1.00  0.00     0.044 C 
ATOM     10  O   UNL     1       4.772   1.323   6.540  1.00  0.00    -0.550 OA
ATOM     11  O   UNL     1       3.083  -0.080   5.893  1.00  0.00    -0.550 OA
ENDBRANCH   7   9
ENDBRANCH   6   7
ENDBRANCH   5   6
ENDBRANCH   4   5
ENDBRANCH   3   4
ENDBRANCH   2   3
ENDBRANCH   1   2
BRANCH   1  12
ATOM     12  C   UNL     1       0.003   4.951   5.217  1.00  0.00     0.000 C 
BRANCH  12  13
ATOM     13  C   UNL     1      -1.107   4.066   4.618  1.00  0.00    -0.000 C 
BRANCH  13  14
ATOM     14  C   UNL     1      -1.233   2.659   5.230  1.00  0.00    -0.000 C 
BRANCH  14  15
ATOM     15  C   UNL     1      -2.144   2.621   6.468  1.00  0.00    -0.000 C 
BRANCH  15  16
ATOM     16  C   UNL     1      -3.595   2.253   6.122  1.00  0.00    -0.000 C 
BRANCH  16  17
ATOM     17  C   UNL     1      -4.498   3.487   5.947  1.00  0.00    -0.000 C 
BRANCH  17  18
ATOM     18  C   UNL     1      -3.994   4.701   6.744  1.00  0.00    -0.003 C 
ATOM     19  C   UNL     1      -4.305   6.029   6.054  1.00  0.00     0.004 C 
ENDBRANCH  17  18
ENDBRANCH  16  17
ENDBRANCH  15  16
ENDBRANCH  14  15
ENDBRANCH  13  14
ENDBRANCH  12  13
ENDBRANCH   1  12
TORSDOF 14
ENDMDL
MODEL 3
REMARK VINA RESULT:    -3.998      2.794      6.680
REMARK INTER + INTRA:          -9.487
REMARK INTER:                  -7.185
REMARK INTRA:                  -2.302
REMARK UNBOUND:                -2.216
REMARK SMILES CCCCCCCCCCCCCC[C@@H](C)C(=O)[O-]
REMARK SMILES IDX 9 1 10 2 11 3 12 4 13 5 14 6 15 7 16 8 17 9 18 10 19 11 8 12
REMARK SMILES IDX 7 13 6 14 5 15 4 16 3 17 2 18 1 19
REMARK H PARENT
REMARK Flexibility Score: inf
ROOT
ATOM      1  C   UNL     1       0.624   3.147   8.346  1.00  0.00     0.000 C 
ENDROOT
BRANCH   1   2
ATOM      2  C   UNL     1       1.379   4.484   8.236  1.00  0.00     0.000 C 
BRANCH   2   3
ATOM      3  C   UNL     1       1.038   5.333   6.994  1.00  0.00     0.000 C 
BRANCH   3   4
ATOM      4  C   UNL     1       0.983   4.554   5.666  1.00  0.00     0.000 C 
BRANCH   4   5
ATOM      5  C   UNL     1      -0.379   4.597   4.943  1.00  0.00     0.001 C 
BRANCH   5   6
ATOM      6  C   UNL     1      -1.312   3.404   5.236  1.00  0.00     0.009 C 
BRANCH   6   7
ATOM      7  C   UNL     1      -2.405   3.692   6.290  1.00  0.00     0.032 C 
ATOM      8  C   UNL     1      -2.673   5.198   6.386  1.00  0.00     0.014 C 
BRANCH   7   9
ATOM      9  C   UNL     1      -3.682   2.960   5.976  1.00  0.00     0.044 C 
ATOM     10  O   UNL     1      -3.652   1.786   5.520  1.00  0.00    -0.550 OA
ATOM     11  O   UNL     1      -4.907   3.574   6.205  1.00  0.00    -0.550 OA
ENDBRANCH   7   9
ENDBRANCH   6   7
ENDBRANCH   5   6
ENDBRANCH   4   5
ENDBRANCH   3   4
ENDBRANCH   2   3
ENDBRANCH   1   2
BRANCH   1  12
ATOM     12  C   UNL     1       1.565   1.932   8.422  1.00  0.00     0.000 C 
BRANCH  12  13
ATOM     13  C   UNL     1       1.385   0.956   7.244  1.00  0.00    -0.000 C 
BRANCH  13  14
ATOM     14  C   UNL     1       2.678   0.572   6.501  1.00  0.00    -0.000 C 
BRANCH  14  15
ATOM     15  C   UNL     1       3.848   0.263   7.450  1.00  0.00    -0.000 C 
BRANCH  15  16
ATOM     16  C   UNL     1       5.070   1.159   7.190  1.00  0.00    -0.000 C 
BRANCH  16  17
ATOM     17  C   UNL     1       5.134   2.369   8.140  1.00  0.00    -0.000 C 
BRANCH  17  18
ATOM     18  C   UNL     1       4.982   3.706   7.400  1.00  0.00    -0.003 C 
ATOM     19  C   UNL     1       4.464   3.535   5.972  1.00  0.00     0.004 C 
ENDBRANCH  17  18
ENDBRANCH  16  17
ENDBRANCH  15  16
ENDBRANCH  14  15
ENDBRANCH  13  14
ENDBRANCH  12  13
ENDBRANCH   1  12
TORSDOF 14
ENDMDL
MODEL 4
REMARK VINA RESULT:    -3.985     13.336     15.307
REMARK INTER + INTRA:          -9.463
REMARK INTER:                  -7.267
REMARK INTRA:                  -2.196
REMARK UNBOUND:                -2.216
REMARK SMILES CCCCCCCCCCCCCC[C@@H](C)C(=O)[O-]
REMARK SMILES IDX 9 1 10 2 11 3 12 4 13 5 14 6 15 7 16 8 17 9 18 10 19 11 8 12
REMARK SMILES IDX 7 13 6 14 5 15 4 16 3 17 2 18 1 19
REMARK H PARENT
REMARK Flexibility Score: inf
ROOT
ATOM      1  C   UNL     1      -4.182   0.025  -7.110  1.00  0.00     0.000 C 
ENDROOT
BRANCH   1   2
ATOM      2  C   UNL     1      -4.743  -1.317  -7.616  1.00  0.00     0.000 C 
BRANCH   2   3
ATOM      3  C   UNL     1      -6.112  -1.719  -7.030  1.00  0.00     0.000 C 
BRANCH   3   4
ATOM      4  C   UNL     1      -6.307  -3.231  -6.802  1.00  0.00     0.000 C 
BRANCH   4   5
ATOM      5  C   UNL     1      -5.310  -3.873  -5.817  1.00  0.00     0.001 C 
BRANCH   5   6
ATOM      6  C   UNL     1      -5.074  -5.385  -6.019  1.00  0.00     0.009 C 
BRANCH   6   7
ATOM      7  C   UNL     1      -4.800  -6.167  -4.714  1.00  0.00     0.032 C 
ATOM      8  C   UNL     1      -4.405  -5.207  -3.586  1.00  0.00     0.014 C 
BRANCH   7   9
ATOM      9  C   UNL     1      -5.994  -6.985  -4.300  1.00  0.00     0.044 C 
ATOM     10  O   UNL     1      -6.081  -7.446  -3.131  1.00  0.00    -0.550 OA
ATOM     11  O   UNL     1      -7.019  -7.225  -5.207  1.00  0.00    -0.550 OA
ENDBRANCH   7   9
ENDBRANCH   6   7
ENDBRANCH   5   6
ENDBRANCH   4   5
ENDBRANCH   3   4
ENDBRANCH   2   3
ENDBRANCH   1   2
BRANCH   1  12
ATOM     12  C   UNL     1      -3.443  -0.104  -5.767  1.00  0.00     0.000 C 
BRANCH  12  13
ATOM     13  C   UNL     1      -2.553  -1.359  -5.687  1.00  0.00    -0.000 C 
BRANCH  13  14
ATOM     14  C   UNL     1      -1.277  -1.321  -6.549  1.00  0.00    -0.000 C 
BRANCH  14  15
ATOM     15  C   UNL     1      -0.670  -2.714  -6.787  1.00  0.00    -0.000 C 
BRANCH  15  16
ATOM     16  C   UNL     1      -1.738  -3.818  -6.853  1.00  0.00    -0.000 C 
BRANCH  16  17
ATOM     17  C   UNL     1      -1.424  -5.005  -5.925  1.00  0.00    -0.000 C 
BRANCH  17  18
ATOM     18  C   UNL     1      -0.351  -4.666  -4.878  1.00  0.00    -0.003 C 
ATOM     19  C   UNL     1      -0.949  -4.266  -3.529  1.00  0.00     0.004 C 
ENDBRANCH  17  18
ENDBRANCH  16  17
ENDBRANCH  15  16
ENDBRANCH  14  15
ENDBRANCH  13  14
ENDBRANCH  12  13
ENDBRANCH   1  12
TORSDOF 14
ENDMDL
MODEL 5
REMARK VINA RESULT:    -3.928      2.615      6.730
REMARK INTER + INTRA:          -9.360
REMARK INTER:                  -7.499
REMARK INTRA:                  -1.861
REMARK UNBOUND:                -2.216
REMARK SMILES CCCCCCCCCCCCCC[C@@H](C)C(=O)[O-]
REMARK SMILES IDX 9 1 10 2 11 3 12 4 13 5 14 6 15 7 16 8 17 9 18 10 19 11 8 12
REMARK SMILES IDX 7 13 6 14 5 15 4 16 3 17 2 18 1 19
REMARK H PARENT
REMARK Flexibility Score: inf
ROOT
ATOM      1  C   UNL     1       0.747   2.874   6.700  1.00  0.00     0.000 C 
ENDROOT
BRANCH   1   2
ATOM      2  C   UNL     1      -0.311   2.476   5.655  1.00  0.00     0.000 C 
BRANCH   2   3
ATOM      3  C   UNL     1      -0.943   3.650   4.878  1.00  0.00     0.000 C 
BRANCH   3   4
ATOM      4  C   UNL     1      -0.858   5.019   5.580  1.00  0.00     0.000 C 
BRANCH   4   5
ATOM      5  C   UNL     1      -2.177   5.509   6.210  1.00  0.00     0.001 C 
BRANCH   5   6
ATOM      6  C   UNL     1      -2.716   4.633   7.361  1.00  0.00     0.009 C 
BRANCH   6   7
ATOM      7  C   UNL     1      -4.029   3.886   7.032  1.00  0.00     0.032 C 
ATOM      8  C   UNL     1      -4.719   4.522   5.820  1.00  0.00     0.014 C 
BRANCH   7   9
ATOM      9  C   UNL     1      -3.781   2.423   6.775  1.00  0.00     0.044 C 
ATOM     10  O   UNL     1      -3.908   1.946   5.616  1.00  0.00    -0.550 OA
ATOM     11  O   UNL     1      -3.393   1.592   7.818  1.00  0.00    -0.550 OA
ENDBRANCH   7   9
ENDBRANCH   6   7
ENDBRANCH   5   6
ENDBRANCH   4   5
ENDBRANCH   3   4
ENDBRANCH   2   3
ENDBRANCH   1   2
BRANCH   1  12
ATOM     12  C   UNL     1       1.129   1.715   7.636  1.00  0.00     0.000 C 
BRANCH  12  13
ATOM     13  C   UNL     1       1.527   0.435   6.878  1.00  0.00    -0.000 C 
BRANCH  13  14
ATOM     14  C   UNL     1       2.981   0.391   6.372  1.00  0.00    -0.000 C 
BRANCH  14  15
ATOM     15  C   UNL     1       4.013   0.631   7.487  1.00  0.00    -0.000 C 
BRANCH  15  16
ATOM     16  C   UNL     1       5.140   1.581   7.052  1.00  0.00    -0.000 C 
BRANCH  16  17
ATOM     17  C   UNL     1       4.692   3.052   6.998  1.00  0.00    -0.000 C 
BRANCH  17  18
ATOM     18  C   UNL     1       4.305   3.600   8.380  1.00  0.00    -0.003 C 
ATOM     19  C   UNL     1       3.395   4.826   8.296  1.00  0.00     0.004 C 
ENDBRANCH  17  18
ENDBRANCH  16  17
ENDBRANCH  15  16
ENDBRANCH  14  15
ENDBRANCH  13  14
ENDBRANCH  12  13
ENDBRANCH   1  12
TORSDOF 14
ENDMDL
MODEL 6
REMARK VINA RESULT:    -3.910     13.202     14.809
REMARK INTER + INTRA:          -9.326
REMARK INTER:                  -7.116
REMARK INTRA:                  -2.210
REMARK UNBOUND:                -2.216
REMARK SMILES CCCCCCCCCCCCCC[C@@H](C)C(=O)[O-]
REMARK SMILES IDX 9 1 10 2 11 3 12 4 13 5 14 6 15 7 16 8 17 9 18 10 19 11 8 12
REMARK SMILES IDX 7 13 6 14 5 15 4 16 3 17 2 18 1 19
REMARK H PARENT
REMARK Flexibility Score: inf
ROOT
ATOM      1  C   UNL     1      -5.631  -2.147  -8.261  1.00  0.00     0.000 C 
ENDROOT
BRANCH   1   2
ATOM      2  C   UNL     1      -4.668  -0.952  -8.141  1.00  0.00     0.000 C 
BRANCH   2   3
ATOM      3  C   UNL     1      -4.703  -0.213  -6.787  1.00  0.00     0.000 C 
BRANCH   3   4
ATOM      4  C   UNL     1      -3.325   0.043  -6.147  1.00  0.00     0.000 C 
BRANCH   4   5
ATOM      5  C   UNL     1      -2.161   0.197  -7.147  1.00  0.00     0.001 C 
BRANCH   5   6
ATOM      6  C   UNL     1      -1.107  -0.929  -7.103  1.00  0.00     0.009 C 
BRANCH   6   7
ATOM      7  C   UNL     1      -1.561  -2.198  -6.345  1.00  0.00     0.032 C 
ATOM      8  C   UNL     1      -1.944  -3.304  -7.334  1.00  0.00     0.014 C 
BRANCH   7   9
ATOM      9  C   UNL     1      -0.493  -2.692  -5.406  1.00  0.00     0.044 C 
ATOM     10  O   UNL     1      -0.767  -2.951  -4.204  1.00  0.00    -0.550 OA
ATOM     11  O   UNL     1       0.803  -2.879  -5.869  1.00  0.00    -0.550 OA
ENDBRANCH   7   9
ENDBRANCH   6   7
ENDBRANCH   5   6
ENDBRANCH   4   5
ENDBRANCH   3   4
ENDBRANCH   2   3
ENDBRANCH   1   2
BRANCH   1  12
ATOM     12  C   UNL     1      -6.241  -2.562  -6.911  1.00  0.00     0.000 C 
BRANCH  12  13
ATOM     13  C   UNL     1      -5.534  -3.776  -6.278  1.00  0.00    -0.000 C 
BRANCH  13  14
ATOM     14  C   UNL     1      -4.853  -3.512  -4.923  1.00  0.00    -0.000 C 
BRANCH  14  15
ATOM     15  C   UNL     1      -3.855  -4.614  -4.527  1.00  0.00    -0.000 C 
BRANCH  15  16
ATOM     16  C   UNL     1      -4.367  -5.486  -3.371  1.00  0.00    -0.000 C 
BRANCH  16  17
ATOM     17  C   UNL     1      -4.468  -6.976  -3.747  1.00  0.00    -0.000 C 
BRANCH  17  18
ATOM     18  C   UNL     1      -5.921  -7.473  -3.792  1.00  0.00    -0.003 C 
ATOM     19  C   UNL     1      -6.619  -7.136  -5.110  1.00  0.00     0.004 C 
ENDBRANCH  17  18
ENDBRANCH  16  17
ENDBRANCH  15  16
ENDBRANCH  14  15
ENDBRANCH  13  14
ENDBRANCH  12  13
ENDBRANCH   1  12
TORSDOF 14
ENDMDL
MODEL 7
REMARK VINA RESULT:    -3.905      1.685      3.137
REMARK INTER + INTRA:          -9.318
REMARK INTER:                  -6.779
REMARK INTRA:                  -2.539
REMARK UNBOUND:                -2.216
REMARK SMILES CCCCCCCCCCCCCC[C@@H](C)C(=O)[O-]
REMARK SMILES IDX 9 1 10 2 11 3 12 4 13 5 14 6 15 7 16 8 17 9 18 10 19 11 8 12
REMARK SMILES IDX 7 13 6 14 5 15 4 16 3 17 2 18 1 19
REMARK H PARENT
REMARK Flexibility Score: inf
ROOT
ATOM      1  C   UNL     1      -3.004   2.835   5.641  1.00  0.00     0.000 C 
ENDROOT
BRANCH   1   2
ATOM      2  C   UNL     1      -1.503   2.784   5.305  1.00  0.00     0.000 C 
BRANCH   2   3
ATOM      3  C   UNL     1      -0.943   4.038   4.602  1.00  0.00     0.000 C 
BRANCH   3   4
ATOM      4  C   UNL     1      -0.163   5.004   5.513  1.00  0.00     0.000 C 
BRANCH   4   5
ATOM      5  C   UNL     1       0.513   4.346   6.733  1.00  0.00     0.001 C 
BRANCH   5   6
ATOM      6  C   UNL     1       1.905   3.738   6.459  1.00  0.00     0.009 C 
BRANCH   6   7
ATOM      7  C   UNL     1       2.243   2.502   7.324  1.00  0.00     0.032 C 
ATOM      8  C   UNL     1       1.404   1.296   6.886  1.00  0.00     0.014 C 
BRANCH   7   9
ATOM      9  C   UNL     1       3.708   2.163   7.254  1.00  0.00     0.044 C 
ATOM     10  O   UNL     1       4.357   1.908   8.303  1.00  0.00    -0.550 OA
ATOM     11  O   UNL     1       4.351   2.115   6.024  1.00  0.00    -0.550 OA
ENDBRANCH   7   9
ENDBRANCH   6   7
ENDBRANCH   5   6
ENDBRANCH   4   5
ENDBRANCH   3   4
ENDBRANCH   2   3
ENDBRANCH   1   2
BRANCH   1  12
ATOM     12  C   UNL     1      -3.344   2.135   6.968  1.00  0.00     0.000 C 
BRANCH  12  13
ATOM     13  C   UNL     1      -2.554   2.697   8.165  1.00  0.00    -0.000 C 
BRANCH  13  14
ATOM     14  C   UNL     1      -3.193   3.907   8.870  1.00  0.00    -0.000 C 
BRANCH  14  15
ATOM     15  C   UNL     1      -2.623   5.253   8.391  1.00  0.00    -0.000 C 
BRANCH  15  16
ATOM     16  C   UNL     1      -3.701   6.168   7.788  1.00  0.00    -0.000 C 
BRANCH  16  17
ATOM     17  C   UNL     1      -3.550   6.345   6.267  1.00  0.00    -0.000 C 
BRANCH  17  18
ATOM     18  C   UNL     1      -4.840   6.006   5.504  1.00  0.00    -0.003 C 
ATOM     19  C   UNL     1      -5.774   5.095   6.301  1.00  0.00     0.004 C 
ENDBRANCH  17  18
ENDBRANCH  16  17
ENDBRANCH  15  16
ENDBRANCH  14  15
ENDBRANCH  13  14
ENDBRANCH  12  13
ENDBRANCH   1  12
TORSDOF 14
ENDMDL
MODEL 8
REMARK VINA RESULT:    -3.897      3.371      7.121
REMARK INTER + INTRA:          -9.303
REMARK INTER:                  -7.001
REMARK INTRA:                  -2.302
REMARK UNBOUND:                -2.216
REMARK SMILES CCCCCCCCCCCCCC[C@@H](C)C(=O)[O-]
REMARK SMILES IDX 9 1 10 2 11 3 12 4 13 5 14 6 15 7 16 8 17 9 18 10 19 11 8 12
REMARK SMILES IDX 7 13 6 14 5 15 4 16 3 17 2 18 1 19
REMARK H PARENT
REMARK Flexibility Score: inf
ROOT
ATOM      1  C   UNL     1       0.719   3.318   7.722  1.00  0.00     0.000 C 
ENDROOT
BRANCH   1   2
ATOM      2  C   UNL     1       0.784   3.784   6.256  1.00  0.00     0.000 C 
BRANCH   2   3
ATOM      3  C   UNL     1      -0.556   4.261   5.658  1.00  0.00     0.000 C 
BRANCH   3   4
ATOM      4  C   UNL     1      -1.369   3.176   4.927  1.00  0.00     0.000 C 
BRANCH   4   5
ATOM      5  C   UNL     1      -2.327   2.366   5.825  1.00  0.00     0.001 C 
BRANCH   5   6
ATOM      6  C   UNL     1      -3.780   2.884   5.865  1.00  0.00     0.009 C 
BRANCH   6   7
ATOM      7  C   UNL     1      -4.110   3.765   7.091  1.00  0.00     0.032 C 
ATOM      8  C   UNL     1      -3.187   3.416   8.265  1.00  0.00     0.014 C 
BRANCH   7   9
ATOM      9  C   UNL     1      -3.997   5.230   6.765  1.00  0.00     0.044 C 
ATOM     10  O   UNL     1      -3.813   6.078   7.678  1.00  0.00    -0.550 OA
ATOM     11  O   UNL     1      -4.080   5.654   5.444  1.00  0.00    -0.550 OA
ENDBRANCH   7   9
ENDBRANCH   6   7
ENDBRANCH   5   6
ENDBRANCH   4   5
ENDBRANCH   3   4
ENDBRANCH   2   3
ENDBRANCH   1   2
BRANCH   1  12
ATOM     12  C   UNL     1       1.117   1.843   7.898  1.00  0.00     0.000 C 
BRANCH  12  13
ATOM     13  C   UNL     1       1.280   1.099   6.559  1.00  0.00    -0.000 C 
BRANCH  13  14
ATOM     14  C   UNL     1       2.501   0.166   6.465  1.00  0.00    -0.000 C 
BRANCH  14  15
ATOM     15  C   UNL     1       3.484   0.342   7.635  1.00  0.00    -0.000 C 
BRANCH  15  16
ATOM     16  C   UNL     1       4.837   0.919   7.186  1.00  0.00    -0.000 C 
BRANCH  16  17
ATOM     17  C   UNL     1       5.222   2.198   7.951  1.00  0.00    -0.000 C 
BRANCH  17  18
ATOM     18  C   UNL     1       4.475   3.438   7.436  1.00  0.00    -0.003 C 
ATOM     19  C   UNL     1       4.398   3.488   5.910  1.00  0.00     0.004 C 
ENDBRANCH  17  18
ENDBRANCH  16  17
ENDBRANCH  15  16
ENDBRANCH  14  15
ENDBRANCH  13  14
ENDBRANCH  12  13
ENDBRANCH   1  12
TORSDOF 14
ENDMDL
MODEL 9
REMARK VINA RESULT:    -3.817     13.303     15.048
REMARK INTER + INTRA:          -9.158
REMARK INTER:                  -6.814
REMARK INTRA:                  -2.344
REMARK UNBOUND:                -2.216
REMARK SMILES CCCCCCCCCCCCCC[C@@H](C)C(=O)[O-]
REMARK SMILES IDX 9 1 10 2 11 3 12 4 13 5 14 6 15 7 16 8 17 9 18 10 19 11 8 12
REMARK SMILES IDX 7 13 6 14 5 15 4 16 3 17 2 18 1 19
REMARK H PARENT
REMARK Flexibility Score: inf
ROOT
ATOM      1  C   UNL     1      -5.419  -2.059  -8.212  1.00  0.00     0.000 C 
ENDROOT
BRANCH   1   2
ATOM      2  C   UNL     1      -6.060  -2.226  -6.822  1.00  0.00     0.000 C 
BRANCH   2   3
ATOM      3  C   UNL     1      -5.568  -3.445  -6.014  1.00  0.00     0.000 C 
BRANCH   3   4
ATOM      4  C   UNL     1      -4.823  -4.515  -6.834  1.00  0.00     0.000 C 
BRANCH   4   5
ATOM      5  C   UNL     1      -3.355  -4.746  -6.420  1.00  0.00     0.001 C 
BRANCH   5   6
ATOM      6  C   UNL     1      -3.047  -6.150  -5.859  1.00  0.00     0.009 C 
BRANCH   6   7
ATOM      7  C   UNL     1      -2.889  -6.202  -4.322  1.00  0.00     0.032 C 
ATOM      8  C   UNL     1      -2.524  -4.817  -3.774  1.00  0.00     0.014 C 
BRANCH   7   9
ATOM      9  C   UNL     1      -4.141  -6.707  -3.655  1.00  0.00     0.044 C 
ATOM     10  O   UNL     1      -4.240  -7.915  -3.310  1.00  0.00    -0.550 OA
ATOM     11  O   UNL     1      -5.192  -5.835  -3.403  1.00  0.00    -0.550 OA
ENDBRANCH   7   9
ENDBRANCH   6   7
ENDBRANCH   5   6
ENDBRANCH   4   5
ENDBRANCH   3   4
ENDBRANCH   2   3
ENDBRANCH   1   2
BRANCH   1  12
ATOM     12  C   UNL     1      -4.503  -0.826  -8.304  1.00  0.00     0.000 C 
BRANCH  12  13
ATOM     13  C   UNL     1      -4.504   0.022  -7.018  1.00  0.00    -0.000 C 
BRANCH  13  14
ATOM     14  C   UNL     1      -3.136   0.182  -6.330  1.00  0.00    -0.000 C 
BRANCH  14  15
ATOM     15  C   UNL     1      -2.657  -1.105  -5.638  1.00  0.00    -0.000 C 
BRANCH  15  16
ATOM     16  C   UNL     1      -1.413  -1.708  -6.309  1.00  0.00    -0.000 C 
BRANCH  16  17
ATOM     17  C   UNL     1      -0.469  -2.396  -5.307  1.00  0.00    -0.000 C 
BRANCH  17  18
ATOM     18  C   UNL     1       0.580  -3.279  -5.999  1.00  0.00    -0.003 C 
ATOM     19  C   UNL     1       0.748  -4.638  -5.318  1.00  0.00     0.004 C 
ENDBRANCH  17  18
ENDBRANCH  16  17
ENDBRANCH  15  16
ENDBRANCH  14  15
ENDBRANCH  13  14
ENDBRANCH  12  13
ENDBRANCH   1  12
TORSDOF 14
ENDMDL
