MODEL 1
REMARK VINA RESULT:    -2.854      0.000      0.000
REMARK INTER + INTRA:          -6.703
REMARK INTER:                  -5.358
REMARK INTRA:                  -1.346
REMARK UNBOUND:                -1.346
REMARK SMILES O=C([O-])CCCCCCCCCCCCCCC(=O)[O-]
REMARK SMILES IDX 10 1 9 2 8 3 7 4 6 5 5 6 4 7 2 8 1 9 3 10 11 11 12 12 13 13
REMARK SMILES IDX 14 14 15 15 16 16 17 17 18 18 19 19 20 20
REMARK H PARENT
REMARK Flexibility Score: inf
ROOT
ATOM      1  C   UNL     1      13.862  38.225   7.867  1.00  0.00     0.000 C 
ENDROOT
BRANCH   1   2
ATOM      2  C   UNL     1      14.535  39.022   6.743  1.00  0.00     0.000 C 
BRANCH   2   3
ATOM      3  C   UNL     1      15.725  38.251   6.158  1.00  0.00     0.000 C 
BRANCH   3   4
ATOM      4  C   UNL     1      17.012  39.084   6.228  1.00  0.00     0.000 C 
BRANCH   4   5
ATOM      5  C   UNL     1      17.009  40.067   7.419  1.00  0.00     0.000 C 
BRANCH   5   6
ATOM      6  C   UNL     1      17.117  41.545   6.996  1.00  0.00     0.006 C 
BRANCH   6   7
ATOM      7  C   UNL     1      17.116  42.532   8.173  1.00  0.00     0.053 C 
BRANCH   7   8
ATOM      8  C   UNL     1      15.725  42.869   8.618  1.00  0.00     0.041 C 
ATOM      9  O   UNL     1      15.537  43.766   9.482  1.00  0.00    -0.550 OA
ATOM     10  O   UNL     1      14.638  42.179   8.096  1.00  0.00    -0.550 OA
ENDBRANCH   7   8
ENDBRANCH   6   7
ENDBRANCH   5   6
ENDBRANCH   4   5
ENDBRANCH   3   4
ENDBRANCH   2   3
ENDBRANCH   1   2
BRANCH   1  11
ATOM     11  C   UNL     1      14.212  38.808   9.241  1.00  0.00     0.000 C 
BRANCH  11  12
ATOM     12  C   UNL     1      14.296  37.705  10.303  1.00  0.00     0.000 C 
BRANCH  12  13
ATOM     13  C   UNL     1      14.380  38.302  11.713  1.00  0.00     0.000 C 
BRANCH  13  14
ATOM     14  C   UNL     1      15.396  37.536  12.573  1.00  0.00     0.000 C 
BRANCH  14  15
ATOM     15  C   UNL     1      15.665  38.220  13.922  1.00  0.00     0.000 C 
BRANCH  15  16
ATOM     16  C   UNL     1      15.245  39.698  13.931  1.00  0.00     0.006 C 
BRANCH  16  17
ATOM     17  C   UNL     1      16.468  40.615  13.839  1.00  0.00     0.053 C 
BRANCH  17  18
ATOM     18  C   UNL     1      16.445  41.394  12.560  1.00  0.00     0.041 C 
ATOM     19  O   UNL     1      16.167  42.622  12.572  1.00  0.00    -0.550 OA
ATOM     20  O   UNL     1      16.778  40.774  11.363  1.00  0.00    -0.550 OA
ENDBRANCH  17  18
ENDBRANCH  16  17
ENDBRANCH  15  16
ENDBRANCH  14  15
ENDBRANCH  13  14
ENDBRANCH  12  13
ENDBRANCH  11  12
ENDBRANCH   1  11
TORSDOF 15
ENDMDL
MODEL 2
REMARK VINA RESULT:    -2.492      2.198      5.870
REMARK INTER + INTRA:          -6.023
REMARK INTER:                  -5.583
REMARK INTRA:                  -0.440
REMARK UNBOUND:                -1.346
REMARK SMILES O=C([O-])CCCCCCCCCCCCCCC(=O)[O-]
REMARK SMILES IDX 10 1 9 2 8 3 7 4 6 5 5 6 4 7 2 8 1 9 3 10 11 11 12 12 13 13
REMARK SMILES IDX 14 14 15 15 16 16 17 17 18 18 19 19 20 20
REMARK H PARENT
REMARK Flexibility Score: inf
ROOT
ATOM      1  C   UNL     1      13.745  38.111   7.749  1.00  0.00     0.000 C 
ENDROOT
BRANCH   1   2
ATOM      2  C   UNL     1      14.090  38.700   9.122  1.00  0.00     0.000 C 
BRANCH   2   3
ATOM      3  C   UNL     1      14.210  37.596  10.180  1.00  0.00     0.000 C 
BRANCH   3   4
ATOM      4  C   UNL     1      14.219  38.187  11.597  1.00  0.00     0.000 C 
BRANCH   4   5
ATOM      5  C   UNL     1      15.641  38.253  12.195  1.00  0.00     0.000 C 
BRANCH   5   6
ATOM      6  C   UNL     1      15.714  37.785  13.660  1.00  0.00     0.006 C 
BRANCH   6   7
ATOM      7  C   UNL     1      16.965  36.958  13.991  1.00  0.00     0.053 C 
BRANCH   7   8
ATOM      8  C   UNL     1      16.923  35.602  13.355  1.00  0.00     0.041 C 
ATOM      9  O   UNL     1      17.041  34.567  14.064  1.00  0.00    -0.550 OA
ATOM     10  O   UNL     1      16.772  35.478  11.979  1.00  0.00    -0.550 OA
ENDBRANCH   7   8
ENDBRANCH   6   7
ENDBRANCH   5   6
ENDBRANCH   4   5
ENDBRANCH   3   4
ENDBRANCH   2   3
ENDBRANCH   1   2
BRANCH   1  11
ATOM     11  C   UNL     1      14.555  38.791   6.639  1.00  0.00     0.000 C 
BRANCH  11  12
ATOM     12  C   UNL     1      16.056  38.759   6.954  1.00  0.00     0.000 C 
BRANCH  12  13
ATOM     13  C   UNL     1      16.498  40.044   7.664  1.00  0.00     0.000 C 
BRANCH  13  14
ATOM     14  C   UNL     1      15.561  41.212   7.320  1.00  0.00     0.000 C 
BRANCH  14  15
ATOM     15  C   UNL     1      16.246  42.581   7.453  1.00  0.00     0.000 C 
BRANCH  15  16
ATOM     16  C   UNL     1      17.124  42.683   8.710  1.00  0.00     0.006 C 
BRANCH  16  17
ATOM     17  C   UNL     1      16.310  43.185   9.907  1.00  0.00     0.053 C 
BRANCH  17  18
ATOM     18  C   UNL     1      16.540  42.311  11.100  1.00  0.00     0.041 C 
ATOM     19  O   UNL     1      17.026  41.159  10.957  1.00  0.00    -0.550 OA
ATOM     20  O   UNL     1      16.264  42.789  12.375  1.00  0.00    -0.550 OA
ENDBRANCH  17  18
ENDBRANCH  16  17
ENDBRANCH  15  16
ENDBRANCH  14  15
ENDBRANCH  13  14
ENDBRANCH  12  13
ENDBRANCH  11  12
ENDBRANCH   1  11
TORSDOF 15
ENDMDL
MODEL 3
REMARK VINA RESULT:    -2.240      2.463      5.970
REMARK INTER + INTRA:          -5.549
REMARK INTER:                  -3.787
REMARK INTRA:                  -1.762
REMARK UNBOUND:                -1.346
REMARK SMILES O=C([O-])CCCCCCCCCCCCCCC(=O)[O-]
REMARK SMILES IDX 10 1 9 2 8 3 7 4 6 5 5 6 4 7 2 8 1 9 3 10 11 11 12 12 13 13
REMARK SMILES IDX 14 14 15 15 16 16 17 17 18 18 19 19 20 20
REMARK H PARENT
REMARK Flexibility Score: inf
ROOT
ATOM      1  C   UNL     1      16.705  42.867   8.897  1.00  0.00     0.000 C 
ENDROOT
BRANCH   1   2
ATOM      2  C   UNL     1      17.086  42.718  10.374  1.00  0.00     0.000 C 
BRANCH   2   3
ATOM      3  C   UNL     1      16.076  43.435  11.278  1.00  0.00     0.000 C 
BRANCH   3   4
ATOM      4  C   UNL     1      16.042  42.805  12.678  1.00  0.00     0.000 C 
BRANCH   4   5
ATOM      5  C   UNL     1      17.125  41.719  12.858  1.00  0.00     0.000 C 
BRANCH   5   6
ATOM      6  C   UNL     1      16.583  40.403  13.447  1.00  0.00     0.006 C 
BRANCH   6   7
ATOM      7  C   UNL     1      15.085  40.176  13.196  1.00  0.00     0.053 C 
BRANCH   7   8
ATOM      8  C   UNL     1      14.615  38.871  13.764  1.00  0.00     0.041 C 
ATOM      9  O   UNL     1      13.385  38.664  13.940  1.00  0.00    -0.550 OA
ATOM     10  O   UNL     1      15.534  37.890  14.117  1.00  0.00    -0.550 OA
ENDBRANCH   7   8
ENDBRANCH   6   7
ENDBRANCH   5   6
ENDBRANCH   4   5
ENDBRANCH   3   4
ENDBRANCH   2   3
ENDBRANCH   1   2
BRANCH   1  11
ATOM     11  C   UNL     1      15.258  42.425   8.654  1.00  0.00     0.000 C 
BRANCH  11  12
ATOM     12  C   UNL     1      15.092  41.828   7.251  1.00  0.00     0.000 C 
BRANCH  12  13
ATOM     13  C   UNL     1      16.350  41.064   6.824  1.00  0.00     0.000 C 
BRANCH  13  14
ATOM     14  C   UNL     1      16.309  39.613   7.326  1.00  0.00     0.000 C 
BRANCH  14  15
ATOM     15  C   UNL     1      14.971  38.920   7.028  1.00  0.00     0.000 C 
BRANCH  15  16
ATOM     16  C   UNL     1      14.191  38.566   8.303  1.00  0.00     0.006 C 
BRANCH  16  17
ATOM     17  C   UNL     1      14.915  39.084   9.549  1.00  0.00     0.053 C 
BRANCH  17  18
ATOM     18  C   UNL     1      15.370  37.943  10.404  1.00  0.00     0.041 C 
ATOM     19  O   UNL     1      14.558  37.040  10.739  1.00  0.00    -0.550 OA
ATOM     20  O   UNL     1      16.700  37.850  10.790  1.00  0.00    -0.550 OA
ENDBRANCH  17  18
ENDBRANCH  16  17
ENDBRANCH  15  16
ENDBRANCH  14  15
ENDBRANCH  13  14
ENDBRANCH  12  13
ENDBRANCH  11  12
ENDBRANCH   1  11
TORSDOF 15
ENDMDL
MODEL 4
REMARK VINA RESULT:    -2.150      2.423      4.936
REMARK INTER + INTRA:          -5.381
REMARK INTER:                  -4.272
REMARK INTRA:                  -1.109
REMARK UNBOUND:                -1.346
REMARK SMILES O=C([O-])CCCCCCCCCCCCCCC(=O)[O-]
REMARK SMILES IDX 10 1 9 2 8 3 7 4 6 5 5 6 4 7 2 8 1 9 3 10 11 11 12 12 13 13
REMARK SMILES IDX 14 14 15 15 16 16 17 17 18 18 19 19 20 20
REMARK H PARENT
REMARK Flexibility Score: inf
ROOT
ATOM      1  C   UNL     1      15.731  41.473   6.974  1.00  0.00     0.000 C 
ENDROOT
BRANCH   1   2
ATOM      2  C   UNL     1      15.051  42.331   8.049  1.00  0.00     0.000 C 
BRANCH   2   3
ATOM      3  C   UNL     1      16.086  43.128   8.852  1.00  0.00     0.000 C 
BRANCH   3   4
ATOM      4  C   UNL     1      15.772  43.085  10.354  1.00  0.00     0.000 C 
BRANCH   4   5
ATOM      5  C   UNL     1      17.028  42.804  11.208  1.00  0.00     0.000 C 
BRANCH   5   6
ATOM      6  C   UNL     1      16.909  41.542  12.081  1.00  0.00     0.006 C 
BRANCH   6   7
ATOM      7  C   UNL     1      15.985  41.708  13.297  1.00  0.00     0.053 C 
BRANCH   7   8
ATOM      8  C   UNL     1      15.581  40.386  13.876  1.00  0.00     0.041 C 
ATOM      9  O   UNL     1      16.451  39.511  14.125  1.00  0.00    -0.550 OA
ATOM     10  O   UNL     1      14.241  40.112  14.125  1.00  0.00    -0.550 OA
ENDBRANCH   7   8
ENDBRANCH   6   7
ENDBRANCH   5   6
ENDBRANCH   4   5
ENDBRANCH   3   4
ENDBRANCH   2   3
ENDBRANCH   1   2
BRANCH   1  11
ATOM     11  C   UNL     1      16.495  40.304   7.605  1.00  0.00     0.000 C 
BRANCH  11  12
ATOM     12  C   UNL     1      16.107  38.973   6.948  1.00  0.00     0.000 C 
BRANCH  12  13
ATOM     13  C   UNL     1      14.589  38.764   6.983  1.00  0.00     0.000 C 
BRANCH  13  14
ATOM     14  C   UNL     1      14.066  38.775   8.427  1.00  0.00     0.000 C 
BRANCH  14  15
ATOM     15  C   UNL     1      14.828  37.804   9.342  1.00  0.00     0.000 C 
BRANCH  15  16
ATOM     16  C   UNL     1      15.018  38.356  10.763  1.00  0.00     0.006 C 
BRANCH  16  17
ATOM     17  C   UNL     1      14.886  37.241  11.805  1.00  0.00     0.053 C 
BRANCH  17  18
ATOM     18  C   UNL     1      16.225  36.648  12.112  1.00  0.00     0.041 C 
ATOM     19  O   UNL     1      17.107  37.339  12.687  1.00  0.00    -0.550 OA
ATOM     20  O   UNL     1      16.484  35.318  11.806  1.00  0.00    -0.550 OA
ENDBRANCH  17  18
ENDBRANCH  16  17
ENDBRANCH  15  16
ENDBRANCH  14  15
ENDBRANCH  13  14
ENDBRANCH  12  13
ENDBRANCH  11  12
ENDBRANCH   1  11
TORSDOF 15
ENDMDL
MODEL 5
REMARK VINA RESULT:    -2.134      2.655      4.819
REMARK INTER + INTRA:          -5.352
REMARK INTER:                  -3.865
REMARK INTRA:                  -1.486
REMARK UNBOUND:                -1.346
REMARK SMILES O=C([O-])CCCCCCCCCCCCCCC(=O)[O-]
REMARK SMILES IDX 10 1 9 2 8 3 7 4 6 5 5 6 4 7 2 8 1 9 3 10 11 11 12 12 13 13
REMARK SMILES IDX 14 14 15 15 16 16 17 17 18 18 19 19 20 20
REMARK H PARENT
REMARK Flexibility Score: inf
ROOT
ATOM      1  C   UNL     1      15.705  43.031  12.032  1.00  0.00     0.000 C 
ENDROOT
BRANCH   1   2
ATOM      2  C   UNL     1      17.125  42.717  11.544  1.00  0.00     0.000 C 
BRANCH   2   3
ATOM      3  C   UNL     1      17.119  42.286  10.073  1.00  0.00     0.000 C 
BRANCH   3   4
ATOM      4  C   UNL     1      16.519  43.381   9.179  1.00  0.00     0.000 C 
BRANCH   4   5
ATOM      5  C   UNL     1      16.011  42.825   7.831  1.00  0.00     0.000 C 
BRANCH   5   6
ATOM      6  C   UNL     1      15.526  41.365   7.913  1.00  0.00     0.006 C 
BRANCH   6   7
ATOM      7  C   UNL     1      16.479  40.354   7.257  1.00  0.00     0.053 C 
BRANCH   7   8
ATOM      8  C   UNL     1      15.798  39.050   6.971  1.00  0.00     0.041 C 
ATOM      9  O   UNL     1      14.755  38.728   7.600  1.00  0.00    -0.550 OA
ATOM     10  O   UNL     1      16.323  38.179   6.023  1.00  0.00    -0.550 OA
ENDBRANCH   7   8
ENDBRANCH   6   7
ENDBRANCH   5   6
ENDBRANCH   4   5
ENDBRANCH   3   4
ENDBRANCH   2   3
ENDBRANCH   1   2
BRANCH   1  11
ATOM     11  C   UNL     1      15.626  42.984  13.562  1.00  0.00     0.000 C 
BRANCH  11  12
ATOM     12  C   UNL     1      16.050  41.609  14.094  1.00  0.00     0.000 C 
BRANCH  12  13
ATOM     13  C   UNL     1      14.897  40.603  14.001  1.00  0.00     0.000 C 
BRANCH  13  14
ATOM     14  C   UNL     1      15.401  39.231  13.528  1.00  0.00     0.000 C 
BRANCH  14  15
ATOM     15  C   UNL     1      16.412  39.336  12.376  1.00  0.00     0.000 C 
BRANCH  15  16
ATOM     16  C   UNL     1      16.098  38.369  11.224  1.00  0.00     0.006 C 
BRANCH  16  17
ATOM     17  C   UNL     1      15.441  37.089  11.749  1.00  0.00     0.053 C 
BRANCH  17  18
ATOM     18  C   UNL     1      16.482  36.089  12.145  1.00  0.00     0.041 C 
ATOM     19  O   UNL     1      17.001  35.338  11.278  1.00  0.00    -0.550 OA
ATOM     20  O   UNL     1      16.913  36.021  13.463  1.00  0.00    -0.550 OA
ENDBRANCH  17  18
ENDBRANCH  16  17
ENDBRANCH  15  16
ENDBRANCH  14  15
ENDBRANCH  13  14
ENDBRANCH  12  13
ENDBRANCH  11  12
ENDBRANCH   1  11
TORSDOF 15
ENDMDL
MODEL 6
REMARK VINA RESULT:    -2.075      2.406      4.354
REMARK INTER + INTRA:          -5.239
REMARK INTER:                  -3.846
REMARK INTRA:                  -1.393
REMARK UNBOUND:                -1.346
REMARK SMILES O=C([O-])CCCCCCCCCCCCCCC(=O)[O-]
REMARK SMILES IDX 10 1 9 2 8 3 7 4 6 5 5 6 4 7 2 8 1 9 3 10 11 11 12 12 13 13
REMARK SMILES IDX 14 14 15 15 16 16 17 17 18 18 19 19 20 20
REMARK H PARENT
REMARK Flexibility Score: inf
ROOT
ATOM      1  C   UNL     1      14.647  41.497   8.324  1.00  0.00     0.000 C 
ENDROOT
BRANCH   1   2
ATOM      2  C   UNL     1      15.674  42.635   8.314  1.00  0.00     0.000 C 
BRANCH   2   3
ATOM      3  C   UNL     1      15.673  43.389   9.649  1.00  0.00     0.000 C 
BRANCH   3   4
ATOM      4  C   UNL     1      17.003  43.196  10.393  1.00  0.00     0.000 C 
BRANCH   4   5
ATOM      5  C   UNL     1      17.102  41.810  11.066  1.00  0.00     0.000 C 
BRANCH   5   6
ATOM      6  C   UNL     1      17.015  41.865  12.603  1.00  0.00     0.006 C 
BRANCH   6   7
ATOM      7  C   UNL     1      16.663  43.252  13.159  1.00  0.00     0.053 C 
BRANCH   7   8
ATOM      8  C   UNL     1      15.281  43.288  13.737  1.00  0.00     0.041 C 
ATOM      9  O   UNL     1      14.713  44.392  13.952  1.00  0.00    -0.550 OA
ATOM     10  O   UNL     1      14.626  42.105  14.057  1.00  0.00    -0.550 OA
ENDBRANCH   7   8
ENDBRANCH   6   7
ENDBRANCH   5   6
ENDBRANCH   4   5
ENDBRANCH   3   4
ENDBRANCH   2   3
ENDBRANCH   1   2
BRANCH   1  11
ATOM     11  C   UNL     1      15.287  40.173   7.890  1.00  0.00     0.000 C 
BRANCH  11  12
ATOM     12  C   UNL     1      14.412  38.980   8.291  1.00  0.00     0.000 C 
BRANCH  12  13
ATOM     13  C   UNL     1      14.897  38.358   9.606  1.00  0.00     0.000 C 
BRANCH  13  14
ATOM     14  C   UNL     1      16.411  38.552   9.780  1.00  0.00     0.000 C 
BRANCH  14  15
ATOM     15  C   UNL     1      16.976  37.767  10.973  1.00  0.00     0.000 C 
BRANCH  15  16
ATOM     16  C   UNL     1      15.911  36.914  11.679  1.00  0.00     0.006 C 
BRANCH  16  17
ATOM     17  C   UNL     1      16.030  37.039  13.201  1.00  0.00     0.053 C 
BRANCH  17  18
ATOM     18  C   UNL     1      15.009  37.996  13.731  1.00  0.00     0.041 C 
ATOM     19  O   UNL     1      13.810  37.635  13.863  1.00  0.00    -0.550 OA
ATOM     20  O   UNL     1      15.391  39.272  14.125  1.00  0.00    -0.550 OA
ENDBRANCH  17  18
ENDBRANCH  16  17
ENDBRANCH  15  16
ENDBRANCH  14  15
ENDBRANCH  13  14
ENDBRANCH  12  13
ENDBRANCH  11  12
ENDBRANCH   1  11
TORSDOF 15
ENDMDL
MODEL 7
REMARK VINA RESULT:    -2.056      3.712      6.713
REMARK INTER + INTRA:          -5.205
REMARK INTER:                  -4.126
REMARK INTRA:                  -1.079
REMARK UNBOUND:                -1.346
REMARK SMILES O=C([O-])CCCCCCCCCCCCCCC(=O)[O-]
REMARK SMILES IDX 10 1 9 2 8 3 7 4 6 5 5 6 4 7 2 8 1 9 3 10 11 11 12 12 13 13
REMARK SMILES IDX 14 14 15 15 16 16 17 17 18 18 19 19 20 20
REMARK H PARENT
REMARK Flexibility Score: inf
ROOT
ATOM      1  C   UNL     1      16.128  42.810  11.136  1.00  0.00     0.000 C 
ENDROOT
BRANCH   1   2
ATOM      2  C   UNL     1      16.988  42.680  12.400  1.00  0.00     0.000 C 
BRANCH   2   3
ATOM      3  C   UNL     1      16.265  43.263  13.620  1.00  0.00     0.000 C 
BRANCH   3   4
ATOM      4  C   UNL     1      14.749  43.334  13.382  1.00  0.00     0.000 C 
BRANCH   4   5
ATOM      5  C   UNL     1      14.117  44.598  14.003  1.00  0.00     0.000 C 
BRANCH   5   6
ATOM      6  C   UNL     1      12.644  44.808  13.603  1.00  0.00     0.006 C 
BRANCH   6   7
ATOM      7  C   UNL     1      12.036  46.119  14.124  1.00  0.00     0.053 C 
BRANCH   7   8
ATOM      8  C   UNL     1      12.682  47.320  13.504  1.00  0.00     0.041 C 
ATOM      9  O   UNL     1      13.718  47.819  14.019  1.00  0.00    -0.550 OA
ATOM     10  O   UNL     1      12.132  47.901  12.368  1.00  0.00    -0.550 OA
ENDBRANCH   7   8
ENDBRANCH   6   7
ENDBRANCH   5   6
ENDBRANCH   4   5
ENDBRANCH   3   4
ENDBRANCH   2   3
ENDBRANCH   1   2
BRANCH   1  11
ATOM     11  C   UNL     1      16.968  42.587   9.874  1.00  0.00     0.000 C 
BRANCH  11  12
ATOM     12  C   UNL     1      16.366  43.327   8.673  1.00  0.00     0.000 C 
BRANCH  12  13
ATOM     13  C   UNL     1      15.667  42.351   7.719  1.00  0.00     0.000 C 
BRANCH  13  14
ATOM     14  C   UNL     1      16.396  41.000   7.684  1.00  0.00     0.000 C 
BRANCH  14  15
ATOM     15  C   UNL     1      15.434  39.810   7.546  1.00  0.00     0.000 C 
BRANCH  15  16
ATOM     16  C   UNL     1      14.664  39.518   8.842  1.00  0.00     0.006 C 
BRANCH  16  17
ATOM     17  C   UNL     1      15.593  38.931   9.910  1.00  0.00     0.053 C 
BRANCH  17  18
ATOM     18  C   UNL     1      14.857  37.941  10.758  1.00  0.00     0.041 C 
ATOM     19  O   UNL     1      13.622  37.758  10.591  1.00  0.00    -0.550 OA
ATOM     20  O   UNL     1      15.544  37.184  11.697  1.00  0.00    -0.550 OA
ENDBRANCH  17  18
ENDBRANCH  16  17
ENDBRANCH  15  16
ENDBRANCH  14  15
ENDBRANCH  13  14
ENDBRANCH  12  13
ENDBRANCH  11  12
ENDBRANCH   1  11
TORSDOF 15
ENDMDL
MODEL 8
REMARK VINA RESULT:    -1.993      1.230      4.989
REMARK INTER + INTRA:          -5.086
REMARK INTER:                  -3.276
REMARK INTRA:                  -1.810
REMARK UNBOUND:                -1.346
REMARK SMILES O=C([O-])CCCCCCCCCCCCCCC(=O)[O-]
REMARK SMILES IDX 10 1 9 2 8 3 7 4 6 5 5 6 4 7 2 8 1 9 3 10 11 11 12 12 13 13
REMARK SMILES IDX 14 14 15 15 16 16 17 17 18 18 19 19 20 20
REMARK H PARENT
REMARK Flexibility Score: inf
ROOT
ATOM      1  C   UNL     1      13.428  38.563   7.508  1.00  0.00     0.000 C 
ENDROOT
BRANCH   1   2
ATOM      2  C   UNL     1      14.045  37.668   8.589  1.00  0.00     0.000 C 
BRANCH   2   3
ATOM      3  C   UNL     1      14.163  38.417   9.923  1.00  0.00     0.000 C 
BRANCH   3   4
ATOM      4  C   UNL     1      15.236  37.782  10.819  1.00  0.00     0.000 C 
BRANCH   4   5
ATOM      5  C   UNL     1      14.797  37.710  12.297  1.00  0.00     0.000 C 
BRANCH   5   6
ATOM      6  C   UNL     1      15.937  37.997  13.292  1.00  0.00     0.006 C 
BRANCH   6   7
ATOM      7  C   UNL     1      16.924  39.074  12.817  1.00  0.00     0.053 C 
BRANCH   7   8
ATOM      8  C   UNL     1      16.463  40.454  13.180  1.00  0.00     0.041 C 
ATOM      9  O   UNL     1      15.641  40.620  14.120  1.00  0.00    -0.550 OA
ATOM     10  O   UNL     1      16.925  41.555  12.470  1.00  0.00    -0.550 OA
ENDBRANCH   7   8
ENDBRANCH   6   7
ENDBRANCH   5   6
ENDBRANCH   4   5
ENDBRANCH   3   4
ENDBRANCH   2   3
ENDBRANCH   1   2
BRANCH   1  11
ATOM     11  C   UNL     1      14.511  39.155   6.599  1.00  0.00     0.000 C 
BRANCH  11  12
ATOM     12  C   UNL     1      15.574  38.105   6.253  1.00  0.00     0.000 C 
BRANCH  12  13
ATOM     13  C   UNL     1      16.986  38.649   6.496  1.00  0.00     0.000 C 
BRANCH  13  14
ATOM     14  C   UNL     1      16.937  40.097   7.007  1.00  0.00     0.000 C 
BRANCH  14  15
ATOM     15  C   UNL     1      17.125  40.195   8.529  1.00  0.00     0.000 C 
BRANCH  15  16
ATOM     16  C   UNL     1      16.112  41.142   9.190  1.00  0.00     0.006 C 
BRANCH  16  17
ATOM     17  C   UNL     1      15.882  42.387   8.326  1.00  0.00     0.053 C 
BRANCH  17  18
ATOM     18  C   UNL     1      16.577  43.572   8.920  1.00  0.00     0.041 C 
ATOM     19  O   UNL     1      16.827  43.608  10.154  1.00  0.00    -0.550 OA
ATOM     20  O   UNL     1      16.991  44.616   8.103  1.00  0.00    -0.550 OA
ENDBRANCH  17  18
ENDBRANCH  16  17
ENDBRANCH  15  16
ENDBRANCH  14  15
ENDBRANCH  13  14
ENDBRANCH  12  13
ENDBRANCH  11  12
ENDBRANCH   1  11
TORSDOF 15
ENDMDL
MODEL 9
REMARK VINA RESULT:    -1.966      1.533      5.046
REMARK INTER + INTRA:          -5.036
REMARK INTER:                  -5.245
REMARK INTRA:                   0.209
REMARK UNBOUND:                -1.346
REMARK SMILES O=C([O-])CCCCCCCCCCCCCCC(=O)[O-]
REMARK SMILES IDX 10 1 9 2 8 3 7 4 6 5 5 6 4 7 2 8 1 9 3 10 11 11 12 12 13 13
REMARK SMILES IDX 14 14 15 15 16 16 17 17 18 18 19 19 20 20
REMARK H PARENT
REMARK Flexibility Score: inf
ROOT
ATOM      1  C   UNL     1      13.731  38.263   7.616  1.00  0.00     0.000 C 
ENDROOT
BRANCH   1   2
ATOM      2  C   UNL     1      14.417  38.212   8.986  1.00  0.00     0.000 C 
BRANCH   2   3
ATOM      3  C   UNL     1      13.495  37.587  10.040  1.00  0.00     0.000 C 
BRANCH   3   4
ATOM      4  C   UNL     1      13.974  37.920  11.460  1.00  0.00     0.000 C 
BRANCH   4   5
ATOM      5  C   UNL     1      15.451  38.369  11.490  1.00  0.00     0.000 C 
BRANCH   5   6
ATOM      6  C   UNL     1      16.160  38.061  12.823  1.00  0.00     0.006 C 
BRANCH   6   7
ATOM      7  C   UNL     1      15.275  38.259  14.062  1.00  0.00     0.053 C 
BRANCH   7   8
ATOM      8  C   UNL     1      14.674  39.631  14.106  1.00  0.00     0.041 C 
ATOM      9  O   UNL     1      13.423  39.774  14.125  1.00  0.00    -0.550 OA
ATOM     10  O   UNL     1      15.494  40.754  14.108  1.00  0.00    -0.550 OA
ENDBRANCH   7   8
ENDBRANCH   6   7
ENDBRANCH   5   6
ENDBRANCH   4   5
ENDBRANCH   3   4
ENDBRANCH   2   3
ENDBRANCH   1   2
BRANCH   1  11
ATOM     11  C   UNL     1      14.717  38.692   6.523  1.00  0.00     0.000 C 
BRANCH  11  12
ATOM     12  C   UNL     1      16.118  38.918   7.103  1.00  0.00     0.000 C 
BRANCH  12  13
ATOM     13  C   UNL     1      16.089  39.966   8.222  1.00  0.00     0.000 C 
BRANCH  13  14
ATOM     14  C   UNL     1      16.121  41.389   7.644  1.00  0.00     0.000 C 
BRANCH  14  15
ATOM     15  C   UNL     1      15.024  42.291   8.229  1.00  0.00     0.000 C 
BRANCH  15  16
ATOM     16  C   UNL     1      15.588  43.398   9.133  1.00  0.00     0.006 C 
BRANCH  16  17
ATOM     17  C   UNL     1      17.027  43.081   9.552  1.00  0.00     0.053 C 
BRANCH  17  18
ATOM     18  C   UNL     1      17.057  42.509  10.935  1.00  0.00     0.041 C 
ATOM     19  O   UNL     1      16.975  43.268  11.936  1.00  0.00    -0.550 OA
ATOM     20  O   UNL     1      17.124  41.134  11.117  1.00  0.00    -0.550 OA
ENDBRANCH  17  18
ENDBRANCH  16  17
ENDBRANCH  15  16
ENDBRANCH  14  15
ENDBRANCH  13  14
ENDBRANCH  12  13
ENDBRANCH  11  12
ENDBRANCH   1  11
TORSDOF 15
ENDMDL
