MODEL 1
REMARK VINA RESULT:    -5.421      0.000      0.000
REMARK INTER + INTRA:          -6.261
REMARK INTER:                  -6.054
REMARK INTRA:                  -0.206
REMARK UNBOUND:                -0.206
REMARK SMILES CC(C)c1ccc(C(=O)[O-])cc1
REMARK SMILES IDX 7 1 6 2 11 3 5 4 12 5 4 6 8 7 9 8 10 9 2 10 1 11 3 12
REMARK H PARENT
REMARK Flexibility Score: inf
ROOT
ATOM      1  C   UNL     1      39.474  18.340  10.603  1.00  0.00    -0.003 A 
ATOM      2  C   UNL     1      38.292  18.401   9.845  1.00  0.00     0.010 A 
ATOM      3  C   UNL     1      39.380  18.240  12.001  1.00  0.00     0.010 A 
ATOM      4  C   UNL     1      37.043  18.363  10.473  1.00  0.00     0.004 A 
ATOM      5  C   UNL     1      38.132  18.203  12.628  1.00  0.00     0.004 A 
ATOM      6  C   UNL     1      36.948  18.263  11.871  1.00  0.00    -0.045 A 
ENDROOT
BRANCH   1   7
ATOM      7  C   UNL     1      40.797  18.380   9.943  1.00  0.00     0.071 C 
ATOM      8  O   UNL     1      41.036  17.650   8.944  1.00  0.00    -0.545 OA
ATOM      9  O   UNL     1      41.795  19.224  10.415  1.00  0.00    -0.545 OA
ENDBRANCH   1   7
BRANCH   6  10
ATOM     10  C   UNL     1      35.587  18.223  12.538  1.00  0.00     0.013 C 
ATOM     11  C   UNL     1      34.976  16.818  12.462  1.00  0.00     0.012 C 
ATOM     12  C   UNL     1      34.642  19.268  11.932  1.00  0.00     0.012 C 
ENDBRANCH   6  10
TORSDOF 2
ENDMDL
MODEL 2
REMARK VINA RESULT:    -5.412      0.033      1.398
REMARK INTER + INTRA:          -6.251
REMARK INTER:                  -6.047
REMARK INTRA:                  -0.204
REMARK UNBOUND:                -0.206
REMARK SMILES CC(C)c1ccc(C(=O)[O-])cc1
REMARK SMILES IDX 7 1 6 2 11 3 5 4 12 5 4 6 8 7 9 8 10 9 2 10 1 11 3 12
REMARK H PARENT
REMARK Flexibility Score: inf
ROOT
ATOM      1  C   UNL     1      39.480  18.338  10.594  1.00  0.00    -0.003 A 
ATOM      2  C   UNL     1      39.372  18.233  11.991  1.00  0.00     0.010 A 
ATOM      3  C   UNL     1      38.307  18.399   9.824  1.00  0.00     0.010 A 
ATOM      4  C   UNL     1      38.116  18.190  12.604  1.00  0.00     0.004 A 
ATOM      5  C   UNL     1      37.052  18.355  10.437  1.00  0.00     0.004 A 
ATOM      6  C   UNL     1      36.943  18.250  11.835  1.00  0.00    -0.045 A 
ENDROOT
BRANCH   1   7
ATOM      7  C   UNL     1      40.807  18.386   9.940  1.00  0.00     0.071 C 
ATOM      8  O   UNL     1      41.057  17.655   8.944  1.00  0.00    -0.545 OA
ATOM      9  O   UNL     1      41.796  19.238  10.416  1.00  0.00    -0.545 OA
ENDBRANCH   1   7
BRANCH   6  10
ATOM     10  C   UNL     1      35.587  18.202  12.514  1.00  0.00     0.013 C 
ATOM     11  C   UNL     1      34.999  16.785  12.474  1.00  0.00     0.012 C 
ATOM     12  C   UNL     1      34.621  19.217  11.894  1.00  0.00     0.012 C 
ENDBRANCH   6  10
TORSDOF 2
ENDMDL
MODEL 3
REMARK VINA RESULT:    -5.295      0.496      1.462
REMARK INTER + INTRA:          -6.121
REMARK INTER:                  -5.915
REMARK INTRA:                  -0.206
REMARK UNBOUND:                -0.206
REMARK SMILES CC(C)c1ccc(C(=O)[O-])cc1
REMARK SMILES IDX 7 1 6 2 11 3 5 4 12 5 4 6 8 7 9 8 10 9 2 10 1 11 3 12
REMARK H PARENT
REMARK Flexibility Score: inf
ROOT
ATOM      1  C   UNL     1      39.359  18.338  10.627  1.00  0.00    -0.003 A 
ATOM      2  C   UNL     1      38.347  18.502   9.666  1.00  0.00     0.010 A 
ATOM      3  C   UNL     1      38.996  18.115  11.966  1.00  0.00     0.010 A 
ATOM      4  C   UNL     1      37.000  18.444  10.036  1.00  0.00     0.004 A 
ATOM      5  C   UNL     1      37.649  18.058  12.336  1.00  0.00     0.004 A 
ATOM      6  C   UNL     1      36.636  18.221  11.374  1.00  0.00    -0.045 A 
ENDROOT
BRANCH   1   7
ATOM      7  C   UNL     1      40.786  18.399  10.240  1.00  0.00     0.071 C 
ATOM      8  O   UNL     1      41.600  19.100  10.899  1.00  0.00    -0.545 OA
ATOM      9  O   UNL     1      41.249  17.681   9.144  1.00  0.00    -0.545 OA
ENDBRANCH   1   7
BRANCH   6  10
ATOM     10  C   UNL     1      35.170  18.160  11.761  1.00  0.00     0.013 C 
ATOM     11  C   UNL     1      34.598  19.566  11.983  1.00  0.00     0.012 C 
ATOM     12  C   UNL     1      34.961  17.279  12.999  1.00  0.00     0.012 C 
ENDBRANCH   6  10
TORSDOF 2
ENDMDL
MODEL 4
REMARK VINA RESULT:    -5.283      3.111      4.362
REMARK INTER + INTRA:          -6.107
REMARK INTER:                  -5.886
REMARK INTRA:                  -0.221
REMARK UNBOUND:                -0.206
REMARK SMILES CC(C)c1ccc(C(=O)[O-])cc1
REMARK SMILES IDX 7 1 6 2 11 3 5 4 12 5 4 6 8 7 9 8 10 9 2 10 1 11 3 12
REMARK H PARENT
REMARK Flexibility Score: inf
ROOT
ATOM      1  C   UNL     1      36.576  19.156   8.012  1.00  0.00    -0.003 A 
ATOM      2  C   UNL     1      37.954  18.982   8.232  1.00  0.00     0.010 A 
ATOM      3  C   UNL     1      35.683  18.918   9.069  1.00  0.00     0.010 A 
ATOM      4  C   UNL     1      38.426  18.577   9.484  1.00  0.00     0.004 A 
ATOM      5  C   UNL     1      36.156  18.512  10.319  1.00  0.00     0.004 A 
ATOM      6  C   UNL     1      37.534  18.337  10.541  1.00  0.00    -0.045 A 
ENDROOT
BRANCH   1   7
ATOM      7  C   UNL     1      36.072  19.586   6.688  1.00  0.00     0.071 C 
ATOM      8  O   UNL     1      36.844  19.633   5.693  1.00  0.00    -0.545 OA
ATOM      9  O   UNL     1      34.739  19.942   6.525  1.00  0.00    -0.545 OA
ENDBRANCH   1   7
BRANCH   6  10
ATOM     10  C   UNL     1      38.061  17.898  11.894  1.00  0.00     0.013 C 
ATOM     11  C   UNL     1      37.262  18.543  13.034  1.00  0.00     0.012 C 
ATOM     12  C   UNL     1      39.558  18.200  12.030  1.00  0.00     0.012 C 
ENDBRANCH   6  10
TORSDOF 2
ENDMDL
MODEL 5
REMARK VINA RESULT:    -5.211      3.229      5.040
REMARK INTER + INTRA:          -6.027
REMARK INTER:                  -5.818
REMARK INTRA:                  -0.209
REMARK UNBOUND:                -0.206
REMARK SMILES CC(C)c1ccc(C(=O)[O-])cc1
REMARK SMILES IDX 7 1 6 2 11 3 5 4 12 5 4 6 8 7 9 8 10 9 2 10 1 11 3 12
REMARK H PARENT
REMARK Flexibility Score: inf
ROOT
ATOM      1  C   UNL     1      36.329  18.141  11.658  1.00  0.00    -0.003 A 
ATOM      2  C   UNL     1      36.398  18.324  10.266  1.00  0.00     0.010 A 
ATOM      3  C   UNL     1      37.522  18.082  12.396  1.00  0.00     0.010 A 
ATOM      4  C   UNL     1      37.636  18.446   9.627  1.00  0.00     0.004 A 
ATOM      5  C   UNL     1      38.759  18.202  11.757  1.00  0.00     0.004 A 
ATOM      6  C   UNL     1      38.830  18.386  10.364  1.00  0.00    -0.045 A 
ENDROOT
BRANCH   1   7
ATOM      7  C   UNL     1      35.021  18.012  12.338  1.00  0.00     0.071 C 
ATOM      8  O   UNL     1      34.726  16.960  12.965  1.00  0.00    -0.545 OA
ATOM      9  O   UNL     1      34.101  19.053  12.298  1.00  0.00    -0.545 OA
ENDBRANCH   1   7
BRANCH   6  10
ATOM     10  C   UNL     1      40.165  18.520   9.658  1.00  0.00     0.013 C 
ATOM     11  C   UNL     1      40.385  17.367   8.669  1.00  0.00     0.012 C 
ATOM     12  C   UNL     1      41.318  18.609  10.665  1.00  0.00     0.012 C 
ENDBRANCH   6  10
TORSDOF 2
ENDMDL
MODEL 6
REMARK VINA RESULT:    -5.051      4.543      5.752
REMARK INTER + INTRA:          -5.848
REMARK INTER:                  -5.635
REMARK INTRA:                  -0.213
REMARK UNBOUND:                -0.206
REMARK SMILES CC(C)c1ccc(C(=O)[O-])cc1
REMARK SMILES IDX 7 1 6 2 11 3 5 4 12 5 4 6 8 7 9 8 10 9 2 10 1 11 3 12
REMARK H PARENT
REMARK Flexibility Score: inf
ROOT
ATOM      1  C   UNL     1      34.582  19.619   6.851  1.00  0.00    -0.003 A 
ATOM      2  C   UNL     1      33.487  20.386   7.285  1.00  0.00     0.010 A 
ATOM      3  C   UNL     1      35.537  19.202   7.793  1.00  0.00     0.010 A 
ATOM      4  C   UNL     1      33.351  20.727   8.635  1.00  0.00     0.004 A 
ATOM      5  C   UNL     1      35.401  19.545   9.141  1.00  0.00     0.004 A 
ATOM      6  C   UNL     1      34.305  20.311   9.577  1.00  0.00    -0.045 A 
ENDROOT
BRANCH   1   7
ATOM      7  C   UNL     1      34.730  19.254   5.425  1.00  0.00     0.071 C 
ATOM      8  O   UNL     1      35.630  19.783   4.718  1.00  0.00    -0.545 OA
ATOM      9  O   UNL     1      33.879  18.321   4.845  1.00  0.00    -0.545 OA
ENDBRANCH   1   7
BRANCH   6  10
ATOM     10  C   UNL     1      34.144  20.690  11.037  1.00  0.00     0.013 C 
ATOM     11  C   UNL     1      34.579  19.542  11.957  1.00  0.00     0.012 C 
ATOM     12  C   UNL     1      32.706  21.125  11.341  1.00  0.00     0.012 C 
ENDBRANCH   6  10
TORSDOF 2
ENDMDL
MODEL 7
REMARK VINA RESULT:    -5.040      2.763      5.191
REMARK INTER + INTRA:          -5.835
REMARK INTER:                  -5.628
REMARK INTRA:                  -0.208
REMARK UNBOUND:                -0.206
REMARK SMILES CC(C)c1ccc(C(=O)[O-])cc1
REMARK SMILES IDX 7 1 6 2 11 3 5 4 12 5 4 6 8 7 9 8 10 9 2 10 1 11 3 12
REMARK H PARENT
REMARK Flexibility Score: inf
ROOT
ATOM      1  C   UNL     1      37.932  18.285  10.631  1.00  0.00    -0.003 A 
ATOM      2  C   UNL     1      38.648  18.412   9.428  1.00  0.00     0.010 A 
ATOM      3  C   UNL     1      38.643  18.167  11.837  1.00  0.00     0.010 A 
ATOM      4  C   UNL     1      40.047  18.420   9.433  1.00  0.00     0.004 A 
ATOM      5  C   UNL     1      40.040  18.173  11.841  1.00  0.00     0.004 A 
ATOM      6  C   UNL     1      40.758  18.301  10.638  1.00  0.00    -0.045 A 
ENDROOT
BRANCH   1   7
ATOM      7  C   UNL     1      36.452  18.278  10.631  1.00  0.00     0.071 C 
ATOM      8  O   UNL     1      35.816  17.604  11.486  1.00  0.00    -0.545 OA
ATOM      9  O   UNL     1      35.744  19.015   9.690  1.00  0.00    -0.545 OA
ENDBRANCH   1   7
BRANCH   6  10
ATOM     10  C   UNL     1      42.275  18.311  10.627  1.00  0.00     0.013 C 
ATOM     11  C   UNL     1      42.816  19.668  10.160  1.00  0.00     0.012 C 
ATOM     12  C   UNL     1      42.830  17.171   9.766  1.00  0.00     0.012 C 
ENDBRANCH   6  10
TORSDOF 2
ENDMDL
MODEL 8
REMARK VINA RESULT:    -4.936      7.792      9.883
REMARK INTER + INTRA:          -5.720
REMARK INTER:                  -5.511
REMARK INTRA:                  -0.209
REMARK UNBOUND:                -0.206
REMARK SMILES CC(C)c1ccc(C(=O)[O-])cc1
REMARK SMILES IDX 7 1 6 2 11 3 5 4 12 5 4 6 8 7 9 8 10 9 2 10 1 11 3 12
REMARK H PARENT
REMARK Flexibility Score: inf
ROOT
ATOM      1  C   UNL     1      32.405  13.686  15.482  1.00  0.00    -0.003 A 
ATOM      2  C   UNL     1      31.187  14.339  15.733  1.00  0.00     0.010 A 
ATOM      3  C   UNL     1      32.382  12.380  14.963  1.00  0.00     0.010 A 
ATOM      4  C   UNL     1      29.971  13.699  15.471  1.00  0.00     0.004 A 
ATOM      5  C   UNL     1      31.168  11.741  14.703  1.00  0.00     0.004 A 
ATOM      6  C   UNL     1      29.947  12.394  14.954  1.00  0.00    -0.045 A 
ENDROOT
BRANCH   1   7
ATOM      7  C   UNL     1      33.694  14.359  15.756  1.00  0.00     0.071 C 
ATOM      8  O   UNL     1      34.744  14.000  15.158  1.00  0.00    -0.545 OA
ATOM      9  O   UNL     1      33.764  15.398  16.676  1.00  0.00    -0.545 OA
ENDBRANCH   1   7
BRANCH   6  10
ATOM     10  C   UNL     1      28.621  11.713  14.675  1.00  0.00     0.013 C 
ATOM     11  C   UNL     1      27.864  12.419  13.544  1.00  0.00     0.012 C 
ATOM     12  C   UNL     1      27.764  11.629  15.944  1.00  0.00     0.012 C 
ENDBRANCH   6  10
TORSDOF 2
ENDMDL
MODEL 9
REMARK VINA RESULT:    -4.905      3.000      4.385
REMARK INTER + INTRA:          -5.685
REMARK INTER:                  -5.472
REMARK INTRA:                  -0.213
REMARK UNBOUND:                -0.206
REMARK SMILES CC(C)c1ccc(C(=O)[O-])cc1
REMARK SMILES IDX 7 1 6 2 11 3 5 4 12 5 4 6 8 7 9 8 10 9 2 10 1 11 3 12
REMARK H PARENT
REMARK Flexibility Score: inf
ROOT
ATOM      1  C   UNL     1      36.140  18.500  11.221  1.00  0.00    -0.003 A 
ATOM      2  C   UNL     1      35.087  19.064  11.962  1.00  0.00     0.010 A 
ATOM      3  C   UNL     1      36.245  18.799   9.853  1.00  0.00     0.010 A 
ATOM      4  C   UNL     1      34.159  19.909  11.345  1.00  0.00     0.004 A 
ATOM      5  C   UNL     1      35.317  19.642   9.237  1.00  0.00     0.004 A 
ATOM      6  C   UNL     1      34.263  20.207   9.976  1.00  0.00    -0.045 A 
ENDROOT
BRANCH   1   7
ATOM      7  C   UNL     1      37.125  17.607  11.870  1.00  0.00     0.071 C 
ATOM      8  O   UNL     1      37.121  16.369  11.632  1.00  0.00    -0.545 OA
ATOM      9  O   UNL     1      38.070  18.121  12.749  1.00  0.00    -0.545 OA
ENDBRANCH   1   7
BRANCH   6  10
ATOM     10  C   UNL     1      33.248  21.125   9.321  1.00  0.00     0.013 C 
ATOM     11  C   UNL     1      31.884  21.027  10.016  1.00  0.00     0.012 C 
ATOM     12  C   UNL     1      33.125  20.832   7.821  1.00  0.00     0.012 C 
ENDBRANCH   6  10
TORSDOF 2
ENDMDL
