MODEL 1
REMARK VINA RESULT:    -8.055      0.000      0.000
REMARK INTER + INTRA:          -9.686
REMARK INTER:                  -9.703
REMARK INTRA:                   0.017
REMARK UNBOUND:                 0.017
REMARK SMILES O=c1c(O)c(-c2ccc(O)c(O)c2)oc2cc(O)cc(O)c12
REMARK SMILES IDX 5 1 3 2 2 3 1 4 22 5 20 6 19 7 17 8 16 9 15 10 14 11 6 12
REMARK SMILES IDX 7 13 8 14 9 15 13 16 11 17 10 18 12 20 4 22 21 24 18 26
REMARK H PARENT 10 19 12 21 4 23 21 25 18 27
REMARK Flexibility Score: inf
ROOT
ATOM      1  C   UNL     1      38.864  -0.070  -3.203  1.00  0.00     0.180 A 
ATOM      2  C   UNL     1      40.064  -0.591  -2.686  1.00  0.00     0.208 A 
ATOM      3  C   UNL     1      41.028  -1.093  -3.576  1.00  0.00     0.238 A 
ATOM      4  O   UNL     1      42.121  -1.506  -3.112  1.00  0.00    -0.285 OA
ATOM      5  C   UNL     1      40.773  -1.084  -4.969  1.00  0.00     0.111 A 
ATOM      6  C   UNL     1      41.660  -1.604  -5.959  1.00  0.00     0.134 A 
ATOM      7  C   UNL     1      41.364  -1.425  -7.315  1.00  0.00     0.093 A 
ATOM      8  C   UNL     1      40.182  -0.803  -7.718  1.00  0.00     0.123 A 
ATOM      9  C   UNL     1      39.279  -0.344  -6.759  1.00  0.00     0.094 A 
ATOM     10  C   UNL     1      39.564  -0.476  -5.398  1.00  0.00     0.146 A 
ATOM     11  O   UNL     1      38.683  -0.016  -4.517  1.00  0.00    -0.452 OA
ENDROOT
BRANCH   1  12
ATOM     12  C   UNL     1      37.792   0.453  -2.327  1.00  0.00     0.025 A 
ATOM     13  C   UNL     1      36.485  -0.034  -2.469  1.00  0.00     0.016 A 
ATOM     14  C   UNL     1      35.462   0.432  -1.641  1.00  0.00     0.051 A 
ATOM     15  C   UNL     1      35.726   1.378  -0.645  1.00  0.00     0.157 A 
ATOM     16  C   UNL     1      38.064   1.388  -1.313  1.00  0.00     0.062 A 
ATOM     17  C   UNL     1      37.047   1.858  -0.475  1.00  0.00     0.158 A 
BRANCH  15  18
ATOM     18  O   UNL     1      34.658   1.808   0.145  1.00  0.00    -0.504 OA
ATOM     19  H   UNL     1      34.101   1.196   0.723  1.00  0.00     0.293 HD
ENDBRANCH  15  18
BRANCH  17  20
ATOM     20  O   UNL     1      37.389   2.788   0.509  1.00  0.00    -0.504 OA
ATOM     21  H   UNL     1      38.320   2.892   0.888  1.00  0.00     0.293 HD
ENDBRANCH  17  20
ENDBRANCH   1  12
BRANCH   2  22
ATOM     22  O   UNL     1      40.305  -0.570  -1.310  1.00  0.00    -0.502 OA
ATOM     23  H   UNL     1      40.323   0.289  -0.774  1.00  0.00     0.293 HD
ENDBRANCH   2  22
BRANCH   6  24
ATOM     24  O   UNL     1      42.822  -2.323  -5.664  1.00  0.00    -0.507 OA
ATOM     25  H   UNL     1      42.882  -3.329  -5.624  1.00  0.00     0.293 HD
ENDBRANCH   6  24
BRANCH   8  26
ATOM     26  O   UNL     1      39.912  -0.655  -9.077  1.00  0.00    -0.508 OA
ATOM     27  H   UNL     1      39.624  -1.442  -9.648  1.00  0.00     0.293 HD
ENDBRANCH   8  26
TORSDOF 6
ENDMDL
MODEL 2
REMARK VINA RESULT:    -7.655      1.765      2.816
REMARK INTER + INTRA:          -9.204
REMARK INTER:                  -8.896
REMARK INTRA:                  -0.308
REMARK UNBOUND:                 0.017
REMARK SMILES O=c1c(O)c(-c2ccc(O)c(O)c2)oc2cc(O)cc(O)c12
REMARK SMILES IDX 5 1 3 2 2 3 1 4 22 5 20 6 19 7 17 8 16 9 15 10 14 11 6 12
REMARK SMILES IDX 7 13 8 14 9 15 13 16 11 17 10 18 12 20 4 22 21 24 18 26
REMARK H PARENT 10 19 12 21 4 23 21 25 18 27
REMARK Flexibility Score: inf
ROOT
ATOM      1  C   UNL     1      38.127  -0.422  -2.891  1.00  0.00     0.180 A 
ATOM      2  C   UNL     1      37.406  -1.253  -3.767  1.00  0.00     0.208 A 
ATOM      3  C   UNL     1      38.066  -1.808  -4.876  1.00  0.00     0.238 A 
ATOM      4  O   UNL     1      37.431  -2.594  -5.625  1.00  0.00    -0.285 OA
ATOM      5  C   UNL     1      39.432  -1.512  -5.104  1.00  0.00     0.111 A 
ATOM      6  C   UNL     1      40.188  -1.986  -6.217  1.00  0.00     0.134 A 
ATOM      7  C   UNL     1      41.564  -1.738  -6.273  1.00  0.00     0.093 A 
ATOM      8  C   UNL     1      42.200  -0.978  -5.292  1.00  0.00     0.123 A 
ATOM      9  C   UNL     1      41.458  -0.459  -4.229  1.00  0.00     0.094 A 
ATOM     10  C   UNL     1      40.090  -0.721  -4.127  1.00  0.00     0.146 A 
ATOM     11  O   UNL     1      39.423  -0.217  -3.096  1.00  0.00    -0.452 OA
ENDROOT
BRANCH   1  12
ATOM     12  C   UNL     1      37.495   0.219  -1.716  1.00  0.00     0.025 A 
ATOM     13  C   UNL     1      37.721  -0.309  -0.436  1.00  0.00     0.016 A 
ATOM     14  C   UNL     1      37.151   0.291   0.688  1.00  0.00     0.051 A 
ATOM     15  C   UNL     1      36.359   1.437   0.560  1.00  0.00     0.157 A 
ATOM     16  C   UNL     1      36.718   1.383  -1.845  1.00  0.00     0.062 A 
ATOM     17  C   UNL     1      36.145   1.994  -0.723  1.00  0.00     0.158 A 
BRANCH  15  18
ATOM     18  O   UNL     1      35.812   1.985   1.722  1.00  0.00    -0.504 OA
ATOM     19  H   UNL     1      36.339   2.522   2.396  1.00  0.00     0.293 HD
ENDBRANCH  15  18
BRANCH  17  20
ATOM     20  O   UNL     1      35.383   3.146  -0.926  1.00  0.00    -0.504 OA
ATOM     21  H   UNL     1      35.494   3.998  -0.394  1.00  0.00     0.293 HD
ENDBRANCH  17  20
ENDBRANCH   1  12
BRANCH   2  22
ATOM     22  O   UNL     1      36.065  -1.550  -3.511  1.00  0.00    -0.502 OA
ATOM     23  H   UNL     1      35.536  -2.206  -4.071  1.00  0.00     0.293 HD
ENDBRANCH   2  22
BRANCH   6  24
ATOM     24  O   UNL     1      39.634  -2.676  -7.299  1.00  0.00    -0.507 OA
ATOM     25  H   UNL     1      39.327  -3.637  -7.273  1.00  0.00     0.293 HD
ENDBRANCH   6  24
BRANCH   8  26
ATOM     26  O   UNL     1      43.569  -0.737  -5.387  1.00  0.00    -0.508 OA
ATOM     27  H   UNL     1      44.125  -0.509  -4.571  1.00  0.00     0.293 HD
ENDBRANCH   8  26
TORSDOF 6
ENDMDL
MODEL 3
REMARK VINA RESULT:    -7.615      1.979      6.858
REMARK INTER + INTRA:          -9.157
REMARK INTER:                  -8.885
REMARK INTRA:                  -0.272
REMARK UNBOUND:                 0.017
REMARK SMILES O=c1c(O)c(-c2ccc(O)c(O)c2)oc2cc(O)cc(O)c12
REMARK SMILES IDX 5 1 3 2 2 3 1 4 22 5 20 6 19 7 17 8 16 9 15 10 14 11 6 12
REMARK SMILES IDX 7 13 8 14 9 15 13 16 11 17 10 18 12 20 4 22 21 24 18 26
REMARK H PARENT 10 19 12 21 4 23 21 25 18 27
REMARK Flexibility Score: inf
ROOT
ATOM      1  C   UNL     1      39.321  -1.563  -3.377  1.00  0.00     0.180 A 
ATOM      2  C   UNL     1      39.280  -2.628  -2.459  1.00  0.00     0.208 A 
ATOM      3  C   UNL     1      38.694  -2.419  -1.199  1.00  0.00     0.238 A 
ATOM      4  O   UNL     1      38.612  -3.390  -0.403  1.00  0.00    -0.285 OA
ATOM      5  C   UNL     1      38.172  -1.145  -0.868  1.00  0.00     0.111 A 
ATOM      6  C   UNL     1      37.593  -0.810   0.393  1.00  0.00     0.134 A 
ATOM      7  C   UNL     1      36.991   0.441   0.566  1.00  0.00     0.093 A 
ATOM      8  C   UNL     1      37.004   1.394  -0.453  1.00  0.00     0.123 A 
ATOM      9  C   UNL     1      37.620   1.098  -1.670  1.00  0.00     0.094 A 
ATOM     10  C   UNL     1      38.197  -0.156  -1.885  1.00  0.00     0.146 A 
ATOM     11  O   UNL     1      38.764  -0.400  -3.060  1.00  0.00    -0.452 OA
ENDROOT
BRANCH   1  12
ATOM     12  C   UNL     1      39.944  -1.700  -4.713  1.00  0.00     0.025 A 
ATOM     13  C   UNL     1      39.130  -1.720  -5.855  1.00  0.00     0.016 A 
ATOM     14  C   UNL     1      39.698  -1.828  -7.126  1.00  0.00     0.051 A 
ATOM     15  C   UNL     1      41.086  -1.902  -7.283  1.00  0.00     0.157 A 
ATOM     16  C   UNL     1      41.339  -1.751  -4.869  1.00  0.00     0.062 A 
ATOM     17  C   UNL     1      41.918  -1.856  -6.139  1.00  0.00     0.158 A 
BRANCH  15  18
ATOM     18  O   UNL     1      41.590  -2.016  -8.580  1.00  0.00    -0.504 OA
ATOM     19  H   UNL     1      41.378  -2.781  -9.203  1.00  0.00     0.293 HD
ENDBRANCH  15  18
BRANCH  17  20
ATOM     20  O   UNL     1      43.311  -1.905  -6.219  1.00  0.00    -0.504 OA
ATOM     21  H   UNL     1      43.846  -1.541  -6.996  1.00  0.00     0.293 HD
ENDBRANCH  17  20
ENDBRANCH   1  12
BRANCH   2  22
ATOM     22  O   UNL     1      39.781  -3.883  -2.814  1.00  0.00    -0.502 OA
ATOM     23  H   UNL     1      39.739  -4.682  -2.194  1.00  0.00     0.293 HD
ENDBRANCH   2  22
BRANCH   6  24
ATOM     24  O   UNL     1      37.608  -1.654   1.507  1.00  0.00    -0.507 OA
ATOM     25  H   UNL     1      38.150  -1.495   2.342  1.00  0.00     0.293 HD
ENDBRANCH   6  24
BRANCH   8  26
ATOM     26  O   UNL     1      36.409   2.636  -0.241  1.00  0.00    -0.508 OA
ATOM     27  H   UNL     1      36.678   3.451  -0.781  1.00  0.00     0.293 HD
ENDBRANCH   8  26
TORSDOF 6
ENDMDL
MODEL 4
REMARK VINA RESULT:    -7.483      3.280      4.812
REMARK INTER + INTRA:          -8.997
REMARK INTER:                  -8.701
REMARK INTRA:                  -0.296
REMARK UNBOUND:                 0.017
REMARK SMILES O=c1c(O)c(-c2ccc(O)c(O)c2)oc2cc(O)cc(O)c12
REMARK SMILES IDX 5 1 3 2 2 3 1 4 22 5 20 6 19 7 17 8 16 9 15 10 14 11 6 12
REMARK SMILES IDX 7 13 8 14 9 15 13 16 11 17 10 18 12 20 4 22 21 24 18 26
REMARK H PARENT 10 19 12 21 4 23 21 25 18 27
REMARK Flexibility Score: inf
ROOT
ATOM      1  C   UNL     1      39.855  -1.564  -1.658  1.00  0.00     0.180 A 
ATOM      2  C   UNL     1      40.269  -2.259  -2.808  1.00  0.00     0.208 A 
ATOM      3  C   UNL     1      40.127  -1.645  -4.063  1.00  0.00     0.238 A 
ATOM      4  O   UNL     1      40.548  -2.249  -5.083  1.00  0.00    -0.285 OA
ATOM      5  C   UNL     1      39.557  -0.351  -4.154  1.00  0.00     0.111 A 
ATOM      6  C   UNL     1      39.328   0.349  -5.376  1.00  0.00     0.134 A 
ATOM      7  C   UNL     1      38.880   1.675  -5.339  1.00  0.00     0.093 A 
ATOM      8  C   UNL     1      38.591   2.304  -4.129  1.00  0.00     0.123 A 
ATOM      9  C   UNL     1      38.754   1.608  -2.930  1.00  0.00     0.094 A 
ATOM     10  C   UNL     1      39.234   0.296  -2.933  1.00  0.00     0.146 A 
ATOM     11  O   UNL     1      39.385  -0.327  -1.771  1.00  0.00    -0.452 OA
ENDROOT
BRANCH   1  12
ATOM     12  C   UNL     1      39.950  -2.155  -0.304  1.00  0.00     0.025 A 
ATOM     13  C   UNL     1      41.173  -2.119   0.381  1.00  0.00     0.016 A 
ATOM     14  C   UNL     1      41.280  -2.653   1.666  1.00  0.00     0.051 A 
ATOM     15  C   UNL     1      40.168  -3.218   2.298  1.00  0.00     0.157 A 
ATOM     16  C   UNL     1      38.826  -2.703   0.337  1.00  0.00     0.062 A 
ATOM     17  C   UNL     1      38.922  -3.238   1.627  1.00  0.00     0.158 A 
BRANCH  15  18
ATOM     18  O   UNL     1      40.343  -3.742   3.581  1.00  0.00    -0.504 OA
ATOM     19  H   UNL     1      39.786  -3.477   4.380  1.00  0.00     0.293 HD
ENDBRANCH  15  18
BRANCH  17  20
ATOM     20  O   UNL     1      37.765  -3.767   2.202  1.00  0.00    -0.504 OA
ATOM     21  H   UNL     1      37.699  -4.701   2.582  1.00  0.00     0.293 HD
ENDBRANCH  17  20
ENDBRANCH   1  12
BRANCH   2  22
ATOM     22  O   UNL     1      40.848  -3.526  -2.694  1.00  0.00    -0.502 OA
ATOM     23  H   UNL     1      40.305  -4.379  -2.738  1.00  0.00     0.293 HD
ENDBRANCH   2  22
BRANCH   6  24
ATOM     24  O   UNL     1      39.497  -0.217  -6.643  1.00  0.00    -0.507 OA
ATOM     25  H   UNL     1      40.294  -0.767  -6.926  1.00  0.00     0.293 HD
ENDBRANCH   6  24
BRANCH   8  26
ATOM     26  O   UNL     1      38.132   3.619  -4.130  1.00  0.00    -0.508 OA
ATOM     27  H   UNL     1      37.294   3.889  -3.626  1.00  0.00     0.293 HD
ENDBRANCH   8  26
TORSDOF 6
ENDMDL
MODEL 5
REMARK VINA RESULT:    -7.451      2.919      4.292
REMARK INTER + INTRA:          -8.959
REMARK INTER:                  -8.792
REMARK INTRA:                  -0.167
REMARK UNBOUND:                 0.017
REMARK SMILES O=c1c(O)c(-c2ccc(O)c(O)c2)oc2cc(O)cc(O)c12
REMARK SMILES IDX 5 1 3 2 2 3 1 4 22 5 20 6 19 7 17 8 16 9 15 10 14 11 6 12
REMARK SMILES IDX 7 13 8 14 9 15 13 16 11 17 10 18 12 20 4 22 21 24 18 26
REMARK H PARENT 10 19 12 21 4 23 21 25 18 27
REMARK Flexibility Score: inf
ROOT
ATOM      1  C   UNL     1      39.902  -1.168  -1.899  1.00  0.00     0.180 A 
ATOM      2  C   UNL     1      39.241   0.055  -2.108  1.00  0.00     0.208 A 
ATOM      3  C   UNL     1      39.263   0.631  -3.389  1.00  0.00     0.238 A 
ATOM      4  O   UNL     1      38.625   1.698  -3.583  1.00  0.00    -0.285 OA
ATOM      5  C   UNL     1      39.961  -0.013  -4.439  1.00  0.00     0.111 A 
ATOM      6  C   UNL     1      40.084   0.500  -5.765  1.00  0.00     0.134 A 
ATOM      7  C   UNL     1      40.685  -0.284  -6.757  1.00  0.00     0.093 A 
ATOM      8  C   UNL     1      41.225  -1.534  -6.458  1.00  0.00     0.123 A 
ATOM      9  C   UNL     1      41.163  -2.021  -5.151  1.00  0.00     0.094 A 
ATOM     10  C   UNL     1      40.537  -1.277  -4.148  1.00  0.00     0.146 A 
ATOM     11  O   UNL     1      40.491  -1.780  -2.920  1.00  0.00    -0.452 OA
ENDROOT
BRANCH   1  12
ATOM     12  C   UNL     1      39.943  -1.824  -0.573  1.00  0.00     0.025 A 
ATOM     13  C   UNL     1      41.162  -1.917   0.114  1.00  0.00     0.016 A 
ATOM     14  C   UNL     1      41.220  -2.514   1.375  1.00  0.00     0.051 A 
ATOM     15  C   UNL     1      40.063  -3.014   1.981  1.00  0.00     0.157 A 
ATOM     16  C   UNL     1      38.775  -2.306   0.043  1.00  0.00     0.062 A 
ATOM     17  C   UNL     1      38.822  -2.903   1.309  1.00  0.00     0.158 A 
BRANCH  15  18
ATOM     18  O   UNL     1      40.190  -3.606   3.239  1.00  0.00    -0.504 OA
ATOM     19  H   UNL     1      41.005  -3.514   3.827  1.00  0.00     0.293 HD
ENDBRANCH  15  18
BRANCH  17  20
ATOM     20  O   UNL     1      37.624  -3.361   1.859  1.00  0.00    -0.504 OA
ATOM     21  H   UNL     1      36.920  -2.758   2.261  1.00  0.00     0.293 HD
ENDBRANCH  17  20
ENDBRANCH   1  12
BRANCH   2  22
ATOM     22  O   UNL     1      38.540   0.664  -1.063  1.00  0.00    -0.502 OA
ATOM     23  H   UNL     1      38.264   0.162  -0.228  1.00  0.00     0.293 HD
ENDBRANCH   2  22
BRANCH   6  24
ATOM     24  O   UNL     1      39.660   1.776  -6.150  1.00  0.00    -0.507 OA
ATOM     25  H   UNL     1      39.689   2.594  -5.560  1.00  0.00     0.293 HD
ENDBRANCH   6  24
BRANCH   8  26
ATOM     26  O   UNL     1      41.830  -2.281  -7.466  1.00  0.00    -0.508 OA
ATOM     27  H   UNL     1      42.511  -1.870  -8.095  1.00  0.00     0.293 HD
ENDBRANCH   8  26
TORSDOF 6
ENDMDL
MODEL 6
REMARK VINA RESULT:    -7.415      1.831      7.273
REMARK INTER + INTRA:          -8.915
REMARK INTER:                  -8.675
REMARK INTRA:                  -0.240
REMARK UNBOUND:                 0.017
REMARK SMILES O=c1c(O)c(-c2ccc(O)c(O)c2)oc2cc(O)cc(O)c12
REMARK SMILES IDX 5 1 3 2 2 3 1 4 22 5 20 6 19 7 17 8 16 9 15 10 14 11 6 12
REMARK SMILES IDX 7 13 8 14 9 15 13 16 11 17 10 18 12 20 4 22 21 24 18 26
REMARK H PARENT 10 19 12 21 4 23 21 25 18 27
REMARK Flexibility Score: inf
ROOT
ATOM      1  C   UNL     1      39.709   0.016  -3.954  1.00  0.00     0.180 A 
ATOM      2  C   UNL     1      39.107   1.232  -4.326  1.00  0.00     0.208 A 
ATOM      3  C   UNL     1      38.139   1.799  -3.482  1.00  0.00     0.238 A 
ATOM      4  O   UNL     1      37.644   2.912  -3.793  1.00  0.00    -0.285 OA
ATOM      5  C   UNL     1      37.772   1.135  -2.285  1.00  0.00     0.111 A 
ATOM      6  C   UNL     1      36.774   1.598  -1.376  1.00  0.00     0.134 A 
ATOM      7  C   UNL     1      36.585   0.931  -0.160  1.00  0.00     0.093 A 
ATOM      8  C   UNL     1      37.311  -0.218   0.152  1.00  0.00     0.123 A 
ATOM      9  C   UNL     1      38.248  -0.713  -0.757  1.00  0.00     0.094 A 
ATOM     10  C   UNL     1      38.484  -0.049  -1.962  1.00  0.00     0.146 A 
ATOM     11  O   UNL     1      39.391  -0.547  -2.794  1.00  0.00    -0.452 OA
ENDROOT
BRANCH   1  12
ATOM     12  C   UNL     1      40.718  -0.654  -4.803  1.00  0.00     0.025 A 
ATOM     13  C   UNL     1      42.042  -0.756  -4.353  1.00  0.00     0.016 A 
ATOM     14  C   UNL     1      43.006  -1.402  -5.129  1.00  0.00     0.051 A 
ATOM     15  C   UNL     1      42.666  -1.972  -6.360  1.00  0.00     0.157 A 
ATOM     16  C   UNL     1      40.369  -1.245  -6.030  1.00  0.00     0.062 A 
ATOM     17  C   UNL     1      41.328  -1.898  -6.814  1.00  0.00     0.158 A 
BRANCH  15  18
ATOM     18  O   UNL     1      43.678  -2.597  -7.092  1.00  0.00    -0.504 OA
ATOM     19  H   UNL     1      44.481  -2.116  -7.470  1.00  0.00     0.293 HD
ENDBRANCH  15  18
BRANCH  17  20
ATOM     20  O   UNL     1      40.910  -2.460  -8.022  1.00  0.00    -0.504 OA
ATOM     21  H   UNL     1      41.387  -2.326  -8.902  1.00  0.00     0.293 HD
ENDBRANCH  17  20
ENDBRANCH   1  12
BRANCH   2  22
ATOM     22  O   UNL     1      39.499   1.880  -5.500  1.00  0.00    -0.502 OA
ATOM     23  H   UNL     1      39.907   2.807  -5.500  1.00  0.00     0.293 HD
ENDBRANCH   2  22
BRANCH   6  24
ATOM     24  O   UNL     1      35.929   2.682  -1.630  1.00  0.00    -0.507 OA
ATOM     25  H   UNL     1      36.030   3.599  -1.222  1.00  0.00     0.293 HD
ENDBRANCH   6  24
BRANCH   8  26
ATOM     26  O   UNL     1      37.087  -0.865   1.365  1.00  0.00    -0.508 OA
ATOM     27  H   UNL     1      36.148  -1.059   1.697  1.00  0.00     0.293 HD
ENDBRANCH   8  26
TORSDOF 6
ENDMDL
MODEL 7
REMARK VINA RESULT:    -7.390      2.851      6.726
REMARK INTER + INTRA:          -8.885
REMARK INTER:                  -8.581
REMARK INTRA:                  -0.304
REMARK UNBOUND:                 0.017
REMARK SMILES O=c1c(O)c(-c2ccc(O)c(O)c2)oc2cc(O)cc(O)c12
REMARK SMILES IDX 5 1 3 2 2 3 1 4 22 5 20 6 19 7 17 8 16 9 15 10 14 11 6 12
REMARK SMILES IDX 7 13 8 14 9 15 13 16 11 17 10 18 12 20 4 22 21 24 18 26
REMARK H PARENT 10 19 12 21 4 23 21 25 18 27
REMARK Flexibility Score: inf
ROOT
ATOM      1  C   UNL     1      40.902  -1.490  -3.523  1.00  0.00     0.180 A 
ATOM      2  C   UNL     1      42.212  -1.689  -3.051  1.00  0.00     0.208 A 
ATOM      3  C   UNL     1      42.412  -1.938  -1.683  1.00  0.00     0.238 A 
ATOM      4  O   UNL     1      43.580  -2.169  -1.277  1.00  0.00    -0.285 OA
ATOM      5  C   UNL     1      41.303  -1.968  -0.803  1.00  0.00     0.111 A 
ATOM      6  C   UNL     1      41.394  -2.171   0.607  1.00  0.00     0.134 A 
ATOM      7  C   UNL     1      40.223  -2.312   1.361  1.00  0.00     0.093 A 
ATOM      8  C   UNL     1      38.966  -2.192   0.769  1.00  0.00     0.123 A 
ATOM      9  C   UNL     1      38.866  -1.934  -0.599  1.00  0.00     0.094 A 
ATOM     10  C   UNL     1      40.016  -1.825  -1.384  1.00  0.00     0.146 A 
ATOM     11  O   UNL     1      39.878  -1.589  -2.683  1.00  0.00    -0.452 OA
ENDROOT
BRANCH   1  12
ATOM     12  C   UNL     1      40.614  -1.198  -4.945  1.00  0.00     0.025 A 
ATOM     13  C   UNL     1      40.478   0.134  -5.363  1.00  0.00     0.016 A 
ATOM     14  C   UNL     1      40.226   0.433  -6.703  1.00  0.00     0.051 A 
ATOM     15  C   UNL     1      40.120  -0.587  -7.654  1.00  0.00     0.157 A 
ATOM     16  C   UNL     1      40.530  -2.224  -5.902  1.00  0.00     0.062 A 
ATOM     17  C   UNL     1      40.281  -1.934  -7.249  1.00  0.00     0.158 A 
BRANCH  15  18
ATOM     18  O   UNL     1      39.860  -0.222  -8.976  1.00  0.00    -0.504 OA
ATOM     19  H   UNL     1      39.867  -0.868  -9.752  1.00  0.00     0.293 HD
ENDBRANCH  15  18
BRANCH  17  20
ATOM     20  O   UNL     1      40.208  -3.003  -8.144  1.00  0.00    -0.504 OA
ATOM     21  H   UNL     1      40.737  -3.058  -9.003  1.00  0.00     0.293 HD
ENDBRANCH  17  20
ENDBRANCH   1  12
BRANCH   2  22
ATOM     22  O   UNL     1      43.289  -1.677  -3.941  1.00  0.00    -0.502 OA
ATOM     23  H   UNL     1      44.089  -2.288  -3.835  1.00  0.00     0.293 HD
ENDBRANCH   2  22
BRANCH   6  24
ATOM     24  O   UNL     1      42.599  -2.214   1.313  1.00  0.00    -0.507 OA
ATOM     25  H   UNL     1      42.831  -2.899   2.015  1.00  0.00     0.293 HD
ENDBRANCH   6  24
BRANCH   8  26
ATOM     26  O   UNL     1      37.822  -2.322   1.553  1.00  0.00    -0.508 OA
ATOM     27  H   UNL     1      36.933  -1.929   1.263  1.00  0.00     0.293 HD
ENDBRANCH   8  26
TORSDOF 6
ENDMDL
MODEL 8
REMARK VINA RESULT:    -7.267      2.628      6.790
REMARK INTER + INTRA:          -8.737
REMARK INTER:                  -8.445
REMARK INTRA:                  -0.292
REMARK UNBOUND:                 0.017
REMARK SMILES O=c1c(O)c(-c2ccc(O)c(O)c2)oc2cc(O)cc(O)c12
REMARK SMILES IDX 5 1 3 2 2 3 1 4 22 5 20 6 19 7 17 8 16 9 15 10 14 11 6 12
REMARK SMILES IDX 7 13 8 14 9 15 13 16 11 17 10 18 12 20 4 22 21 24 18 26
REMARK H PARENT 10 19 12 21 4 23 21 25 18 27
REMARK Flexibility Score: inf
ROOT
ATOM      1  C   UNL     1      40.312  -1.370  -3.402  1.00  0.00     0.180 A 
ATOM      2  C   UNL     1      39.202  -1.233  -2.550  1.00  0.00     0.208 A 
ATOM      3  C   UNL     1      39.362  -1.484  -1.177  1.00  0.00     0.238 A 
ATOM      4  O   UNL     1      38.380  -1.307  -0.412  1.00  0.00    -0.285 OA
ATOM      5  C   UNL     1      40.625  -1.885  -0.677  1.00  0.00     0.111 A 
ATOM      6  C   UNL     1      40.892  -2.205   0.688  1.00  0.00     0.134 A 
ATOM      7  C   UNL     1      42.206  -2.463   1.093  1.00  0.00     0.093 A 
ATOM      8  C   UNL     1      43.254  -2.477   0.173  1.00  0.00     0.123 A 
ATOM      9  C   UNL     1      42.995  -2.225  -1.175  1.00  0.00     0.094 A 
ATOM     10  C   UNL     1      41.699  -1.928  -1.603  1.00  0.00     0.146 A 
ATOM     11  O   UNL     1      41.498  -1.684  -2.893  1.00  0.00    -0.452 OA
ENDROOT
BRANCH   1  12
ATOM     12  C   UNL     1      40.215  -1.147  -4.862  1.00  0.00     0.025 A 
ATOM     13  C   UNL     1      40.253   0.161  -5.365  1.00  0.00     0.016 A 
ATOM     14  C   UNL     1      40.183   0.394  -6.739  1.00  0.00     0.051 A 
ATOM     15  C   UNL     1      40.090  -0.673  -7.639  1.00  0.00     0.157 A 
ATOM     16  C   UNL     1      40.144  -2.222  -5.765  1.00  0.00     0.062 A 
ATOM     17  C   UNL     1      40.077  -2.000  -7.146  1.00  0.00     0.158 A 
BRANCH  15  18
ATOM     18  O   UNL     1      40.016  -0.374  -9.001  1.00  0.00    -0.504 OA
ATOM     19  H   UNL     1      40.808  -0.390  -9.627  1.00  0.00     0.293 HD
ENDBRANCH  15  18
BRANCH  17  20
ATOM     20  O   UNL     1      40.006  -3.114  -7.983  1.00  0.00    -0.504 OA
ATOM     21  H   UNL     1      39.368  -3.885  -7.845  1.00  0.00     0.293 HD
ENDBRANCH  17  20
ENDBRANCH   1  12
BRANCH   2  22
ATOM     22  O   UNL     1      37.970  -0.815  -3.061  1.00  0.00    -0.502 OA
ATOM     23  H   UNL     1      37.785  -0.756  -4.054  1.00  0.00     0.293 HD
ENDBRANCH   2  22
BRANCH   6  24
ATOM     24  O   UNL     1      39.904  -2.308   1.672  1.00  0.00    -0.507 OA
ATOM     25  H   UNL     1      38.988  -2.705   1.528  1.00  0.00     0.293 HD
ENDBRANCH   6  24
BRANCH   8  26
ATOM     26  O   UNL     1      44.548  -2.754   0.608  1.00  0.00    -0.508 OA
ATOM     27  H   UNL     1      45.361  -2.411   0.108  1.00  0.00     0.293 HD
ENDBRANCH   8  26
TORSDOF 6
ENDMDL
MODEL 9
REMARK VINA RESULT:    -7.245      3.458      4.602
REMARK INTER + INTRA:          -8.710
REMARK INTER:                  -8.828
REMARK INTRA:                   0.118
REMARK UNBOUND:                 0.017
REMARK SMILES O=c1c(O)c(-c2ccc(O)c(O)c2)oc2cc(O)cc(O)c12
REMARK SMILES IDX 5 1 3 2 2 3 1 4 22 5 20 6 19 7 17 8 16 9 15 10 14 11 6 12
REMARK SMILES IDX 7 13 8 14 9 15 13 16 11 17 10 18 12 20 4 22 21 24 18 26
REMARK H PARENT 10 19 12 21 4 23 21 25 18 27
REMARK Flexibility Score: inf
ROOT
ATOM      1  C   UNL     1      40.967  -2.272  -2.534  1.00  0.00     0.180 A 
ATOM      2  C   UNL     1      42.122  -2.209  -3.334  1.00  0.00     0.208 A 
ATOM      3  C   UNL     1      41.981  -2.139  -4.730  1.00  0.00     0.238 A 
ATOM      4  O   UNL     1      43.015  -2.028  -5.436  1.00  0.00    -0.285 OA
ATOM      5  C   UNL     1      40.688  -2.150  -5.308  1.00  0.00     0.111 A 
ATOM      6  C   UNL     1      40.429  -2.123  -6.712  1.00  0.00     0.134 A 
ATOM      7  C   UNL     1      39.111  -2.005  -7.168  1.00  0.00     0.093 A 
ATOM      8  C   UNL     1      38.039  -1.978  -6.276  1.00  0.00     0.123 A 
ATOM      9  C   UNL     1      38.278  -2.063  -4.904  1.00  0.00     0.094 A 
ATOM     10  C   UNL     1      39.584  -2.145  -4.417  1.00  0.00     0.146 A 
ATOM     11  O   UNL     1      39.769  -2.214  -3.104  1.00  0.00    -0.452 OA
ENDROOT
BRANCH   1  12
ATOM     12  C   UNL     1      41.036  -2.373  -1.059  1.00  0.00     0.025 A 
ATOM     13  C   UNL     1      40.086  -1.700  -0.276  1.00  0.00     0.016 A 
ATOM     14  C   UNL     1      40.121  -1.798   1.116  1.00  0.00     0.051 A 
ATOM     15  C   UNL     1      41.091  -2.579   1.753  1.00  0.00     0.157 A 
ATOM     16  C   UNL     1      41.998  -3.176  -0.423  1.00  0.00     0.062 A 
ATOM     17  C   UNL     1      42.038  -3.283   0.972  1.00  0.00     0.158 A 
BRANCH  15  18
ATOM     18  O   UNL     1      41.076  -2.629   3.148  1.00  0.00    -0.504 OA
ATOM     19  H   UNL     1      40.648  -1.927   3.734  1.00  0.00     0.293 HD
ENDBRANCH  15  18
BRANCH  17  20
ATOM     20  O   UNL     1      43.023  -4.097   1.536  1.00  0.00    -0.504 OA
ATOM     21  H   UNL     1      43.434  -3.939   2.445  1.00  0.00     0.293 HD
ENDBRANCH  17  20
ENDBRANCH   1  12
BRANCH   2  22
ATOM     22  O   UNL     1      43.387  -2.178  -2.741  1.00  0.00    -0.502 OA
ATOM     23  H   UNL     1      43.563  -2.547  -1.815  1.00  0.00     0.293 HD
ENDBRANCH   2  22
BRANCH   6  24
ATOM     24  O   UNL     1      41.420  -2.238  -7.690  1.00  0.00    -0.507 OA
ATOM     25  H   UNL     1      42.402  -2.375  -7.502  1.00  0.00     0.293 HD
ENDBRANCH   6  24
BRANCH   8  26
ATOM     26  O   UNL     1      36.739  -1.875  -6.766  1.00  0.00    -0.508 OA
ATOM     27  H   UNL     1      36.528  -2.032  -7.746  1.00  0.00     0.293 HD
ENDBRANCH   8  26
TORSDOF 6
ENDMDL
