MODEL 1
REMARK VINA RESULT:    -4.171      0.000      0.000
REMARK INTER + INTRA:          -5.841
REMARK INTER:                  -5.635
REMARK INTRA:                  -0.206
REMARK UNBOUND:                -0.206
REMARK SMILES [NH3+]CCCC[C@@H]([NH3+])C(=O)[O-]
REMARK SMILES IDX 4 1 3 2 2 3 1 4 5 8 6 9 7 10 8 14 9 15 10 16
REMARK H PARENT 1 5 1 6 1 7 7 11 7 12 7 13
REMARK Flexibility Score: inf
ROOT
ATOM      1  C   UNL     1     121.249 145.220 133.546  1.00  0.00     0.012 C 
ENDROOT
BRANCH   1   2
ATOM      2  C   UNL     1     121.416 144.414 134.844  1.00  0.00     0.061 C 
BRANCH   2   3
ATOM      3  C   UNL     1     122.496 145.001 135.769  1.00  0.00     0.258 C 
BRANCH   3   4
ATOM      4  N   UNL     1     123.573 145.648 135.019  1.00  0.00    -0.358 N 
ATOM      5  H   UNL     1     124.292 146.032 135.673  1.00  0.00     0.344 HD
ATOM      6  H   UNL     1     124.034 144.936 134.406  1.00  0.00     0.344 HD
ATOM      7  H   UNL     1     123.191 146.413 134.417  1.00  0.00     0.344 HD
ENDBRANCH   3   4
ENDBRANCH   2   3
ENDBRANCH   1   2
BRANCH   1   8
ATOM      8  C   UNL     1     120.341 146.439 133.771  1.00  0.00     0.072 C 
BRANCH   8   9
ATOM      9  C   UNL     1     120.805 147.670 132.964  1.00  0.00     0.227 C 
BRANCH   9  10
ATOM     10  N   UNL     1     122.113 147.415 132.348  1.00  0.00    -0.350 N 
ATOM     11  H   UNL     1     122.441 146.453 132.596  1.00  0.00     0.345 HD
ATOM     12  H   UNL     1     122.819 148.115 132.674  1.00  0.00     0.345 HD
ATOM     13  H   UNL     1     122.032 147.472 131.307  1.00  0.00     0.345 HD
ENDBRANCH   9  10
BRANCH   9  14
ATOM     14  C   UNL     1     119.799 148.031 131.902  1.00  0.00     0.099 C 
ATOM     15  O   UNL     1     119.000 147.161 131.466  1.00  0.00    -0.544 OA
ATOM     16  O   UNL     1     119.749 149.323 131.393  1.00  0.00    -0.544 OA
ENDBRANCH   9  14
ENDBRANCH   8   9
ENDBRANCH   1   8
TORSDOF 7
ENDMDL
MODEL 2
REMARK VINA RESULT:    -4.065      1.795      1.919
REMARK INTER + INTRA:          -5.698
REMARK INTER:                  -5.173
REMARK INTRA:                  -0.524
REMARK UNBOUND:                -0.206
REMARK SMILES [NH3+]CCCC[C@@H]([NH3+])C(=O)[O-]
REMARK SMILES IDX 4 1 3 2 2 3 1 4 5 8 6 9 7 10 8 14 9 15 10 16
REMARK H PARENT 1 5 1 6 1 7 7 11 7 12 7 13
REMARK Flexibility Score: inf
ROOT
ATOM      1  C   UNL     1     119.941 144.294 134.478  1.00  0.00     0.012 C 
ENDROOT
BRANCH   1   2
ATOM      2  C   UNL     1     121.452 144.015 134.498  1.00  0.00     0.061 C 
BRANCH   2   3
ATOM      3  C   UNL     1     122.233 145.056 135.318  1.00  0.00     0.258 C 
BRANCH   3   4
ATOM      4  N   UNL     1     123.353 145.624 134.566  1.00  0.00    -0.358 N 
ATOM      5  H   UNL     1     124.255 145.434 135.057  1.00  0.00     0.344 HD
ATOM      6  H   UNL     1     123.391 145.173 133.623  1.00  0.00     0.344 HD
ATOM      7  H   UNL     1     123.224 146.654 134.441  1.00  0.00     0.344 HD
ENDBRANCH   3   4
ENDBRANCH   2   3
ENDBRANCH   1   2
BRANCH   1   8
ATOM      8  C   UNL     1     119.662 145.799 134.337  1.00  0.00     0.072 C 
BRANCH   8   9
ATOM      9  C   UNL     1     119.676 146.260 132.864  1.00  0.00     0.227 C 
BRANCH   9  10
ATOM     10  N   UNL     1     118.333 146.686 132.449  1.00  0.00    -0.350 N 
ATOM     11  H   UNL     1     117.671 145.878 132.506  1.00  0.00     0.345 HD
ATOM     12  H   UNL     1     118.348 147.052 131.467  1.00  0.00     0.345 HD
ATOM     13  H   UNL     1     117.986 147.438 133.087  1.00  0.00     0.345 HD
ENDBRANCH   9  10
BRANCH   9  14
ATOM     14  C   UNL     1     120.657 147.385 132.658  1.00  0.00     0.099 C 
ATOM     15  O   UNL     1     121.859 147.131 132.380  1.00  0.00    -0.544 OA
ATOM     16  O   UNL     1     120.247 148.706 132.781  1.00  0.00    -0.544 OA
ENDBRANCH   9  14
ENDBRANCH   8   9
ENDBRANCH   1   8
TORSDOF 7
ENDMDL
MODEL 3
REMARK VINA RESULT:    -4.006      3.233      4.750
REMARK INTER + INTRA:          -5.618
REMARK INTER:                  -5.390
REMARK INTRA:                  -0.228
REMARK UNBOUND:                -0.206
REMARK SMILES [NH3+]CCCC[C@@H]([NH3+])C(=O)[O-]
REMARK SMILES IDX 4 1 3 2 2 3 1 4 5 8 6 9 7 10 8 14 9 15 10 16
REMARK H PARENT 1 5 1 6 1 7 7 11 7 12 7 13
REMARK Flexibility Score: inf
ROOT
ATOM      1  C   UNL     1     120.439 145.536 133.087  1.00  0.00     0.012 C 
ENDROOT
BRANCH   1   2
ATOM      2  C   UNL     1     120.773 146.761 132.222  1.00  0.00     0.061 C 
BRANCH   2   3
ATOM      3  C   UNL     1     122.060 146.571 131.401  1.00  0.00     0.258 C 
BRANCH   3   4
ATOM      4  N   UNL     1     123.246 147.050 132.114  1.00  0.00    -0.358 N 
ATOM      5  H   UNL     1     123.575 147.953 131.708  1.00  0.00     0.344 HD
ATOM      6  H   UNL     1     122.996 147.212 133.117  1.00  0.00     0.344 HD
ATOM      7  H   UNL     1     124.010 146.337 132.070  1.00  0.00     0.344 HD
ENDBRANCH   3   4
ENDBRANCH   2   3
ENDBRANCH   1   2
BRANCH   1   8
ATOM      8  C   UNL     1     120.947 145.724 134.525  1.00  0.00     0.072 C 
BRANCH   8   9
ATOM      9  C   UNL     1     122.116 144.773 134.861  1.00  0.00     0.227 C 
BRANCH   9  10
ATOM     10  N   UNL     1     123.258 145.532 135.386  1.00  0.00    -0.350 N 
ATOM     11  H   UNL     1     122.919 146.394 135.872  1.00  0.00     0.345 HD
ATOM     12  H   UNL     1     123.908 145.806 134.611  1.00  0.00     0.345 HD
ATOM     13  H   UNL     1     123.781 144.950 136.080  1.00  0.00     0.345 HD
ENDBRANCH   9  10
BRANCH   9  14
ATOM     14  C   UNL     1     121.692 143.727 135.859  1.00  0.00     0.099 C 
ATOM     15  O   UNL     1     122.464 143.401 136.799  1.00  0.00    -0.544 OA
ATOM     16  O   UNL     1     120.452 143.111 135.746  1.00  0.00    -0.544 OA
ENDBRANCH   9  14
ENDBRANCH   8   9
ENDBRANCH   1   8
TORSDOF 7
ENDMDL
MODEL 4
REMARK VINA RESULT:    -3.947      3.676      4.852
REMARK INTER + INTRA:          -5.538
REMARK INTER:                  -5.185
REMARK INTRA:                  -0.354
REMARK UNBOUND:                -0.206
REMARK SMILES [NH3+]CCCC[C@@H]([NH3+])C(=O)[O-]
REMARK SMILES IDX 4 1 3 2 2 3 1 4 5 8 6 9 7 10 8 14 9 15 10 16
REMARK H PARENT 1 5 1 6 1 7 7 11 7 12 7 13
REMARK Flexibility Score: inf
ROOT
ATOM      1  C   UNL     1     120.163 145.723 133.222  1.00  0.00     0.012 C 
ENDROOT
BRANCH   1   2
ATOM      2  C   UNL     1     118.722 146.183 133.493  1.00  0.00     0.061 C 
BRANCH   2   3
ATOM      3  C   UNL     1     117.801 145.024 133.909  1.00  0.00     0.258 C 
BRANCH   3   4
ATOM      4  N   UNL     1     117.770 144.836 135.360  1.00  0.00    -0.358 N 
ATOM      5  H   UNL     1     118.501 145.423 135.819  1.00  0.00     0.344 HD
ATOM      6  H   UNL     1     116.834 145.134 135.721  1.00  0.00     0.344 HD
ATOM      7  H   UNL     1     117.916 143.828 135.601  1.00  0.00     0.344 HD
ENDBRANCH   3   4
ENDBRANCH   2   3
ENDBRANCH   1   2
BRANCH   1   8
ATOM      8  C   UNL     1     121.079 146.063 134.408  1.00  0.00     0.072 C 
BRANCH   8   9
ATOM      9  C   UNL     1     122.138 144.967 134.659  1.00  0.00     0.227 C 
BRANCH   9  10
ATOM     10  N   UNL     1     123.407 145.570 135.087  1.00  0.00    -0.350 N 
ATOM     11  H   UNL     1     123.388 146.601 134.910  1.00  0.00     0.345 HD
ATOM     12  H   UNL     1     124.212 145.145 134.570  1.00  0.00     0.345 HD
ATOM     13  H   UNL     1     123.543 145.419 136.113  1.00  0.00     0.345 HD
ENDBRANCH   9  10
BRANCH   9  14
ATOM     14  C   UNL     1     121.662 143.983 135.696  1.00  0.00     0.099 C 
ATOM     15  O   UNL     1     120.500 143.502 135.624  1.00  0.00    -0.544 OA
ATOM     16  O   UNL     1     122.497 143.603 136.739  1.00  0.00    -0.544 OA
ENDBRANCH   9  14
ENDBRANCH   8   9
ENDBRANCH   1   8
TORSDOF 7
ENDMDL
MODEL 5
REMARK VINA RESULT:    -3.814      2.483      3.026
REMARK INTER + INTRA:          -5.359
REMARK INTER:                  -5.193
REMARK INTRA:                  -0.165
REMARK UNBOUND:                -0.206
REMARK SMILES [NH3+]CCCC[C@@H]([NH3+])C(=O)[O-]
REMARK SMILES IDX 4 1 3 2 2 3 1 4 5 8 6 9 7 10 8 14 9 15 10 16
REMARK H PARENT 1 5 1 6 1 7 7 11 7 12 7 13
REMARK Flexibility Score: inf
ROOT
ATOM      1  C   UNL     1     120.389 146.217 134.059  1.00  0.00     0.012 C 
ENDROOT
BRANCH   1   2
ATOM      2  C   UNL     1     121.467 145.124 134.131  1.00  0.00     0.061 C 
BRANCH   2   3
ATOM      3  C   UNL     1     122.319 145.219 135.409  1.00  0.00     0.258 C 
BRANCH   3   4
ATOM      4  N   UNL     1     123.669 145.715 135.138  1.00  0.00    -0.358 N 
ATOM      5  H   UNL     1     123.939 146.439 135.841  1.00  0.00     0.344 HD
ATOM      6  H   UNL     1     124.343 144.919 135.211  1.00  0.00     0.344 HD
ATOM      7  H   UNL     1     123.724 146.115 134.173  1.00  0.00     0.344 HD
ENDBRANCH   3   4
ENDBRANCH   2   3
ENDBRANCH   1   2
BRANCH   1   8
ATOM      8  C   UNL     1     118.990 145.622 134.281  1.00  0.00     0.072 C 
BRANCH   8   9
ATOM      9  C   UNL     1     118.030 145.933 133.113  1.00  0.00     0.227 C 
BRANCH   9  10
ATOM     10  N   UNL     1     118.565 147.023 132.287  1.00  0.00    -0.350 N 
ATOM     11  H   UNL     1     119.605 147.069 132.391  1.00  0.00     0.345 HD
ATOM     12  H   UNL     1     118.149 147.941 132.571  1.00  0.00     0.345 HD
ATOM     13  H   UNL     1     118.345 146.846 131.281  1.00  0.00     0.345 HD
ENDBRANCH   9  10
BRANCH   9  14
ATOM     14  C   UNL     1     117.799 144.711 132.262  1.00  0.00     0.099 C 
ATOM     15  O   UNL     1     118.730 144.252 131.550  1.00  0.00    -0.544 OA
ATOM     16  O   UNL     1     116.558 144.086 132.254  1.00  0.00    -0.544 OA
ENDBRANCH   9  14
ENDBRANCH   8   9
ENDBRANCH   1   8
TORSDOF 7
ENDMDL
MODEL 6
REMARK VINA RESULT:    -3.735      4.045      4.874
REMARK INTER + INTRA:          -5.251
REMARK INTER:                  -5.092
REMARK INTRA:                  -0.159
REMARK UNBOUND:                -0.206
REMARK SMILES [NH3+]CCCC[C@@H]([NH3+])C(=O)[O-]
REMARK SMILES IDX 4 1 3 2 2 3 1 4 5 8 6 9 7 10 8 14 9 15 10 16
REMARK H PARENT 1 5 1 6 1 7 7 11 7 12 7 13
REMARK Flexibility Score: inf
ROOT
ATOM      1  C   UNL     1     118.638 145.901 133.913  1.00  0.00     0.012 C 
ENDROOT
BRANCH   1   2
ATOM      2  C   UNL     1     117.959 145.041 134.990  1.00  0.00     0.061 C 
BRANCH   2   3
ATOM      3  C   UNL     1     116.892 144.099 134.406  1.00  0.00     0.258 C 
BRANCH   3   4
ATOM      4  N   UNL     1     115.590 144.271 135.054  1.00  0.00    -0.358 N 
ATOM      5  H   UNL     1     115.372 143.447 135.657  1.00  0.00     0.344 HD
ATOM      6  H   UNL     1     115.623 145.122 135.660  1.00  0.00     0.344 HD
ATOM      7  H   UNL     1     114.839 144.398 134.337  1.00  0.00     0.344 HD
ENDBRANCH   3   4
ENDBRANCH   2   3
ENDBRANCH   1   2
BRANCH   1   8
ATOM      8  C   UNL     1     119.845 145.169 133.306  1.00  0.00     0.072 C 
BRANCH   8   9
ATOM      9  C   UNL     1     121.188 145.754 133.792  1.00  0.00     0.227 C 
BRANCH   9  10
ATOM     10  N   UNL     1     120.981 147.073 134.403  1.00  0.00    -0.350 N 
ATOM     11  H   UNL     1     121.728 147.257 135.112  1.00  0.00     0.345 HD
ATOM     12  H   UNL     1     120.044 147.123 134.868  1.00  0.00     0.345 HD
ATOM     13  H   UNL     1     121.038 147.816 133.670  1.00  0.00     0.345 HD
ENDBRANCH   9  10
BRANCH   9  14
ATOM     14  C   UNL     1     121.855 144.831 134.778  1.00  0.00     0.099 C 
ATOM     15  O   UNL     1     122.590 145.300 135.686  1.00  0.00    -0.544 OA
ATOM     16  O   UNL     1     121.670 143.457 134.688  1.00  0.00    -0.544 OA
ENDBRANCH   9  14
ENDBRANCH   8   9
ENDBRANCH   1   8
TORSDOF 7
ENDMDL
MODEL 7
REMARK VINA RESULT:    -3.734      2.808      3.856
REMARK INTER + INTRA:          -5.249
REMARK INTER:                  -4.739
REMARK INTRA:                  -0.510
REMARK UNBOUND:                -0.206
REMARK SMILES [NH3+]CCCC[C@@H]([NH3+])C(=O)[O-]
REMARK SMILES IDX 4 1 3 2 2 3 1 4 5 8 6 9 7 10 8 14 9 15 10 16
REMARK H PARENT 1 5 1 6 1 7 7 11 7 12 7 13
REMARK Flexibility Score: inf
ROOT
ATOM      1  C   UNL     1     120.184 143.311 135.668  1.00  0.00     0.012 C 
ENDROOT
BRANCH   1   2
ATOM      2  C   UNL     1     119.266 142.880 134.514  1.00  0.00     0.061 C 
BRANCH   2   3
ATOM      3  C   UNL     1     117.930 143.642 134.507  1.00  0.00     0.258 C 
BRANCH   3   4
ATOM      4  N   UNL     1     117.947 144.796 135.408  1.00  0.00    -0.358 N 
ATOM      5  H   UNL     1     118.794 145.382 135.233  1.00  0.00     0.344 HD
ATOM      6  H   UNL     1     117.100 145.381 135.225  1.00  0.00     0.344 HD
ATOM      7  H   UNL     1     117.930 144.481 136.405  1.00  0.00     0.344 HD
ENDBRANCH   3   4
ENDBRANCH   2   3
ENDBRANCH   1   2
BRANCH   1   8
ATOM      8  C   UNL     1     121.583 143.679 135.149  1.00  0.00     0.072 C 
BRANCH   8   9
ATOM      9  C   UNL     1     121.843 145.200 135.200  1.00  0.00     0.227 C 
BRANCH   9  10
ATOM     10  N   UNL     1     123.283 145.470 135.291  1.00  0.00    -0.350 N 
ATOM     11  H   UNL     1     123.543 145.679 136.283  1.00  0.00     0.345 HD
ATOM     12  H   UNL     1     123.547 146.284 134.687  1.00  0.00     0.345 HD
ATOM     13  H   UNL     1     123.822 144.629 134.984  1.00  0.00     0.345 HD
ENDBRANCH   9  10
BRANCH   9  14
ATOM     14  C   UNL     1     121.268 145.888 133.989  1.00  0.00     0.099 C 
ATOM     15  O   UNL     1     120.167 146.493 134.070  1.00  0.00    -0.544 OA
ATOM     16  O   UNL     1     121.943 145.854 132.776  1.00  0.00    -0.544 OA
ENDBRANCH   9  14
ENDBRANCH   8   9
ENDBRANCH   1   8
TORSDOF 7
ENDMDL
MODEL 8
REMARK VINA RESULT:    -3.651      3.177      3.628
REMARK INTER + INTRA:          -5.138
REMARK INTER:                  -5.033
REMARK INTRA:                  -0.105
REMARK UNBOUND:                -0.206
REMARK SMILES [NH3+]CCCC[C@@H]([NH3+])C(=O)[O-]
REMARK SMILES IDX 4 1 3 2 2 3 1 4 5 8 6 9 7 10 8 14 9 15 10 16
REMARK H PARENT 1 5 1 6 1 7 7 11 7 12 7 13
REMARK Flexibility Score: inf
ROOT
ATOM      1  C   UNL     1     119.328 145.094 134.175  1.00  0.00     0.012 C 
ENDROOT
BRANCH   1   2
ATOM      2  C   UNL     1     118.026 145.185 134.986  1.00  0.00     0.061 C 
BRANCH   2   3
ATOM      3  C   UNL     1     117.112 143.966 134.774  1.00  0.00     0.258 C 
BRANCH   3   4
ATOM      4  N   UNL     1     115.702 144.287 135.001  1.00  0.00    -0.358 N 
ATOM      5  H   UNL     1     115.226 143.503 135.501  1.00  0.00     0.344 HD
ATOM      6  H   UNL     1     115.641 145.143 135.598  1.00  0.00     0.344 HD
ATOM      7  H   UNL     1     115.220 144.476 134.092  1.00  0.00     0.344 HD
ENDBRANCH   3   4
ENDBRANCH   2   3
ENDBRANCH   1   2
BRANCH   1   8
ATOM      8  C   UNL     1     119.278 146.022 132.951  1.00  0.00     0.072 C 
BRANCH   8   9
ATOM      9  C   UNL     1     119.917 147.399 133.236  1.00  0.00     0.227 C 
BRANCH   9  10
ATOM     10  N   UNL     1     120.975 147.274 134.246  1.00  0.00    -0.350 N 
ATOM     11  H   UNL     1     121.661 148.057 134.141  1.00  0.00     0.345 HD
ATOM     12  H   UNL     1     121.476 146.360 134.145  1.00  0.00     0.345 HD
ATOM     13  H   UNL     1     120.560 147.332 135.204  1.00  0.00     0.345 HD
ENDBRANCH   9  10
BRANCH   9  14
ATOM     14  C   UNL     1     120.478 148.006 131.976  1.00  0.00     0.099 C 
ATOM     15  O   UNL     1     120.178 149.186 131.655  1.00  0.00    -0.544 OA
ATOM     16  O   UNL     1     121.325 147.267 131.159  1.00  0.00    -0.544 OA
ENDBRANCH   9  14
ENDBRANCH   8   9
ENDBRANCH   1   8
TORSDOF 7
ENDMDL
MODEL 9
REMARK VINA RESULT:    -3.560      2.990      3.576
REMARK INTER + INTRA:          -5.016
REMARK INTER:                  -4.777
REMARK INTRA:                  -0.239
REMARK UNBOUND:                -0.206
REMARK SMILES [NH3+]CCCC[C@@H]([NH3+])C(=O)[O-]
REMARK SMILES IDX 4 1 3 2 2 3 1 4 5 8 6 9 7 10 8 14 9 15 10 16
REMARK H PARENT 1 5 1 6 1 7 7 11 7 12 7 13
REMARK Flexibility Score: inf
ROOT
ATOM      1  C   UNL     1     120.294 143.163 134.743  1.00  0.00     0.012 C 
ENDROOT
BRANCH   1   2
ATOM      2  C   UNL     1     121.500 143.753 135.488  1.00  0.00     0.061 C 
BRANCH   2   3
ATOM      3  C   UNL     1     122.007 145.058 134.852  1.00  0.00     0.258 C 
BRANCH   3   4
ATOM      4  N   UNL     1     123.286 145.489 135.417  1.00  0.00    -0.358 N 
ATOM      5  H   UNL     1     123.607 144.815 136.148  1.00  0.00     0.344 HD
ATOM      6  H   UNL     1     124.003 145.512 134.656  1.00  0.00     0.344 HD
ATOM      7  H   UNL     1     123.201 146.447 135.827  1.00  0.00     0.344 HD
ENDBRANCH   3   4
ENDBRANCH   2   3
ENDBRANCH   1   2
BRANCH   1   8
ATOM      8  C   UNL     1     118.975 143.604 135.396  1.00  0.00     0.072 C 
BRANCH   8   9
ATOM      9  C   UNL     1     117.895 143.959 134.351  1.00  0.00     0.227 C 
BRANCH   9  10
ATOM     10  N   UNL     1     116.652 144.366 135.018  1.00  0.00    -0.350 N 
ATOM     11  H   UNL     1     116.455 143.728 135.823  1.00  0.00     0.345 HD
ATOM     12  H   UNL     1     115.846 144.337 134.349  1.00  0.00     0.345 HD
ATOM     13  H   UNL     1     116.751 145.338 135.390  1.00  0.00     0.345 HD
ENDBRANCH   9  10
BRANCH   9  14
ATOM     14  C   UNL     1     118.370 145.056 133.434  1.00  0.00     0.099 C 
ATOM     15  O   UNL     1     118.397 144.872 132.189  1.00  0.00    -0.544 OA
ATOM     16  O   UNL     1     118.786 146.275 133.956  1.00  0.00    -0.544 OA
ENDBRANCH   9  14
ENDBRANCH   8   9
ENDBRANCH   1   8
TORSDOF 7
ENDMDL
