MODEL 1
REMARK VINA RESULT:     6.676      0.000      0.000
REMARK INTER + INTRA:          12.119
REMARK INTER:                  12.921
REMARK INTRA:                  -0.802
REMARK UNBOUND:                -0.802
REMARK SMILES CCCCCCCCCCCCCCCCCC(=O)[O-]
REMARK SMILES IDX 10 1 11 2 12 3 13 4 14 5 15 6 16 7 17 8 18 9 19 10 20 11
REMARK SMILES IDX 9 12 8 13 7 14 6 15 5 16 4 17 3 18 2 19 1 20
REMARK H PARENT
REMARK Flexibility Score: inf
ROOT
ATOM      1  C   UNL     1      25.639 -20.708  14.659  1.00  0.00     0.000 C 
ENDROOT
BRANCH   1   2
ATOM      2  C   UNL     1      25.712 -20.162  13.222  1.00  0.00     0.000 C 
BRANCH   2   3
ATOM      3  C   UNL     1      27.066 -19.508  12.898  1.00  0.00     0.000 C 
BRANCH   3   4
ATOM      4  C   UNL     1      27.300 -18.199  13.675  1.00  0.00     0.000 C 
BRANCH   4   5
ATOM      5  C   UNL     1      28.368 -17.261  13.076  1.00  0.00     0.000 C 
BRANCH   5   6
ATOM      6  C   UNL     1      28.681 -16.005  13.913  1.00  0.00     0.000 C 
BRANCH   6   7
ATOM      7  C   UNL     1      27.891 -15.890  15.229  1.00  0.00     0.006 C 
BRANCH   7   8
ATOM      8  C   UNL     1      28.771 -16.084  16.470  1.00  0.00     0.053 C 
BRANCH   8   9
ATOM      9  C   UNL     1      29.031 -14.770  17.137  1.00  0.00     0.041 C 
ATOM     10  O   UNL     1      28.375 -13.749  16.803  1.00  0.00    -0.550 OA
ATOM     11  O   UNL     1      30.028 -14.663  18.098  1.00  0.00    -0.550 OA
ENDBRANCH   8   9
ENDBRANCH   7   8
ENDBRANCH   6   7
ENDBRANCH   5   6
ENDBRANCH   4   5
ENDBRANCH   3   4
ENDBRANCH   2   3
ENDBRANCH   1   2
BRANCH   1  12
ATOM     12  C   UNL     1      24.698 -21.911  14.855  1.00  0.00     0.000 C 
BRANCH  12  13
ATOM     13  C   UNL     1      25.449 -23.227  15.104  1.00  0.00    -0.000 C 
BRANCH  13  14
ATOM     14  C   UNL     1      26.423 -23.529  13.954  1.00  0.00    -0.000 C 
BRANCH  14  15
ATOM     15  C   UNL     1      27.282 -24.777  14.214  1.00  0.00    -0.000 C 
BRANCH  15  16
ATOM     16  C   UNL     1      28.663 -24.695  13.542  1.00  0.00    -0.000 C 
BRANCH  16  17
ATOM     17  C   UNL     1      29.817 -24.786  14.553  1.00  0.00    -0.000 C 
BRANCH  17  18
ATOM     18  C   UNL     1      31.174 -25.062  13.882  1.00  0.00    -0.000 C 
BRANCH  18  19
ATOM     19  C   UNL     1      31.256 -24.483  12.461  1.00  0.00    -0.003 C 
ATOM     20  C   UNL     1      32.314 -23.388  12.331  1.00  0.00     0.004 C 
ENDBRANCH  18  19
ENDBRANCH  17  18
ENDBRANCH  16  17
ENDBRANCH  15  16
ENDBRANCH  14  15
ENDBRANCH  13  14
ENDBRANCH  12  13
ENDBRANCH   1  12
TORSDOF 16
ENDMDL
MODEL 2
REMARK VINA RESULT:     6.853      3.626      8.188
REMARK INTER + INTRA:          12.462
REMARK INTER:                  13.534
REMARK INTRA:                  -1.072
REMARK UNBOUND:                -0.802
REMARK SMILES CCCCCCCCCCCCCCCCCC(=O)[O-]
REMARK SMILES IDX 10 1 11 2 12 3 13 4 14 5 15 6 16 7 17 8 18 9 19 10 20 11
REMARK SMILES IDX 9 12 8 13 7 14 6 15 5 16 4 17 3 18 2 19 1 20
REMARK H PARENT
REMARK Flexibility Score: inf
ROOT
ATOM      1  C   UNL     1      25.782 -19.962  14.809  1.00  0.00     0.000 C 
ENDROOT
BRANCH   1   2
ATOM      2  C   UNL     1      25.643 -21.329  15.501  1.00  0.00     0.000 C 
BRANCH   2   3
ATOM      3  C   UNL     1      24.857 -22.350  14.660  1.00  0.00     0.000 C 
BRANCH   3   4
ATOM      4  C   UNL     1      25.183 -23.808  15.031  1.00  0.00     0.000 C 
BRANCH   4   5
ATOM      5  C   UNL     1      26.235 -24.495  14.136  1.00  0.00     0.000 C 
BRANCH   5   6
ATOM      6  C   UNL     1      27.693 -24.055  14.379  1.00  0.00     0.000 C 
BRANCH   6   7
ATOM      7  C   UNL     1      28.756 -25.103  14.005  1.00  0.00     0.006 C 
BRANCH   7   8
ATOM      8  C   UNL     1      29.701 -24.622  12.897  1.00  0.00     0.053 C 
BRANCH   8   9
ATOM      9  C   UNL     1      31.123 -24.692  13.356  1.00  0.00     0.041 C 
ATOM     10  O   UNL     1      32.052 -24.843  12.521  1.00  0.00    -0.550 OA
ATOM     11  O   UNL     1      31.419 -24.635  14.712  1.00  0.00    -0.550 OA
ENDBRANCH   8   9
ENDBRANCH   7   8
ENDBRANCH   6   7
ENDBRANCH   5   6
ENDBRANCH   4   5
ENDBRANCH   3   4
ENDBRANCH   2   3
ENDBRANCH   1   2
BRANCH   1  12
ATOM     12  C   UNL     1      25.837 -20.009  13.272  1.00  0.00     0.000 C 
BRANCH  12  13
ATOM     13  C   UNL     1      26.993 -19.185  12.686  1.00  0.00    -0.000 C 
BRANCH  13  14
ATOM     14  C   UNL     1      27.378 -18.032  13.628  1.00  0.00    -0.000 C 
BRANCH  14  15
ATOM     15  C   UNL     1      28.699 -17.355  13.231  1.00  0.00    -0.000 C 
BRANCH  15  16
ATOM     16  C   UNL     1      29.032 -16.143  14.118  1.00  0.00    -0.000 C 
BRANCH  16  17
ATOM     17  C   UNL     1      27.867 -15.750  15.041  1.00  0.00    -0.000 C 
BRANCH  17  18
ATOM     18  C   UNL     1      28.295 -14.778  16.155  1.00  0.00    -0.000 C 
BRANCH  18  19
ATOM     19  C   UNL     1      29.324 -15.396  17.113  1.00  0.00    -0.003 C 
ATOM     20  C   UNL     1      28.771 -16.597  17.878  1.00  0.00     0.004 C 
ENDBRANCH  18  19
ENDBRANCH  17  18
ENDBRANCH  16  17
ENDBRANCH  15  16
ENDBRANCH  14  15
ENDBRANCH  13  14
ENDBRANCH  12  13
ENDBRANCH   1  12
TORSDOF 16
ENDMDL
MODEL 3
REMARK VINA RESULT:     7.360     11.289     13.901
REMARK INTER + INTRA:          13.442
REMARK INTER:                  14.171
REMARK INTRA:                  -0.729
REMARK UNBOUND:                -0.802
REMARK SMILES CCCCCCCCCCCCCCCCCC(=O)[O-]
REMARK SMILES IDX 10 1 11 2 12 3 13 4 14 5 15 6 16 7 17 8 18 9 19 10 20 11
REMARK SMILES IDX 9 12 8 13 7 14 6 15 5 16 4 17 3 18 2 19 1 20
REMARK H PARENT
REMARK Flexibility Score: inf
ROOT
ATOM      1  C   UNL     1      17.693 -18.451  25.372  1.00  0.00     0.000 C 
ENDROOT
BRANCH   1   2
ATOM      2  C   UNL     1      16.974 -18.616  26.723  1.00  0.00     0.000 C 
BRANCH   2   3
ATOM      3  C   UNL     1      17.713 -19.562  27.684  1.00  0.00     0.000 C 
BRANCH   3   4
ATOM      4  C   UNL     1      19.245 -19.454  27.569  1.00  0.00     0.000 C 
BRANCH   4   5
ATOM      5  C   UNL     1      19.868 -20.187  26.364  1.00  0.00     0.000 C 
BRANCH   5   6
ATOM      6  C   UNL     1      21.349 -19.860  26.090  1.00  0.00     0.000 C 
BRANCH   6   7
ATOM      7  C   UNL     1      22.228 -21.077  25.747  1.00  0.00     0.006 C 
BRANCH   7   8
ATOM      8  C   UNL     1      22.272 -21.374  24.243  1.00  0.00     0.053 C 
BRANCH   8   9
ATOM      9  C   UNL     1      23.614 -21.024  23.681  1.00  0.00     0.041 C 
ATOM     10  O   UNL     1      24.146 -21.759  22.809  1.00  0.00    -0.550 OA
ATOM     11  O   UNL     1      24.296 -19.910  24.153  1.00  0.00    -0.550 OA
ENDBRANCH   8   9
ENDBRANCH   7   8
ENDBRANCH   6   7
ENDBRANCH   5   6
ENDBRANCH   4   5
ENDBRANCH   3   4
ENDBRANCH   2   3
ENDBRANCH   1   2
BRANCH   1  12
ATOM     12  C   UNL     1      17.005 -19.134  24.176  1.00  0.00     0.000 C 
BRANCH  12  13
ATOM     13  C   UNL     1      18.000 -19.740  23.175  1.00  0.00    -0.000 C 
BRANCH  13  14
ATOM     14  C   UNL     1      17.264 -20.512  22.069  1.00  0.00    -0.000 C 
BRANCH  14  15
ATOM     15  C   UNL     1      16.256 -21.531  22.625  1.00  0.00    -0.000 C 
BRANCH  15  16
ATOM     16  C   UNL     1      16.295 -22.872  21.871  1.00  0.00    -0.000 C 
BRANCH  16  17
ATOM     17  C   UNL     1      17.727 -23.322  21.542  1.00  0.00    -0.000 C 
BRANCH  17  18
ATOM     18  C   UNL     1      17.765 -24.614  20.707  1.00  0.00    -0.000 C 
BRANCH  18  19
ATOM     19  C   UNL     1      18.079 -24.350  19.226  1.00  0.00    -0.003 C 
ATOM     20  C   UNL     1      18.431 -22.889  18.950  1.00  0.00     0.004 C 
ENDBRANCH  18  19
ENDBRANCH  17  18
ENDBRANCH  16  17
ENDBRANCH  15  16
ENDBRANCH  14  15
ENDBRANCH  13  14
ENDBRANCH  12  13
ENDBRANCH   1  12
TORSDOF 16
ENDMDL
MODEL 4
REMARK VINA RESULT:     7.451     12.886     14.646
REMARK INTER + INTRA:          13.618
REMARK INTER:                  14.963
REMARK INTRA:                  -1.345
REMARK UNBOUND:                -0.802
REMARK SMILES CCCCCCCCCCCCCCCCCC(=O)[O-]
REMARK SMILES IDX 10 1 11 2 12 3 13 4 14 5 15 6 16 7 17 8 18 9 19 10 20 11
REMARK SMILES IDX 9 12 8 13 7 14 6 15 5 16 4 17 3 18 2 19 1 20
REMARK H PARENT
REMARK Flexibility Score: inf
ROOT
ATOM      1  C   UNL     1      23.168 -20.382  24.198  1.00  0.00     0.000 C 
ENDROOT
BRANCH   1   2
ATOM      2  C   UNL     1      21.969 -20.989  24.948  1.00  0.00     0.000 C 
BRANCH   2   3
ATOM      3  C   UNL     1      21.535 -20.152  26.163  1.00  0.00     0.000 C 
BRANCH   3   4
ATOM      4  C   UNL     1      20.018 -20.213  26.420  1.00  0.00     0.000 C 
BRANCH   4   5
ATOM      5  C   UNL     1      19.178 -19.173  25.650  1.00  0.00     0.000 C 
BRANCH   5   6
ATOM      6  C   UNL     1      17.769 -18.915  26.219  1.00  0.00     0.000 C 
BRANCH   6   7
ATOM      7  C   UNL     1      17.401 -19.768  27.447  1.00  0.00     0.006 C 
BRANCH   7   8
ATOM      8  C   UNL     1      16.179 -19.229  28.201  1.00  0.00     0.053 C 
BRANCH   8   9
ATOM      9  C   UNL     1      16.566 -18.068  29.061  1.00  0.00     0.041 C 
ATOM     10  O   UNL     1      15.998 -16.954  28.916  1.00  0.00    -0.550 OA
ATOM     11  O   UNL     1      17.586 -18.204  29.994  1.00  0.00    -0.550 OA
ENDBRANCH   8   9
ENDBRANCH   7   8
ENDBRANCH   6   7
ENDBRANCH   5   6
ENDBRANCH   4   5
ENDBRANCH   3   4
ENDBRANCH   2   3
ENDBRANCH   1   2
BRANCH   1  12
ATOM     12  C   UNL     1      23.725 -21.240  23.048  1.00  0.00     0.000 C 
BRANCH  12  13
ATOM     13  C   UNL     1      24.120 -22.656  23.493  1.00  0.00    -0.000 C 
BRANCH  13  14
ATOM     14  C   UNL     1      25.641 -22.765  23.689  1.00  0.00    -0.000 C 
BRANCH  14  15
ATOM     15  C   UNL     1      26.024 -23.621  24.906  1.00  0.00    -0.000 C 
BRANCH  15  16
ATOM     16  C   UNL     1      26.927 -22.868  25.898  1.00  0.00    -0.000 C 
BRANCH  16  17
ATOM     17  C   UNL     1      26.206 -22.534  27.214  1.00  0.00    -0.000 C 
BRANCH  17  18
ATOM     18  C   UNL     1      24.736 -22.131  27.001  1.00  0.00    -0.000 C 
BRANCH  18  19
ATOM     19  C   UNL     1      23.814 -22.659  28.111  1.00  0.00    -0.003 C 
ATOM     20  C   UNL     1      23.997 -21.914  29.432  1.00  0.00     0.004 C 
ENDBRANCH  18  19
ENDBRANCH  17  18
ENDBRANCH  16  17
ENDBRANCH  15  16
ENDBRANCH  14  15
ENDBRANCH  13  14
ENDBRANCH  12  13
ENDBRANCH   1  12
TORSDOF 16
ENDMDL
MODEL 5
REMARK VINA RESULT:     7.577     11.663     14.081
REMARK INTER + INTRA:          13.862
REMARK INTER:                  14.741
REMARK INTRA:                  -0.878
REMARK UNBOUND:                -0.802
REMARK SMILES CCCCCCCCCCCCCCCCCC(=O)[O-]
REMARK SMILES IDX 10 1 11 2 12 3 13 4 14 5 15 6 16 7 17 8 18 9 19 10 20 11
REMARK SMILES IDX 9 12 8 13 7 14 6 15 5 16 4 17 3 18 2 19 1 20
REMARK H PARENT
REMARK Flexibility Score: inf
ROOT
ATOM      1  C   UNL     1      18.676 -19.529  27.058  1.00  0.00     0.000 C 
ENDROOT
BRANCH   1   2
ATOM      2  C   UNL     1      17.657 -18.737  26.220  1.00  0.00     0.000 C 
BRANCH   2   3
ATOM      3  C   UNL     1      17.996 -18.724  24.720  1.00  0.00     0.000 C 
BRANCH   3   4
ATOM      4  C   UNL     1      16.865 -19.299  23.846  1.00  0.00     0.000 C 
BRANCH   4   5
ATOM      5  C   UNL     1      17.319 -20.276  22.742  1.00  0.00     0.000 C 
BRANCH   5   6
ATOM      6  C   UNL     1      16.280 -21.340  22.339  1.00  0.00     0.000 C 
BRANCH   6   7
ATOM      7  C   UNL     1      16.871 -22.708  21.952  1.00  0.00     0.006 C 
BRANCH   7   8
ATOM      8  C   UNL     1      17.373 -22.750  20.503  1.00  0.00     0.053 C 
BRANCH   8   9
ATOM      9  C   UNL     1      18.033 -24.062  20.217  1.00  0.00     0.041 C 
ATOM     10  O   UNL     1      18.168 -24.917  21.130  1.00  0.00    -0.550 OA
ATOM     11  O   UNL     1      18.538 -24.324  18.949  1.00  0.00    -0.550 OA
ENDBRANCH   8   9
ENDBRANCH   7   8
ENDBRANCH   6   7
ENDBRANCH   5   6
ENDBRANCH   4   5
ENDBRANCH   3   4
ENDBRANCH   2   3
ENDBRANCH   1   2
BRANCH   1  12
ATOM     12  C   UNL     1      20.120 -19.505  26.526  1.00  0.00     0.000 C 
BRANCH  12  13
ATOM     13  C   UNL     1      20.637 -20.896  26.128  1.00  0.00    -0.000 C 
BRANCH  13  14
ATOM     14  C   UNL     1      22.070 -20.812  25.578  1.00  0.00    -0.000 C 
BRANCH  14  15
ATOM     15  C   UNL     1      22.129 -20.952  24.048  1.00  0.00    -0.000 C 
BRANCH  15  16
ATOM     16  C   UNL     1      23.571 -21.010  23.515  1.00  0.00    -0.000 C 
BRANCH  16  17
ATOM     17  C   UNL     1      24.618 -20.952  24.639  1.00  0.00    -0.000 C 
BRANCH  17  18
ATOM     18  C   UNL     1      25.254 -22.323  24.929  1.00  0.00    -0.000 C 
BRANCH  18  19
ATOM     19  C   UNL     1      25.690 -22.472  26.394  1.00  0.00    -0.003 C 
ATOM     20  C   UNL     1      27.120 -22.992  26.533  1.00  0.00     0.004 C 
ENDBRANCH  18  19
ENDBRANCH  17  18
ENDBRANCH  16  17
ENDBRANCH  15  16
ENDBRANCH  14  15
ENDBRANCH  13  14
ENDBRANCH  12  13
ENDBRANCH   1  12
TORSDOF 16
ENDMDL
MODEL 6
REMARK VINA RESULT:     7.732     13.179     15.987
REMARK INTER + INTRA:          14.163
REMARK INTER:                  14.864
REMARK INTRA:                  -0.701
REMARK UNBOUND:                -0.802
REMARK SMILES CCCCCCCCCCCCCCCCCC(=O)[O-]
REMARK SMILES IDX 10 1 11 2 12 3 13 4 14 5 15 6 16 7 17 8 18 9 19 10 20 11
REMARK SMILES IDX 9 12 8 13 7 14 6 15 5 16 4 17 3 18 2 19 1 20
REMARK H PARENT
REMARK Flexibility Score: inf
ROOT
ATOM      1  C   UNL     1      19.828 -19.115  25.915  1.00  0.00     0.000 C 
ENDROOT
BRANCH   1   2
ATOM      2  C   UNL     1      20.668 -20.325  26.361  1.00  0.00     0.000 C 
BRANCH   2   3
ATOM      3  C   UNL     1      21.429 -20.987  25.200  1.00  0.00     0.000 C 
BRANCH   3   4
ATOM      4  C   UNL     1      22.920 -20.608  25.169  1.00  0.00     0.000 C 
BRANCH   4   5
ATOM      5  C   UNL     1      23.537 -20.479  23.761  1.00  0.00     0.000 C 
BRANCH   5   6
ATOM      6  C   UNL     1      24.214 -21.754  23.221  1.00  0.00     0.000 C 
BRANCH   6   7
ATOM      7  C   UNL     1      24.492 -22.837  24.279  1.00  0.00     0.006 C 
BRANCH   7   8
ATOM      8  C   UNL     1      25.990 -23.082  24.500  1.00  0.00     0.053 C 
BRANCH   8   9
ATOM      9  C   UNL     1      26.354 -22.836  25.930  1.00  0.00     0.041 C 
ATOM     10  O   UNL     1      27.531 -23.035  26.328  1.00  0.00    -0.550 OA
ATOM     11  O   UNL     1      25.382 -22.428  26.835  1.00  0.00    -0.550 OA
ENDBRANCH   8   9
ENDBRANCH   7   8
ENDBRANCH   6   7
ENDBRANCH   5   6
ENDBRANCH   4   5
ENDBRANCH   3   4
ENDBRANCH   2   3
ENDBRANCH   1   2
BRANCH   1  12
ATOM     12  C   UNL     1      18.737 -19.424  24.874  1.00  0.00     0.000 C 
BRANCH  12  13
ATOM     13  C   UNL     1      17.371 -18.824  25.239  1.00  0.00    -0.000 C 
BRANCH  13  14
ATOM     14  C   UNL     1      17.147 -18.854  26.759  1.00  0.00    -0.000 C 
BRANCH  14  15
ATOM     15  C   UNL     1      16.269 -20.033  27.207  1.00  0.00    -0.000 C 
BRANCH  15  16
ATOM     16  C   UNL     1      16.415 -20.343  28.707  1.00  0.00    -0.000 C 
BRANCH  16  17
ATOM     17  C   UNL     1      17.672 -19.704  29.321  1.00  0.00    -0.000 C 
BRANCH  17  18
ATOM     18  C   UNL     1      17.407 -18.298  29.887  1.00  0.00    -0.000 C 
BRANCH  18  19
ATOM     19  C   UNL     1      15.960 -17.834  29.659  1.00  0.00    -0.003 C 
ATOM     20  C   UNL     1      15.875 -16.393  29.159  1.00  0.00     0.004 C 
ENDBRANCH  18  19
ENDBRANCH  17  18
ENDBRANCH  16  17
ENDBRANCH  15  16
ENDBRANCH  14  15
ENDBRANCH  13  14
ENDBRANCH  12  13
ENDBRANCH   1  12
TORSDOF 16
ENDMDL
MODEL 7
REMARK VINA RESULT:     7.764     11.037     13.781
REMARK INTER + INTRA:          14.224
REMARK INTER:                  15.286
REMARK INTRA:                  -1.061
REMARK UNBOUND:                -0.802
REMARK SMILES CCCCCCCCCCCCCCCCCC(=O)[O-]
REMARK SMILES IDX 10 1 11 2 12 3 13 4 14 5 15 6 16 7 17 8 18 9 19 10 20 11
REMARK SMILES IDX 9 12 8 13 7 14 6 15 5 16 4 17 3 18 2 19 1 20
REMARK H PARENT
REMARK Flexibility Score: inf
ROOT
ATOM      1  C   UNL     1      19.409 -20.189  26.331  1.00  0.00     0.000 C 
ENDROOT
BRANCH   1   2
ATOM      2  C   UNL     1      20.885 -19.765  26.443  1.00  0.00     0.000 C 
BRANCH   2   3
ATOM      3  C   UNL     1      21.860 -20.862  25.986  1.00  0.00     0.000 C 
BRANCH   3   4
ATOM      4  C   UNL     1      22.014 -20.926  24.456  1.00  0.00     0.000 C 
BRANCH   4   5
ATOM      5  C   UNL     1      23.406 -20.536  23.918  1.00  0.00     0.000 C 
BRANCH   5   6
ATOM      6  C   UNL     1      24.164 -21.659  23.183  1.00  0.00     0.000 C 
BRANCH   6   7
ATOM      7  C   UNL     1      24.536 -22.870  24.058  1.00  0.00     0.006 C 
BRANCH   7   8
ATOM      8  C   UNL     1      26.019 -22.890  24.446  1.00  0.00     0.053 C 
BRANCH   8   9
ATOM      9  C   UNL     1      26.173 -22.801  25.931  1.00  0.00     0.041 C 
ATOM     10  O   UNL     1      27.171 -23.316  26.498  1.00  0.00    -0.550 OA
ATOM     11  O   UNL     1      25.188 -22.187  26.696  1.00  0.00    -0.550 OA
ENDBRANCH   8   9
ENDBRANCH   7   8
ENDBRANCH   6   7
ENDBRANCH   5   6
ENDBRANCH   4   5
ENDBRANCH   3   4
ENDBRANCH   2   3
ENDBRANCH   1   2
BRANCH   1  12
ATOM     12  C   UNL     1      18.386 -19.109  26.726  1.00  0.00     0.000 C 
BRANCH  12  13
ATOM     13  C   UNL     1      17.445 -18.724  25.575  1.00  0.00    -0.000 C 
BRANCH  13  14
ATOM     14  C   UNL     1      18.005 -19.200  24.225  1.00  0.00    -0.000 C 
BRANCH  14  15
ATOM     15  C   UNL     1      16.903 -19.616  23.237  1.00  0.00    -0.000 C 
BRANCH  15  16
ATOM     16  C   UNL     1      17.328 -20.790  22.339  1.00  0.00    -0.000 C 
BRANCH  16  17
ATOM     17  C   UNL     1      16.359 -21.980  22.427  1.00  0.00    -0.000 C 
BRANCH  17  18
ATOM     18  C   UNL     1      16.762 -23.143  21.503  1.00  0.00    -0.000 C 
BRANCH  18  19
ATOM     19  C   UNL     1      17.748 -22.711  20.408  1.00  0.00    -0.003 C 
ATOM     20  C   UNL     1      18.187 -23.872  19.518  1.00  0.00     0.004 C 
ENDBRANCH  18  19
ENDBRANCH  17  18
ENDBRANCH  16  17
ENDBRANCH  15  16
ENDBRANCH  14  15
ENDBRANCH  13  14
ENDBRANCH  12  13
ENDBRANCH   1  12
TORSDOF 16
ENDMDL
MODEL 8
REMARK VINA RESULT:     7.877     11.534     14.242
REMARK INTER + INTRA:          14.444
REMARK INTER:                  15.183
REMARK INTRA:                  -0.739
REMARK UNBOUND:                -0.802
REMARK SMILES CCCCCCCCCCCCCCCCCC(=O)[O-]
REMARK SMILES IDX 10 1 11 2 12 3 13 4 14 5 15 6 16 7 17 8 18 9 19 10 20 11
REMARK SMILES IDX 9 12 8 13 7 14 6 15 5 16 4 17 3 18 2 19 1 20
REMARK H PARENT
REMARK Flexibility Score: inf
ROOT
ATOM      1  C   UNL     1      17.388 -18.428  25.638  1.00  0.00     0.000 C 
ENDROOT
BRANCH   1   2
ATOM      2  C   UNL     1      16.872 -19.289  24.470  1.00  0.00     0.000 C 
BRANCH   2   3
ATOM      3  C   UNL     1      17.840 -19.319  23.275  1.00  0.00     0.000 C 
BRANCH   3   4
ATOM      4  C   UNL     1      17.448 -20.365  22.215  1.00  0.00     0.000 C 
BRANCH   4   5
ATOM      5  C   UNL     1      16.276 -21.289  22.605  1.00  0.00     0.000 C 
BRANCH   5   6
ATOM      6  C   UNL     1      16.331 -22.708  22.005  1.00  0.00     0.000 C 
BRANCH   6   7
ATOM      7  C   UNL     1      17.744 -23.209  21.657  1.00  0.00     0.006 C 
BRANCH   7   8
ATOM      8  C   UNL     1      17.730 -24.461  20.771  1.00  0.00     0.053 C 
BRANCH   8   9
ATOM      9  C   UNL     1      18.040 -24.101  19.353  1.00  0.00     0.041 C 
ATOM     10  O   UNL     1      18.510 -22.967  19.075  1.00  0.00    -0.550 OA
ATOM     11  O   UNL     1      17.770 -25.004  18.332  1.00  0.00    -0.550 OA
ENDBRANCH   8   9
ENDBRANCH   7   8
ENDBRANCH   6   7
ENDBRANCH   5   6
ENDBRANCH   4   5
ENDBRANCH   3   4
ENDBRANCH   2   3
ENDBRANCH   1   2
BRANCH   1  12
ATOM     12  C   UNL     1      17.473 -19.150  26.995  1.00  0.00     0.000 C 
BRANCH  12  13
ATOM     13  C   UNL     1      18.893 -19.623  27.336  1.00  0.00    -0.000 C 
BRANCH  13  14
ATOM     14  C   UNL     1      19.715 -19.861  26.059  1.00  0.00    -0.000 C 
BRANCH  14  15
ATOM     15  C   UNL     1      21.177 -20.231  26.353  1.00  0.00    -0.000 C 
BRANCH  15  16
ATOM     16  C   UNL     1      21.759 -21.208  25.317  1.00  0.00    -0.000 C 
BRANCH  16  17
ATOM     17  C   UNL     1      23.252 -20.962  25.047  1.00  0.00    -0.000 C 
BRANCH  17  18
ATOM     18  C   UNL     1      23.550 -20.689  23.562  1.00  0.00    -0.000 C 
BRANCH  18  19
ATOM     19  C   UNL     1      24.165 -21.904  22.851  1.00  0.00    -0.003 C 
ATOM     20  C   UNL     1      25.113 -22.695  23.751  1.00  0.00     0.004 C 
ENDBRANCH  18  19
ENDBRANCH  17  18
ENDBRANCH  16  17
ENDBRANCH  15  16
ENDBRANCH  14  15
ENDBRANCH  13  14
ENDBRANCH  12  13
ENDBRANCH   1  12
TORSDOF 16
ENDMDL
