MODEL 1
REMARK VINA RESULT:    18.160      0.000      0.000
REMARK INTER + INTRA:          45.983
REMARK INTER:                  45.763
REMARK INTRA:                   0.220
REMARK UNBOUND:                 0.220
REMARK SMILES CCCCCCCCCCCCCCCCCCCCCCCCCCCC(=O)[O-]
REMARK SMILES IDX 15 1 16 2 17 3 18 4 19 5 20 6 21 7 22 8 23 9 24 10 25 11
REMARK SMILES IDX 26 12 27 13 28 14 29 15 30 16 14 17 13 18 12 19 11 20 10 21
REMARK SMILES IDX 9 22 8 23 7 24 6 25 5 26 4 27 3 28 2 29 1 30
REMARK H PARENT
REMARK Flexibility Score: inf
ROOT
ATOM      1  C   UNL     1     -12.647  28.009 -18.053  1.00  0.00     0.000 C 
ENDROOT
BRANCH   1   2
ATOM      2  C   UNL     1     -12.003  28.528 -19.352  1.00  0.00     0.000 C 
BRANCH   2   3
ATOM      3  C   UNL     1     -11.608  27.394 -20.311  1.00  0.00     0.000 C 
BRANCH   3   4
ATOM      4  C   UNL     1     -11.687  26.005 -19.656  1.00  0.00     0.000 C 
BRANCH   4   5
ATOM      5  C   UNL     1     -12.793  25.121 -20.259  1.00  0.00     0.000 C 
BRANCH   5   6
ATOM      6  C   UNL     1     -14.017  24.949 -19.334  1.00  0.00     0.000 C 
BRANCH   6   7
ATOM      7  C   UNL     1     -14.420  23.471 -19.180  1.00  0.00     0.000 C 
BRANCH   7   8
ATOM      8  C   UNL     1     -13.995  22.610 -20.379  1.00  0.00     0.000 C 
BRANCH   8   9
ATOM      9  C   UNL     1     -14.209  21.105 -20.130  1.00  0.00     0.000 C 
BRANCH   9  10
ATOM     10  C   UNL     1     -15.480  20.571 -20.809  1.00  0.00     0.000 C 
BRANCH  10  11
ATOM     11  C   UNL     1     -16.569  20.178 -19.797  1.00  0.00     0.000 C 
BRANCH  11  12
ATOM     12  C   UNL     1     -16.767  18.655 -19.687  1.00  0.00     0.006 C 
BRANCH  12  13
ATOM     13  C   UNL     1     -17.616  18.222 -18.478  1.00  0.00     0.053 C 
BRANCH  13  14
ATOM     14  C   UNL     1     -17.125  16.954 -17.851  1.00  0.00     0.041 C 
ATOM     15  O   UNL     1     -17.753  15.875 -18.022  1.00  0.00    -0.550 OA
ATOM     16  O   UNL     1     -15.957  16.955 -17.100  1.00  0.00    -0.550 OA
ENDBRANCH  13  14
ENDBRANCH  12  13
ENDBRANCH  11  12
ENDBRANCH  10  11
ENDBRANCH   9  10
ENDBRANCH   8   9
ENDBRANCH   7   8
ENDBRANCH   6   7
ENDBRANCH   5   6
ENDBRANCH   4   5
ENDBRANCH   3   4
ENDBRANCH   2   3
ENDBRANCH   1   2
BRANCH   1  17
ATOM     17  C   UNL     1     -12.768  29.112 -16.981  1.00  0.00     0.000 C 
BRANCH  17  18
ATOM     18  C   UNL     1     -14.214  29.386 -16.530  1.00  0.00     0.000 C 
BRANCH  18  19
ATOM     19  C   UNL     1     -14.793  30.680 -17.129  1.00  0.00     0.000 C 
BRANCH  19  20
ATOM     20  C   UNL     1     -14.467  30.839 -18.623  1.00  0.00     0.000 C 
BRANCH  20  21
ATOM     21  C   UNL     1     -14.138  32.291 -19.000  1.00  0.00     0.000 C 
BRANCH  21  22
ATOM     22  C   UNL     1     -15.405  33.157 -19.005  1.00  0.00    -0.000 C 
BRANCH  22  23
ATOM     23  C   UNL     1     -15.098  34.666 -19.029  1.00  0.00    -0.000 C 
BRANCH  23  24
ATOM     24  C   UNL     1     -16.199  35.566 -18.431  1.00  0.00    -0.000 C 
BRANCH  24  25
ATOM     25  C   UNL     1     -17.640  35.038 -18.599  1.00  0.00    -0.000 C 
BRANCH  25  26
ATOM     26  C   UNL     1     -17.849  34.082 -19.786  1.00  0.00    -0.000 C 
BRANCH  26  27
ATOM     27  C   UNL     1     -18.377  34.799 -21.041  1.00  0.00    -0.000 C 
BRANCH  27  28
ATOM     28  C   UNL     1     -19.912  34.796 -21.121  1.00  0.00    -0.000 C 
BRANCH  28  29
ATOM     29  C   UNL     1     -20.579  34.561 -19.757  1.00  0.00    -0.003 C 
ATOM     30  C   UNL     1     -20.645  35.855 -18.951  1.00  0.00     0.004 C 
ENDBRANCH  28  29
ENDBRANCH  27  28
ENDBRANCH  26  27
ENDBRANCH  25  26
ENDBRANCH  24  25
ENDBRANCH  23  24
ENDBRANCH  22  23
ENDBRANCH  21  22
ENDBRANCH  20  21
ENDBRANCH  19  20
ENDBRANCH  18  19
ENDBRANCH  17  18
ENDBRANCH   1  17
TORSDOF 26
ENDMDL
MODEL 2
REMARK VINA RESULT:    18.410      5.173     12.239
REMARK INTER + INTRA:          46.614
REMARK INTER:                  44.769
REMARK INTRA:                   1.845
REMARK UNBOUND:                 0.220
REMARK SMILES CCCCCCCCCCCCCCCCCCCCCCCCCCCC(=O)[O-]
REMARK SMILES IDX 15 1 16 2 17 3 18 4 19 5 20 6 21 7 22 8 23 9 24 10 25 11
REMARK SMILES IDX 26 12 27 13 28 14 29 15 30 16 14 17 13 18 12 19 11 20 10 21
REMARK SMILES IDX 9 22 8 23 7 24 6 25 5 26 4 27 3 28 2 29 1 30
REMARK H PARENT
REMARK Flexibility Score: inf
ROOT
ATOM      1  C   UNL     1     -14.787  31.515 -17.957  1.00  0.00     0.000 C 
ENDROOT
BRANCH   1   2
ATOM      2  C   UNL     1     -15.428  32.007 -19.268  1.00  0.00     0.000 C 
BRANCH   2   3
ATOM      3  C   UNL     1     -15.547  33.537 -19.331  1.00  0.00     0.000 C 
BRANCH   3   4
ATOM      4  C   UNL     1     -14.993  34.124 -20.640  1.00  0.00     0.000 C 
BRANCH   4   5
ATOM      5  C   UNL     1     -15.779  35.354 -21.125  1.00  0.00     0.000 C 
BRANCH   5   6
ATOM      6  C   UNL     1     -17.014  35.679 -20.256  1.00  0.00     0.000 C 
BRANCH   6   7
ATOM      7  C   UNL     1     -18.321  35.189 -20.904  1.00  0.00     0.000 C 
BRANCH   7   8
ATOM      8  C   UNL     1     -19.522  35.262 -19.950  1.00  0.00     0.000 C 
BRANCH   8   9
ATOM      9  C   UNL     1     -19.485  34.163 -18.870  1.00  0.00     0.000 C 
BRANCH   9  10
ATOM     10  C   UNL     1     -19.776  34.710 -17.464  1.00  0.00     0.000 C 
BRANCH  10  11
ATOM     11  C   UNL     1     -18.510  35.219 -16.755  1.00  0.00     0.000 C 
BRANCH  11  12
ATOM     12  C   UNL     1     -17.220  34.928 -17.543  1.00  0.00     0.006 C 
BRANCH  12  13
ATOM     13  C   UNL     1     -16.234  36.110 -17.585  1.00  0.00     0.053 C 
BRANCH  13  14
ATOM     14  C   UNL     1     -14.817  35.691 -17.342  1.00  0.00     0.041 C 
ATOM     15  O   UNL     1     -13.994  35.645 -18.294  1.00  0.00    -0.550 OA
ATOM     16  O   UNL     1     -14.396  35.375 -16.056  1.00  0.00    -0.550 OA
ENDBRANCH  13  14
ENDBRANCH  12  13
ENDBRANCH  11  12
ENDBRANCH  10  11
ENDBRANCH   9  10
ENDBRANCH   8   9
ENDBRANCH   7   8
ENDBRANCH   6   7
ENDBRANCH   5   6
ENDBRANCH   4   5
ENDBRANCH   3   4
ENDBRANCH   2   3
ENDBRANCH   1   2
BRANCH   1  17
ATOM     17  C   UNL     1     -13.856  30.305 -18.181  1.00  0.00     0.000 C 
BRANCH  17  18
ATOM     18  C   UNL     1     -12.898  30.031 -17.008  1.00  0.00     0.000 C 
BRANCH  18  19
ATOM     19  C   UNL     1     -13.393  28.909 -16.080  1.00  0.00     0.000 C 
BRANCH  19  20
ATOM     20  C   UNL     1     -12.673  27.574 -16.329  1.00  0.00     0.000 C 
BRANCH  20  21
ATOM     21  C   UNL     1     -12.907  27.035 -17.748  1.00  0.00     0.000 C 
BRANCH  21  22
ATOM     22  C   UNL     1     -11.579  26.655 -18.417  1.00  0.00    -0.000 C 
BRANCH  22  23
ATOM     23  C   UNL     1     -11.633  26.753 -19.952  1.00  0.00    -0.000 C 
BRANCH  23  24
ATOM     24  C   UNL     1     -13.024  26.502 -20.573  1.00  0.00    -0.000 C 
BRANCH  24  25
ATOM     25  C   UNL     1     -13.575  25.073 -20.391  1.00  0.00    -0.000 C 
BRANCH  25  26
ATOM     26  C   UNL     1     -12.510  23.989 -20.149  1.00  0.00    -0.000 C 
BRANCH  26  27
ATOM     27  C   UNL     1     -13.121  22.635 -19.750  1.00  0.00    -0.000 C 
BRANCH  27  28
ATOM     28  C   UNL     1     -14.567  22.470 -20.244  1.00  0.00    -0.000 C 
BRANCH  28  29
ATOM     29  C   UNL     1     -14.895  21.027 -20.656  1.00  0.00    -0.003 C 
ATOM     30  C   UNL     1     -16.246  20.592 -20.096  1.00  0.00     0.004 C 
ENDBRANCH  28  29
ENDBRANCH  27  28
ENDBRANCH  26  27
ENDBRANCH  25  26
ENDBRANCH  24  25
ENDBRANCH  23  24
ENDBRANCH  22  23
ENDBRANCH  21  22
ENDBRANCH  20  21
ENDBRANCH  19  20
ENDBRANCH  18  19
ENDBRANCH  17  18
ENDBRANCH   1  17
TORSDOF 26
ENDMDL
MODEL 3
REMARK VINA RESULT:    18.667      5.313     12.000
REMARK INTER + INTRA:          47.261
REMARK INTER:                  47.545
REMARK INTRA:                  -0.284
REMARK UNBOUND:                 0.220
REMARK SMILES CCCCCCCCCCCCCCCCCCCCCCCCCCCC(=O)[O-]
REMARK SMILES IDX 15 1 16 2 17 3 18 4 19 5 20 6 21 7 22 8 23 9 24 10 25 11
REMARK SMILES IDX 26 12 27 13 28 14 29 15 30 16 14 17 13 18 12 19 11 20 10 21
REMARK SMILES IDX 9 22 8 23 7 24 6 25 5 26 4 27 3 28 2 29 1 30
REMARK H PARENT
REMARK Flexibility Score: inf
ROOT
ATOM      1  C   UNL     1     -14.948  29.961 -17.258  1.00  0.00     0.000 C 
ENDROOT
BRANCH   1   2
ATOM      2  C   UNL     1     -15.118  31.380 -17.831  1.00  0.00     0.000 C 
BRANCH   2   3
ATOM      3  C   UNL     1     -14.731  31.468 -19.316  1.00  0.00     0.000 C 
BRANCH   3   4
ATOM      4  C   UNL     1     -14.656  32.917 -19.827  1.00  0.00     0.000 C 
BRANCH   4   5
ATOM      5  C   UNL     1     -16.043  33.533 -20.083  1.00  0.00     0.000 C 
BRANCH   5   6
ATOM      6  C   UNL     1     -15.998  34.814 -20.944  1.00  0.00     0.000 C 
BRANCH   6   7
ATOM      7  C   UNL     1     -17.348  35.553 -20.949  1.00  0.00     0.000 C 
BRANCH   7   8
ATOM      8  C   UNL     1     -18.548  34.601 -21.058  1.00  0.00     0.000 C 
BRANCH   8   9
ATOM      9  C   UNL     1     -19.892  35.350 -21.125  1.00  0.00     0.000 C 
BRANCH   9  10
ATOM     10  C   UNL     1     -20.327  35.903 -19.759  1.00  0.00     0.000 C 
BRANCH  10  11
ATOM     11  C   UNL     1     -20.650  34.792 -18.747  1.00  0.00     0.000 C 
BRANCH  11  12
ATOM     12  C   UNL     1     -19.572  33.693 -18.695  1.00  0.00     0.006 C 
BRANCH  12  13
ATOM     13  C   UNL     1     -18.599  33.829 -17.510  1.00  0.00     0.053 C 
BRANCH  13  14
ATOM     14  C   UNL     1     -18.391  35.252 -17.093  1.00  0.00     0.041 C 
ATOM     15  O   UNL     1     -18.845  35.665 -15.993  1.00  0.00    -0.550 OA
ATOM     16  O   UNL     1     -17.672  36.118 -17.906  1.00  0.00    -0.550 OA
ENDBRANCH  13  14
ENDBRANCH  12  13
ENDBRANCH  11  12
ENDBRANCH  10  11
ENDBRANCH   9  10
ENDBRANCH   8   9
ENDBRANCH   7   8
ENDBRANCH   6   7
ENDBRANCH   5   6
ENDBRANCH   4   5
ENDBRANCH   3   4
ENDBRANCH   2   3
ENDBRANCH   1   2
BRANCH   1  17
ATOM     17  C   UNL     1     -14.044  29.942 -16.007  1.00  0.00     0.000 C 
BRANCH  17  18
ATOM     18  C   UNL     1     -13.325  28.601 -15.779  1.00  0.00     0.000 C 
BRANCH  18  19
ATOM     19  C   UNL     1     -12.766  27.993 -17.077  1.00  0.00     0.000 C 
BRANCH  19  20
ATOM     20  C   UNL     1     -12.025  29.023 -17.944  1.00  0.00     0.000 C 
BRANCH  20  21
ATOM     21  C   UNL     1     -11.903  28.579 -19.409  1.00  0.00     0.000 C 
BRANCH  21  22
ATOM     22  C   UNL     1     -11.826  27.050 -19.514  1.00  0.00    -0.000 C 
BRANCH  22  23
ATOM     23  C   UNL     1     -10.887  26.574 -20.638  1.00  0.00    -0.000 C 
BRANCH  23  24
ATOM     24  C   UNL     1     -10.456  25.095 -20.546  1.00  0.00    -0.000 C 
BRANCH  24  25
ATOM     25  C   UNL     1     -11.545  24.070 -20.922  1.00  0.00    -0.000 C 
BRANCH  25  26
ATOM     26  C   UNL     1     -12.948  24.376 -20.369  1.00  0.00    -0.000 C 
BRANCH  26  27
ATOM     27  C   UNL     1     -13.527  23.215 -19.542  1.00  0.00    -0.000 C 
BRANCH  27  28
ATOM     28  C   UNL     1     -15.061  23.156 -19.599  1.00  0.00    -0.000 C 
BRANCH  28  29
ATOM     29  C   UNL     1     -15.602  21.719 -19.619  1.00  0.00    -0.003 C 
ATOM     30  C   UNL     1     -14.666  20.793 -20.391  1.00  0.00     0.004 C 
ENDBRANCH  28  29
ENDBRANCH  27  28
ENDBRANCH  26  27
ENDBRANCH  25  26
ENDBRANCH  24  25
ENDBRANCH  23  24
ENDBRANCH  22  23
ENDBRANCH  21  22
ENDBRANCH  20  21
ENDBRANCH  19  20
ENDBRANCH  18  19
ENDBRANCH  17  18
ENDBRANCH   1  17
TORSDOF 26
ENDMDL
MODEL 4
REMARK VINA RESULT:    18.822      7.099      7.973
REMARK INTER + INTRA:          47.652
REMARK INTER:                  48.070
REMARK INTRA:                  -0.418
REMARK UNBOUND:                 0.220
REMARK SMILES CCCCCCCCCCCCCCCCCCCCCCCCCCCC(=O)[O-]
REMARK SMILES IDX 15 1 16 2 17 3 18 4 19 5 20 6 21 7 22 8 23 9 24 10 25 11
REMARK SMILES IDX 26 12 27 13 28 14 29 15 30 16 14 17 13 18 12 19 11 20 10 21
REMARK SMILES IDX 9 22 8 23 7 24 6 25 5 26 4 27 3 28 2 29 1 30
REMARK H PARENT
REMARK Flexibility Score: inf
ROOT
ATOM      1  C   UNL     1     -10.501  26.281 -16.416  1.00  0.00     0.000 C 
ENDROOT
BRANCH   1   2
ATOM      2  C   UNL     1      -9.410  25.542 -15.620  1.00  0.00     0.000 C 
BRANCH   2   3
ATOM      3  C   UNL     1      -8.061  26.279 -15.639  1.00  0.00     0.000 C 
BRANCH   3   4
ATOM      4  C   UNL     1      -7.003  25.608 -14.747  1.00  0.00     0.000 C 
BRANCH   4   5
ATOM      5  C   UNL     1      -7.070  24.071 -14.793  1.00  0.00     0.000 C 
BRANCH   5   6
ATOM      6  C   UNL     1      -5.690  23.390 -14.671  1.00  0.00     0.000 C 
BRANCH   6   7
ATOM      7  C   UNL     1      -5.790  21.859 -14.784  1.00  0.00     0.000 C 
BRANCH   7   8
ATOM      8  C   UNL     1      -6.390  21.207 -13.529  1.00  0.00     0.000 C 
BRANCH   8   9
ATOM      9  C   UNL     1      -5.556  21.486 -12.264  1.00  0.00     0.000 C 
BRANCH   9  10
ATOM     10  C   UNL     1      -5.481  20.269 -11.328  1.00  0.00     0.000 C 
BRANCH  10  11
ATOM     11  C   UNL     1      -6.606  19.253 -11.590  1.00  0.00     0.000 C 
BRANCH  11  12
ATOM     12  C   UNL     1      -6.483  18.557 -12.957  1.00  0.00     0.006 C 
BRANCH  12  13
ATOM     13  C   UNL     1      -6.598  17.024 -12.890  1.00  0.00     0.053 C 
BRANCH  13  14
ATOM     14  C   UNL     1      -5.402  16.380 -12.259  1.00  0.00     0.041 C 
ATOM     15  O   UNL     1      -5.404  16.102 -11.030  1.00  0.00    -0.550 OA
ATOM     16  O   UNL     1      -4.294  16.063 -13.033  1.00  0.00    -0.550 OA
ENDBRANCH  13  14
ENDBRANCH  12  13
ENDBRANCH  11  12
ENDBRANCH  10  11
ENDBRANCH   9  10
ENDBRANCH   8   9
ENDBRANCH   7   8
ENDBRANCH   6   7
ENDBRANCH   5   6
ENDBRANCH   4   5
ENDBRANCH   3   4
ENDBRANCH   2   3
ENDBRANCH   1   2
BRANCH   1  17
ATOM     17  C   UNL     1     -11.560  26.925 -15.497  1.00  0.00     0.000 C 
BRANCH  17  18
ATOM     18  C   UNL     1     -12.708  27.613 -16.256  1.00  0.00     0.000 C 
BRANCH  18  19
ATOM     19  C   UNL     1     -13.256  28.849 -15.521  1.00  0.00     0.000 C 
BRANCH  19  20
ATOM     20  C   UNL     1     -13.720  29.953 -16.485  1.00  0.00     0.000 C 
BRANCH  20  21
ATOM     21  C   UNL     1     -13.408  29.622 -17.952  1.00  0.00     0.000 C 
BRANCH  21  22
ATOM     22  C   UNL     1     -13.196  30.904 -18.770  1.00  0.00    -0.000 C 
BRANCH  22  23
ATOM     23  C   UNL     1     -14.270  31.973 -18.495  1.00  0.00    -0.000 C 
BRANCH  23  24
ATOM     24  C   UNL     1     -15.297  32.174 -19.629  1.00  0.00    -0.000 C 
BRANCH  24  25
ATOM     25  C   UNL     1     -15.629  33.643 -19.960  1.00  0.00    -0.000 C 
BRANCH  25  26
ATOM     26  C   UNL     1     -16.287  34.436 -18.817  1.00  0.00    -0.000 C 
BRANCH  26  27
ATOM     27  C   UNL     1     -16.583  35.896 -19.201  1.00  0.00    -0.000 C 
BRANCH  27  28
ATOM     28  C   UNL     1     -18.047  36.113 -19.616  1.00  0.00    -0.000 C 
BRANCH  28  29
ATOM     29  C   UNL     1     -19.045  35.530 -18.605  1.00  0.00    -0.003 C 
ATOM     30  C   UNL     1     -20.138  34.733 -19.311  1.00  0.00     0.004 C 
ENDBRANCH  28  29
ENDBRANCH  27  28
ENDBRANCH  26  27
ENDBRANCH  25  26
ENDBRANCH  24  25
ENDBRANCH  23  24
ENDBRANCH  22  23
ENDBRANCH  21  22
ENDBRANCH  20  21
ENDBRANCH  19  20
ENDBRANCH  18  19
ENDBRANCH  17  18
ENDBRANCH   1  17
TORSDOF 26
ENDMDL
MODEL 5
REMARK VINA RESULT:    19.094      6.102      7.064
REMARK INTER + INTRA:          48.336
REMARK INTER:                  48.181
REMARK INTRA:                   0.155
REMARK UNBOUND:                 0.220
REMARK SMILES CCCCCCCCCCCCCCCCCCCCCCCCCCCC(=O)[O-]
REMARK SMILES IDX 15 1 16 2 17 3 18 4 19 5 20 6 21 7 22 8 23 9 24 10 25 11
REMARK SMILES IDX 26 12 27 13 28 14 29 15 30 16 14 17 13 18 12 19 11 20 10 21
REMARK SMILES IDX 9 22 8 23 7 24 6 25 5 26 4 27 3 28 2 29 1 30
REMARK H PARENT
REMARK Flexibility Score: inf
ROOT
ATOM      1  C   UNL     1     -12.092  27.629 -16.618  1.00  0.00     0.000 C 
ENDROOT
BRANCH   1   2
ATOM      2  C   UNL     1     -11.548  26.723 -15.498  1.00  0.00     0.000 C 
BRANCH   2   3
ATOM      3  C   UNL     1     -10.408  25.811 -15.976  1.00  0.00     0.000 C 
BRANCH   3   4
ATOM      4  C   UNL     1      -9.197  25.826 -15.028  1.00  0.00     0.000 C 
BRANCH   4   5
ATOM      5  C   UNL     1      -7.910  26.325 -15.708  1.00  0.00     0.000 C 
BRANCH   5   6
ATOM      6  C   UNL     1      -6.672  25.456 -15.398  1.00  0.00     0.000 C 
BRANCH   6   7
ATOM      7  C   UNL     1      -7.039  24.192 -14.599  1.00  0.00     0.000 C 
BRANCH   7   8
ATOM      8  C   UNL     1      -5.809  23.369 -14.191  1.00  0.00     0.000 C 
BRANCH   8   9
ATOM      9  C   UNL     1      -6.134  21.875 -14.003  1.00  0.00     0.000 C 
BRANCH   9  10
ATOM     10  C   UNL     1      -5.771  21.365 -12.600  1.00  0.00     0.000 C 
BRANCH  10  11
ATOM     11  C   UNL     1      -6.185  19.901 -12.378  1.00  0.00     0.000 C 
BRANCH  11  12
ATOM     12  C   UNL     1      -6.857  19.271 -13.612  1.00  0.00     0.006 C 
BRANCH  12  13
ATOM     13  C   UNL     1      -6.520  17.783 -13.816  1.00  0.00     0.053 C 
BRANCH  13  14
ATOM     14  C   UNL     1      -6.825  16.950 -12.609  1.00  0.00     0.041 C 
ATOM     15  O   UNL     1      -6.008  16.895 -11.652  1.00  0.00    -0.550 OA
ATOM     16  O   UNL     1      -8.024  16.255 -12.529  1.00  0.00    -0.550 OA
ENDBRANCH  13  14
ENDBRANCH  12  13
ENDBRANCH  11  12
ENDBRANCH  10  11
ENDBRANCH   9  10
ENDBRANCH   8   9
ENDBRANCH   7   8
ENDBRANCH   6   7
ENDBRANCH   5   6
ENDBRANCH   4   5
ENDBRANCH   3   4
ENDBRANCH   2   3
ENDBRANCH   1   2
BRANCH   1  17
ATOM     17  C   UNL     1     -12.837  28.861 -16.062  1.00  0.00     0.000 C 
BRANCH  17  18
ATOM     18  C   UNL     1     -14.010  29.328 -16.942  1.00  0.00     0.000 C 
BRANCH  18  19
ATOM     19  C   UNL     1     -13.595  30.384 -17.981  1.00  0.00     0.000 C 
BRANCH  19  20
ATOM     20  C   UNL     1     -14.802  31.072 -18.641  1.00  0.00     0.000 C 
BRANCH  20  21
ATOM     21  C   UNL     1     -15.116  32.437 -18.010  1.00  0.00     0.000 C 
BRANCH  21  22
ATOM     22  C   UNL     1     -14.715  33.581 -18.952  1.00  0.00    -0.000 C 
BRANCH  22  23
ATOM     23  C   UNL     1     -15.408  34.911 -18.604  1.00  0.00    -0.000 C 
BRANCH  23  24
ATOM     24  C   UNL     1     -16.135  35.596 -19.781  1.00  0.00    -0.000 C 
BRANCH  24  25
ATOM     25  C   UNL     1     -17.675  35.578 -19.701  1.00  0.00    -0.000 C 
BRANCH  25  26
ATOM     26  C   UNL     1     -18.366  34.588 -20.656  1.00  0.00    -0.000 C 
BRANCH  26  27
ATOM     27  C   UNL     1     -19.746  35.080 -21.125  1.00  0.00    -0.000 C 
BRANCH  27  28
ATOM     28  C   UNL     1     -20.440  35.973 -20.084  1.00  0.00    -0.000 C 
BRANCH  28  29
ATOM     29  C   UNL     1     -20.594  35.286 -18.718  1.00  0.00    -0.003 C 
ATOM     30  C   UNL     1     -20.528  33.768 -18.859  1.00  0.00     0.004 C 
ENDBRANCH  28  29
ENDBRANCH  27  28
ENDBRANCH  26  27
ENDBRANCH  25  26
ENDBRANCH  24  25
ENDBRANCH  23  24
ENDBRANCH  22  23
ENDBRANCH  21  22
ENDBRANCH  20  21
ENDBRANCH  19  20
ENDBRANCH  18  19
ENDBRANCH  17  18
ENDBRANCH   1  17
TORSDOF 26
ENDMDL
MODEL 6
REMARK VINA RESULT:    19.271      7.648     14.590
REMARK INTER + INTRA:          48.782
REMARK INTER:                  49.218
REMARK INTRA:                  -0.436
REMARK UNBOUND:                 0.220
REMARK SMILES CCCCCCCCCCCCCCCCCCCCCCCCCCCC(=O)[O-]
REMARK SMILES IDX 15 1 16 2 17 3 18 4 19 5 20 6 21 7 22 8 23 9 24 10 25 11
REMARK SMILES IDX 26 12 27 13 28 14 29 15 30 16 14 17 13 18 12 19 11 20 10 21
REMARK SMILES IDX 9 22 8 23 7 24 6 25 5 26 4 27 3 28 2 29 1 30
REMARK H PARENT
REMARK Flexibility Score: inf
ROOT
ATOM      1  C   UNL     1     -10.610  26.230 -16.446  1.00  0.00     0.000 C 
ENDROOT
BRANCH   1   2
ATOM      2  C   UNL     1     -11.328  27.382 -15.720  1.00  0.00     0.000 C 
BRANCH   2   3
ATOM      3  C   UNL     1     -12.397  28.057 -16.595  1.00  0.00     0.000 C 
BRANCH   3   4
ATOM      4  C   UNL     1     -13.440  28.829 -15.769  1.00  0.00     0.000 C 
BRANCH   4   5
ATOM      5  C   UNL     1     -14.358  29.708 -16.637  1.00  0.00     0.000 C 
BRANCH   5   6
ATOM      6  C   UNL     1     -13.667  30.260 -17.902  1.00  0.00     0.000 C 
BRANCH   6   7
ATOM      7  C   UNL     1     -14.060  31.721 -18.183  1.00  0.00     0.000 C 
BRANCH   7   8
ATOM      8  C   UNL     1     -15.229  31.843 -19.173  1.00  0.00     0.000 C 
BRANCH   8   9
ATOM      9  C   UNL     1     -15.287  33.224 -19.851  1.00  0.00     0.000 C 
BRANCH   9  10
ATOM     10  C   UNL     1     -15.553  34.361 -18.852  1.00  0.00     0.000 C 
BRANCH  10  11
ATOM     11  C   UNL     1     -17.035  34.763 -18.796  1.00  0.00     0.000 C 
BRANCH  11  12
ATOM     12  C   UNL     1     -17.551  35.349 -20.123  1.00  0.00     0.006 C 
BRANCH  12  13
ATOM     13  C   UNL     1     -19.043  35.725 -20.102  1.00  0.00     0.053 C 
BRANCH  13  14
ATOM     14  C   UNL     1     -19.834  34.902 -19.132  1.00  0.00     0.041 C 
ATOM     15  O   UNL     1     -20.192  33.733 -19.434  1.00  0.00    -0.550 OA
ATOM     16  O   UNL     1     -20.152  35.415 -17.882  1.00  0.00    -0.550 OA
ENDBRANCH  13  14
ENDBRANCH  12  13
ENDBRANCH  11  12
ENDBRANCH  10  11
ENDBRANCH   9  10
ENDBRANCH   8   9
ENDBRANCH   7   8
ENDBRANCH   6   7
ENDBRANCH   5   6
ENDBRANCH   4   5
ENDBRANCH   3   4
ENDBRANCH   2   3
ENDBRANCH   1   2
BRANCH   1  17
ATOM     17  C   UNL     1      -9.088  26.237 -16.189  1.00  0.00     0.000 C 
BRANCH  17  18
ATOM     18  C   UNL     1      -8.618  25.154 -15.202  1.00  0.00     0.000 C 
BRANCH  18  19
ATOM     19  C   UNL     1      -7.092  24.966 -15.201  1.00  0.00     0.000 C 
BRANCH  19  20
ATOM     20  C   UNL     1      -6.544  24.573 -13.820  1.00  0.00     0.000 C 
BRANCH  20  21
ATOM     21  C   UNL     1      -5.228  23.784 -13.912  1.00  0.00     0.000 C 
BRANCH  21  22
ATOM     22  C   UNL     1      -4.815  23.244 -12.536  1.00  0.00    -0.000 C 
BRANCH  22  23
ATOM     23  C   UNL     1      -4.830  21.705 -12.470  1.00  0.00    -0.000 C 
BRANCH  23  24
ATOM     24  C   UNL     1      -6.177  21.049 -12.839  1.00  0.00    -0.000 C 
BRANCH  24  25
ATOM     25  C   UNL     1      -6.484  20.987 -14.349  1.00  0.00    -0.000 C 
BRANCH  25  26
ATOM     26  C   UNL     1      -5.260  21.132 -15.270  1.00  0.00    -0.000 C 
BRANCH  26  27
ATOM     27  C   UNL     1      -5.626  21.055 -16.762  1.00  0.00    -0.000 C 
BRANCH  27  28
ATOM     28  C   UNL     1      -4.630  20.210 -17.572  1.00  0.00    -0.000 C 
BRANCH  28  29
ATOM     29  C   UNL     1      -4.839  18.700 -17.385  1.00  0.00    -0.003 C 
ATOM     30  C   UNL     1      -5.929  18.179 -18.318  1.00  0.00     0.004 C 
ENDBRANCH  28  29
ENDBRANCH  27  28
ENDBRANCH  26  27
ENDBRANCH  25  26
ENDBRANCH  24  25
ENDBRANCH  23  24
ENDBRANCH  22  23
ENDBRANCH  21  22
ENDBRANCH  20  21
ENDBRANCH  19  20
ENDBRANCH  18  19
ENDBRANCH  17  18
ENDBRANCH   1  17
TORSDOF 26
ENDMDL
