MODEL 1
REMARK VINA RESULT:    -4.962      0.000      0.000
REMARK INTER + INTRA:          -5.700
REMARK INTER:                  -5.542
REMARK INTRA:                  -0.158
REMARK UNBOUND:                -0.158
REMARK SMILES C=CCc1ccc2c(c1)OCO2
REMARK SMILES IDX 3 1 2 2 1 3 4 4 9 5 5 6 8 7 6 8 7 9 10 10 12 11 11 12
REMARK H PARENT
REMARK Flexibility Score: inf
ROOT
ATOM      1  C   UNL     1     -23.251 -18.855   3.997  1.00  0.00     0.062 C 
ENDROOT
BRANCH   1   2
ATOM      2  C   UNL     1     -24.631 -18.295   3.795  1.00  0.00    -0.030 C 
ATOM      3  C   UNL     1     -25.048 -17.865   2.600  1.00  0.00     0.004 C 
ENDBRANCH   1   2
BRANCH   1   4
ATOM      4  C   UNL     1     -23.268 -19.954   5.026  1.00  0.00    -0.040 A 
ATOM      5  C   UNL     1     -24.083 -19.834   6.174  1.00  0.00     0.054 A 
ATOM      6  C   UNL     1     -22.500 -21.131   4.829  1.00  0.00     0.008 A 
ATOM      7  C   UNL     1     -24.087 -20.887   7.084  1.00  0.00     0.166 A 
ATOM      8  C   UNL     1     -22.534 -22.172   5.775  1.00  0.00     0.051 A 
ATOM      9  C   UNL     1     -23.346 -22.007   6.894  1.00  0.00     0.165 A 
ATOM     10  O   UNL     1     -24.793 -20.998   8.267  1.00  0.00    -0.454 OA
ATOM     11  O   UNL     1     -23.547 -22.877   7.947  1.00  0.00    -0.454 OA
ATOM     12  C   UNL     1     -24.472 -22.266   8.857  1.00  0.00     0.468 C 
ENDBRANCH   1   4
TORSDOF 2
ENDMDL
MODEL 2
REMARK VINA RESULT:    -4.808      2.151      4.839
REMARK INTER + INTRA:          -5.528
REMARK INTER:                  -5.368
REMARK INTRA:                  -0.160
REMARK UNBOUND:                -0.158
REMARK SMILES C=CCc1ccc2c(c1)OCO2
REMARK SMILES IDX 3 1 2 2 1 3 4 4 9 5 5 6 8 7 6 8 7 9 10 10 12 11 11 12
REMARK H PARENT
REMARK Flexibility Score: inf
ROOT
ATOM      1  C   UNL     1     -24.364 -21.696   8.699  1.00  0.00     0.062 C 
ENDROOT
BRANCH   1   2
ATOM      2  C   UNL     1     -24.674 -23.159   8.542  1.00  0.00    -0.030 C 
ATOM      3  C   UNL     1     -24.490 -24.028   9.540  1.00  0.00     0.004 C 
ENDBRANCH   1   2
BRANCH   1   4
ATOM      4  C   UNL     1     -23.951 -21.095   7.382  1.00  0.00    -0.040 A 
ATOM      5  C   UNL     1     -24.734 -20.076   6.795  1.00  0.00     0.054 A 
ATOM      6  C   UNL     1     -22.755 -21.517   6.746  1.00  0.00     0.008 A 
ATOM      7  C   UNL     1     -24.298 -19.530   5.591  1.00  0.00     0.166 A 
ATOM      8  C   UNL     1     -22.350 -20.938   5.529  1.00  0.00     0.051 A 
ATOM      9  C   UNL     1     -23.157 -19.943   4.984  1.00  0.00     0.165 A 
ATOM     10  O   UNL     1     -24.888 -18.536   4.833  1.00  0.00    -0.454 OA
ATOM     11  O   UNL     1     -22.973 -19.231   3.815  1.00  0.00    -0.454 OA
ATOM     12  C   UNL     1     -24.067 -18.313   3.678  1.00  0.00     0.468 C 
ENDBRANCH   1   4
TORSDOF 2
ENDMDL
MODEL 3
REMARK VINA RESULT:    -4.774     19.291     20.674
REMARK INTER + INTRA:          -5.490
REMARK INTER:                  -5.257
REMARK INTRA:                  -0.233
REMARK UNBOUND:                -0.158
REMARK SMILES C=CCc1ccc2c(c1)OCO2
REMARK SMILES IDX 3 1 2 2 1 3 4 4 9 5 5 6 8 7 6 8 7 9 10 10 12 11 11 12
REMARK H PARENT
REMARK Flexibility Score: inf
ROOT
ATOM      1  C   UNL     1     -10.123 -26.090  17.133  1.00  0.00     0.062 C 
ENDROOT
BRANCH   1   2
ATOM      2  C   UNL     1     -10.480 -26.354  18.569  1.00  0.00    -0.030 C 
ATOM      3  C   UNL     1      -9.688 -25.966  19.573  1.00  0.00     0.004 C 
ENDBRANCH   1   2
BRANCH   1   4
ATOM      4  C   UNL     1      -9.106 -27.086  16.645  1.00  0.00    -0.040 A 
ATOM      5  C   UNL     1      -7.785 -26.668  16.367  1.00  0.00     0.054 A 
ATOM      6  C   UNL     1      -9.455 -28.455  16.502  1.00  0.00     0.008 A 
ATOM      7  C   UNL     1      -6.871 -27.630  15.945  1.00  0.00     0.166 A 
ATOM      8  C   UNL     1      -8.499 -29.394  16.073  1.00  0.00     0.051 A 
ATOM      9  C   UNL     1      -7.213 -28.935  15.803  1.00  0.00     0.165 A 
ATOM     10  O   UNL     1      -5.540 -27.465  15.615  1.00  0.00    -0.454 OA
ATOM     11  O   UNL     1      -6.114 -29.655  15.377  1.00  0.00    -0.454 OA
ATOM     12  C   UNL     1      -5.013 -28.746  15.241  1.00  0.00     0.468 C 
ENDBRANCH   1   4
TORSDOF 2
ENDMDL
MODEL 4
REMARK VINA RESULT:    -4.720      1.162      2.402
REMARK INTER + INTRA:          -5.430
REMARK INTER:                  -5.252
REMARK INTRA:                  -0.177
REMARK UNBOUND:                -0.158
REMARK SMILES C=CCc1ccc2c(c1)OCO2
REMARK SMILES IDX 3 1 2 2 1 3 4 4 9 5 5 6 8 7 6 8 7 9 10 10 12 11 11 12
REMARK H PARENT
REMARK Flexibility Score: inf
ROOT
ATOM      1  C   UNL     1     -23.216 -20.433   4.882  1.00  0.00     0.062 C 
ENDROOT
BRANCH   1   2
ATOM      2  C   UNL     1     -23.525 -18.978   4.659  1.00  0.00    -0.030 C 
ATOM      3  C   UNL     1     -23.621 -18.459   3.432  1.00  0.00     0.004 C 
ENDBRANCH   1   2
BRANCH   1   4
ATOM      4  C   UNL     1     -23.735 -20.889   6.219  1.00  0.00    -0.040 A 
ATOM      5  C   UNL     1     -23.526 -22.222   6.640  1.00  0.00     0.054 A 
ATOM      6  C   UNL     1     -24.398 -19.976   7.079  1.00  0.00     0.008 A 
ATOM      7  C   UNL     1     -24.000 -22.591   7.896  1.00  0.00     0.166 A 
ATOM      8  C   UNL     1     -24.860 -20.391   8.342  1.00  0.00     0.051 A 
ATOM      9  C   UNL     1     -24.639 -21.715   8.711  1.00  0.00     0.165 A 
ATOM     10  O   UNL     1     -23.918 -23.822   8.518  1.00  0.00    -0.454 OA
ATOM     11  O   UNL     1     -24.992 -22.351   9.885  1.00  0.00    -0.454 OA
ATOM     12  C   UNL     1     -24.547 -23.712   9.803  1.00  0.00     0.468 C 
ENDBRANCH   1   4
TORSDOF 2
ENDMDL
MODEL 5
REMARK VINA RESULT:    -4.670      2.086      4.765
REMARK INTER + INTRA:          -5.374
REMARK INTER:                  -5.215
REMARK INTRA:                  -0.158
REMARK UNBOUND:                -0.158
REMARK SMILES C=CCc1ccc2c(c1)OCO2
REMARK SMILES IDX 3 1 2 2 1 3 4 4 9 5 5 6 8 7 6 8 7 9 10 10 12 11 11 12
REMARK H PARENT
REMARK Flexibility Score: inf
ROOT
ATOM      1  C   UNL     1     -24.919 -21.866   9.756  1.00  0.00     0.062 C 
ENDROOT
BRANCH   1   2
ATOM      2  C   UNL     1     -25.084 -20.497  10.355  1.00  0.00    -0.030 C 
ATOM      3  C   UNL     1     -25.125 -20.308  11.677  1.00  0.00     0.004 C 
ENDBRANCH   1   2
BRANCH   1   4
ATOM      4  C   UNL     1     -24.473 -21.769   8.321  1.00  0.00    -0.040 A 
ATOM      5  C   UNL     1     -24.377 -20.506   7.696  1.00  0.00     0.054 A 
ATOM      6  C   UNL     1     -24.108 -22.938   7.604  1.00  0.00     0.008 A 
ATOM      7  C   UNL     1     -23.933 -20.463   6.376  1.00  0.00     0.166 A 
ATOM      8  C   UNL     1     -23.664 -22.850   6.272  1.00  0.00     0.051 A 
ATOM      9  C   UNL     1     -23.592 -21.585   5.695  1.00  0.00     0.165 A 
ATOM     10  O   UNL     1     -23.761 -19.360   5.563  1.00  0.00    -0.454 OA
ATOM     11  O   UNL     1     -23.189 -21.244   4.418  1.00  0.00    -0.454 OA
ATOM     12  C   UNL     1     -23.284 -19.818   4.290  1.00  0.00     0.468 C 
ENDBRANCH   1   4
TORSDOF 2
ENDMDL
MODEL 6
REMARK VINA RESULT:    -4.598     19.223     20.825
REMARK INTER + INTRA:          -5.294
REMARK INTER:                  -5.061
REMARK INTRA:                  -0.233
REMARK UNBOUND:                -0.158
REMARK SMILES C=CCc1ccc2c(c1)OCO2
REMARK SMILES IDX 3 1 2 2 1 3 4 4 9 5 5 6 8 7 6 8 7 9 10 10 12 11 11 12
REMARK H PARENT
REMARK Flexibility Score: inf
ROOT
ATOM      1  C   UNL     1     -10.013 -26.602  16.753  1.00  0.00     0.062 C 
ENDROOT
BRANCH   1   2
ATOM      2  C   UNL     1      -9.741 -25.622  17.860  1.00  0.00    -0.030 C 
ATOM      3  C   UNL     1      -9.728 -25.996  19.143  1.00  0.00     0.004 C 
ENDBRANCH   1   2
BRANCH   1   4
ATOM      4  C   UNL     1      -8.780 -27.405  16.438  1.00  0.00    -0.040 A 
ATOM      5  C   UNL     1      -8.864 -28.810  16.313  1.00  0.00     0.054 A 
ATOM      6  C   UNL     1      -7.537 -26.754  16.224  1.00  0.00     0.008 A 
ATOM      7  C   UNL     1      -7.702 -29.507  15.993  1.00  0.00     0.166 A 
ATOM      8  C   UNL     1      -6.387 -27.498  15.901  1.00  0.00     0.051 A 
ATOM      9  C   UNL     1      -6.516 -28.880  15.797  1.00  0.00     0.165 A 
ATOM     10  O   UNL     1      -7.537 -30.869  15.822  1.00  0.00    -0.454 OA
ATOM     11  O   UNL     1      -5.545 -29.814  15.493  1.00  0.00    -0.454 OA
ATOM     12  C   UNL     1      -6.160 -31.110  15.499  1.00  0.00     0.468 C 
ENDBRANCH   1   4
TORSDOF 2
ENDMDL
MODEL 7
REMARK VINA RESULT:    -4.565     10.771     12.214
REMARK INTER + INTRA:          -5.257
REMARK INTER:                  -5.077
REMARK INTRA:                  -0.180
REMARK UNBOUND:                -0.158
REMARK SMILES C=CCc1ccc2c(c1)OCO2
REMARK SMILES IDX 3 1 2 2 1 3 4 4 9 5 5 6 8 7 6 8 7 9 10 10 12 11 11 12
REMARK H PARENT
REMARK Flexibility Score: inf
ROOT
ATOM      1  C   UNL     1     -11.108 -20.305  -0.123  1.00  0.00     0.062 C 
ENDROOT
BRANCH   1   2
ATOM      2  C   UNL     1     -10.277 -21.043   0.890  1.00  0.00    -0.030 C 
ATOM      3  C   UNL     1      -9.861 -22.295   0.681  1.00  0.00     0.004 C 
ENDBRANCH   1   2
BRANCH   1   4
ATOM      4  C   UNL     1     -12.317 -19.689   0.527  1.00  0.00    -0.040 A 
ATOM      5  C   UNL     1     -13.613 -20.057   0.101  1.00  0.00     0.054 A 
ATOM      6  C   UNL     1     -12.164 -18.768   1.597  1.00  0.00     0.008 A 
ATOM      7  C   UNL     1     -14.702 -19.481   0.751  1.00  0.00     0.166 A 
ATOM      8  C   UNL     1     -13.292 -18.211   2.226  1.00  0.00     0.051 A 
ATOM      9  C   UNL     1     -14.549 -18.597   1.768  1.00  0.00     0.165 A 
ATOM     10  O   UNL     1     -16.048 -19.681   0.513  1.00  0.00    -0.454 OA
ATOM     11  O   UNL     1     -15.790 -18.195   2.220  1.00  0.00    -0.454 OA
ATOM     12  C   UNL     1     -16.786 -18.869   1.438  1.00  0.00     0.468 C 
ENDBRANCH   1   4
TORSDOF 2
ENDMDL
MODEL 8
REMARK VINA RESULT:    -4.474      2.015      5.482
REMARK INTER + INTRA:          -5.155
REMARK INTER:                  -4.970
REMARK INTRA:                  -0.185
REMARK UNBOUND:                -0.158
REMARK SMILES C=CCc1ccc2c(c1)OCO2
REMARK SMILES IDX 3 1 2 2 1 3 4 4 9 5 5 6 8 7 6 8 7 9 10 10 12 11 11 12
REMARK H PARENT
REMARK Flexibility Score: inf
ROOT
ATOM      1  C   UNL     1     -24.456 -24.095   8.706  1.00  0.00     0.062 C 
ENDROOT
BRANCH   1   2
ATOM      2  C   UNL     1     -24.683 -23.800  10.163  1.00  0.00    -0.030 C 
ATOM      3  C   UNL     1     -24.052 -24.480  11.125  1.00  0.00     0.004 C 
ENDBRANCH   1   2
BRANCH   1   4
ATOM      4  C   UNL     1     -24.258 -22.820   7.930  1.00  0.00    -0.040 A 
ATOM      5  C   UNL     1     -23.786 -22.870   6.599  1.00  0.00     0.054 A 
ATOM      6  C   UNL     1     -24.584 -21.568   8.513  1.00  0.00     0.008 A 
ATOM      7  C   UNL     1     -23.645 -21.668   5.911  1.00  0.00     0.166 A 
ATOM      8  C   UNL     1     -24.427 -20.377   7.782  1.00  0.00     0.051 A 
ATOM      9  C   UNL     1     -23.951 -20.474   6.477  1.00  0.00     0.165 A 
ATOM     10  O   UNL     1     -23.204 -21.464   4.618  1.00  0.00    -0.454 OA
ATOM     11  O   UNL     1     -23.718 -19.460   5.569  1.00  0.00    -0.454 OA
ATOM     12  C   UNL     1     -23.234 -20.054   4.356  1.00  0.00     0.468 C 
ENDBRANCH   1   4
TORSDOF 2
ENDMDL
MODEL 9
REMARK VINA RESULT:    -4.457      1.475      2.266
REMARK INTER + INTRA:          -5.136
REMARK INTER:                  -4.975
REMARK INTRA:                  -0.161
REMARK UNBOUND:                -0.158
REMARK SMILES C=CCc1ccc2c(c1)OCO2
REMARK SMILES IDX 3 1 2 2 1 3 4 4 9 5 5 6 8 7 6 8 7 9 10 10 12 11 11 12
REMARK H PARENT
REMARK Flexibility Score: inf
ROOT
ATOM      1  C   UNL     1     -24.029 -20.627   4.910  1.00  0.00     0.062 C 
ENDROOT
BRANCH   1   2
ATOM      2  C   UNL     1     -23.628 -19.189   4.736  1.00  0.00    -0.030 C 
ATOM      3  C   UNL     1     -24.302 -18.363   3.930  1.00  0.00     0.004 C 
ENDBRANCH   1   2
BRANCH   1   4
ATOM      4  C   UNL     1     -24.181 -20.965   6.369  1.00  0.00    -0.040 A 
ATOM      5  C   UNL     1     -24.577 -19.967   7.288  1.00  0.00     0.054 A 
ATOM      6  C   UNL     1     -23.968 -22.293   6.823  1.00  0.00     0.008 A 
ATOM      7  C   UNL     1     -24.731 -20.332   8.622  1.00  0.00     0.166 A 
ATOM      8  C   UNL     1     -24.135 -22.619   8.182  1.00  0.00     0.051 A 
ATOM      9  C   UNL     1     -24.519 -21.601   9.051  1.00  0.00     0.165 A 
ATOM     10  O   UNL     1     -25.103 -19.541   9.692  1.00  0.00    -0.454 OA
ATOM     11  O   UNL     1     -24.746 -21.672  10.411  1.00  0.00    -0.454 OA
ATOM     12  C   UNL     1     -25.125 -20.366  10.866  1.00  0.00     0.468 C 
ENDBRANCH   1   4
TORSDOF 2
ENDMDL
