MODEL 1
REMARK VINA RESULT:    -2.647      0.000      0.000
REMARK INTER + INTRA:          -3.001
REMARK INTER:                  -2.957
REMARK INTRA:                  -0.045
REMARK UNBOUND:                -0.045
REMARK SMILES CCCC(=O)[O-]
REMARK SMILES IDX 3 1 4 2 5 3 6 4 2 5 1 6
REMARK H PARENT
REMARK Flexibility Score: inf
ROOT
ATOM      1  C   UNL     1      18.855 129.852  64.817  1.00  0.00     0.052 C 
ENDROOT
BRANCH   1   2
ATOM      2  C   UNL     1      18.967 128.576  64.042  1.00  0.00     0.041 C 
ATOM      3  O   UNL     1      17.938 127.896  63.790  1.00  0.00    -0.550 OA
ATOM      4  O   UNL     1      20.213 128.113  63.641  1.00  0.00    -0.550 OA
ENDBRANCH   1   2
BRANCH   1   5
ATOM      5  C   UNL     1      18.484 131.012  63.889  1.00  0.00     0.003 C 
ATOM      6  C   UNL     1      19.731 131.696  63.337  1.00  0.00     0.004 C 
ENDBRANCH   1   5
TORSDOF 2
ENDMDL
MODEL 2
REMARK VINA RESULT:    -2.625      1.151      2.005
REMARK INTER + INTRA:          -2.977
REMARK INTER:                  -2.965
REMARK INTRA:                  -0.012
REMARK UNBOUND:                -0.045
REMARK SMILES CCCC(=O)[O-]
REMARK SMILES IDX 3 1 4 2 5 3 6 4 2 5 1 6
REMARK H PARENT
REMARK Flexibility Score: inf
ROOT
ATOM      1  C   UNL     1      18.918 130.125  64.268  1.00  0.00     0.052 C 
ENDROOT
BRANCH   1   2
ATOM      2  C   UNL     1      18.914 128.631  64.187  1.00  0.00     0.041 C 
ATOM      3  O   UNL     1      19.970 127.981  64.410  1.00  0.00    -0.550 OA
ATOM      4  O   UNL     1      17.758 127.957  63.816  1.00  0.00    -0.550 OA
ENDBRANCH   1   2
BRANCH   1   5
ATOM      5  C   UNL     1      17.903 130.607  65.308  1.00  0.00     0.003 C 
ATOM      6  C   UNL     1      18.574 131.473  66.372  1.00  0.00     0.004 C 
ENDBRANCH   1   5
TORSDOF 2
ENDMDL
MODEL 3
REMARK VINA RESULT:    -2.609      0.370      1.365
REMARK INTER + INTRA:          -2.959
REMARK INTER:                  -2.916
REMARK INTRA:                  -0.043
REMARK UNBOUND:                -0.045
REMARK SMILES CCCC(=O)[O-]
REMARK SMILES IDX 3 1 4 2 5 3 6 4 2 5 1 6
REMARK H PARENT
REMARK Flexibility Score: inf
ROOT
ATOM      1  C   UNL     1      18.712 130.194  64.872  1.00  0.00     0.052 C 
ENDROOT
BRANCH   1   2
ATOM      2  C   UNL     1      18.801 128.840  64.242  1.00  0.00     0.041 C 
ATOM      3  O   UNL     1      19.924 128.309  64.038  1.00  0.00    -0.550 OA
ATOM      4  O   UNL     1      17.646 128.185  63.834  1.00  0.00    -0.550 OA
ENDBRANCH   1   2
BRANCH   1   5
ATOM      5  C   UNL     1      18.487 131.268  63.805  1.00  0.00     0.003 C 
ATOM      6  C   UNL     1      19.813 131.772  63.242  1.00  0.00     0.004 C 
ENDBRANCH   1   5
TORSDOF 2
ENDMDL
MODEL 4
REMARK VINA RESULT:    -2.603      2.589      3.484
REMARK INTER + INTRA:          -2.952
REMARK INTER:                  -2.926
REMARK INTRA:                  -0.027
REMARK UNBOUND:                -0.045
REMARK SMILES CCCC(=O)[O-]
REMARK SMILES IDX 3 1 4 2 5 3 6 4 2 5 1 6
REMARK H PARENT
REMARK Flexibility Score: inf
ROOT
ATOM      1  C   UNL     1      18.603 130.470  64.905  1.00  0.00     0.052 C 
ENDROOT
BRANCH   1   2
ATOM      2  C   UNL     1      19.166 131.634  64.153  1.00  0.00     0.041 C 
ATOM      3  O   UNL     1      19.992 131.446  63.221  1.00  0.00    -0.550 OA
ATOM      4  O   UNL     1      18.818 132.929  64.513  1.00  0.00    -0.550 OA
ENDBRANCH   1   2
BRANCH   1   5
ATOM      5  C   UNL     1      19.111 129.153  64.313  1.00  0.00     0.003 C 
ATOM      6  C   UNL     1      17.958 128.193  64.033  1.00  0.00     0.004 C 
ENDBRANCH   1   5
TORSDOF 2
ENDMDL
MODEL 5
REMARK VINA RESULT:    -2.591      2.318      3.007
REMARK INTER + INTRA:          -2.939
REMARK INTER:                  -2.887
REMARK INTRA:                  -0.052
REMARK UNBOUND:                -0.045
REMARK SMILES CCCC(=O)[O-]
REMARK SMILES IDX 3 1 4 2 5 3 6 4 2 5 1 6
REMARK H PARENT
REMARK Flexibility Score: inf
ROOT
ATOM      1  C   UNL     1      18.249 129.398  64.147  1.00  0.00     0.052 C 
ENDROOT
BRANCH   1   2
ATOM      2  C   UNL     1      18.875 130.633  64.716  1.00  0.00     0.041 C 
ATOM      3  O   UNL     1      18.784 130.879  65.948  1.00  0.00    -0.550 OA
ATOM      4  O   UNL     1      19.516 131.537  63.879  1.00  0.00    -0.550 OA
ENDBRANCH   1   2
BRANCH   1   5
ATOM      5  C   UNL     1      19.121 128.173  64.437  1.00  0.00     0.003 C 
ATOM      6  C   UNL     1      20.312 128.107  63.486  1.00  0.00     0.004 C 
ENDBRANCH   1   5
TORSDOF 2
ENDMDL
MODEL 6
REMARK VINA RESULT:    -2.591      2.874      3.497
REMARK INTER + INTRA:          -2.939
REMARK INTER:                  -2.933
REMARK INTRA:                  -0.006
REMARK UNBOUND:                -0.045
REMARK SMILES CCCC(=O)[O-]
REMARK SMILES IDX 3 1 4 2 5 3 6 4 2 5 1 6
REMARK H PARENT
REMARK Flexibility Score: inf
ROOT
ATOM      1  C   UNL     1      19.182 131.229  64.042  1.00  0.00     0.052 C 
ENDROOT
BRANCH   1   2
ATOM      2  C   UNL     1      19.917 131.941  62.951  1.00  0.00     0.041 C 
ATOM      3  O   UNL     1      19.361 132.879  62.321  1.00  0.00    -0.550 OA
ATOM      4  O   UNL     1      21.196 131.535  62.594  1.00  0.00    -0.550 OA
ENDBRANCH   1   2
BRANCH   1   5
ATOM      5  C   UNL     1      18.870 132.189  65.193  1.00  0.00     0.003 C 
ATOM      6  C   UNL     1      18.538 131.426  66.473  1.00  0.00     0.004 C 
ENDBRANCH   1   5
TORSDOF 2
ENDMDL
MODEL 7
REMARK VINA RESULT:    -2.527      2.387      3.093
REMARK INTER + INTRA:          -2.867
REMARK INTER:                  -2.861
REMARK INTRA:                  -0.007
REMARK UNBOUND:                -0.045
REMARK SMILES CCCC(=O)[O-]
REMARK SMILES IDX 3 1 4 2 5 3 6 4 2 5 1 6
REMARK H PARENT
REMARK Flexibility Score: inf
ROOT
ATOM      1  C   UNL     1      18.534 129.628  64.405  1.00  0.00     0.052 C 
ENDROOT
BRANCH   1   2
ATOM      2  C   UNL     1      17.066 129.800  64.639  1.00  0.00     0.041 C 
ATOM      3  O   UNL     1      16.460 130.793  64.157  1.00  0.00    -0.550 OA
ATOM      4  O   UNL     1      16.377 128.891  65.431  1.00  0.00    -0.550 OA
ENDBRANCH   1   2
BRANCH   1   5
ATOM      5  C   UNL     1      18.866 128.157  64.140  1.00  0.00     0.003 C 
ATOM      6  C   UNL     1      20.284 128.002  63.596  1.00  0.00     0.004 C 
ENDBRANCH   1   5
TORSDOF 2
ENDMDL
MODEL 8
REMARK VINA RESULT:    -2.367      1.695      2.502
REMARK INTER + INTRA:          -2.688
REMARK INTER:                  -2.622
REMARK INTRA:                  -0.066
REMARK UNBOUND:                -0.045
REMARK SMILES CCCC(=O)[O-]
REMARK SMILES IDX 3 1 4 2 5 3 6 4 2 5 1 6
REMARK H PARENT
REMARK Flexibility Score: inf
ROOT
ATOM      1  C   UNL     1      18.914 131.190  64.546  1.00  0.00     0.052 C 
ENDROOT
BRANCH   1   2
ATOM      2  C   UNL     1      18.518 129.751  64.441  1.00  0.00     0.041 C 
ATOM      3  O   UNL     1      19.400 128.853  64.397  1.00  0.00    -0.550 OA
ATOM      4  O   UNL     1      17.177 129.404  64.340  1.00  0.00    -0.550 OA
ENDBRANCH   1   2
BRANCH   1   5
ATOM      5  C   UNL     1      18.059 131.905  65.596  1.00  0.00     0.003 C 
ATOM      6  C   UNL     1      18.413 131.437  67.005  1.00  0.00     0.004 C 
ENDBRANCH   1   5
TORSDOF 2
ENDMDL
MODEL 9
REMARK VINA RESULT:    -2.258     10.102     10.567
REMARK INTER + INTRA:          -2.567
REMARK INTER:                  -2.543
REMARK INTRA:                  -0.024
REMARK UNBOUND:                -0.045
REMARK SMILES CCCC(=O)[O-]
REMARK SMILES IDX 3 1 4 2 5 3 6 4 2 5 1 6
REMARK H PARENT
REMARK Flexibility Score: inf
ROOT
ATOM      1  C   UNL     1      16.238 131.244  54.247  1.00  0.00     0.052 C 
ENDROOT
BRANCH   1   2
ATOM      2  C   UNL     1      16.987 132.183  53.355  1.00  0.00     0.041 C 
ATOM      3  O   UNL     1      17.681 133.109  53.851  1.00  0.00    -0.550 OA
ATOM      4  O   UNL     1      16.879 132.067  51.975  1.00  0.00    -0.550 OA
ENDBRANCH   1   2
BRANCH   1   5
ATOM      5  C   UNL     1      17.054 130.933  55.504  1.00  0.00     0.003 C 
ATOM      6  C   UNL     1      16.156 130.839  56.735  1.00  0.00     0.004 C 
ENDBRANCH   1   5
TORSDOF 2
ENDMDL
