MODEL 1
REMARK VINA RESULT:    30.252      0.000      0.000
REMARK INTER + INTRA:          42.782
REMARK INTER:                  40.863
REMARK INTRA:                   1.919
REMARK UNBOUND:                 1.919
REMARK SMILES C=C1C(=O)O[C@H]2[C@H]1CCC(C)=CCC[C@@]1(C)O[C@@H]21
REMARK SMILES IDX 6 1 7 2 2 3 1 4 3 5 4 6 5 7 8 8 9 9 10 10 11 11 12 12 18 14
REMARK SMILES IDX 15 15 17 16 16 17 14 18 13 19
REMARK H PARENT
REMARK Flexibility Score: 70.00
ROOT
ATOM      1  C   UNL     1      13.438   3.216  27.984  1.00  0.00     0.216 C 
ATOM      2  C   UNL     1      13.567   1.945  28.907  1.00  0.00     0.070 C 
ATOM      3  C   UNL     1      14.747   1.222  28.322  1.00  0.00     0.037 C 
ATOM      4  C   UNL     1      15.258   0.068  28.754  1.00  0.00     0.021 C 
ATOM      5  C   UNL     1      15.365   2.099  27.360  1.00  0.00     0.334 C 
ATOM      6  O   UNL     1      16.432   1.864  26.732  1.00  0.00    -0.247 OA
ATOM      7  O   UNL     1      14.652   3.270  27.238  1.00  0.00    -0.455 OA
ENDROOT
BRANCH   2   8
ATOM      8  C   UNL     1      12.274   1.078  28.938  1.00  0.00     0.017 C 
BRANCH   8   9
ATOM      9  C   UNL     1      11.131   1.751  29.732  1.00  0.00     0.031 C 
BRANCH   9  10
ATOM     10  C   UNL     1       9.861   1.892  28.911  1.00  0.00    -0.077 C 
ATOM     11  C   UNL     1       8.640   1.126  29.347  1.00  0.00     0.039 C 
ATOM     12  C   UNL     1       9.778   2.659  27.797  1.00  0.00    -0.028 CG0
ATOM     13  G   UNL     1      10.926   3.442  27.198  1.00  0.00     0.000 G0
ENDBRANCH   9  10
ENDBRANCH   8   9
ENDBRANCH   2   8
BRANCH   1  14
ATOM     14  C   UNL     1      13.237   4.557  28.728  1.00  0.00     0.192 C 
ATOM     15  C   UNL     1      11.998   5.381  28.510  1.00  0.00     0.096 C 
ATOM     16  O   UNL     1      12.144   4.527  29.620  1.00  0.00    -0.362 OA
ATOM     17  C   UNL     1      12.043   6.848  28.939  1.00  0.00     0.045 C 
BRANCH  15  18
ATOM     18  C   UNL     1      10.838   4.941  27.585  1.00  0.00     0.042 C 
BRANCH  18  19
ATOM     19  C   UNL     1      10.917   3.456  27.174  1.00  0.00     0.030 CG0
ATOM     20  G   UNL     1       9.793   2.651  27.788  1.00  0.00     0.000 G0
ENDBRANCH  18  19
ENDBRANCH  15  18
ENDBRANCH   1  14
TORSDOF 0
ENDMDL
MODEL 2
REMARK VINA RESULT:    31.146      1.462      4.226
REMARK INTER + INTRA:          43.990
REMARK INTER:                  42.772
REMARK INTRA:                   1.219
REMARK UNBOUND:                 1.919
REMARK SMILES C=C1C(=O)O[C@H]2[C@H]1CCC(C)=CCC[C@@]1(C)O[C@@H]21
REMARK SMILES IDX 6 1 7 2 2 3 1 4 3 5 4 6 5 7 8 8 9 9 10 10 11 11 12 12 18 14
REMARK SMILES IDX 15 15 17 16 16 17 14 18 13 19
REMARK H PARENT
REMARK Flexibility Score: 70.00
ROOT
ATOM      1  C   UNL     1      13.048   4.016  28.610  1.00  0.00     0.216 C 
ATOM      2  C   UNL     1      12.002   4.538  27.553  1.00  0.00     0.070 C 
ATOM      3  C   UNL     1      11.714   5.935  28.025  1.00  0.00     0.037 C 
ATOM      4  C   UNL     1      10.873   6.801  27.458  1.00  0.00     0.021 C 
ATOM      5  C   UNL     1      12.667   6.253  29.058  1.00  0.00     0.334 C 
ATOM      6  O   UNL     1      12.786   7.371  29.628  1.00  0.00    -0.247 OA
ATOM      7  O   UNL     1      13.478   5.174  29.323  1.00  0.00    -0.455 OA
ENDROOT
BRANCH   2   8
ATOM      8  C   UNL     1      10.727   3.649  27.465  1.00  0.00     0.017 C 
BRANCH   8   9
ATOM      9  C   UNL     1      10.063   3.432  28.844  1.00  0.00     0.031 C 
BRANCH   9  10
ATOM     10  C   UNL     1       9.863   1.962  29.166  1.00  0.00    -0.077 C 
ATOM     11  C   UNL     1       8.459   1.417  29.171  1.00  0.00     0.039 C 
ATOM     12  C   UNL     1      10.882   1.122  29.466  1.00  0.00    -0.028 CG0
ATOM     13  G   UNL     1      12.337   1.527  29.560  1.00  0.00     0.000 G0
ENDBRANCH   9  10
ENDBRANCH   8   9
ENDBRANCH   2   8
BRANCH   1  14
ATOM     14  C   UNL     1      14.282   3.294  28.019  1.00  0.00     0.192 C 
ATOM     15  C   UNL     1      14.354   1.792  27.987  1.00  0.00     0.096 C 
ATOM     16  O   UNL     1      13.975   2.549  26.861  1.00  0.00    -0.362 OA
ATOM     17  C   UNL     1      15.730   1.157  27.781  1.00  0.00     0.045 C 
BRANCH  15  18
ATOM     18  C   UNL     1      13.211   0.877  28.486  1.00  0.00     0.042 C 
BRANCH  18  19
ATOM     19  C   UNL     1      12.326   1.539  29.563  1.00  0.00     0.030 CG0
ATOM     20  G   UNL     1      10.884   1.096  29.445  1.00  0.00     0.000 G0
ENDBRANCH  18  19
ENDBRANCH  15  18
ENDBRANCH   1  14
TORSDOF 0
ENDMDL
MODEL 3
REMARK VINA RESULT:    31.932      2.106      4.778
REMARK INTER + INTRA:          45.052
REMARK INTER:                  43.089
REMARK INTRA:                   1.963
REMARK UNBOUND:                 1.919
REMARK SMILES C=C1C(=O)O[C@H]2[C@H]1CCC(C)=CCC[C@@]1(C)O[C@@H]21
REMARK SMILES IDX 6 1 7 2 2 3 1 4 3 5 4 6 5 7 8 8 9 9 10 10 11 11 12 12 18 14
REMARK SMILES IDX 15 15 17 16 16 17 14 18 13 19
REMARK H PARENT
REMARK Flexibility Score: 70.00
ROOT
ATOM      1  C   UNL     1      11.597   4.987  28.606  1.00  0.00     0.216 C 
ATOM      2  C   UNL     1      12.930   5.367  29.357  1.00  0.00     0.070 C 
ATOM      3  C   UNL     1      12.938   6.869  29.289  1.00  0.00     0.037 C 
ATOM      4  C   UNL     1      13.877   7.676  29.785  1.00  0.00     0.021 C 
ATOM      5  C   UNL     1      11.651   7.292  28.798  1.00  0.00     0.334 C 
ATOM      6  O   UNL     1      11.262   8.485  28.692  1.00  0.00    -0.247 OA
ATOM      7  O   UNL     1      10.865   6.205  28.490  1.00  0.00    -0.455 OA
ENDROOT
BRANCH   2   8
ATOM      8  C   UNL     1      14.196   4.722  28.720  1.00  0.00     0.017 C 
BRANCH   8   9
ATOM      9  C   UNL     1      14.219   3.185  28.882  1.00  0.00     0.031 C 
BRANCH   9  10
ATOM     10  C   UNL     1      14.346   2.464  27.552  1.00  0.00    -0.077 C 
ATOM     11  C   UNL     1      15.629   1.733  27.255  1.00  0.00     0.039 C 
ATOM     12  C   UNL     1      13.370   2.463  26.612  1.00  0.00    -0.028 CG0
ATOM     13  G   UNL     1      12.052   3.195  26.733  1.00  0.00     0.000 G0
ENDBRANCH   9  10
ENDBRANCH   8   9
ENDBRANCH   2   8
BRANCH   1  14
ATOM     14  C   UNL     1      10.718   3.929  29.314  1.00  0.00     0.192 C 
ATOM     15  C   UNL     1      10.396   2.622  28.643  1.00  0.00     0.096 C 
ATOM     16  O   UNL     1      11.422   2.740  29.601  1.00  0.00    -0.362 OA
ATOM     17  C   UNL     1       9.221   1.816  29.197  1.00  0.00     0.045 C 
BRANCH  15  18
ATOM     18  C   UNL     1      10.943   2.225  27.251  1.00  0.00     0.042 C 
BRANCH  18  19
ATOM     19  C   UNL     1      12.040   3.178  26.733  1.00  0.00     0.030 CG0
ATOM     20  G   UNL     1      13.368   2.467  26.587  1.00  0.00     0.000 G0
ENDBRANCH  18  19
ENDBRANCH  15  18
ENDBRANCH   1  14
TORSDOF 0
ENDMDL
MODEL 4
REMARK VINA RESULT:    32.342      2.413      4.962
REMARK INTER + INTRA:          45.605
REMARK INTER:                  43.474
REMARK INTRA:                   2.131
REMARK UNBOUND:                 1.919
REMARK SMILES C=C1C(=O)O[C@H]2[C@H]1CCC(C)=CCC[C@@]1(C)O[C@@H]21
REMARK SMILES IDX 6 1 7 2 2 3 1 4 3 5 4 6 5 7 8 8 9 9 10 10 11 11 12 12 18 14
REMARK SMILES IDX 15 15 17 16 16 17 14 18 13 19
REMARK H PARENT
REMARK Flexibility Score: 70.00
ROOT
ATOM      1  C   UNL     1      11.514   4.679  28.010  1.00  0.00     0.216 C 
ATOM      2  C   UNL     1      12.626   4.940  29.095  1.00  0.00     0.070 C 
ATOM      3  C   UNL     1      12.722   6.439  29.126  1.00  0.00     0.037 C 
ATOM      4  C   UNL     1      13.540   7.161  29.893  1.00  0.00     0.021 C 
ATOM      5  C   UNL     1      11.625   6.964  28.353  1.00  0.00     0.334 C 
ATOM      6  O   UNL     1      11.333   8.183  28.228  1.00  0.00    -0.247 OA
ATOM      7  O   UNL     1      10.894   5.945  27.789  1.00  0.00    -0.455 OA
ENDROOT
BRANCH   2   8
ATOM      8  C   UNL     1      13.981   4.250  28.759  1.00  0.00     0.017 C 
BRANCH   8   9
ATOM      9  C   UNL     1      13.873   3.297  27.547  1.00  0.00     0.031 C 
BRANCH   9  10
ATOM     10  C   UNL     1      14.696   2.034  27.727  1.00  0.00    -0.077 C 
ATOM     11  C   UNL     1      16.110   2.022  27.208  1.00  0.00     0.039 C 
ATOM     12  C   UNL     1      14.215   0.912  28.315  1.00  0.00    -0.028 CG0
ATOM     13  G   UNL     1      12.804   0.744  28.834  1.00  0.00     0.000 G0
ENDBRANCH   9  10
ENDBRANCH   8   9
ENDBRANCH   2   8
BRANCH   1  14
ATOM     14  C   UNL     1      10.434   3.645  28.404  1.00  0.00     0.192 C 
ATOM     15  C   UNL     1      10.810   2.364  29.097  1.00  0.00     0.096 C 
ATOM     16  O   UNL     1      10.320   3.481  29.801  1.00  0.00    -0.362 OA
ATOM     17  C   UNL     1       9.785   1.230  29.088  1.00  0.00     0.045 C 
BRANCH  15  18
ATOM     18  C   UNL     1      12.262   2.013  29.501  1.00  0.00     0.042 C 
BRANCH  18  19
ATOM     19  C   UNL     1      12.794   0.738  28.816  1.00  0.00     0.030 CG0
ATOM     20  G   UNL     1      14.220   0.917  28.342  1.00  0.00     0.000 G0
ENDBRANCH  18  19
ENDBRANCH  15  18
ENDBRANCH   1  14
TORSDOF 0
ENDMDL
