MODEL 1
REMARK VINA RESULT:    -4.267      0.000      0.000
REMARK INTER + INTRA:          -5.086
REMARK INTER:                  -4.891
REMARK INTRA:                  -0.195
REMARK UNBOUND:                -0.195
REMARK SMILES COC(=O)c1ccccc1O
REMARK SMILES IDX 5 1 6 2 7 3 8 4 9 5 10 6 3 7 4 8 2 9 1 10 11 11
REMARK H PARENT 11 12
REMARK Flexibility Score: inf
ROOT
ATOM      1  C   UNL     1      14.082  31.622  29.633  1.00  0.00     0.101 A 
ATOM      2  C   UNL     1      13.321  30.771  30.454  1.00  0.00     0.019 A 
ATOM      3  C   UNL     1      11.928  30.743  30.356  1.00  0.00     0.001 A 
ATOM      4  C   UNL     1      11.276  31.563  29.437  1.00  0.00     0.004 A 
ATOM      5  C   UNL     1      12.016  32.399  28.600  1.00  0.00     0.047 A 
ATOM      6  C   UNL     1      13.415  32.424  28.670  1.00  0.00     0.130 A 
ENDROOT
BRANCH   1   7
ATOM      7  C   UNL     1      15.547  31.665  29.834  1.00  0.00     0.341 C 
ATOM      8  O   UNL     1      16.200  32.709  29.559  1.00  0.00    -0.246 OA
BRANCH   7   9
ATOM      9  O   UNL     1      16.197  30.559  30.391  1.00  0.00    -0.465 OA
ATOM     10  C   UNL     1      16.388  29.342  29.679  1.00  0.00     0.282 C 
ENDBRANCH   7   9
ENDBRANCH   1   7
BRANCH   6  11
ATOM     11  O   UNL     1      14.097  33.224  27.752  1.00  0.00    -0.507 OA
ATOM     12  H   UNL     1      14.236  34.218  27.873  1.00  0.00     0.293 HD
ENDBRANCH   6  11
TORSDOF 3
ENDMDL
MODEL 2
REMARK VINA RESULT:    -4.165     13.879     15.721
REMARK INTER + INTRA:          -4.969
REMARK INTER:                  -4.646
REMARK INTRA:                  -0.323
REMARK UNBOUND:                -0.195
REMARK SMILES COC(=O)c1ccccc1O
REMARK SMILES IDX 5 1 6 2 7 3 8 4 9 5 10 6 3 7 4 8 2 9 1 10 11 11
REMARK H PARENT 11 12
REMARK Flexibility Score: inf
ROOT
ATOM      1  C   UNL     1      28.378  32.295  23.787  1.00  0.00     0.101 A 
ATOM      2  C   UNL     1      27.979  33.612  24.084  1.00  0.00     0.019 A 
ATOM      3  C   UNL     1      28.039  34.612  23.111  1.00  0.00     0.001 A 
ATOM      4  C   UNL     1      28.497  34.312  21.829  1.00  0.00     0.004 A 
ATOM      5  C   UNL     1      28.878  33.008  21.511  1.00  0.00     0.047 A 
ATOM      6  C   UNL     1      28.804  31.989  22.468  1.00  0.00     0.130 A 
ENDROOT
BRANCH   1   7
ATOM      7  C   UNL     1      28.364  31.296  24.878  1.00  0.00     0.341 C 
ATOM      8  O   UNL     1      28.845  31.580  26.009  1.00  0.00    -0.246 OA
BRANCH   7   9
ATOM      9  O   UNL     1      27.759  30.054  24.665  1.00  0.00    -0.465 OA
ATOM     10  C   UNL     1      26.377  29.821  24.910  1.00  0.00     0.282 C 
ENDBRANCH   7   9
ENDBRANCH   1   7
BRANCH   6  11
ATOM     11  O   UNL     1      29.125  30.692  22.062  1.00  0.00    -0.507 OA
ATOM     12  H   UNL     1      30.056  30.303  22.123  1.00  0.00     0.293 HD
ENDBRANCH   6  11
TORSDOF 3
ENDMDL
MODEL 3
REMARK VINA RESULT:    -4.127     10.313     12.579
REMARK INTER + INTRA:          -4.925
REMARK INTER:                  -4.649
REMARK INTRA:                  -0.277
REMARK UNBOUND:                -0.195
REMARK SMILES COC(=O)c1ccccc1O
REMARK SMILES IDX 5 1 6 2 7 3 8 4 9 5 10 6 3 7 4 8 2 9 1 10 11 11
REMARK H PARENT 11 12
REMARK Flexibility Score: inf
ROOT
ATOM      1  C   UNL     1      25.587  28.690  26.643  1.00  0.00     0.101 A 
ATOM      2  C   UNL     1      26.826  28.045  26.815  1.00  0.00     0.019 A 
ATOM      3  C   UNL     1      27.838  28.181  25.862  1.00  0.00     0.001 A 
ATOM      4  C   UNL     1      27.629  28.962  24.727  1.00  0.00     0.004 A 
ATOM      5  C   UNL     1      26.414  29.626  24.550  1.00  0.00     0.047 A 
ATOM      6  C   UNL     1      25.396  29.517  25.506  1.00  0.00     0.130 A 
ENDROOT
BRANCH   1   7
ATOM      7  C   UNL     1      24.527  28.448  27.646  1.00  0.00     0.341 C 
ATOM      8  O   UNL     1      23.881  29.414  28.139  1.00  0.00    -0.246 OA
BRANCH   7   9
ATOM      9  O   UNL     1      24.202  27.135  28.000  1.00  0.00    -0.465 OA
ATOM     10  C   UNL     1      22.859  26.687  28.141  1.00  0.00     0.282 C 
ENDBRANCH   7   9
ENDBRANCH   1   7
BRANCH   6  11
ATOM     11  O   UNL     1      24.236  30.269  25.307  1.00  0.00    -0.507 OA
ATOM     12  H   UNL     1      23.776  30.358  24.411  1.00  0.00     0.293 HD
ENDBRANCH   6  11
TORSDOF 3
ENDMDL
MODEL 4
REMARK VINA RESULT:    -4.024     13.144     14.226
REMARK INTER + INTRA:          -4.807
REMARK INTER:                  -4.510
REMARK INTRA:                  -0.296
REMARK UNBOUND:                -0.195
REMARK SMILES COC(=O)c1ccccc1O
REMARK SMILES IDX 5 1 6 2 7 3 8 4 9 5 10 6 3 7 4 8 2 9 1 10 11 11
REMARK H PARENT 11 12
REMARK Flexibility Score: inf
ROOT
ATOM      1  C   UNL     1      27.211  29.289  26.231  1.00  0.00     0.101 A 
ATOM      2  C   UNL     1      28.354  29.760  26.903  1.00  0.00     0.019 A 
ATOM      3  C   UNL     1      29.078  30.844  26.403  1.00  0.00     0.001 A 
ATOM      4  C   UNL     1      28.672  31.473  25.227  1.00  0.00     0.004 A 
ATOM      5  C   UNL     1      27.529  31.033  24.559  1.00  0.00     0.047 A 
ATOM      6  C   UNL     1      26.779  29.960  25.058  1.00  0.00     0.130 A 
ENDROOT
BRANCH   1   7
ATOM      7  C   UNL     1      26.529  28.090  26.766  1.00  0.00     0.341 C 
ATOM      8  O   UNL     1      25.350  28.170  27.208  1.00  0.00    -0.246 OA
BRANCH   7   9
ATOM      9  O   UNL     1      27.178  26.853  26.724  1.00  0.00    -0.465 OA
ATOM     10  C   UNL     1      27.632  26.265  25.510  1.00  0.00     0.282 C 
ENDBRANCH   7   9
ENDBRANCH   1   7
BRANCH   6  11
ATOM     11  O   UNL     1      25.604  29.620  24.384  1.00  0.00    -0.507 OA
ATOM     12  H   UNL     1      24.808  29.189  24.833  1.00  0.00     0.293 HD
ENDBRANCH   6  11
TORSDOF 3
ENDMDL
MODEL 5
REMARK VINA RESULT:    -3.975     16.486     17.782
REMARK INTER + INTRA:          -4.751
REMARK INTER:                  -4.481
REMARK INTRA:                  -0.270
REMARK UNBOUND:                -0.195
REMARK SMILES COC(=O)c1ccccc1O
REMARK SMILES IDX 5 1 6 2 7 3 8 4 9 5 10 6 3 7 4 8 2 9 1 10 11 11
REMARK H PARENT 11 12
REMARK Flexibility Score: inf
ROOT
ATOM      1  C   UNL     1      26.455  39.332  19.740  1.00  0.00     0.101 A 
ATOM      2  C   UNL     1      26.542  38.137  19.001  1.00  0.00     0.019 A 
ATOM      3  C   UNL     1      25.871  36.987  19.423  1.00  0.00     0.001 A 
ATOM      4  C   UNL     1      25.103  37.013  20.586  1.00  0.00     0.004 A 
ATOM      5  C   UNL     1      24.988  38.195  21.321  1.00  0.00     0.047 A 
ATOM      6  C   UNL     1      25.638  39.363  20.900  1.00  0.00     0.130 A 
ENDROOT
BRANCH   1   7
ATOM      7  C   UNL     1      27.247  40.495  19.287  1.00  0.00     0.341 C 
ATOM      8  O   UNL     1      28.247  40.332  18.534  1.00  0.00    -0.246 OA
BRANCH   7   9
ATOM      9  O   UNL     1      26.846  41.784  19.649  1.00  0.00    -0.465 OA
ATOM     10  C   UNL     1      27.187  42.937  18.888  1.00  0.00     0.282 C 
ENDBRANCH   7   9
ENDBRANCH   1   7
BRANCH   6  11
ATOM     11  O   UNL     1      25.418  40.528  21.637  1.00  0.00    -0.507 OA
ATOM     12  H   UNL     1      25.946  40.774  22.462  1.00  0.00     0.293 HD
ENDBRANCH   6  11
TORSDOF 3
ENDMDL
MODEL 6
REMARK VINA RESULT:    -3.877     14.478     15.867
REMARK INTER + INTRA:          -4.639
REMARK INTER:                  -4.372
REMARK INTRA:                  -0.267
REMARK UNBOUND:                -0.195
REMARK SMILES COC(=O)c1ccccc1O
REMARK SMILES IDX 5 1 6 2 7 3 8 4 9 5 10 6 3 7 4 8 2 9 1 10 11 11
REMARK H PARENT 11 12
REMARK Flexibility Score: inf
ROOT
ATOM      1  C   UNL     1      28.428  32.274  23.590  1.00  0.00     0.101 A 
ATOM      2  C   UNL     1      28.217  31.701  24.858  1.00  0.00     0.019 A 
ATOM      3  C   UNL     1      28.334  30.322  25.046  1.00  0.00     0.001 A 
ATOM      4  C   UNL     1      28.663  29.496  23.972  1.00  0.00     0.004 A 
ATOM      5  C   UNL     1      28.896  30.049  22.712  1.00  0.00     0.047 A 
ATOM      6  C   UNL     1      28.804  31.432  22.511  1.00  0.00     0.130 A 
ENDROOT
BRANCH   1   7
ATOM      7  C   UNL     1      28.216  33.729  23.436  1.00  0.00     0.341 C 
ATOM      8  O   UNL     1      28.838  34.374  22.548  1.00  0.00    -0.246 OA
BRANCH   7   9
ATOM      9  O   UNL     1      27.274  34.376  24.241  1.00  0.00    -0.465 OA
ATOM     10  C   UNL     1      26.531  35.505  23.798  1.00  0.00     0.282 C 
ENDBRANCH   7   9
ENDBRANCH   1   7
BRANCH   6  11
ATOM     11  O   UNL     1      29.125  31.927  21.245  1.00  0.00    -0.507 OA
ATOM     12  H   UNL     1      29.228  31.342  20.428  1.00  0.00     0.293 HD
ENDBRANCH   6  11
TORSDOF 3
ENDMDL
MODEL 7
REMARK VINA RESULT:    -3.860     13.314     15.062
REMARK INTER + INTRA:          -4.620
REMARK INTER:                  -4.272
REMARK INTRA:                  -0.348
REMARK UNBOUND:                -0.195
REMARK SMILES COC(=O)c1ccccc1O
REMARK SMILES IDX 5 1 6 2 7 3 8 4 9 5 10 6 3 7 4 8 2 9 1 10 11 11
REMARK H PARENT 11 12
REMARK Flexibility Score: inf
ROOT
ATOM      1  C   UNL     1      27.978  29.260  24.453  1.00  0.00     0.101 A 
ATOM      2  C   UNL     1      28.867  28.185  24.636  1.00  0.00     0.019 A 
ATOM      3  C   UNL     1      28.585  27.176  25.560  1.00  0.00     0.001 A 
ATOM      4  C   UNL     1      27.413  27.226  26.313  1.00  0.00     0.004 A 
ATOM      5  C   UNL     1      26.510  28.274  26.130  1.00  0.00     0.047 A 
ATOM      6  C   UNL     1      26.766  29.282  25.193  1.00  0.00     0.130 A 
ENDROOT
BRANCH   1   7
ATOM      7  C   UNL     1      28.365  30.338  23.517  1.00  0.00     0.341 C 
ATOM      8  O   UNL     1      28.827  30.057  22.377  1.00  0.00    -0.246 OA
BRANCH   7   9
ATOM      9  O   UNL     1      28.158  31.672  23.880  1.00  0.00    -0.465 OA
ATOM     10  C   UNL     1      28.912  32.316  24.900  1.00  0.00     0.282 C 
ENDBRANCH   7   9
ENDBRANCH   1   7
BRANCH   6  11
ATOM     11  O   UNL     1      25.785  30.258  25.005  1.00  0.00    -0.507 OA
ATOM     12  H   UNL     1      25.049  30.444  25.671  1.00  0.00     0.293 HD
ENDBRANCH   6  11
TORSDOF 3
ENDMDL
MODEL 8
REMARK VINA RESULT:    -3.859     16.402     17.679
REMARK INTER + INTRA:          -4.618
REMARK INTER:                  -4.364
REMARK INTRA:                  -0.254
REMARK UNBOUND:                -0.195
REMARK SMILES COC(=O)c1ccccc1O
REMARK SMILES IDX 5 1 6 2 7 3 8 4 9 5 10 6 3 7 4 8 2 9 1 10 11 11
REMARK H PARENT 11 12
REMARK Flexibility Score: inf
ROOT
ATOM      1  C   UNL     1      26.263  39.634  20.189  1.00  0.00     0.101 A 
ATOM      2  C   UNL     1      25.554  38.816  21.088  1.00  0.00     0.019 A 
ATOM      3  C   UNL     1      25.275  37.485  20.773  1.00  0.00     0.001 A 
ATOM      4  C   UNL     1      25.699  36.951  19.557  1.00  0.00     0.004 A 
ATOM      5  C   UNL     1      26.421  37.741  18.662  1.00  0.00     0.047 A 
ATOM      6  C   UNL     1      26.728  39.073  18.971  1.00  0.00     0.130 A 
ENDROOT
BRANCH   1   7
ATOM      7  C   UNL     1      26.463  41.056  20.544  1.00  0.00     0.341 C 
ATOM      8  O   UNL     1      26.899  41.873  19.687  1.00  0.00    -0.246 OA
BRANCH   7   9
ATOM      9  O   UNL     1      26.108  41.503  21.821  1.00  0.00    -0.465 OA
ATOM     10  C   UNL     1      26.715  42.633  22.435  1.00  0.00     0.282 C 
ENDBRANCH   7   9
ENDBRANCH   1   7
BRANCH   6  11
ATOM     11  O   UNL     1      27.520  39.783  18.067  1.00  0.00    -0.507 OA
ATOM     12  H   UNL     1      28.516  39.645  17.970  1.00  0.00     0.293 HD
ENDBRANCH   6  11
TORSDOF 3
ENDMDL
MODEL 9
REMARK VINA RESULT:    -3.804     16.282     17.634
REMARK INTER + INTRA:          -4.555
REMARK INTER:                  -4.263
REMARK INTRA:                  -0.292
REMARK UNBOUND:                -0.195
REMARK SMILES COC(=O)c1ccccc1O
REMARK SMILES IDX 5 1 6 2 7 3 8 4 9 5 10 6 3 7 4 8 2 9 1 10 11 11
REMARK H PARENT 11 12
REMARK Flexibility Score: inf
ROOT
ATOM      1  C   UNL     1      26.493  39.216  19.890  1.00  0.00     0.101 A 
ATOM      2  C   UNL     1      27.412  39.235  18.825  1.00  0.00     0.019 A 
ATOM      3  C   UNL     1      28.020  40.429  18.428  1.00  0.00     0.001 A 
ATOM      4  C   UNL     1      27.718  41.619  19.089  1.00  0.00     0.004 A 
ATOM      5  C   UNL     1      26.824  41.616  20.160  1.00  0.00     0.047 A 
ATOM      6  C   UNL     1      26.222  40.424  20.584  1.00  0.00     0.130 A 
ENDROOT
BRANCH   1   7
ATOM      7  C   UNL     1      25.825  37.937  20.215  1.00  0.00     0.341 C 
ATOM      8  O   UNL     1      25.782  37.005  19.366  1.00  0.00    -0.246 OA
BRANCH   7   9
ATOM      9  O   UNL     1      25.293  37.745  21.494  1.00  0.00    -0.465 OA
ATOM     10  C   UNL     1      23.958  37.305  21.712  1.00  0.00     0.282 C 
ENDBRANCH   7   9
ENDBRANCH   1   7
BRANCH   6  11
ATOM     11  O   UNL     1      25.399  40.478  21.711  1.00  0.00    -0.507 OA
ATOM     12  H   UNL     1      25.718  40.779  22.621  1.00  0.00     0.293 HD
ENDBRANCH   6  11
TORSDOF 3
ENDMDL
