MODEL 1
REMARK VINA RESULT:     0.000      0.000      0.000
REMARK INTER + INTRA:          -3.028
REMARK INTER:                   0.000
REMARK INTRA:                  -3.028
REMARK UNBOUND:                -3.028
REMARK SMILES CC(=O)CCC=C(C)CCC=C(C)CCC=C(C)C
REMARK SMILES IDX 10 1 11 2 12 3 13 4 14 5 15 6 16 7 18 8 17 9 19 10 9 11 7 12
REMARK SMILES IDX 6 13 8 14 5 15 4 16 2 17 3 18 1 19
REMARK H PARENT
REMARK Flexibility Score: inf
ROOT
ATOM      1  C   UNL     1     133.732 132.832 122.119  1.00  0.00     0.032 C 
ENDROOT
BRANCH   1   2
ATOM      2  C   UNL     1     132.455 133.278 122.784  1.00  0.00    -0.028 C 
ATOM      3  C   UNL     1     132.264 134.501 123.328  1.00  0.00    -0.077 C 
ATOM      4  C   UNL     1     133.321 135.579 123.256  1.00  0.00     0.039 C 
BRANCH   3   5
ATOM      5  C   UNL     1     130.949 134.805 124.012  1.00  0.00     0.034 C 
BRANCH   5   6
ATOM      6  C   UNL     1     130.262 133.513 124.468  1.00  0.00     0.032 C 
BRANCH   6   7
ATOM      7  C   UNL     1     130.639 133.181 125.891  1.00  0.00    -0.028 C 
ATOM      8  C   UNL     1     131.552 131.835 127.732  1.00  0.00     0.039 C 
ATOM      9  C   UNL     1     131.192 132.011 126.280  1.00  0.00    -0.080 C 
ATOM     10  C   UNL     1     131.440 130.880 125.309  1.00  0.00     0.039 C 
ENDBRANCH   6   7
ENDBRANCH   5   6
ENDBRANCH   3   5
ENDBRANCH   1   2
BRANCH   1  11
ATOM     11  C   UNL     1     134.473 131.816 122.998  1.00  0.00     0.034 C 
BRANCH  11  12
ATOM     12  C   UNL     1     135.241 132.516 124.097  1.00  0.00    -0.077 C 
ATOM     13  C   UNL     1     134.890 132.294 125.385  1.00  0.00    -0.028 C 
ATOM     14  C   UNL     1     136.394 133.421 123.729  1.00  0.00     0.039 C 
BRANCH  13  15
ATOM     15  C   UNL     1     135.539 132.959 126.573  1.00  0.00     0.035 C 
BRANCH  15  16
ATOM     16  C   UNL     1     134.504 133.744 127.386  1.00  0.00     0.079 C 
BRANCH  16  17
ATOM     17  C   UNL     1     134.334 135.132 126.836  1.00  0.00     0.130 C 
ATOM     18  O   UNL     1     135.270 135.681 126.272  1.00  0.00    -0.300 OA
ATOM     19  C   UNL     1     133.019 135.841 126.956  1.00  0.00     0.087 C 
ENDBRANCH  16  17
ENDBRANCH  15  16
ENDBRANCH  13  15
ENDBRANCH  11  12
ENDBRANCH   1  11
TORSDOF 9
ENDMDL
MODEL 2
REMARK VINA RESULT:     0.000      3.502      6.471
REMARK INTER + INTRA:          -3.027
REMARK INTER:                   0.000
REMARK INTRA:                  -3.027
REMARK UNBOUND:                -3.028
REMARK SMILES CC(=O)CCC=C(C)CCC=C(C)CCC=C(C)C
REMARK SMILES IDX 10 1 11 2 12 3 13 4 14 5 15 6 16 7 18 8 17 9 19 10 9 11 7 12
REMARK SMILES IDX 6 13 8 14 5 15 4 16 2 17 3 18 1 19
REMARK H PARENT
REMARK Flexibility Score: inf
ROOT
ATOM      1  C   UNL     1     128.264 132.148 127.801  1.00  0.00     0.032 C 
ENDROOT
BRANCH   1   2
ATOM      2  C   UNL     1     128.865 132.069 126.421  1.00  0.00    -0.028 C 
ATOM      3  C   UNL     1     128.775 130.992 125.609  1.00  0.00    -0.077 C 
ATOM      4  C   UNL     1     127.985 129.763 126.000  1.00  0.00     0.039 C 
BRANCH   3   5
ATOM      5  C   UNL     1     129.469 131.023 124.265  1.00  0.00     0.034 C 
BRANCH   5   6
ATOM      6  C   UNL     1     130.617 132.038 124.270  1.00  0.00     0.032 C 
BRANCH   6   7
ATOM      7  C   UNL     1     131.918 131.372 124.645  1.00  0.00    -0.028 C 
ATOM      8  C   UNL     1     133.962 130.978 125.951  1.00  0.00     0.039 C 
ATOM      9  C   UNL     1     132.707 131.764 125.669  1.00  0.00    -0.080 C 
ATOM     10  C   UNL     1     132.378 132.968 126.520  1.00  0.00     0.039 C 
ENDBRANCH   6   7
ENDBRANCH   5   6
ENDBRANCH   3   5
ENDBRANCH   1   2
BRANCH   1  11
ATOM     11  C   UNL     1     129.359 132.089 128.873  1.00  0.00     0.034 C 
BRANCH  11  12
ATOM     12  C   UNL     1     129.808 130.664 129.104  1.00  0.00    -0.077 C 
ATOM     13  C   UNL     1     131.083 130.322 128.806  1.00  0.00    -0.028 C 
ATOM     14  C   UNL     1     128.831 129.669 129.686  1.00  0.00     0.039 C 
BRANCH  13  15
ATOM     15  C   UNL     1     131.648 128.931 128.944  1.00  0.00     0.035 C 
BRANCH  15  16
ATOM     16  C   UNL     1     132.165 128.420 127.595  1.00  0.00     0.079 C 
BRANCH  16  17
ATOM     17  C   UNL     1     131.058 127.776 126.809  1.00  0.00     0.130 C 
ATOM     18  O   UNL     1     130.129 127.240 127.394  1.00  0.00    -0.300 OA
ATOM     19  C   UNL     1     131.074 127.806 125.310  1.00  0.00     0.087 C 
ENDBRANCH  16  17
ENDBRANCH  15  16
ENDBRANCH  13  15
ENDBRANCH  11  12
ENDBRANCH   1  11
TORSDOF 9
ENDMDL
MODEL 3
REMARK VINA RESULT:     0.001     11.283     13.407
REMARK INTER + INTRA:          -3.027
REMARK INTER:                   0.000
REMARK INTRA:                  -3.027
REMARK UNBOUND:                -3.028
REMARK SMILES CC(=O)CCC=C(C)CCC=C(C)CCC=C(C)C
REMARK SMILES IDX 10 1 11 2 12 3 13 4 14 5 15 6 16 7 18 8 17 9 19 10 9 11 7 12
REMARK SMILES IDX 6 13 8 14 5 15 4 16 2 17 3 18 1 19
REMARK H PARENT
REMARK Flexibility Score: inf
ROOT
ATOM      1  C   UNL     1     127.856 133.689 134.132  1.00  0.00     0.032 C 
ENDROOT
BRANCH   1   2
ATOM      2  C   UNL     1     126.438 133.230 133.907  1.00  0.00    -0.028 C 
ATOM      3  C   UNL     1     125.360 133.740 134.545  1.00  0.00    -0.077 C 
ATOM      4  C   UNL     1     125.480 134.891 135.518  1.00  0.00     0.039 C 
BRANCH   3   5
ATOM      5  C   UNL     1     123.994 133.153 134.266  1.00  0.00     0.034 C 
BRANCH   5   6
ATOM      6  C   UNL     1     124.116 131.721 133.733  1.00  0.00     0.032 C 
BRANCH   6   7
ATOM      7  C   UNL     1     124.038 130.723 134.862  1.00  0.00    -0.028 C 
ATOM      8  C   UNL     1     124.787 128.885 136.311  1.00  0.00     0.039 C 
ATOM      9  C   UNL     1     124.982 129.792 135.123  1.00  0.00    -0.080 C 
ATOM     10  C   UNL     1     126.207 129.627 134.255  1.00  0.00     0.039 C 
ENDBRANCH   6   7
ENDBRANCH   5   6
ENDBRANCH   3   5
ENDBRANCH   1   2
BRANCH   1  11
ATOM     11  C   UNL     1     128.652 132.630 134.903  1.00  0.00     0.034 C 
BRANCH  11  12
ATOM     12  C   UNL     1     128.351 132.704 136.384  1.00  0.00    -0.077 C 
ATOM     13  C   UNL     1     127.746 131.651 136.982  1.00  0.00    -0.028 C 
ATOM     14  C   UNL     1     128.755 133.936 137.157  1.00  0.00     0.039 C 
BRANCH  13  15
ATOM     15  C   UNL     1     127.349 131.609 138.437  1.00  0.00     0.035 C 
BRANCH  15  16
ATOM     16  C   UNL     1     125.840 131.380 138.578  1.00  0.00     0.079 C 
BRANCH  16  17
ATOM     17  C   UNL     1     125.095 132.684 138.521  1.00  0.00     0.130 C 
ATOM     18  O   UNL     1     125.635 133.710 138.907  1.00  0.00    -0.300 OA
ATOM     19  C   UNL     1     123.700 132.738 137.976  1.00  0.00     0.087 C 
ENDBRANCH  16  17
ENDBRANCH  15  16
ENDBRANCH  13  15
ENDBRANCH  11  12
ENDBRANCH   1  11
TORSDOF 9
ENDMDL
MODEL 4
REMARK VINA RESULT:     0.001     10.414     12.926
REMARK INTER + INTRA:          -3.026
REMARK INTER:                   0.000
REMARK INTRA:                  -3.026
REMARK UNBOUND:                -3.028
REMARK SMILES CC(=O)CCC=C(C)CCC=C(C)CCC=C(C)C
REMARK SMILES IDX 10 1 11 2 12 3 13 4 14 5 15 6 16 7 18 8 17 9 19 10 9 11 7 12
REMARK SMILES IDX 6 13 8 14 5 15 4 16 2 17 3 18 1 19
REMARK H PARENT
REMARK Flexibility Score: inf
ROOT
ATOM      1  C   UNL     1     130.036 125.595 131.869  1.00  0.00     0.032 C 
ENDROOT
BRANCH   1   2
ATOM      2  C   UNL     1     130.617 126.268 133.087  1.00  0.00    -0.028 C 
ATOM      3  C   UNL     1     130.463 125.821 134.353  1.00  0.00    -0.077 C 
ATOM      4  C   UNL     1     129.729 124.535 134.661  1.00  0.00     0.039 C 
BRANCH   3   5
ATOM      5  C   UNL     1     131.055 126.620 135.493  1.00  0.00     0.034 C 
BRANCH   5   6
ATOM      6  C   UNL     1     131.252 128.084 135.086  1.00  0.00     0.032 C 
BRANCH   6   7
ATOM      7  C   UNL     1     130.048 128.911 135.463  1.00  0.00    -0.028 C 
ATOM      8  C   UNL     1     128.130 130.405 135.109  1.00  0.00     0.039 C 
ATOM      9  C   UNL     1     129.335 129.660 134.595  1.00  0.00    -0.080 C 
ATOM     10  C   UNL     1     129.718 129.782 133.138  1.00  0.00     0.039 C 
ENDBRANCH   6   7
ENDBRANCH   5   6
ENDBRANCH   3   5
ENDBRANCH   1   2
BRANCH   1  11
ATOM     11  C   UNL     1     128.872 126.415 131.301  1.00  0.00     0.034 C 
BRANCH  11  12
ATOM     12  C   UNL     1     127.607 126.170 132.093  1.00  0.00    -0.077 C 
ATOM     13  C   UNL     1     127.055 127.198 132.779  1.00  0.00    -0.028 C 
ATOM     14  C   UNL     1     126.980 124.796 132.074  1.00  0.00     0.039 C 
BRANCH  13  15
ATOM     15  C   UNL     1     125.823 127.084 133.643  1.00  0.00     0.035 C 
BRANCH  15  16
ATOM     16  C   UNL     1     126.136 127.490 135.087  1.00  0.00     0.079 C 
BRANCH  16  17
ATOM     17  C   UNL     1     126.663 126.319 135.869  1.00  0.00     0.130 C 
ATOM     18  O   UNL     1     126.316 125.185 135.573  1.00  0.00    -0.300 OA
ATOM     19  C   UNL     1     127.628 126.532 136.996  1.00  0.00     0.087 C 
ENDBRANCH  16  17
ENDBRANCH  15  16
ENDBRANCH  13  15
ENDBRANCH  11  12
ENDBRANCH   1  11
TORSDOF 9
ENDMDL
MODEL 5
REMARK VINA RESULT:     0.001      4.718      6.399
REMARK INTER + INTRA:          -3.026
REMARK INTER:                   0.000
REMARK INTRA:                  -3.026
REMARK UNBOUND:                -3.028
REMARK SMILES CC(=O)CCC=C(C)CCC=C(C)CCC=C(C)C
REMARK SMILES IDX 10 1 11 2 12 3 13 4 14 5 15 6 16 7 18 8 17 9 19 10 9 11 7 12
REMARK SMILES IDX 6 13 8 14 5 15 4 16 2 17 3 18 1 19
REMARK H PARENT
REMARK Flexibility Score: inf
ROOT
ATOM      1  C   UNL     1     132.669 129.765 128.114  1.00  0.00     0.032 C 
ENDROOT
BRANCH   1   2
ATOM      2  C   UNL     1     131.608 130.835 128.075  1.00  0.00    -0.028 C 
ATOM      3  C   UNL     1     131.793 132.109 128.488  1.00  0.00    -0.077 C 
ATOM      4  C   UNL     1     133.136 132.602 128.976  1.00  0.00     0.039 C 
BRANCH   3   5
ATOM      5  C   UNL     1     130.627 133.072 128.445  1.00  0.00     0.034 C 
BRANCH   5   6
ATOM      6  C   UNL     1     129.295 132.315 128.467  1.00  0.00     0.032 C 
BRANCH   6   7
ATOM      7  C   UNL     1     128.791 132.162 129.881  1.00  0.00    -0.028 C 
ATOM      8  C   UNL     1     128.034 130.975 131.895  1.00  0.00     0.039 C 
ATOM      9  C   UNL     1     128.491 130.978 130.459  1.00  0.00    -0.080 C 
ATOM     10  C   UNL     1     128.584 129.672 129.706  1.00  0.00     0.039 C 
ENDBRANCH   6   7
ENDBRANCH   5   6
ENDBRANCH   3   5
ENDBRANCH   1   2
BRANCH   1  11
ATOM     11  C   UNL     1     132.367 128.741 129.215  1.00  0.00     0.034 C 
BRANCH  11  12
ATOM     12  C   UNL     1     132.789 129.267 130.568  1.00  0.00    -0.077 C 
ATOM     13  C   UNL     1     131.842 129.489 131.509  1.00  0.00    -0.028 C 
ATOM     14  C   UNL     1     134.256 129.505 130.841  1.00  0.00     0.039 C 
BRANCH  13  15
ATOM     15  C   UNL     1     132.118 130.052 132.881  1.00  0.00     0.035 C 
BRANCH  15  16
ATOM     16  C   UNL     1     131.333 131.349 133.100  1.00  0.00     0.079 C 
BRANCH  16  17
ATOM     17  C   UNL     1     132.100 132.532 132.577  1.00  0.00     0.130 C 
ATOM     18  O   UNL     1     133.321 132.506 132.562  1.00  0.00    -0.300 OA
ATOM     19  C   UNL     1     131.375 133.735 132.053  1.00  0.00     0.087 C 
ENDBRANCH  16  17
ENDBRANCH  15  16
ENDBRANCH  13  15
ENDBRANCH  11  12
ENDBRANCH   1  11
TORSDOF 9
ENDMDL
MODEL 6
REMARK VINA RESULT:     0.001      6.938      9.085
REMARK INTER + INTRA:          -3.026
REMARK INTER:                   0.000
REMARK INTRA:                  -3.026
REMARK UNBOUND:                -3.028
REMARK SMILES CC(=O)CCC=C(C)CCC=C(C)CCC=C(C)C
REMARK SMILES IDX 10 1 11 2 12 3 13 4 14 5 15 6 16 7 18 8 17 9 19 10 9 11 7 12
REMARK SMILES IDX 6 13 8 14 5 15 4 16 2 17 3 18 1 19
REMARK H PARENT
REMARK Flexibility Score: inf
ROOT
ATOM      1  C   UNL     1     127.084 131.648 123.459  1.00  0.00     0.032 C 
ENDROOT
BRANCH   1   2
ATOM      2  C   UNL     1     125.984 132.506 124.031  1.00  0.00    -0.028 C 
ATOM      3  C   UNL     1     125.920 132.907 125.320  1.00  0.00    -0.077 C 
ATOM      4  C   UNL     1     127.011 132.576 126.313  1.00  0.00     0.039 C 
BRANCH   3   5
ATOM      5  C   UNL     1     124.732 133.724 125.778  1.00  0.00     0.034 C 
BRANCH   5   6
ATOM      6  C   UNL     1     123.528 133.497 124.858  1.00  0.00     0.032 C 
BRANCH   6   7
ATOM      7  C   UNL     1     122.652 132.389 125.388  1.00  0.00    -0.028 C 
ATOM      8  C   UNL     1     121.457 130.242 125.360  1.00  0.00     0.039 C 
ATOM      9  C   UNL     1     122.309 131.286 124.686  1.00  0.00    -0.080 C 
ATOM     10  C   UNL     1     122.739 131.082 123.252  1.00  0.00     0.039 C 
ENDBRANCH   6   7
ENDBRANCH   5   6
ENDBRANCH   3   5
ENDBRANCH   1   2
BRANCH   1  11
ATOM     11  C   UNL     1     126.573 130.232 123.172  1.00  0.00     0.034 C 
BRANCH  11  12
ATOM     12  C   UNL     1     126.532 129.408 124.440  1.00  0.00    -0.077 C 
ATOM     13  C   UNL     1     125.335 128.973 124.900  1.00  0.00    -0.028 C 
ATOM     14  C   UNL     1     127.826 129.071 125.142  1.00  0.00     0.039 C 
BRANCH  13  15
ATOM     15  C   UNL     1     125.145 128.184 126.172  1.00  0.00     0.035 C 
BRANCH  15  16
ATOM     16  C   UNL     1     124.213 128.926 127.134  1.00  0.00     0.079 C 
BRANCH  16  17
ATOM     17  C   UNL     1     124.984 129.901 127.980  1.00  0.00     0.130 C 
ATOM     18  O   UNL     1     126.154 129.676 128.252  1.00  0.00    -0.300 OA
ATOM     19  C   UNL     1     124.333 131.158 128.474  1.00  0.00     0.087 C 
ENDBRANCH  16  17
ENDBRANCH  15  16
ENDBRANCH  13  15
ENDBRANCH  11  12
ENDBRANCH   1  11
TORSDOF 9
ENDMDL
MODEL 7
REMARK VINA RESULT:     0.001      9.201     11.645
REMARK INTER + INTRA:          -3.026
REMARK INTER:                   0.000
REMARK INTRA:                  -3.026
REMARK UNBOUND:                -3.028
REMARK SMILES CC(=O)CCC=C(C)CCC=C(C)CCC=C(C)C
REMARK SMILES IDX 10 1 11 2 12 3 13 4 14 5 15 6 16 7 18 8 17 9 19 10 9 11 7 12
REMARK SMILES IDX 6 13 8 14 5 15 4 16 2 17 3 18 1 19
REMARK H PARENT
REMARK Flexibility Score: inf
ROOT
ATOM      1  C   UNL     1     132.131 129.786 134.211  1.00  0.00     0.032 C 
ENDROOT
BRANCH   1   2
ATOM      2  C   UNL     1     133.053 129.268 135.287  1.00  0.00    -0.028 C 
ATOM      3  C   UNL     1     133.054 129.706 136.566  1.00  0.00    -0.077 C 
ATOM      4  C   UNL     1     132.061 130.733 137.059  1.00  0.00     0.039 C 
BRANCH   3   5
ATOM      5  C   UNL     1     134.068 129.138 137.536  1.00  0.00     0.034 C 
BRANCH   5   6
ATOM      6  C   UNL     1     135.282 128.577 136.787  1.00  0.00     0.032 C 
BRANCH   6   7
ATOM      7  C   UNL     1     136.361 129.623 136.659  1.00  0.00    -0.028 C 
ATOM      8  C   UNL     1     137.946 131.107 135.509  1.00  0.00     0.039 C 
ATOM      9  C   UNL     1     136.901 130.022 135.486  1.00  0.00    -0.080 C 
ATOM     10  C   UNL     1     136.500 129.403 134.168  1.00  0.00     0.039 C 
ENDBRANCH   6   7
ENDBRANCH   5   6
ENDBRANCH   3   5
ENDBRANCH   1   2
BRANCH   1  11
ATOM     11  C   UNL     1     132.903 130.650 133.207  1.00  0.00     0.034 C 
BRANCH  11  12
ATOM     12  C   UNL     1     133.117 132.044 133.752  1.00  0.00    -0.077 C 
ATOM     13  C   UNL     1     134.380 132.466 133.993  1.00  0.00    -0.028 C 
ATOM     14  C   UNL     1     131.921 132.936 133.985  1.00  0.00     0.039 C 
BRANCH  13  15
ATOM     15  C   UNL     1     134.734 133.812 134.577  1.00  0.00     0.035 C 
BRANCH  15  16
ATOM     16  C   UNL     1     135.519 133.645 135.882  1.00  0.00     0.079 C 
BRANCH  16  17
ATOM     17  C   UNL     1     134.585 133.502 137.051  1.00  0.00     0.130 C 
ATOM     18  O   UNL     1     133.484 134.031 137.018  1.00  0.00    -0.300 OA
ATOM     19  C   UNL     1     134.988 132.697 138.250  1.00  0.00     0.087 C 
ENDBRANCH  16  17
ENDBRANCH  15  16
ENDBRANCH  13  15
ENDBRANCH  11  12
ENDBRANCH   1  11
TORSDOF 9
ENDMDL
MODEL 8
REMARK VINA RESULT:     0.002      8.877     11.159
REMARK INTER + INTRA:          -3.025
REMARK INTER:                   0.000
REMARK INTRA:                  -3.025
REMARK UNBOUND:                -3.028
REMARK SMILES CC(=O)CCC=C(C)CCC=C(C)CCC=C(C)C
REMARK SMILES IDX 10 1 11 2 12 3 13 4 14 5 15 6 16 7 18 8 17 9 19 10 9 11 7 12
REMARK SMILES IDX 6 13 8 14 5 15 4 16 2 17 3 18 1 19
REMARK H PARENT
REMARK Flexibility Score: inf
ROOT
ATOM      1  C   UNL     1     127.777 132.798 133.236  1.00  0.00     0.032 C 
ENDROOT
BRANCH   1   2
ATOM      2  C   UNL     1     126.510 132.241 132.637  1.00  0.00    -0.028 C 
ATOM      3  C   UNL     1     125.600 131.511 133.320  1.00  0.00    -0.077 C 
ATOM      4  C   UNL     1     125.745 131.238 134.800  1.00  0.00     0.039 C 
BRANCH   3   5
ATOM      5  C   UNL     1     124.394 130.967 132.587  1.00  0.00     0.034 C 
BRANCH   5   6
ATOM      6  C   UNL     1     124.676 130.856 131.084  1.00  0.00     0.032 C 
BRANCH   6   7
ATOM      7  C   UNL     1     125.194 129.482 130.738  1.00  0.00    -0.028 C 
ATOM      8  C   UNL     1     126.771 127.816 129.858  1.00  0.00     0.039 C 
ATOM      9  C   UNL     1     126.363 129.245 130.103  1.00  0.00    -0.080 C 
ATOM     10  C   UNL     1     127.255 130.366 129.624  1.00  0.00     0.039 C 
ENDBRANCH   6   7
ENDBRANCH   5   6
ENDBRANCH   3   5
ENDBRANCH   1   2
BRANCH   1  11
ATOM     11  C   UNL     1     129.001 132.032 132.721  1.00  0.00     0.034 C 
BRANCH  11  12
ATOM     12  C   UNL     1     129.172 130.728 133.470  1.00  0.00    -0.077 C 
ATOM     13  C   UNL     1     129.052 129.563 132.791  1.00  0.00    -0.028 C 
ATOM     14  C   UNL     1     129.496 130.762 134.944  1.00  0.00     0.039 C 
BRANCH  13  15
ATOM     15  C   UNL     1     129.154 128.195 133.419  1.00  0.00     0.035 C 
BRANCH  15  16
ATOM     16  C   UNL     1     127.865 127.399 133.190  1.00  0.00     0.079 C 
BRANCH  16  17
ATOM     17  C   UNL     1     126.855 127.699 134.262  1.00  0.00     0.130 C 
ATOM     18  O   UNL     1     127.231 128.020 135.380  1.00  0.00    -0.300 OA
ATOM     19  C   UNL     1     125.387 127.630 133.963  1.00  0.00     0.087 C 
ENDBRANCH  16  17
ENDBRANCH  15  16
ENDBRANCH  13  15
ENDBRANCH  11  12
ENDBRANCH   1  11
TORSDOF 9
ENDMDL
MODEL 9
REMARK VINA RESULT:     0.002     11.928     14.343
REMARK INTER + INTRA:          -3.025
REMARK INTER:                   0.000
REMARK INTRA:                  -3.025
REMARK UNBOUND:                -3.028
REMARK SMILES CC(=O)CCC=C(C)CCC=C(C)CCC=C(C)C
REMARK SMILES IDX 10 1 11 2 12 3 13 4 14 5 15 6 16 7 18 8 17 9 19 10 9 11 7 12
REMARK SMILES IDX 6 13 8 14 5 15 4 16 2 17 3 18 1 19
REMARK H PARENT
REMARK Flexibility Score: inf
ROOT
ATOM      1  C   UNL     1     132.018 127.137 134.362  1.00  0.00     0.032 C 
ENDROOT
BRANCH   1   2
ATOM      2  C   UNL     1     131.096 127.720 135.401  1.00  0.00    -0.028 C 
ATOM      3  C   UNL     1     131.510 128.396 136.497  1.00  0.00    -0.077 C 
ATOM      4  C   UNL     1     132.971 128.689 136.747  1.00  0.00     0.039 C 
BRANCH   3   5
ATOM      5  C   UNL     1     130.480 128.886 137.492  1.00  0.00     0.034 C 
BRANCH   5   6
ATOM      6  C   UNL     1     129.191 128.063 137.390  1.00  0.00     0.032 C 
BRANCH   6   7
ATOM      7  C   UNL     1     129.215 126.909 138.362  1.00  0.00    -0.028 C 
ATOM      8  C   UNL     1     129.140 124.563 139.088  1.00  0.00     0.039 C 
ATOM      9  C   UNL     1     129.053 125.615 138.012  1.00  0.00    -0.080 C 
ATOM     10  C   UNL     1     128.774 125.198 136.586  1.00  0.00     0.039 C 
ENDBRANCH   6   7
ENDBRANCH   5   6
ENDBRANCH   3   5
ENDBRANCH   1   2
BRANCH   1  11
ATOM     11  C   UNL     1     132.052 125.608 134.465  1.00  0.00     0.034 C 
BRANCH  11  12
ATOM     12  C   UNL     1     132.968 125.165 135.584  1.00  0.00    -0.077 C 
ATOM     13  C   UNL     1     132.438 124.508 136.642  1.00  0.00    -0.028 C 
ATOM     14  C   UNL     1     134.448 125.444 135.479  1.00  0.00     0.039 C 
BRANCH  13  15
ATOM     15  C   UNL     1     133.226 124.051 137.845  1.00  0.00     0.035 C 
BRANCH  15  16
ATOM     16  C   UNL     1     132.670 124.680 139.126  1.00  0.00     0.079 C 
BRANCH  16  17
ATOM     17  C   UNL     1     133.286 126.030 139.368  1.00  0.00     0.130 C 
ATOM     18  O   UNL     1     134.417 126.263 138.967  1.00  0.00    -0.300 OA
ATOM     19  C   UNL     1     132.514 127.100 140.080  1.00  0.00     0.087 C 
ENDBRANCH  16  17
ENDBRANCH  15  16
ENDBRANCH  13  15
ENDBRANCH  11  12
ENDBRANCH   1  11
TORSDOF 9
ENDMDL
