MODEL 1
REMARK VINA RESULT:    -3.492      0.000      0.000
REMARK INTER + INTRA:          -4.499
REMARK INTER:                  -4.308
REMARK INTRA:                  -0.190
REMARK UNBOUND:                -0.190
REMARK SMILES CCCCCC(=O)[O-]
REMARK SMILES IDX 4 1 5 2 6 3 7 4 8 5 3 6 2 7 1 8
REMARK H PARENT
REMARK Flexibility Score: inf
ROOT
ATOM      1  C   UNL     1      48.523  59.612  22.865  1.00  0.00     0.006 C 
ENDROOT
BRANCH   1   2
ATOM      2  C   UNL     1      49.800  60.459  22.778  1.00  0.00     0.053 C 
BRANCH   2   3
ATOM      3  C   UNL     1      50.633  60.027  21.613  1.00  0.00     0.041 C 
ATOM      4  O   UNL     1      50.419  60.506  20.468  1.00  0.00    -0.550 OA
ATOM      5  O   UNL     1      51.681  59.134  21.800  1.00  0.00    -0.550 OA
ENDBRANCH   2   3
ENDBRANCH   1   2
BRANCH   1   6
ATOM      6  C   UNL     1      47.244  60.459  22.765  1.00  0.00     0.000 C 
BRANCH   6   7
ATOM      7  C   UNL     1      46.255  59.912  21.726  1.00  0.00    -0.003 C 
ATOM      8  C   UNL     1      46.974  59.505  20.443  1.00  0.00     0.004 C 
ENDBRANCH   6   7
ENDBRANCH   1   6
TORSDOF 4
ENDMDL
MODEL 2
REMARK VINA RESULT:    -3.481     10.558     11.700
REMARK INTER + INTRA:          -4.486
REMARK INTER:                  -4.278
REMARK INTRA:                  -0.208
REMARK UNBOUND:                -0.190
REMARK SMILES CCCCCC(=O)[O-]
REMARK SMILES IDX 4 1 5 2 6 3 7 4 8 5 3 6 2 7 1 8
REMARK H PARENT
REMARK Flexibility Score: inf
ROOT
ATOM      1  C   UNL     1      44.710  62.409  12.005  1.00  0.00     0.006 C 
ENDROOT
BRANCH   1   2
ATOM      2  C   UNL     1      44.101  63.806  12.183  1.00  0.00     0.053 C 
BRANCH   2   3
ATOM      3  C   UNL     1      42.630  63.773  11.907  1.00  0.00     0.041 C 
ATOM      4  O   UNL     1      41.813  63.596  12.848  1.00  0.00    -0.550 OA
ATOM      5  O   UNL     1      42.160  63.989  10.618  1.00  0.00    -0.550 OA
ENDBRANCH   2   3
ENDBRANCH   1   2
BRANCH   1   6
ATOM      6  C   UNL     1      44.941  61.690  13.343  1.00  0.00     0.000 C 
BRANCH   6   7
ATOM      7  C   UNL     1      44.472  60.229  13.317  1.00  0.00    -0.003 C 
ATOM      8  C   UNL     1      43.107  60.103  12.644  1.00  0.00     0.004 C 
ENDBRANCH   6   7
ENDBRANCH   1   6
TORSDOF 4
ENDMDL
MODEL 3
REMARK VINA RESULT:    -3.473      2.406      3.858
REMARK INTER + INTRA:          -4.475
REMARK INTER:                  -4.281
REMARK INTRA:                  -0.194
REMARK UNBOUND:                -0.190
REMARK SMILES CCCCCC(=O)[O-]
REMARK SMILES IDX 4 1 5 2 6 3 7 4 8 5 3 6 2 7 1 8
REMARK H PARENT
REMARK Flexibility Score: inf
ROOT
ATOM      1  C   UNL     1      48.119  59.663  22.949  1.00  0.00     0.006 C 
ENDROOT
BRANCH   1   2
ATOM      2  C   UNL     1      46.871  60.477  22.581  1.00  0.00     0.053 C 
BRANCH   2   3
ATOM      3  C   UNL     1      46.216  59.906  21.364  1.00  0.00     0.041 C 
ATOM      4  O   UNL     1      44.971  59.718  21.343  1.00  0.00    -0.550 OA
ATOM      5  O   UNL     1      46.972  59.627  20.233  1.00  0.00    -0.550 OA
ENDBRANCH   2   3
ENDBRANCH   1   2
BRANCH   1   6
ATOM      6  C   UNL     1      49.425  60.414  22.647  1.00  0.00     0.000 C 
BRANCH   6   7
ATOM      7  C   UNL     1      50.367  59.617  21.734  1.00  0.00    -0.003 C 
ATOM      8  C   UNL     1      50.495  60.279  20.364  1.00  0.00     0.004 C 
ENDBRANCH   6   7
ENDBRANCH   1   6
TORSDOF 4
ENDMDL
MODEL 4
REMARK VINA RESULT:    -3.392      1.509      2.269
REMARK INTER + INTRA:          -4.376
REMARK INTER:                  -4.227
REMARK INTRA:                  -0.149
REMARK UNBOUND:                -0.190
REMARK SMILES CCCCCC(=O)[O-]
REMARK SMILES IDX 4 1 5 2 6 3 7 4 8 5 3 6 2 7 1 8
REMARK H PARENT
REMARK Flexibility Score: inf
ROOT
ATOM      1  C   UNL     1      50.138  59.386  22.073  1.00  0.00     0.006 C 
ENDROOT
BRANCH   1   2
ATOM      2  C   UNL     1      49.533  58.924  20.741  1.00  0.00     0.053 C 
BRANCH   2   3
ATOM      3  C   UNL     1      49.781  59.942  19.673  1.00  0.00     0.041 C 
ATOM      4  O   UNL     1      49.024  60.006  18.669  1.00  0.00    -0.550 OA
ATOM      5  O   UNL     1      50.819  60.856  19.811  1.00  0.00    -0.550 OA
ENDBRANCH   2   3
ENDBRANCH   1   2
BRANCH   1   6
ATOM      6  C   UNL     1      49.068  59.739  23.118  1.00  0.00     0.000 C 
BRANCH   6   7
ATOM      7  C   UNL     1      47.644  59.437  22.630  1.00  0.00    -0.003 C 
ATOM      8  C   UNL     1      46.744  60.662  22.769  1.00  0.00     0.004 C 
ENDBRANCH   6   7
ENDBRANCH   1   6
TORSDOF 4
ENDMDL
MODEL 5
REMARK VINA RESULT:    -3.382     10.664     11.568
REMARK INTER + INTRA:          -4.363
REMARK INTER:                  -4.104
REMARK INTRA:                  -0.259
REMARK UNBOUND:                -0.190
REMARK SMILES CCCCCC(=O)[O-]
REMARK SMILES IDX 4 1 5 2 6 3 7 4 8 5 3 6 2 7 1 8
REMARK H PARENT
REMARK Flexibility Score: inf
ROOT
ATOM      1  C   UNL     1      44.980  61.727  12.057  1.00  0.00     0.006 C 
ENDROOT
BRANCH   1   2
ATOM      2  C   UNL     1      44.389  60.555  12.851  1.00  0.00     0.053 C 
BRANCH   2   3
ATOM      3  C   UNL     1      43.176  60.016  12.161  1.00  0.00     0.041 C 
ATOM      4  O   UNL     1      42.396  59.235  12.766  1.00  0.00    -0.550 OA
ATOM      5  O   UNL     1      42.878  60.417  10.864  1.00  0.00    -0.550 OA
ENDBRANCH   2   3
ENDBRANCH   1   2
BRANCH   1   6
ATOM      6  C   UNL     1      44.609  63.094  12.655  1.00  0.00     0.000 C 
BRANCH   6   7
ATOM      7  C   UNL     1      43.517  63.813  11.850  1.00  0.00    -0.003 C 
ATOM      8  C   UNL     1      42.144  63.612  12.486  1.00  0.00     0.004 C 
ENDBRANCH   6   7
ENDBRANCH   1   6
TORSDOF 4
ENDMDL
MODEL 6
REMARK VINA RESULT:    -3.382     10.482     11.874
REMARK INTER + INTRA:          -4.363
REMARK INTER:                  -4.097
REMARK INTRA:                  -0.266
REMARK UNBOUND:                -0.190
REMARK SMILES CCCCCC(=O)[O-]
REMARK SMILES IDX 4 1 5 2 6 3 7 4 8 5 3 6 2 7 1 8
REMARK H PARENT
REMARK Flexibility Score: inf
ROOT
ATOM      1  C   UNL     1      43.799  63.749  12.249  1.00  0.00     0.006 C 
ENDROOT
BRANCH   1   2
ATOM      2  C   UNL     1      42.401  63.669  11.622  1.00  0.00     0.053 C 
BRANCH   2   3
ATOM      3  C   UNL     1      41.545  62.702  12.377  1.00  0.00     0.041 C 
ATOM      4  O   UNL     1      41.136  61.649  11.821  1.00  0.00    -0.550 OA
ATOM      5  O   UNL     1      41.241  62.937  13.712  1.00  0.00    -0.550 OA
ENDBRANCH   2   3
ENDBRANCH   1   2
BRANCH   1   6
ATOM      6  C   UNL     1      44.627  62.476  12.011  1.00  0.00     0.000 C 
BRANCH   6   7
ATOM      7  C   UNL     1      44.977  61.746  13.316  1.00  0.00    -0.003 C 
ATOM      8  C   UNL     1      44.312  60.373  13.373  1.00  0.00     0.004 C 
ENDBRANCH   6   7
ENDBRANCH   1   6
TORSDOF 4
ENDMDL
MODEL 7
REMARK VINA RESULT:    -3.366     10.696     11.832
REMARK INTER + INTRA:          -4.344
REMARK INTER:                  -4.126
REMARK INTRA:                  -0.217
REMARK UNBOUND:                -0.190
REMARK SMILES CCCCCC(=O)[O-]
REMARK SMILES IDX 4 1 5 2 6 3 7 4 8 5 3 6 2 7 1 8
REMARK H PARENT
REMARK Flexibility Score: inf
ROOT
ATOM      1  C   UNL     1      44.591  61.542  13.053  1.00  0.00     0.006 C 
ENDROOT
BRANCH   1   2
ATOM      2  C   UNL     1      44.676  63.037  12.718  1.00  0.00     0.053 C 
BRANCH   2   3
ATOM      3  C   UNL     1      43.355  63.537  12.224  1.00  0.00     0.041 C 
ATOM      4  O   UNL     1      43.277  64.140  11.122  1.00  0.00    -0.550 OA
ATOM      5  O   UNL     1      42.200  63.292  12.957  1.00  0.00    -0.550 OA
ENDBRANCH   2   3
ENDBRANCH   1   2
BRANCH   1   6
ATOM      6  C   UNL     1      44.279  60.677  11.821  1.00  0.00     0.000 C 
BRANCH   6   7
ATOM      7  C   UNL     1      45.378  60.756  10.751  1.00  0.00    -0.003 C 
ATOM      8  C   UNL     1      44.778  60.757   9.347  1.00  0.00     0.004 C 
ENDBRANCH   6   7
ENDBRANCH   1   6
TORSDOF 4
ENDMDL
MODEL 8
REMARK VINA RESULT:    -3.356     10.538     11.384
REMARK INTER + INTRA:          -4.332
REMARK INTER:                  -4.090
REMARK INTRA:                  -0.242
REMARK UNBOUND:                -0.190
REMARK SMILES CCCCCC(=O)[O-]
REMARK SMILES IDX 4 1 5 2 6 3 7 4 8 5 3 6 2 7 1 8
REMARK H PARENT
REMARK Flexibility Score: inf
ROOT
ATOM      1  C   UNL     1      44.378  63.029  12.632  1.00  0.00     0.006 C 
ENDROOT
BRANCH   1   2
ATOM      2  C   UNL     1      45.017  61.840  11.903  1.00  0.00     0.053 C 
BRANCH   2   3
ATOM      3  C   UNL     1      44.332  60.565  12.283  1.00  0.00     0.041 C 
ATOM      4  O   UNL     1      44.570  60.024  13.395  1.00  0.00    -0.550 OA
ATOM      5  O   UNL     1      43.392  60.000  11.431  1.00  0.00    -0.550 OA
ENDBRANCH   2   3
ENDBRANCH   1   2
BRANCH   1   6
ATOM      6  C   UNL     1      43.490  63.879  11.710  1.00  0.00     0.000 C 
BRANCH   6   7
ATOM      7  C   UNL     1      42.013  63.463  11.764  1.00  0.00    -0.003 C 
ATOM      8  C   UNL     1      41.624  62.999  13.165  1.00  0.00     0.004 C 
ENDBRANCH   6   7
ENDBRANCH   1   6
TORSDOF 4
ENDMDL
MODEL 9
REMARK VINA RESULT:    -3.343     10.243     11.605
REMARK INTER + INTRA:          -4.315
REMARK INTER:                  -4.083
REMARK INTRA:                  -0.232
REMARK UNBOUND:                -0.190
REMARK SMILES CCCCCC(=O)[O-]
REMARK SMILES IDX 4 1 5 2 6 3 7 4 8 5 3 6 2 7 1 8
REMARK H PARENT
REMARK Flexibility Score: inf
ROOT
ATOM      1  C   UNL     1      42.430  61.817  12.493  1.00  0.00     0.006 C 
ENDROOT
BRANCH   1   2
ATOM      2  C   UNL     1      42.262  63.335  12.648  1.00  0.00     0.053 C 
BRANCH   2   3
ATOM      3  C   UNL     1      43.340  64.058  11.904  1.00  0.00     0.041 C 
ATOM      4  O   UNL     1      44.531  64.013  12.311  1.00  0.00    -0.550 OA
ATOM      5  O   UNL     1      43.039  64.740  10.732  1.00  0.00    -0.550 OA
ENDBRANCH   2   3
ENDBRANCH   1   2
BRANCH   1   6
ATOM      6  C   UNL     1      43.130  61.174  13.701  1.00  0.00     0.000 C 
BRANCH   6   7
ATOM      7  C   UNL     1      44.479  60.541  13.332  1.00  0.00    -0.003 C 
ATOM      8  C   UNL     1      44.678  60.513  11.819  1.00  0.00     0.004 C 
ENDBRANCH   6   7
ENDBRANCH   1   6
TORSDOF 4
ENDMDL
