MODEL 1
REMARK VINA RESULT:    -3.373      0.000      0.000
REMARK INTER + INTRA:          -4.083
REMARK INTER:                  -3.964
REMARK INTRA:                  -0.119
REMARK UNBOUND:                -0.119
REMARK SMILES O=C([O-])CCC(=O)[O-]
REMARK SMILES IDX 4 1 2 2 1 3 3 4 5 5 6 6 7 7 8 8
REMARK H PARENT
REMARK Flexibility Score: inf
ROOT
ATOM      1  C   UNL     1      -0.382   4.059   4.414  1.00  0.00     0.059 C 
ENDROOT
BRANCH   1   2
ATOM      2  C   UNL     1      -0.310   3.943   2.922  1.00  0.00     0.042 C 
ATOM      3  O   UNL     1      -0.867   2.980   2.333  1.00  0.00    -0.550 OA
ATOM      4  O   UNL     1       0.405   4.880   2.185  1.00  0.00    -0.550 OA
ENDBRANCH   1   2
BRANCH   1   5
ATOM      5  C   UNL     1       0.213   5.383   4.906  1.00  0.00     0.059 C 
BRANCH   5   6
ATOM      6  C   UNL     1       1.500   5.172   5.642  1.00  0.00     0.042 C 
ATOM      7  O   UNL     1       2.462   4.585   5.082  1.00  0.00    -0.550 OA
ATOM      8  O   UNL     1       1.651   5.661   6.934  1.00  0.00    -0.550 OA
ENDBRANCH   5   6
ENDBRANCH   1   5
TORSDOF 3
ENDMDL
MODEL 2
REMARK VINA RESULT:    -3.331      0.285      3.924
REMARK INTER + INTRA:          -4.034
REMARK INTER:                  -3.911
REMARK INTRA:                  -0.123
REMARK UNBOUND:                -0.119
REMARK SMILES O=C([O-])CCC(=O)[O-]
REMARK SMILES IDX 4 1 2 2 1 3 3 4 5 5 6 6 7 7 8 8
REMARK H PARENT
REMARK Flexibility Score: inf
ROOT
ATOM      1  C   UNL     1       0.040   5.047   5.107  1.00  0.00     0.059 C 
ENDROOT
BRANCH   1   2
ATOM      2  C   UNL     1       1.373   5.107   5.788  1.00  0.00     0.042 C 
ATOM      3  O   UNL     1       2.419   4.789   5.163  1.00  0.00    -0.550 OA
ATOM      4  O   UNL     1       1.456   5.477   7.125  1.00  0.00    -0.550 OA
ENDBRANCH   1   2
BRANCH   1   5
ATOM      5  C   UNL     1      -0.207   3.674   4.471  1.00  0.00     0.059 C 
BRANCH   5   6
ATOM      6  C   UNL     1      -0.258   3.759   2.977  1.00  0.00     0.042 C 
ATOM      7  O   UNL     1      -0.974   2.958   2.322  1.00  0.00    -0.550 OA
ATOM      8  O   UNL     1       0.453   4.749   2.311  1.00  0.00    -0.550 OA
ENDBRANCH   5   6
ENDBRANCH   1   5
TORSDOF 3
ENDMDL
MODEL 3
REMARK VINA RESULT:    -3.331      2.026      2.925
REMARK INTER + INTRA:          -4.034
REMARK INTER:                  -3.917
REMARK INTRA:                  -0.117
REMARK UNBOUND:                -0.119
REMARK SMILES O=C([O-])CCC(=O)[O-]
REMARK SMILES IDX 4 1 2 2 1 3 3 4 5 5 6 6 7 7 8 8
REMARK H PARENT
REMARK Flexibility Score: inf
ROOT
ATOM      1  C   UNL     1      -0.456   4.355   4.388  1.00  0.00     0.059 C 
ENDROOT
BRANCH   1   2
ATOM      2  C   UNL     1      -0.245   4.042   2.939  1.00  0.00     0.042 C 
ATOM      3  O   UNL     1       0.485   4.783   2.230  1.00  0.00    -0.550 OA
ATOM      4  O   UNL     1      -0.885   2.952   2.363  1.00  0.00    -0.550 OA
ENDBRANCH   1   2
BRANCH   1   5
ATOM      5  C   UNL     1       0.515   3.574   5.281  1.00  0.00     0.059 C 
BRANCH   5   6
ATOM      6  C   UNL     1      -0.162   2.423   5.959  1.00  0.00     0.042 C 
ATOM      7  O   UNL     1      -0.434   2.480   7.186  1.00  0.00    -0.550 OA
ATOM      8  O   UNL     1      -0.530   1.302   5.224  1.00  0.00    -0.550 OA
ENDBRANCH   5   6
ENDBRANCH   1   5
TORSDOF 3
ENDMDL
MODEL 4
REMARK VINA RESULT:    -3.225      7.259      8.469
REMARK INTER + INTRA:          -3.910
REMARK INTER:                  -3.818
REMARK INTRA:                  -0.092
REMARK UNBOUND:                -0.119
REMARK SMILES O=C([O-])CCC(=O)[O-]
REMARK SMILES IDX 4 1 2 2 1 3 3 4 5 5 6 6 7 7 8 8
REMARK H PARENT
REMARK Flexibility Score: inf
ROOT
ATOM      1  C   UNL     1       2.503   6.402  -3.837  1.00  0.00     0.059 C 
ENDROOT
BRANCH   1   2
ATOM      2  C   UNL     1       3.891   6.472  -3.278  1.00  0.00     0.042 C 
ATOM      3  O   UNL     1       4.094   6.983  -2.146  1.00  0.00    -0.550 OA
ATOM      4  O   UNL     1       4.966   6.007  -4.026  1.00  0.00    -0.550 OA
ENDBRANCH   1   2
BRANCH   1   5
ATOM      5  C   UNL     1       1.749   7.722  -3.638  1.00  0.00     0.059 C 
BRANCH   5   6
ATOM      6  C   UNL     1       0.752   7.626  -2.524  1.00  0.00     0.042 C 
ATOM      7  O   UNL     1      -0.017   8.591  -2.277  1.00  0.00    -0.550 OA
ATOM      8  O   UNL     1       0.645   6.454  -1.785  1.00  0.00    -0.550 OA
ENDBRANCH   5   6
ENDBRANCH   1   5
TORSDOF 3
ENDMDL
MODEL 5
REMARK VINA RESULT:    -3.219      7.209      8.230
REMARK INTER + INTRA:          -3.903
REMARK INTER:                  -3.794
REMARK INTRA:                  -0.109
REMARK UNBOUND:                -0.119
REMARK SMILES O=C([O-])CCC(=O)[O-]
REMARK SMILES IDX 4 1 2 2 1 3 3 4 5 5 6 6 7 7 8 8
REMARK H PARENT
REMARK Flexibility Score: inf
ROOT
ATOM      1  C   UNL     1       1.800   7.718  -3.451  1.00  0.00     0.059 C 
ENDROOT
BRANCH   1   2
ATOM      2  C   UNL     1       0.720   7.492  -2.438  1.00  0.00     0.042 C 
ATOM      3  O   UNL     1       0.620   6.380  -1.855  1.00  0.00    -0.550 OA
ATOM      4  O   UNL     1      -0.200   8.497  -2.165  1.00  0.00    -0.550 OA
ENDBRANCH   1   2
BRANCH   1   5
ATOM      5  C   UNL     1       2.518   6.412  -3.810  1.00  0.00     0.059 C 
BRANCH   5   6
ATOM      6  C   UNL     1       3.894   6.358  -3.221  1.00  0.00     0.042 C 
ATOM      7  O   UNL     1       4.069   6.599  -1.998  1.00  0.00    -0.550 OA
ATOM      8  O   UNL     1       4.977   5.998  -4.013  1.00  0.00    -0.550 OA
ENDBRANCH   5   6
ENDBRANCH   1   5
TORSDOF 3
ENDMDL
MODEL 6
REMARK VINA RESULT:    -3.168      1.779      3.781
REMARK INTER + INTRA:          -3.843
REMARK INTER:                  -3.722
REMARK INTRA:                  -0.121
REMARK UNBOUND:                -0.119
REMARK SMILES O=C([O-])CCC(=O)[O-]
REMARK SMILES IDX 4 1 2 2 1 3 3 4 5 5 6 6 7 7 8 8
REMARK H PARENT
REMARK Flexibility Score: inf
ROOT
ATOM      1  C   UNL     1       0.834   4.213   5.108  1.00  0.00     0.059 C 
ENDROOT
BRANCH   1   2
ATOM      2  C   UNL     1       0.138   3.250   6.020  1.00  0.00     0.042 C 
ATOM      3  O   UNL     1       0.029   3.505   7.248  1.00  0.00    -0.550 OA
ATOM      4  O   UNL     1      -0.356   2.051   5.519  1.00  0.00    -0.550 OA
ENDBRANCH   1   2
BRANCH   1   5
ATOM      5  C   UNL     1      -0.158   4.937   4.191  1.00  0.00     0.059 C 
BRANCH   5   6
ATOM      6  C   UNL     1      -0.047   4.464   2.774  1.00  0.00     0.042 C 
ATOM      7  O   UNL     1       0.623   5.123   1.937  1.00  0.00    -0.550 OA
ATOM      8  O   UNL     1      -0.649   3.273   2.388  1.00  0.00    -0.550 OA
ENDBRANCH   5   6
ENDBRANCH   1   5
TORSDOF 3
ENDMDL
MODEL 7
REMARK VINA RESULT:    -2.972      1.703      3.456
REMARK INTER + INTRA:          -3.612
REMARK INTER:                  -3.453
REMARK INTRA:                  -0.159
REMARK UNBOUND:                -0.119
REMARK SMILES O=C([O-])CCC(=O)[O-]
REMARK SMILES IDX 4 1 2 2 1 3 3 4 5 5 6 6 7 7 8 8
REMARK H PARENT
REMARK Flexibility Score: inf
ROOT
ATOM      1  C   UNL     1       1.296   5.383   2.702  1.00  0.00     0.059 C 
ENDROOT
BRANCH   1   2
ATOM      2  C   UNL     1       2.402   4.775   3.509  1.00  0.00     0.042 C 
ATOM      3  O   UNL     1       3.147   3.896   3.003  1.00  0.00    -0.550 OA
ATOM      4  O   UNL     1       2.584   5.151   4.834  1.00  0.00    -0.550 OA
ENDBRANCH   1   2
BRANCH   1   5
ATOM      5  C   UNL     1      -0.073   5.133   3.343  1.00  0.00     0.059 C 
BRANCH   5   6
ATOM      6  C   UNL     1      -0.406   3.673   3.383  1.00  0.00     0.042 C 
ATOM      7  O   UNL     1      -0.764   3.076   2.335  1.00  0.00    -0.550 OA
ATOM      8  O   UNL     1      -0.281   2.963   4.571  1.00  0.00    -0.550 OA
ENDBRANCH   5   6
ENDBRANCH   1   5
TORSDOF 3
ENDMDL
MODEL 8
REMARK VINA RESULT:    -2.947      7.175      8.048
REMARK INTER + INTRA:          -3.583
REMARK INTER:                  -3.449
REMARK INTRA:                  -0.134
REMARK UNBOUND:                -0.119
REMARK SMILES O=C([O-])CCC(=O)[O-]
REMARK SMILES IDX 4 1 2 2 1 3 3 4 5 5 6 6 7 7 8 8
REMARK H PARENT
REMARK Flexibility Score: inf
ROOT
ATOM      1  C   UNL     1       2.768   7.503  -1.750  1.00  0.00     0.059 C 
ENDROOT
BRANCH   1   2
ATOM      2  C   UNL     1       1.635   7.029  -2.608  1.00  0.00     0.042 C 
ATOM      3  O   UNL     1       0.731   6.300  -2.120  1.00  0.00    -0.550 OA
ATOM      4  O   UNL     1       1.597   7.360  -3.957  1.00  0.00    -0.550 OA
ENDBRANCH   1   2
BRANCH   1   5
ATOM      5  C   UNL     1       4.064   7.644  -2.556  1.00  0.00     0.059 C 
BRANCH   5   6
ATOM      6  C   UNL     1       4.705   6.314  -2.808  1.00  0.00     0.042 C 
ATOM      7  O   UNL     1       5.016   5.973  -3.979  1.00  0.00    -0.550 OA
ATOM      8  O   UNL     1       4.998   5.470  -1.744  1.00  0.00    -0.550 OA
ENDBRANCH   5   6
ENDBRANCH   1   5
TORSDOF 3
ENDMDL
MODEL 9
REMARK VINA RESULT:    -2.932      1.534      3.359
REMARK INTER + INTRA:          -3.565
REMARK INTER:                  -3.419
REMARK INTRA:                  -0.146
REMARK UNBOUND:                -0.119
REMARK SMILES O=C([O-])CCC(=O)[O-]
REMARK SMILES IDX 4 1 2 2 1 3 3 4 5 5 6 6 7 7 8 8
REMARK H PARENT
REMARK Flexibility Score: inf
ROOT
ATOM      1  C   UNL     1      -0.100   3.356   4.733  1.00  0.00     0.059 C 
ENDROOT
BRANCH   1   2
ATOM      2  C   UNL     1       0.157   4.392   5.783  1.00  0.00     0.042 C 
ATOM      3  O   UNL     1      -0.800   5.044   6.279  1.00  0.00    -0.550 OA
ATOM      4  O   UNL     1       1.458   4.666   6.187  1.00  0.00    -0.550 OA
ENDBRANCH   1   2
BRANCH   1   5
ATOM      5  C   UNL     1      -0.493   3.995   3.396  1.00  0.00     0.059 C 
BRANCH   5   6
ATOM      6  C   UNL     1       0.659   4.719   2.770  1.00  0.00     0.042 C 
ATOM      7  O   UNL     1       1.796   4.183   2.726  1.00  0.00    -0.550 OA
ATOM      8  O   UNL     1       0.465   5.970   2.196  1.00  0.00    -0.550 OA
ENDBRANCH   5   6
ENDBRANCH   1   5
TORSDOF 3
ENDMDL
