MODEL 1
REMARK VINA RESULT:    -8.302      0.000      0.000
REMARK INTER + INTRA:          -8.302
REMARK INTER:                  -8.302
REMARK INTRA:                   0.000
REMARK UNBOUND:                 0.000
REMARK SMILES Cc1cc2cc3c(C)cc(=O)oc3c(C)c2o1
REMARK SMILES IDX 8 1 7 2 9 3 10 4 11 5 12 6 13 7 6 8 5 9 4 10 3 11 2 12 17 13
REMARK SMILES IDX 16 14 14 15 15 16 1 17
REMARK H PARENT
REMARK Flexibility Score: inf
ROOT
ATOM      1  C   UNL     1     -44.321 -40.625 101.918  1.00  0.00     0.045 C 
ATOM      2  C   UNL     1     -43.431 -40.430 103.119  1.00  0.00    -0.033 A 
ATOM      3  C   UNL     1     -43.639 -39.324 103.953  1.00  0.00     0.098 A 
ATOM      4  C   UNL     1     -42.819 -39.138 105.068  1.00  0.00     0.336 A 
ATOM      5  O   UNL     1     -43.002 -38.146 105.820  1.00  0.00    -0.246 OA
ATOM      6  O   UNL     1     -41.846 -39.997 105.342  1.00  0.00    -0.422 OA
ATOM      7  C   UNL     1     -41.594 -41.067 104.592  1.00  0.00     0.145 A 
ATOM      8  C   UNL     1     -42.390 -41.332 103.433  1.00  0.00     0.022 A 
ATOM      9  C   UNL     1     -42.120 -42.479 102.646  1.00  0.00     0.024 A 
ATOM     10  C   UNL     1     -41.079 -43.312 103.040  1.00  0.00     0.022 A 
ATOM     11  C   UNL     1     -40.610 -44.480 102.484  1.00  0.00     0.054 A 
ATOM     12  C   UNL     1     -39.566 -44.860 103.318  1.00  0.00     0.102 A 
ATOM     13  O   UNL     1     -39.415 -43.996 104.304  1.00  0.00    -0.461 OA
ATOM     14  C   UNL     1     -40.318 -43.058 104.148  1.00  0.00     0.140 A 
ATOM     15  C   UNL     1     -40.534 -41.935 104.951  1.00  0.00     0.036 A 
ATOM     16  C   UNL     1     -39.707 -41.688 106.181  1.00  0.00     0.052 C 
ATOM     17  C   UNL     1     -38.733 -46.086 103.150  1.00  0.00     0.087 C 
ENDROOT
TORSDOF 0
ENDMDL
MODEL 2
REMARK VINA RESULT:    -8.289      1.966      5.745
REMARK INTER + INTRA:          -8.289
REMARK INTER:                  -8.289
REMARK INTRA:                   0.000
REMARK UNBOUND:                 0.000
REMARK SMILES Cc1cc2cc3c(C)cc(=O)oc3c(C)c2o1
REMARK SMILES IDX 8 1 7 2 9 3 10 4 11 5 12 6 13 7 6 8 5 9 4 10 3 11 2 12 17 13
REMARK SMILES IDX 16 14 14 15 15 16 1 17
REMARK H PARENT
REMARK Flexibility Score: inf
ROOT
ATOM      1  C   UNL     1     -44.580 -40.737 101.974  1.00  0.00     0.045 C 
ATOM      2  C   UNL     1     -43.359 -40.900 102.843  1.00  0.00    -0.033 A 
ATOM      3  C   UNL     1     -42.503 -41.987 102.624  1.00  0.00     0.098 A 
ATOM      4  C   UNL     1     -41.369 -42.144 103.424  1.00  0.00     0.336 A 
ATOM      5  O   UNL     1     -40.596 -43.118 103.231  1.00  0.00    -0.246 OA
ATOM      6  O   UNL     1     -41.099 -41.275 104.390  1.00  0.00    -0.422 OA
ATOM      7  C   UNL     1     -41.869 -40.223 104.653  1.00  0.00     0.145 A 
ATOM      8  C   UNL     1     -43.049 -39.988 103.876  1.00  0.00     0.022 A 
ATOM      9  C   UNL     1     -43.858 -38.859 104.157  1.00  0.00     0.024 A 
ATOM     10  C   UNL     1     -43.465 -38.013 105.188  1.00  0.00     0.022 A 
ATOM     11  C   UNL     1     -44.041 -36.857 105.663  1.00  0.00     0.054 A 
ATOM     12  C   UNL     1     -43.198 -36.454 106.692  1.00  0.00     0.102 A 
ATOM     13  O   UNL     1     -42.188 -37.293 106.828  1.00  0.00    -0.461 OA
ATOM     14  C   UNL     1     -42.338 -38.238 105.931  1.00  0.00     0.140 A 
ATOM     15  C   UNL     1     -41.512 -39.343 105.703  1.00  0.00     0.036 A 
ATOM     16  C   UNL     1     -40.262 -39.558 106.508  1.00  0.00     0.052 C 
ATOM     17  C   UNL     1     -43.380 -35.230 107.524  1.00  0.00     0.087 C 
ENDROOT
TORSDOF 0
ENDMDL
MODEL 3
REMARK VINA RESULT:    -8.130      1.518      3.145
REMARK INTER + INTRA:          -8.130
REMARK INTER:                  -8.130
REMARK INTRA:                   0.000
REMARK UNBOUND:                 0.000
REMARK SMILES Cc1cc2cc3c(C)cc(=O)oc3c(C)c2o1
REMARK SMILES IDX 8 1 7 2 9 3 10 4 11 5 12 6 13 7 6 8 5 9 4 10 3 11 2 12 17 13
REMARK SMILES IDX 16 14 14 15 15 16 1 17
REMARK H PARENT
REMARK Flexibility Score: inf
ROOT
ATOM      1  C   UNL     1     -39.930 -39.125 107.499  1.00  0.00     0.045 C 
ATOM      2  C   UNL     1     -41.001 -39.097 106.439  1.00  0.00    -0.033 A 
ATOM      3  C   UNL     1     -41.853 -37.988 106.355  1.00  0.00     0.098 A 
ATOM      4  C   UNL     1     -42.847 -37.955 105.376  1.00  0.00     0.336 A 
ATOM      5  O   UNL     1     -43.615 -36.961 105.296  1.00  0.00    -0.246 OA
ATOM      6  O   UNL     1     -42.992 -38.964 104.526  1.00  0.00    -0.422 OA
ATOM      7  C   UNL     1     -42.219 -40.047 104.551  1.00  0.00     0.145 A 
ATOM      8  C   UNL     1     -41.174 -40.158 105.523  1.00  0.00     0.022 A 
ATOM      9  C   UNL     1     -40.350 -41.310 105.535  1.00  0.00     0.024 A 
ATOM     10  C   UNL     1     -40.592 -42.298 104.587  1.00  0.00     0.022 A 
ATOM     11  C   UNL     1     -39.952 -43.495 104.360  1.00  0.00     0.054 A 
ATOM     12  C   UNL     1     -40.631 -44.045 103.280  1.00  0.00     0.102 A 
ATOM     13  O   UNL     1     -41.602 -43.246 102.879  1.00  0.00    -0.461 OA
ATOM     14  C   UNL     1     -41.592 -42.192 103.658  1.00  0.00     0.140 A 
ATOM     15  C   UNL     1     -42.440 -41.082 103.611  1.00  0.00     0.036 A 
ATOM     16  C   UNL     1     -43.513 -40.969 102.565  1.00  0.00     0.052 C 
ATOM     17  C   UNL     1     -40.306 -45.350 102.633  1.00  0.00     0.087 C 
ENDROOT
TORSDOF 0
ENDMDL
MODEL 4
REMARK VINA RESULT:    -8.096      1.688      6.109
REMARK INTER + INTRA:          -8.096
REMARK INTER:                  -8.096
REMARK INTRA:                   0.000
REMARK UNBOUND:                 0.000
REMARK SMILES Cc1cc2cc3c(C)cc(=O)oc3c(C)c2o1
REMARK SMILES IDX 8 1 7 2 9 3 10 4 11 5 12 6 13 7 6 8 5 9 4 10 3 11 2 12 17 13
REMARK SMILES IDX 16 14 14 15 15 16 1 17
REMARK H PARENT
REMARK Flexibility Score: inf
ROOT
ATOM      1  C   UNL     1     -38.743 -41.985 106.604  1.00  0.00     0.045 C 
ATOM      2  C   UNL     1     -39.808 -42.054 105.541  1.00  0.00    -0.033 A 
ATOM      3  C   UNL     1     -39.896 -43.194 104.732  1.00  0.00     0.098 A 
ATOM      4  C   UNL     1     -40.881 -43.265 103.745  1.00  0.00     0.336 A 
ATOM      5  O   UNL     1     -40.965 -44.288 103.017  1.00  0.00    -0.246 OA
ATOM      6  O   UNL     1     -41.732 -42.263 103.567  1.00  0.00    -0.422 OA
ATOM      7  C   UNL     1     -41.704 -41.151 104.298  1.00  0.00     0.145 A 
ATOM      8  C   UNL     1     -40.727 -41.001 105.333  1.00  0.00     0.022 A 
ATOM      9  C   UNL     1     -40.710 -39.818 106.112  1.00  0.00     0.024 A 
ATOM     10  C   UNL     1     -41.661 -38.841 105.838  1.00  0.00     0.022 A 
ATOM     11  C   UNL     1     -41.885 -37.620 106.433  1.00  0.00     0.054 A 
ATOM     12  C   UNL     1     -42.969 -37.097 105.740  1.00  0.00     0.102 A 
ATOM     13  O   UNL     1     -43.375 -37.932 104.802  1.00  0.00    -0.461 OA
ATOM     14  C   UNL     1     -42.595 -38.985 104.848  1.00  0.00     0.140 A 
ATOM     15  C   UNL     1     -42.646 -40.126 104.043  1.00  0.00     0.036 A 
ATOM     16  C   UNL     1     -43.698 -40.280 102.981  1.00  0.00     0.052 C 
ATOM     17  C   UNL     1     -43.614 -35.781 106.018  1.00  0.00     0.087 C 
ENDROOT
TORSDOF 0
ENDMDL
MODEL 5
REMARK VINA RESULT:    -7.858      1.763      3.455
REMARK INTER + INTRA:          -7.858
REMARK INTER:                  -7.858
REMARK INTRA:                   0.000
REMARK UNBOUND:                 0.000
REMARK SMILES Cc1cc2cc3c(C)cc(=O)oc3c(C)c2o1
REMARK SMILES IDX 8 1 7 2 9 3 10 4 11 5 12 6 13 7 6 8 5 9 4 10 3 11 2 12 17 13
REMARK SMILES IDX 16 14 14 15 15 16 1 17
REMARK H PARENT
REMARK Flexibility Score: inf
ROOT
ATOM      1  C   UNL     1     -41.256 -40.145 108.561  1.00  0.00     0.045 C 
ATOM      2  C   UNL     1     -42.162 -39.780 107.414  1.00  0.00    -0.033 A 
ATOM      3  C   UNL     1     -43.081 -38.735 107.572  1.00  0.00     0.098 A 
ATOM      4  C   UNL     1     -43.922 -38.390 106.513  1.00  0.00     0.336 A 
ATOM      5  O   UNL     1     -44.750 -37.452 106.650  1.00  0.00    -0.246 OA
ATOM      6  O   UNL     1     -43.859 -39.044 105.360  1.00  0.00    -0.422 OA
ATOM      7  C   UNL     1     -43.011 -40.045 105.142  1.00  0.00     0.145 A 
ATOM      8  C   UNL     1     -42.112 -40.459 106.176  1.00  0.00     0.022 A 
ATOM      9  C   UNL     1     -41.205 -41.520 105.931  1.00  0.00     0.024 A 
ATOM     10  C   UNL     1     -41.225 -42.122 104.678  1.00  0.00     0.022 A 
ATOM     11  C   UNL     1     -40.462 -43.146 104.167  1.00  0.00     0.054 A 
ATOM     12  C   UNL     1     -40.930 -43.304 102.868  1.00  0.00     0.102 A 
ATOM     13  O   UNL     1     -41.895 -42.443 102.608  1.00  0.00    -0.461 OA
ATOM     14  C   UNL     1     -42.085 -41.726 103.690  1.00  0.00     0.140 A 
ATOM     15  C   UNL     1     -43.007 -40.694 103.883  1.00  0.00     0.036 A 
ATOM     16  C   UNL     1     -43.923 -40.253 102.777  1.00  0.00     0.052 C 
ATOM     17  C   UNL     1     -40.408 -44.293 101.879  1.00  0.00     0.087 C 
ENDROOT
TORSDOF 0
ENDMDL
MODEL 6
REMARK VINA RESULT:    -7.830      2.366      6.108
REMARK INTER + INTRA:          -7.830
REMARK INTER:                  -7.830
REMARK INTRA:                   0.000
REMARK UNBOUND:                 0.000
REMARK SMILES Cc1cc2cc3c(C)cc(=O)oc3c(C)c2o1
REMARK SMILES IDX 8 1 7 2 9 3 10 4 11 5 12 6 13 7 6 8 5 9 4 10 3 11 2 12 17 13
REMARK SMILES IDX 16 14 14 15 15 16 1 17
REMARK H PARENT
REMARK Flexibility Score: inf
ROOT
ATOM      1  C   UNL     1     -37.091 -40.366 106.276  1.00  0.00     0.045 C 
ATOM      2  C   UNL     1     -37.889 -40.775 105.066  1.00  0.00    -0.033 A 
ATOM      3  C   UNL     1     -37.297 -41.603 104.103  1.00  0.00     0.098 A 
ATOM      4  C   UNL     1     -38.031 -41.987 102.979  1.00  0.00     0.336 A 
ATOM      5  O   UNL     1     -37.504 -42.731 102.111  1.00  0.00    -0.246 OA
ATOM      6  O   UNL     1     -39.281 -41.574 102.815  1.00  0.00    -0.422 OA
ATOM      7  C   UNL     1     -39.903 -40.787 103.689  1.00  0.00     0.145 A 
ATOM      8  C   UNL     1     -39.222 -40.350 104.870  1.00  0.00     0.022 A 
ATOM      9  C   UNL     1     -39.895 -39.520 105.799  1.00  0.00     0.024 A 
ATOM     10  C   UNL     1     -41.210 -39.162 105.523  1.00  0.00     0.022 A 
ATOM     11  C   UNL     1     -42.095 -38.391 106.241  1.00  0.00     0.054 A 
ATOM     12  C   UNL     1     -43.252 -38.394 105.472  1.00  0.00     0.102 A 
ATOM     13  O   UNL     1     -43.087 -39.113 104.377  1.00  0.00    -0.461 OA
ATOM     14  C   UNL     1     -41.861 -39.579 104.394  1.00  0.00     0.140 A 
ATOM     15  C   UNL     1     -41.238 -40.388 103.440  1.00  0.00     0.036 A 
ATOM     16  C   UNL     1     -41.978 -40.861 102.220  1.00  0.00     0.052 C 
ATOM     17  C   UNL     1     -44.526 -37.704 105.830  1.00  0.00     0.087 C 
ENDROOT
TORSDOF 0
ENDMDL
MODEL 7
REMARK VINA RESULT:    -7.792      2.050      2.579
REMARK INTER + INTRA:          -7.792
REMARK INTER:                  -7.792
REMARK INTRA:                   0.000
REMARK UNBOUND:                 0.000
REMARK SMILES Cc1cc2cc3c(C)cc(=O)oc3c(C)c2o1
REMARK SMILES IDX 8 1 7 2 9 3 10 4 11 5 12 6 13 7 6 8 5 9 4 10 3 11 2 12 17 13
REMARK SMILES IDX 16 14 14 15 15 16 1 17
REMARK H PARENT
REMARK Flexibility Score: inf
ROOT
ATOM      1  C   UNL     1     -45.124 -40.563 105.496  1.00  0.00     0.045 C 
ATOM      2  C   UNL     1     -43.889 -40.467 106.354  1.00  0.00    -0.033 A 
ATOM      3  C   UNL     1     -43.973 -39.845 107.607  1.00  0.00     0.098 A 
ATOM      4  C   UNL     1     -42.833 -39.753 108.408  1.00  0.00     0.336 A 
ATOM      5  O   UNL     1     -42.902 -39.196 109.534  1.00  0.00    -0.246 OA
ATOM      6  O   UNL     1     -41.674 -40.247 107.992  1.00  0.00    -0.422 OA
ATOM      7  C   UNL     1     -41.524 -40.849 106.815  1.00  0.00     0.145 A 
ATOM      8  C   UNL     1     -42.645 -40.987 105.935  1.00  0.00     0.022 A 
ATOM      9  C   UNL     1     -42.478 -41.637 104.687  1.00  0.00     0.024 A 
ATOM     10  C   UNL     1     -41.216 -42.124 104.367  1.00  0.00     0.022 A 
ATOM     11  C   UNL     1     -40.775 -42.797 103.251  1.00  0.00     0.054 A 
ATOM     12  C   UNL     1     -39.428 -43.029 103.502  1.00  0.00     0.102 A 
ATOM     13  O   UNL     1     -39.079 -42.541 104.677  1.00  0.00    -0.461 OA
ATOM     14  C   UNL     1     -40.145 -41.991 105.208  1.00  0.00     0.140 A 
ATOM     15  C   UNL     1     -40.252 -41.347 106.444  1.00  0.00     0.036 A 
ATOM     16  C   UNL     1     -39.072 -41.237 107.368  1.00  0.00     0.052 C 
ATOM     17  C   UNL     1     -38.494 -43.750 102.589  1.00  0.00     0.087 C 
ENDROOT
TORSDOF 0
ENDMDL
MODEL 8
REMARK VINA RESULT:    -7.714      2.031      5.113
REMARK INTER + INTRA:          -7.714
REMARK INTER:                  -7.714
REMARK INTRA:                   0.000
REMARK UNBOUND:                 0.000
REMARK SMILES Cc1cc2cc3c(C)cc(=O)oc3c(C)c2o1
REMARK SMILES IDX 8 1 7 2 9 3 10 4 11 5 12 6 13 7 6 8 5 9 4 10 3 11 2 12 17 13
REMARK SMILES IDX 16 14 14 15 15 16 1 17
REMARK H PARENT
REMARK Flexibility Score: inf
ROOT
ATOM      1  C   UNL     1     -40.920 -43.722 101.883  1.00  0.00     0.045 C 
ATOM      2  C   UNL     1     -39.990 -43.014 102.834  1.00  0.00    -0.033 A 
ATOM      3  C   UNL     1     -38.607 -43.098 102.628  1.00  0.00     0.098 A 
ATOM      4  C   UNL     1     -37.739 -42.443 103.504  1.00  0.00     0.336 A 
ATOM      5  O   UNL     1     -36.495 -42.514 103.324  1.00  0.00    -0.246 OA
ATOM      6  O   UNL     1     -38.212 -41.744 104.528  1.00  0.00    -0.422 OA
ATOM      7  C   UNL     1     -39.513 -41.624 104.782  1.00  0.00     0.145 A 
ATOM      8  C   UNL     1     -40.470 -42.262 103.929  1.00  0.00     0.022 A 
ATOM      9  C   UNL     1     -41.853 -42.121 104.202  1.00  0.00     0.024 A 
ATOM     10  C   UNL     1     -42.229 -41.354 105.299  1.00  0.00     0.022 A 
ATOM     11  C   UNL     1     -43.477 -41.040 105.784  1.00  0.00     0.054 A 
ATOM     12  C   UNL     1     -43.222 -40.241 106.891  1.00  0.00     0.102 A 
ATOM     13  O   UNL     1     -41.924 -40.077 107.063  1.00  0.00    -0.461 OA
ATOM     14  C   UNL     1     -41.313 -40.744 106.113  1.00  0.00     0.140 A 
ATOM     15  C   UNL     1     -39.938 -40.862 105.897  1.00  0.00     0.036 A 
ATOM     16  C   UNL     1     -38.949 -40.161 106.784  1.00  0.00     0.052 C 
ATOM     17  C   UNL     1     -44.262 -39.623 107.765  1.00  0.00     0.087 C 
ENDROOT
TORSDOF 0
ENDMDL
MODEL 9
REMARK VINA RESULT:    -7.675      2.562      4.351
REMARK INTER + INTRA:          -7.675
REMARK INTER:                  -7.675
REMARK INTRA:                   0.000
REMARK UNBOUND:                 0.000
REMARK SMILES Cc1cc2cc3c(C)cc(=O)oc3c(C)c2o1
REMARK SMILES IDX 8 1 7 2 9 3 10 4 11 5 12 6 13 7 6 8 5 9 4 10 3 11 2 12 17 13
REMARK SMILES IDX 16 14 14 15 15 16 1 17
REMARK H PARENT
REMARK Flexibility Score: inf
ROOT
ATOM      1  C   UNL     1     -40.563 -40.649 109.540  1.00  0.00     0.045 C 
ATOM      2  C   UNL     1     -41.638 -40.286 108.548  1.00  0.00    -0.033 A 
ATOM      3  C   UNL     1     -42.882 -39.844 109.017  1.00  0.00     0.098 A 
ATOM      4  C   UNL     1     -43.882 -39.505 108.104  1.00  0.00     0.336 A 
ATOM      5  O   UNL     1     -45.001 -39.107 108.520  1.00  0.00    -0.246 OA
ATOM      6  O   UNL     1     -43.665 -39.599 106.799  1.00  0.00    -0.422 OA
ATOM      7  C   UNL     1     -42.508 -40.011 106.286  1.00  0.00     0.145 A 
ATOM      8  C   UNL     1     -41.430 -40.375 107.154  1.00  0.00     0.022 A 
ATOM      9  C   UNL     1     -40.199 -40.804 106.599  1.00  0.00     0.024 A 
ATOM     10  C   UNL     1     -40.088 -40.851 105.213  1.00  0.00     0.022 A 
ATOM     11  C   UNL     1     -39.026 -41.209 104.415  1.00  0.00     0.054 A 
ATOM     12  C   UNL     1     -39.505 -41.050 103.120  1.00  0.00     0.102 A 
ATOM     13  O   UNL     1     -40.754 -40.625 103.130  1.00  0.00    -0.461 OA
ATOM     14  C   UNL     1     -41.119 -40.503 104.384  1.00  0.00     0.140 A 
ATOM     15  C   UNL     1     -42.357 -40.086 104.880  1.00  0.00     0.036 A 
ATOM     16  C   UNL     1     -43.468 -39.679 103.954  1.00  0.00     0.052 C 
ATOM     17  C   UNL     1     -38.720 -41.298 101.875  1.00  0.00     0.087 C 
ENDROOT
TORSDOF 0
ENDMDL
