MODEL 1
REMARK VINA RESULT:    -3.517      0.000      0.000
REMARK INTER + INTRA:         -11.912
REMARK INTER:                  -8.040
REMARK INTRA:                  -3.872
REMARK UNBOUND:                -3.872
REMARK SMILES CCCCCCCCCCCCCCCCCCCCCCCC(=O)[O-]
REMARK SMILES IDX 13 1 14 2 15 3 16 4 17 5 18 6 19 7 20 8 21 9 22 10 23 11
REMARK SMILES IDX 24 12 25 13 26 14 12 15 11 16 10 17 9 18 8 19 7 20 6 21 5 22
REMARK SMILES IDX 4 23 3 24 2 25 1 26
REMARK H PARENT
REMARK Flexibility Score: inf
ROOT
ATOM      1  C   UNL     1      -6.758  30.395  47.274  1.00  0.00     0.000 C 
ENDROOT
BRANCH   1   2
ATOM      2  C   UNL     1      -7.257  31.696  46.609  1.00  0.00     0.000 C 
BRANCH   2   3
ATOM      3  C   UNL     1      -8.205  31.463  45.423  1.00  0.00     0.000 C 
BRANCH   3   4
ATOM      4  C   UNL     1      -8.939  30.117  45.495  1.00  0.00     0.000 C 
BRANCH   4   5
ATOM      5  C   UNL     1      -8.795  29.339  44.182  1.00  0.00     0.000 C 
BRANCH   5   6
ATOM      6  C   UNL     1      -9.152  27.857  44.377  1.00  0.00     0.000 C 
BRANCH   6   7
ATOM      7  C   UNL     1     -10.611  27.543  43.984  1.00  0.00     0.000 C 
BRANCH   7   8
ATOM      8  C   UNL     1     -10.886  27.631  42.470  1.00  0.00     0.000 C 
BRANCH   8   9
ATOM      9  C   UNL     1     -12.340  27.349  42.057  1.00  0.00     0.000 C 
BRANCH   9  10
ATOM     10  C   UNL     1     -12.824  25.954  42.490  1.00  0.00     0.006 C 
BRANCH  10  11
ATOM     11  C   UNL     1     -12.607  24.901  41.394  1.00  0.00     0.053 C 
BRANCH  11  12
ATOM     12  C   UNL     1     -11.502  23.953  41.747  1.00  0.00     0.041 C 
ATOM     13  O   UNL     1     -11.769  22.803  42.186  1.00  0.00    -0.550 OA
ATOM     14  O   UNL     1     -10.177  24.353  41.626  1.00  0.00    -0.550 OA
ENDBRANCH  11  12
ENDBRANCH  10  11
ENDBRANCH   9  10
ENDBRANCH   8   9
ENDBRANCH   7   8
ENDBRANCH   6   7
ENDBRANCH   5   6
ENDBRANCH   4   5
ENDBRANCH   3   4
ENDBRANCH   2   3
ENDBRANCH   1   2
BRANCH   1  15
ATOM     15  C   UNL     1      -5.276  30.119  46.960  1.00  0.00     0.000 C 
BRANCH  15  16
ATOM     16  C   UNL     1      -4.990  28.634  46.676  1.00  0.00     0.000 C 
BRANCH  16  17
ATOM     17  C   UNL     1      -6.244  27.770  46.444  1.00  0.00     0.000 C 
BRANCH  17  18
ATOM     18  C   UNL     1      -5.927  26.298  46.094  1.00  0.00    -0.000 C 
BRANCH  18  19
ATOM     19  C   UNL     1      -5.149  26.143  44.775  1.00  0.00    -0.000 C 
BRANCH  19  20
ATOM     20  C   UNL     1      -6.081  25.919  43.575  1.00  0.00    -0.000 C 
BRANCH  20  21
ATOM     21  C   UNL     1      -5.903  27.031  42.530  1.00  0.00    -0.000 C 
BRANCH  21  22
ATOM     22  C   UNL     1      -4.890  28.105  42.965  1.00  0.00    -0.000 C 
BRANCH  22  23
ATOM     23  C   UNL     1      -5.459  29.536  43.063  1.00  0.00    -0.000 C 
BRANCH  23  24
ATOM     24  C   UNL     1      -4.426  30.630  43.400  1.00  0.00    -0.000 C 
BRANCH  24  25
ATOM     25  C   UNL     1      -4.994  32.060  43.450  1.00  0.00    -0.003 C 
ATOM     26  C   UNL     1      -4.338  32.921  44.527  1.00  0.00     0.004 C 
ENDBRANCH  24  25
ENDBRANCH  23  24
ENDBRANCH  22  23
ENDBRANCH  21  22
ENDBRANCH  20  21
ENDBRANCH  19  20
ENDBRANCH  18  19
ENDBRANCH  17  18
ENDBRANCH  16  17
ENDBRANCH  15  16
ENDBRANCH   1  15
TORSDOF 22
ENDMDL
MODEL 2
REMARK VINA RESULT:    -3.500     12.531     15.366
REMARK INTER + INTRA:         -11.873
REMARK INTER:                  -8.830
REMARK INTRA:                  -3.043
REMARK UNBOUND:                -3.872
REMARK SMILES CCCCCCCCCCCCCCCCCCCCCCCC(=O)[O-]
REMARK SMILES IDX 13 1 14 2 15 3 16 4 17 5 18 6 19 7 20 8 21 9 22 10 23 11
REMARK SMILES IDX 24 12 25 13 26 14 12 15 11 16 10 17 9 18 8 19 7 20 6 21 5 22
REMARK SMILES IDX 4 23 3 24 2 25 1 26
REMARK H PARENT
REMARK Flexibility Score: inf
ROOT
ATOM      1  C   UNL     1     -20.088  23.740  33.799  1.00  0.00     0.000 C 
ENDROOT
BRANCH   1   2
ATOM      2  C   UNL     1     -19.803  22.488  34.656  1.00  0.00     0.000 C 
BRANCH   2   3
ATOM      3  C   UNL     1     -21.044  21.621  34.922  1.00  0.00     0.000 C 
BRANCH   3   4
ATOM      4  C   UNL     1     -21.856  22.092  36.137  1.00  0.00     0.000 C 
BRANCH   4   5
ATOM      5  C   UNL     1     -22.931  21.066  36.513  1.00  0.00     0.000 C 
BRANCH   5   6
ATOM      6  C   UNL     1     -23.127  21.006  38.036  1.00  0.00     0.000 C 
BRANCH   6   7
ATOM      7  C   UNL     1     -21.988  21.705  38.808  1.00  0.00     0.000 C 
BRANCH   7   8
ATOM      8  C   UNL     1     -22.390  22.192  40.214  1.00  0.00     0.000 C 
BRANCH   8   9
ATOM      9  C   UNL     1     -21.241  22.250  41.234  1.00  0.00     0.000 C 
BRANCH   9  10
ATOM     10  C   UNL     1     -20.506  20.906  41.381  1.00  0.00     0.006 C 
BRANCH  10  11
ATOM     11  C   UNL     1     -19.275  21.016  42.290  1.00  0.00     0.053 C 
BRANCH  11  12
ATOM     12  C   UNL     1     -18.070  20.372  41.674  1.00  0.00     0.041 C 
ATOM     13  O   UNL     1     -18.028  19.123  41.520  1.00  0.00    -0.550 OA
ATOM     14  O   UNL     1     -16.979  21.149  41.305  1.00  0.00    -0.550 OA
ENDBRANCH  11  12
ENDBRANCH  10  11
ENDBRANCH   9  10
ENDBRANCH   8   9
ENDBRANCH   7   8
ENDBRANCH   6   7
ENDBRANCH   5   6
ENDBRANCH   4   5
ENDBRANCH   3   4
ENDBRANCH   2   3
ENDBRANCH   1   2
BRANCH   1  15
ATOM     15  C   UNL     1     -18.899  24.097  32.889  1.00  0.00     0.000 C 
BRANCH  15  16
ATOM     16  C   UNL     1     -17.699  23.151  33.069  1.00  0.00     0.000 C 
BRANCH  16  17
ATOM     17  C   UNL     1     -16.461  23.798  33.720  1.00  0.00     0.000 C 
BRANCH  17  18
ATOM     18  C   UNL     1     -16.519  23.834  35.264  1.00  0.00    -0.000 C 
BRANCH  18  19
ATOM     19  C   UNL     1     -16.796  25.239  35.826  1.00  0.00    -0.000 C 
BRANCH  19  20
ATOM     20  C   UNL     1     -17.486  25.191  37.198  1.00  0.00    -0.000 C 
BRANCH  20  21
ATOM     21  C   UNL     1     -19.010  25.092  37.040  1.00  0.00    -0.000 C 
BRANCH  21  22
ATOM     22  C   UNL     1     -19.695  24.433  38.251  1.00  0.00    -0.000 C 
BRANCH  22  23
ATOM     23  C   UNL     1     -18.890  24.489  39.566  1.00  0.00    -0.000 C 
BRANCH  23  24
ATOM     24  C   UNL     1     -19.134  25.740  40.433  1.00  0.00    -0.000 C 
BRANCH  24  25
ATOM     25  C   UNL     1     -20.445  25.720  41.240  1.00  0.00    -0.003 C 
ATOM     26  C   UNL     1     -21.644  26.216  40.436  1.00  0.00     0.004 C 
ENDBRANCH  24  25
ENDBRANCH  23  24
ENDBRANCH  22  23
ENDBRANCH  21  22
ENDBRANCH  20  21
ENDBRANCH  19  20
ENDBRANCH  18  19
ENDBRANCH  17  18
ENDBRANCH  16  17
ENDBRANCH  15  16
ENDBRANCH   1  15
TORSDOF 22
ENDMDL
MODEL 3
REMARK VINA RESULT:    -3.483      1.740      4.167
REMARK INTER + INTRA:         -11.835
REMARK INTER:                  -8.528
REMARK INTRA:                  -3.307
REMARK UNBOUND:                -3.872
REMARK SMILES CCCCCCCCCCCCCCCCCCCCCCCC(=O)[O-]
REMARK SMILES IDX 13 1 14 2 15 3 16 4 17 5 18 6 19 7 20 8 21 9 22 10 23 11
REMARK SMILES IDX 24 12 25 13 26 14 12 15 11 16 10 17 9 18 8 19 7 20 6 21 5 22
REMARK SMILES IDX 4 23 3 24 2 25 1 26
REMARK H PARENT
REMARK Flexibility Score: inf
ROOT
ATOM      1  C   UNL     1      -4.218  29.297  46.476  1.00  0.00     0.000 C 
ENDROOT
BRANCH   1   2
ATOM      2  C   UNL     1      -5.600  28.684  46.789  1.00  0.00     0.000 C 
BRANCH   2   3
ATOM      3  C   UNL     1      -5.767  27.241  46.289  1.00  0.00     0.000 C 
BRANCH   3   4
ATOM      4  C   UNL     1      -7.099  27.007  45.563  1.00  0.00     0.000 C 
BRANCH   4   5
ATOM      5  C   UNL     1      -7.802  28.335  45.259  1.00  0.00     0.000 C 
BRANCH   5   6
ATOM      6  C   UNL     1      -9.205  28.096  44.678  1.00  0.00     0.000 C 
BRANCH   6   7
ATOM      7  C   UNL     1      -9.337  28.595  43.224  1.00  0.00     0.000 C 
BRANCH   7   8
ATOM      8  C   UNL     1     -10.149  27.658  42.309  1.00  0.00     0.000 C 
BRANCH   8   9
ATOM      9  C   UNL     1     -11.504  27.207  42.879  1.00  0.00     0.000 C 
BRANCH   9  10
ATOM     10  C   UNL     1     -12.209  26.167  41.991  1.00  0.00     0.006 C 
BRANCH  10  11
ATOM     11  C   UNL     1     -11.448  24.835  41.945  1.00  0.00     0.053 C 
BRANCH  11  12
ATOM     12  C   UNL     1     -12.369  23.678  41.700  1.00  0.00     0.041 C 
ATOM     13  O   UNL     1     -11.922  22.501  41.699  1.00  0.00    -0.550 OA
ATOM     14  O   UNL     1     -13.714  23.905  41.433  1.00  0.00    -0.550 OA
ENDBRANCH  11  12
ENDBRANCH  10  11
ENDBRANCH   9  10
ENDBRANCH   8   9
ENDBRANCH   7   8
ENDBRANCH   6   7
ENDBRANCH   5   6
ENDBRANCH   4   5
ENDBRANCH   3   4
ENDBRANCH   2   3
ENDBRANCH   1   2
BRANCH   1  15
ATOM     15  C   UNL     1      -4.301  30.373  45.377  1.00  0.00     0.000 C 
BRANCH  15  16
ATOM     16  C   UNL     1      -4.514  29.781  43.973  1.00  0.00     0.000 C 
BRANCH  16  17
ATOM     17  C   UNL     1      -5.747  30.324  43.226  1.00  0.00     0.000 C 
BRANCH  17  18
ATOM     18  C   UNL     1      -6.187  31.730  43.694  1.00  0.00    -0.000 C 
BRANCH  18  19
ATOM     19  C   UNL     1      -7.703  31.962  43.573  1.00  0.00    -0.000 C 
BRANCH  19  20
ATOM     20  C   UNL     1      -8.414  31.872  44.932  1.00  0.00    -0.000 C 
BRANCH  20  21
ATOM     21  C   UNL     1      -7.638  32.645  46.008  1.00  0.00    -0.000 C 
BRANCH  21  22
ATOM     22  C   UNL     1      -7.295  31.782  47.235  1.00  0.00    -0.000 C 
BRANCH  22  23
ATOM     23  C   UNL     1      -6.015  32.200  47.990  1.00  0.00    -0.000 C 
BRANCH  23  24
ATOM     24  C   UNL     1      -5.569  33.658  47.766  1.00  0.00    -0.000 C 
BRANCH  24  25
ATOM     25  C   UNL     1      -5.808  34.597  48.962  1.00  0.00    -0.003 C 
ATOM     26  C   UNL     1      -6.041  33.844  50.270  1.00  0.00     0.004 C 
ENDBRANCH  24  25
ENDBRANCH  23  24
ENDBRANCH  22  23
ENDBRANCH  21  22
ENDBRANCH  20  21
ENDBRANCH  19  20
ENDBRANCH  18  19
ENDBRANCH  17  18
ENDBRANCH  16  17
ENDBRANCH  15  16
ENDBRANCH   1  15
TORSDOF 22
ENDMDL
MODEL 4
REMARK VINA RESULT:    -3.432      4.387      8.041
REMARK INTER + INTRA:         -11.718
REMARK INTER:                  -7.667
REMARK INTRA:                  -4.051
REMARK UNBOUND:                -3.872
REMARK SMILES CCCCCCCCCCCCCCCCCCCCCCCC(=O)[O-]
REMARK SMILES IDX 13 1 14 2 15 3 16 4 17 5 18 6 19 7 20 8 21 9 22 10 23 11
REMARK SMILES IDX 24 12 25 13 26 14 12 15 11 16 10 17 9 18 8 19 7 20 6 21 5 22
REMARK SMILES IDX 4 23 3 24 2 25 1 26
REMARK H PARENT
REMARK Flexibility Score: inf
ROOT
ATOM      1  C   UNL     1      -6.321  25.989  43.544  1.00  0.00     0.000 C 
ENDROOT
BRANCH   1   2
ATOM      2  C   UNL     1      -5.854  26.109  45.010  1.00  0.00     0.000 C 
BRANCH   2   3
ATOM      3  C   UNL     1      -4.871  27.265  45.257  1.00  0.00     0.000 C 
BRANCH   3   4
ATOM      4  C   UNL     1      -5.267  28.147  46.448  1.00  0.00     0.000 C 
BRANCH   4   5
ATOM      5  C   UNL     1      -4.224  29.242  46.696  1.00  0.00     0.000 C 
BRANCH   5   6
ATOM      6  C   UNL     1      -4.898  30.600  46.945  1.00  0.00     0.000 C 
BRANCH   6   7
ATOM      7  C   UNL     1      -6.371  30.459  47.381  1.00  0.00     0.000 C 
BRANCH   7   8
ATOM      8  C   UNL     1      -7.215  31.730  47.164  1.00  0.00     0.000 C 
BRANCH   8   9
ATOM      9  C   UNL     1      -6.416  32.980  46.761  1.00  0.00     0.000 C 
BRANCH   9  10
ATOM     10  C   UNL     1      -6.461  34.087  47.829  1.00  0.00     0.006 C 
BRANCH  10  11
ATOM     11  C   UNL     1      -5.457  33.841  48.962  1.00  0.00     0.053 C 
BRANCH  11  12
ATOM     12  C   UNL     1      -6.091  34.001  50.310  1.00  0.00     0.041 C 
ATOM     13  O   UNL     1      -7.168  34.643  50.432  1.00  0.00    -0.550 OA
ATOM     14  O   UNL     1      -5.471  33.474  51.436  1.00  0.00    -0.550 OA
ENDBRANCH  11  12
ENDBRANCH  10  11
ENDBRANCH   9  10
ENDBRANCH   8   9
ENDBRANCH   7   8
ENDBRANCH   6   7
ENDBRANCH   5   6
ENDBRANCH   4   5
ENDBRANCH   3   4
ENDBRANCH   2   3
ENDBRANCH   1   2
BRANCH   1  15
ATOM     15  C   UNL     1      -5.137  25.968  42.562  1.00  0.00     0.000 C 
BRANCH  15  16
ATOM     16  C   UNL     1      -5.201  27.099  41.520  1.00  0.00     0.000 C 
BRANCH  16  17
ATOM     17  C   UNL     1      -6.621  27.446  41.034  1.00  0.00     0.000 C 
BRANCH  17  18
ATOM     18  C   UNL     1      -7.003  28.929  41.244  1.00  0.00    -0.000 C 
BRANCH  18  19
ATOM     19  C   UNL     1      -5.949  29.719  42.039  1.00  0.00    -0.000 C 
BRANCH  19  20
ATOM     20  C   UNL     1      -6.411  30.023  43.472  1.00  0.00    -0.000 C 
BRANCH  20  21
ATOM     21  C   UNL     1      -7.649  30.931  43.467  1.00  0.00    -0.000 C 
BRANCH  21  22
ATOM     22  C   UNL     1      -8.882  30.266  44.106  1.00  0.00    -0.000 C 
BRANCH  22  23
ATOM     23  C   UNL     1      -8.571  29.071  45.031  1.00  0.00    -0.000 C 
BRANCH  23  24
ATOM     24  C   UNL     1      -9.110  27.709  44.548  1.00  0.00    -0.000 C 
BRANCH  24  25
ATOM     25  C   UNL     1     -10.461  27.774  43.811  1.00  0.00    -0.003 C 
ATOM     26  C   UNL     1     -10.317  27.637  42.297  1.00  0.00     0.004 C 
ENDBRANCH  24  25
ENDBRANCH  23  24
ENDBRANCH  22  23
ENDBRANCH  21  22
ENDBRANCH  20  21
ENDBRANCH  19  20
ENDBRANCH  18  19
ENDBRANCH  17  18
ENDBRANCH  16  17
ENDBRANCH  15  16
ENDBRANCH   1  15
TORSDOF 22
ENDMDL
MODEL 5
REMARK VINA RESULT:    -3.431      1.669      4.229
REMARK INTER + INTRA:         -11.715
REMARK INTER:                  -7.052
REMARK INTRA:                  -4.663
REMARK UNBOUND:                -3.872
REMARK SMILES CCCCCCCCCCCCCCCCCCCCCCCC(=O)[O-]
REMARK SMILES IDX 13 1 14 2 15 3 16 4 17 5 18 6 19 7 20 8 21 9 22 10 23 11
REMARK SMILES IDX 24 12 25 13 26 14 12 15 11 16 10 17 9 18 8 19 7 20 6 21 5 22
REMARK SMILES IDX 4 23 3 24 2 25 1 26
REMARK H PARENT
REMARK Flexibility Score: inf
ROOT
ATOM      1  C   UNL     1      -7.657  27.390  45.470  1.00  0.00     0.000 C 
ENDROOT
BRANCH   1   2
ATOM      2  C   UNL     1      -6.472  26.758  46.230  1.00  0.00     0.000 C 
BRANCH   2   3
ATOM      3  C   UNL     1      -5.094  27.227  45.736  1.00  0.00     0.000 C 
BRANCH   3   4
ATOM      4  C   UNL     1      -4.747  26.700  44.338  1.00  0.00     0.000 C 
BRANCH   4   5
ATOM      5  C   UNL     1      -4.395  27.850  43.387  1.00  0.00     0.000 C 
BRANCH   5   6
ATOM      6  C   UNL     1      -5.071  27.662  42.019  1.00  0.00     0.000 C 
BRANCH   6   7
ATOM      7  C   UNL     1      -6.570  27.316  42.143  1.00  0.00     0.000 C 
BRANCH   7   8
ATOM      8  C   UNL     1      -7.511  28.374  41.535  1.00  0.00     0.000 C 
BRANCH   8   9
ATOM      9  C   UNL     1      -8.969  27.922  41.358  1.00  0.00     0.000 C 
BRANCH   9  10
ATOM     10  C   UNL     1      -9.907  28.494  42.436  1.00  0.00     0.006 C 
BRANCH  10  11
ATOM     11  C   UNL     1     -10.511  27.395  43.320  1.00  0.00     0.053 C 
BRANCH  11  12
ATOM     12  C   UNL     1     -11.584  26.634  42.603  1.00  0.00     0.041 C 
ATOM     13  O   UNL     1     -11.374  25.455  42.213  1.00  0.00    -0.550 OA
ATOM     14  O   UNL     1     -12.804  27.242  42.332  1.00  0.00    -0.550 OA
ENDBRANCH  11  12
ENDBRANCH  10  11
ENDBRANCH   9  10
ENDBRANCH   8   9
ENDBRANCH   7   8
ENDBRANCH   6   7
ENDBRANCH   5   6
ENDBRANCH   4   5
ENDBRANCH   3   4
ENDBRANCH   2   3
ENDBRANCH   1   2
BRANCH   1  15
ATOM     15  C   UNL     1      -7.457  28.900  45.244  1.00  0.00     0.000 C 
BRANCH  15  16
ATOM     16  C   UNL     1      -8.386  29.764  46.115  1.00  0.00     0.000 C 
BRANCH  16  17
ATOM     17  C   UNL     1      -7.660  30.772  47.027  1.00  0.00     0.000 C 
BRANCH  17  18
ATOM     18  C   UNL     1      -6.232  30.333  47.423  1.00  0.00    -0.000 C 
BRANCH  18  19
ATOM     19  C   UNL     1      -5.150  31.344  47.005  1.00  0.00    -0.000 C 
BRANCH  19  20
ATOM     20  C   UNL     1      -4.299  30.832  45.833  1.00  0.00    -0.000 C 
BRANCH  20  21
ATOM     21  C   UNL     1      -4.395  31.783  44.631  1.00  0.00    -0.000 C 
BRANCH  21  22
ATOM     22  C   UNL     1      -5.482  31.366  43.624  1.00  0.00    -0.000 C 
BRANCH  22  23
ATOM     23  C   UNL     1      -6.763  32.225  43.654  1.00  0.00    -0.000 C 
BRANCH  23  24
ATOM     24  C   UNL     1      -6.633  33.570  44.396  1.00  0.00    -0.000 C 
BRANCH  24  25
ATOM     25  C   UNL     1      -7.845  33.946  45.268  1.00  0.00    -0.003 C 
ATOM     26  C   UNL     1      -9.147  33.319  44.775  1.00  0.00     0.004 C 
ENDBRANCH  24  25
ENDBRANCH  23  24
ENDBRANCH  22  23
ENDBRANCH  21  22
ENDBRANCH  20  21
ENDBRANCH  19  20
ENDBRANCH  18  19
ENDBRANCH  17  18
ENDBRANCH  16  17
ENDBRANCH  15  16
ENDBRANCH   1  15
TORSDOF 22
ENDMDL
MODEL 6
REMARK VINA RESULT:    -3.366      2.052      4.320
REMARK INTER + INTRA:         -11.566
REMARK INTER:                  -8.228
REMARK INTRA:                  -3.338
REMARK UNBOUND:                -3.872
REMARK SMILES CCCCCCCCCCCCCCCCCCCCCCCC(=O)[O-]
REMARK SMILES IDX 13 1 14 2 15 3 16 4 17 5 18 6 19 7 20 8 21 9 22 10 23 11
REMARK SMILES IDX 24 12 25 13 26 14 12 15 11 16 10 17 9 18 8 19 7 20 6 21 5 22
REMARK SMILES IDX 4 23 3 24 2 25 1 26
REMARK H PARENT
REMARK Flexibility Score: inf
ROOT
ATOM      1  C   UNL     1      -5.306  27.465  45.845  1.00  0.00     0.000 C 
ENDROOT
BRANCH   1   2
ATOM      2  C   UNL     1      -6.763  27.001  46.052  1.00  0.00     0.000 C 
BRANCH   2   3
ATOM      3  C   UNL     1      -7.783  27.741  45.171  1.00  0.00     0.000 C 
BRANCH   3   4
ATOM      4  C   UNL     1      -8.109  29.150  45.685  1.00  0.00     0.000 C 
BRANCH   4   5
ATOM      5  C   UNL     1      -8.668  30.031  44.562  1.00  0.00     0.000 C 
BRANCH   5   6
ATOM      6  C   UNL     1      -8.529  29.340  43.197  1.00  0.00     0.000 C 
BRANCH   6   7
ATOM      7  C   UNL     1      -9.754  29.572  42.288  1.00  0.00     0.000 C 
BRANCH   7   8
ATOM      8  C   UNL     1     -10.458  28.276  41.841  1.00  0.00     0.000 C 
BRANCH   8   9
ATOM      9  C   UNL     1     -10.712  27.254  42.961  1.00  0.00     0.000 C 
BRANCH   9  10
ATOM     10  C   UNL     1     -11.936  26.362  42.689  1.00  0.00     0.006 C 
BRANCH  10  11
ATOM     11  C   UNL     1     -13.089  27.143  42.046  1.00  0.00     0.053 C 
BRANCH  11  12
ATOM     12  C   UNL     1     -14.043  26.236  41.330  1.00  0.00     0.041 C 
ATOM     13  O   UNL     1     -15.094  26.700  40.813  1.00  0.00    -0.550 OA
ATOM     14  O   UNL     1     -13.789  24.871  41.267  1.00  0.00    -0.550 OA
ENDBRANCH  11  12
ENDBRANCH  10  11
ENDBRANCH   9  10
ENDBRANCH   8   9
ENDBRANCH   7   8
ENDBRANCH   6   7
ENDBRANCH   5   6
ENDBRANCH   4   5
ENDBRANCH   3   4
ENDBRANCH   2   3
ENDBRANCH   1   2
BRANCH   1  15
ATOM     15  C   UNL     1      -4.904  28.564  46.845  1.00  0.00     0.000 C 
BRANCH  15  16
ATOM     16  C   UNL     1      -4.127  29.718  46.187  1.00  0.00     0.000 C 
BRANCH  16  17
ATOM     17  C   UNL     1      -4.355  29.866  44.670  1.00  0.00     0.000 C 
BRANCH  17  18
ATOM     18  C   UNL     1      -5.166  31.124  44.284  1.00  0.00    -0.000 C 
BRANCH  18  19
ATOM     19  C   UNL     1      -4.393  32.435  44.510  1.00  0.00    -0.000 C 
BRANCH  19  20
ATOM     20  C   UNL     1      -5.330  33.638  44.694  1.00  0.00    -0.000 C 
BRANCH  20  21
ATOM     21  C   UNL     1      -6.783  33.176  44.876  1.00  0.00    -0.000 C 
BRANCH  21  22
ATOM     22  C   UNL     1      -7.298  33.372  46.313  1.00  0.00    -0.000 C 
BRANCH  22  23
ATOM     23  C   UNL     1      -6.973  32.219  47.285  1.00  0.00    -0.000 C 
BRANCH  23  24
ATOM     24  C   UNL     1      -5.734  32.441  48.177  1.00  0.00    -0.000 C 
BRANCH  24  25
ATOM     25  C   UNL     1      -5.621  33.852  48.783  1.00  0.00    -0.003 C 
ATOM     26  C   UNL     1      -6.087  33.911  50.236  1.00  0.00     0.004 C 
ENDBRANCH  24  25
ENDBRANCH  23  24
ENDBRANCH  22  23
ENDBRANCH  21  22
ENDBRANCH  20  21
ENDBRANCH  19  20
ENDBRANCH  18  19
ENDBRANCH  17  18
ENDBRANCH  16  17
ENDBRANCH  15  16
ENDBRANCH   1  15
TORSDOF 22
ENDMDL
MODEL 7
REMARK VINA RESULT:    -3.331      1.547      4.569
REMARK INTER + INTRA:         -11.487
REMARK INTER:                  -7.454
REMARK INTRA:                  -4.033
REMARK UNBOUND:                -3.872
REMARK SMILES CCCCCCCCCCCCCCCCCCCCCCCC(=O)[O-]
REMARK SMILES IDX 13 1 14 2 15 3 16 4 17 5 18 6 19 7 20 8 21 9 22 10 23 11
REMARK SMILES IDX 24 12 25 13 26 14 12 15 11 16 10 17 9 18 8 19 7 20 6 21 5 22
REMARK SMILES IDX 4 23 3 24 2 25 1 26
REMARK H PARENT
REMARK Flexibility Score: inf
ROOT
ATOM      1  C   UNL     1      -4.513  30.498  45.007  1.00  0.00     0.000 C 
ENDROOT
BRANCH   1   2
ATOM      2  C   UNL     1      -4.814  28.985  44.965  1.00  0.00     0.000 C 
BRANCH   2   3
ATOM      3  C   UNL     1      -4.949  28.339  46.353  1.00  0.00     0.000 C 
BRANCH   3   4
ATOM      4  C   UNL     1      -6.064  27.287  46.420  1.00  0.00     0.000 C 
BRANCH   4   5
ATOM      5  C   UNL     1      -6.495  26.849  45.016  1.00  0.00     0.000 C 
BRANCH   5   6
ATOM      6  C   UNL     1      -5.739  25.586  44.574  1.00  0.00     0.000 C 
BRANCH   6   7
ATOM      7  C   UNL     1      -5.497  25.543  43.051  1.00  0.00     0.000 C 
BRANCH   7   8
ATOM      8  C   UNL     1      -6.426  24.573  42.295  1.00  0.00     0.000 C 
BRANCH   8   9
ATOM      9  C   UNL     1      -7.591  25.240  41.545  1.00  0.00     0.000 C 
BRANCH   9  10
ATOM     10  C   UNL     1      -8.843  24.348  41.472  1.00  0.00     0.006 C 
BRANCH  10  11
ATOM     11  C   UNL     1     -10.093  25.138  41.063  1.00  0.00     0.053 C 
BRANCH  11  12
ATOM     12  C   UNL     1     -11.327  24.604  41.723  1.00  0.00     0.041 C 
ATOM     13  O   UNL     1     -12.201  25.395  42.169  1.00  0.00    -0.550 OA
ATOM     14  O   UNL     1     -11.495  23.234  41.881  1.00  0.00    -0.550 OA
ENDBRANCH  11  12
ENDBRANCH  10  11
ENDBRANCH   9  10
ENDBRANCH   8   9
ENDBRANCH   7   8
ENDBRANCH   6   7
ENDBRANCH   5   6
ENDBRANCH   4   5
ENDBRANCH   3   4
ENDBRANCH   2   3
ENDBRANCH   1   2
BRANCH   1  15
ATOM     15  C   UNL     1      -4.013  30.948  46.392  1.00  0.00     0.000 C 
BRANCH  15  16
ATOM     16  C   UNL     1      -4.564  32.322  46.811  1.00  0.00     0.000 C 
BRANCH  16  17
ATOM     17  C   UNL     1      -5.780  32.268  47.756  1.00  0.00     0.000 C 
BRANCH  17  18
ATOM     18  C   UNL     1      -7.132  32.122  47.020  1.00  0.00    -0.000 C 
BRANCH  18  19
ATOM     19  C   UNL     1      -7.717  30.702  47.103  1.00  0.00    -0.000 C 
BRANCH  19  20
ATOM     20  C   UNL     1      -8.430  30.290  45.807  1.00  0.00    -0.000 C 
BRANCH  20  21
ATOM     21  C   UNL     1      -8.441  31.447  44.797  1.00  0.00    -0.000 C 
BRANCH  21  22
ATOM     22  C   UNL     1      -8.449  30.965  43.335  1.00  0.00    -0.000 C 
BRANCH  22  23
ATOM     23  C   UNL     1      -7.983  29.509  43.126  1.00  0.00    -0.000 C 
BRANCH  23  24
ATOM     24  C   UNL     1      -8.860  28.670  42.175  1.00  0.00    -0.000 C 
BRANCH  24  25
ATOM     25  C   UNL     1     -10.228  28.261  42.750  1.00  0.00    -0.003 C 
ATOM     26  C   UNL     1     -10.118  27.566  44.105  1.00  0.00     0.004 C 
ENDBRANCH  24  25
ENDBRANCH  23  24
ENDBRANCH  22  23
ENDBRANCH  21  22
ENDBRANCH  20  21
ENDBRANCH  19  20
ENDBRANCH  18  19
ENDBRANCH  17  18
ENDBRANCH  16  17
ENDBRANCH  15  16
ENDBRANCH   1  15
TORSDOF 22
ENDMDL
MODEL 8
REMARK VINA RESULT:    -3.327      2.051      4.885
REMARK INTER + INTRA:         -11.478
REMARK INTER:                  -6.764
REMARK INTRA:                  -4.714
REMARK UNBOUND:                -3.872
REMARK SMILES CCCCCCCCCCCCCCCCCCCCCCCC(=O)[O-]
REMARK SMILES IDX 13 1 14 2 15 3 16 4 17 5 18 6 19 7 20 8 21 9 22 10 23 11
REMARK SMILES IDX 24 12 25 13 26 14 12 15 11 16 10 17 9 18 8 19 7 20 6 21 5 22
REMARK SMILES IDX 4 23 3 24 2 25 1 26
REMARK H PARENT
REMARK Flexibility Score: inf
ROOT
ATOM      1  C   UNL     1      -7.415  29.508  46.044  1.00  0.00     0.000 C 
ENDROOT
BRANCH   1   2
ATOM      2  C   UNL     1      -5.877  29.405  46.114  1.00  0.00     0.000 C 
BRANCH   2   3
ATOM      3  C   UNL     1      -5.365  28.019  46.536  1.00  0.00     0.000 C 
BRANCH   3   4
ATOM      4  C   UNL     1      -6.373  26.896  46.260  1.00  0.00     0.000 C 
BRANCH   4   5
ATOM      5  C   UNL     1      -5.714  25.735  45.507  1.00  0.00     0.000 C 
BRANCH   5   6
ATOM      6  C   UNL     1      -4.737  26.252  44.439  1.00  0.00     0.000 C 
BRANCH   6   7
ATOM      7  C   UNL     1      -5.414  26.455  43.067  1.00  0.00     0.000 C 
BRANCH   7   8
ATOM      8  C   UNL     1      -5.552  27.932  42.648  1.00  0.00     0.000 C 
BRANCH   8   9
ATOM      9  C   UNL     1      -6.993  28.402  42.392  1.00  0.00     0.000 C 
BRANCH   9  10
ATOM     10  C   UNL     1      -8.044  27.490  43.050  1.00  0.00     0.006 C 
BRANCH  10  11
ATOM     11  C   UNL     1      -9.274  27.287  42.156  1.00  0.00     0.053 C 
BRANCH  11  12
ATOM     12  C   UNL     1     -10.549  27.565  42.895  1.00  0.00     0.041 C 
ATOM     13  O   UNL     1     -11.597  27.862  42.262  1.00  0.00    -0.550 OA
ATOM     14  O   UNL     1     -10.568  27.531  44.284  1.00  0.00    -0.550 OA
ENDBRANCH  11  12
ENDBRANCH  10  11
ENDBRANCH   9  10
ENDBRANCH   8   9
ENDBRANCH   7   8
ENDBRANCH   6   7
ENDBRANCH   5   6
ENDBRANCH   4   5
ENDBRANCH   3   4
ENDBRANCH   2   3
ENDBRANCH   1   2
BRANCH   1  15
ATOM     15  C   UNL     1      -7.950  30.704  46.852  1.00  0.00     0.000 C 
BRANCH  15  16
ATOM     16  C   UNL     1      -6.833  31.629  47.365  1.00  0.00     0.000 C 
BRANCH  16  17
ATOM     17  C   UNL     1      -6.885  33.068  46.818  1.00  0.00     0.000 C 
BRANCH  17  18
ATOM     18  C   UNL     1      -5.496  33.651  46.471  1.00  0.00    -0.000 C 
BRANCH  18  19
ATOM     19  C   UNL     1      -5.466  34.379  45.116  1.00  0.00    -0.000 C 
BRANCH  19  20
ATOM     20  C   UNL     1      -4.378  33.827  44.184  1.00  0.00    -0.000 C 
BRANCH  20  21
ATOM     21  C   UNL     1      -4.174  32.322  44.412  1.00  0.00    -0.000 C 
BRANCH  21  22
ATOM     22  C   UNL     1      -4.899  31.455  43.367  1.00  0.00    -0.000 C 
BRANCH  22  23
ATOM     23  C   UNL     1      -5.434  32.223  42.140  1.00  0.00    -0.000 C 
BRANCH  23  24
ATOM     24  C   UNL     1      -6.970  32.321  42.046  1.00  0.00    -0.000 C 
BRANCH  24  25
ATOM     25  C   UNL     1      -7.719  31.985  43.348  1.00  0.00    -0.003 C 
ATOM     26  C   UNL     1      -9.054  31.286  43.100  1.00  0.00     0.004 C 
ENDBRANCH  24  25
ENDBRANCH  23  24
ENDBRANCH  22  23
ENDBRANCH  21  22
ENDBRANCH  20  21
ENDBRANCH  19  20
ENDBRANCH  18  19
ENDBRANCH  17  18
ENDBRANCH  16  17
ENDBRANCH  15  16
ENDBRANCH   1  15
TORSDOF 22
ENDMDL
MODEL 9
REMARK VINA RESULT:    -3.272      2.604      6.512
REMARK INTER + INTRA:         -11.352
REMARK INTER:                  -7.597
REMARK INTRA:                  -3.755
REMARK UNBOUND:                -3.872
REMARK SMILES CCCCCCCCCCCCCCCCCCCCCCCC(=O)[O-]
REMARK SMILES IDX 13 1 14 2 15 3 16 4 17 5 18 6 19 7 20 8 21 9 22 10 23 11
REMARK SMILES IDX 24 12 25 13 26 14 12 15 11 16 10 17 9 18 8 19 7 20 6 21 5 22
REMARK SMILES IDX 4 23 3 24 2 25 1 26
REMARK H PARENT
REMARK Flexibility Score: inf
ROOT
ATOM      1  C   UNL     1      -5.310  30.199  46.897  1.00  0.00     0.000 C 
ENDROOT
BRANCH   1   2
ATOM      2  C   UNL     1      -6.802  30.112  47.279  1.00  0.00     0.000 C 
BRANCH   2   3
ATOM      3  C   UNL     1      -7.611  31.369  46.922  1.00  0.00     0.000 C 
BRANCH   3   4
ATOM      4  C   UNL     1      -6.840  32.671  47.179  1.00  0.00     0.000 C 
BRANCH   4   5
ATOM      5  C   UNL     1      -7.536  33.865  46.515  1.00  0.00     0.000 C 
BRANCH   5   6
ATOM      6  C   UNL     1      -6.597  34.566  45.520  1.00  0.00     0.000 C 
BRANCH   6   7
ATOM      7  C   UNL     1      -5.262  33.816  45.336  1.00  0.00     0.000 C 
BRANCH   7   8
ATOM      8  C   UNL     1      -5.054  33.243  43.920  1.00  0.00     0.000 C 
BRANCH   8   9
ATOM      9  C   UNL     1      -4.547  31.792  43.874  1.00  0.00     0.000 C 
BRANCH   9  10
ATOM     10  C   UNL     1      -5.544  30.833  43.200  1.00  0.00     0.006 C 
BRANCH  10  11
ATOM     11  C   UNL     1      -6.993  31.322  43.325  1.00  0.00     0.053 C 
BRANCH  11  12
ATOM     12  C   UNL     1      -7.697  31.317  42.002  1.00  0.00     0.041 C 
ATOM     13  O   UNL     1      -8.872  30.874  41.911  1.00  0.00    -0.550 OA
ATOM     14  O   UNL     1      -7.040  31.768  40.864  1.00  0.00    -0.550 OA
ENDBRANCH  11  12
ENDBRANCH  10  11
ENDBRANCH   9  10
ENDBRANCH   8   9
ENDBRANCH   7   8
ENDBRANCH   6   7
ENDBRANCH   5   6
ENDBRANCH   4   5
ENDBRANCH   3   4
ENDBRANCH   2   3
ENDBRANCH   1   2
BRANCH   1  15
ATOM     15  C   UNL     1      -4.656  28.809  46.804  1.00  0.00     0.000 C 
BRANCH  15  16
ATOM     16  C   UNL     1      -5.152  27.991  45.599  1.00  0.00     0.000 C 
BRANCH  16  17
ATOM     17  C   UNL     1      -5.999  26.756  45.962  1.00  0.00     0.000 C 
BRANCH  17  18
ATOM     18  C   UNL     1      -7.504  26.924  45.656  1.00  0.00    -0.000 C 
BRANCH  18  19
ATOM     19  C   UNL     1      -7.780  27.867  44.471  1.00  0.00    -0.000 C 
BRANCH  19  20
ATOM     20  C   UNL     1      -9.144  28.563  44.589  1.00  0.00    -0.000 C 
BRANCH  20  21
ATOM     21  C   UNL     1     -10.267  27.661  44.059  1.00  0.00    -0.000 C 
BRANCH  21  22
ATOM     22  C   UNL     1      -9.947  27.053  42.681  1.00  0.00    -0.000 C 
BRANCH  22  23
ATOM     23  C   UNL     1     -10.593  27.780  41.482  1.00  0.00    -0.000 C 
BRANCH  23  24
ATOM     24  C   UNL     1     -12.075  28.163  41.669  1.00  0.00    -0.000 C 
BRANCH  24  25
ATOM     25  C   UNL     1     -13.066  26.992  41.542  1.00  0.00    -0.003 C 
ATOM     26  C   UNL     1     -14.451  27.326  42.091  1.00  0.00     0.004 C 
ENDBRANCH  24  25
ENDBRANCH  23  24
ENDBRANCH  22  23
ENDBRANCH  21  22
ENDBRANCH  20  21
ENDBRANCH  19  20
ENDBRANCH  18  19
ENDBRANCH  17  18
ENDBRANCH  16  17
ENDBRANCH  15  16
ENDBRANCH   1  15
TORSDOF 22
ENDMDL
