MODEL 1
REMARK VINA RESULT:    -3.813      0.000      0.000
REMARK INTER + INTRA:          -8.668
REMARK INTER:                  -6.710
REMARK INTRA:                  -1.958
REMARK UNBOUND:                -1.958
REMARK SMILES CCCCCCCCCCCCCCC(=O)[O-]
REMARK SMILES IDX 9 1 10 2 11 3 12 4 13 5 14 6 15 7 16 8 17 9 8 10 7 11 6 12
REMARK SMILES IDX 5 13 4 14 3 15 2 16 1 17
REMARK H PARENT
REMARK Flexibility Score: inf
ROOT
ATOM      1  C   UNL     1       5.041  -0.295 400.338  1.00  0.00     0.000 C 
ENDROOT
BRANCH   1   2
ATOM      2  C   UNL     1       5.018  -1.830 400.443  1.00  0.00     0.000 C 
BRANCH   2   3
ATOM      3  C   UNL     1       3.622  -2.421 400.189  1.00  0.00     0.000 C 
BRANCH   3   4
ATOM      4  C   UNL     1       3.233  -3.483 401.233  1.00  0.00     0.000 C 
BRANCH   4   5
ATOM      5  C   UNL     1       4.458  -4.122 401.916  1.00  0.00     0.006 C 
BRANCH   5   6
ATOM      6  C   UNL     1       4.119  -5.031 403.108  1.00  0.00     0.053 C 
BRANCH   6   7
ATOM      7  C   UNL     1       4.270  -6.482 402.768  1.00  0.00     0.041 C 
ATOM      8  O   UNL     1       4.987  -7.229 403.485  1.00  0.00    -0.550 OA
ATOM      9  O   UNL     1       3.594  -7.016 401.679  1.00  0.00    -0.550 OA
ENDBRANCH   6   7
ENDBRANCH   5   6
ENDBRANCH   4   5
ENDBRANCH   3   4
ENDBRANCH   2   3
ENDBRANCH   1   2
BRANCH   1  10
ATOM     10  C   UNL     1       3.632   0.319 400.321  1.00  0.00     0.000 C 
BRANCH  10  11
ATOM     11  C   UNL     1       3.645   1.833 400.599  1.00  0.00    -0.000 C 
BRANCH  11  12
ATOM     12  C   UNL     1       4.601   2.214 401.740  1.00  0.00    -0.000 C 
BRANCH  12  13
ATOM     13  C   UNL     1       4.089   1.763 403.120  1.00  0.00    -0.000 C 
BRANCH  13  14
ATOM     14  C   UNL     1       5.210   1.216 404.019  1.00  0.00    -0.000 C 
BRANCH  14  15
ATOM     15  C   UNL     1       5.232  -0.321 404.066  1.00  0.00    -0.000 C 
BRANCH  15  16
ATOM     16  C   UNL     1       3.834  -0.936 403.893  1.00  0.00    -0.003 C 
ATOM     17  C   UNL     1       3.458  -1.883 405.031  1.00  0.00     0.004 C 
ENDBRANCH  15  16
ENDBRANCH  14  15
ENDBRANCH  13  14
ENDBRANCH  12  13
ENDBRANCH  11  12
ENDBRANCH  10  11
ENDBRANCH   1  10
TORSDOF 13
ENDMDL
MODEL 2
REMARK VINA RESULT:    -3.774      2.163      3.026
REMARK INTER + INTRA:          -8.600
REMARK INTER:                  -6.779
REMARK INTRA:                  -1.820
REMARK UNBOUND:                -1.958
REMARK SMILES CCCCCCCCCCCCCCC(=O)[O-]
REMARK SMILES IDX 9 1 10 2 11 3 12 4 13 5 14 6 15 7 16 8 17 9 8 10 7 11 6 12
REMARK SMILES IDX 5 13 4 14 3 15 2 16 1 17
REMARK H PARENT
REMARK Flexibility Score: inf
ROOT
ATOM      1  C   UNL     1       4.340  -1.058 400.901  1.00  0.00     0.000 C 
ENDROOT
BRANCH   1   2
ATOM      2  C   UNL     1       3.836  -2.333 400.200  1.00  0.00     0.000 C 
BRANCH   2   3
ATOM      3  C   UNL     1       3.290  -3.376 401.187  1.00  0.00     0.000 C 
BRANCH   3   4
ATOM      4  C   UNL     1       3.783  -3.140 402.626  1.00  0.00     0.000 C 
BRANCH   4   5
ATOM      5  C   UNL     1       2.869  -3.791 403.682  1.00  0.00     0.006 C 
BRANCH   5   6
ATOM      6  C   UNL     1       2.421  -2.843 404.805  1.00  0.00     0.053 C 
BRANCH   6   7
ATOM      7  C   UNL     1       3.235  -3.023 406.050  1.00  0.00     0.041 C 
ATOM      8  O   UNL     1       3.869  -4.094 406.243  1.00  0.00    -0.550 OA
ATOM      9  O   UNL     1       3.320  -1.996 406.980  1.00  0.00    -0.550 OA
ENDBRANCH   6   7
ENDBRANCH   5   6
ENDBRANCH   4   5
ENDBRANCH   3   4
ENDBRANCH   2   3
ENDBRANCH   1   2
BRANCH   1  10
ATOM     10  C   UNL     1       5.497  -0.385 400.145  1.00  0.00     0.000 C 
BRANCH  10  11
ATOM     11  C   UNL     1       5.419   1.152 400.195  1.00  0.00    -0.000 C 
BRANCH  11  12
ATOM     12  C   UNL     1       4.021   1.658 400.585  1.00  0.00    -0.000 C 
BRANCH  12  13
ATOM     13  C   UNL     1       4.050   2.618 401.787  1.00  0.00    -0.000 C 
BRANCH  13  14
ATOM     14  C   UNL     1       4.994   2.142 402.904  1.00  0.00    -0.000 C 
BRANCH  14  15
ATOM     15  C   UNL     1       4.295   1.214 403.912  1.00  0.00    -0.000 C 
BRANCH  15  16
ATOM     16  C   UNL     1       5.182   0.035 404.341  1.00  0.00    -0.003 C 
ATOM     17  C   UNL     1       6.580   0.090 403.724  1.00  0.00     0.004 C 
ENDBRANCH  15  16
ENDBRANCH  14  15
ENDBRANCH  13  14
ENDBRANCH  12  13
ENDBRANCH  11  12
ENDBRANCH  10  11
ENDBRANCH   1  10
TORSDOF 13
ENDMDL
MODEL 3
REMARK VINA RESULT:    -3.682      2.413      4.136
REMARK INTER + INTRA:          -8.438
REMARK INTER:                  -6.356
REMARK INTRA:                  -2.082
REMARK UNBOUND:                -1.958
REMARK SMILES CCCCCCCCCCCCCCC(=O)[O-]
REMARK SMILES IDX 9 1 10 2 11 3 12 4 13 5 14 6 15 7 16 8 17 9 8 10 7 11 6 12
REMARK SMILES IDX 5 13 4 14 3 15 2 16 1 17
REMARK H PARENT
REMARK Flexibility Score: inf
ROOT
ATOM      1  C   UNL     1       5.898   0.369 404.450  1.00  0.00     0.000 C 
ENDROOT
BRANCH   1   2
ATOM      2  C   UNL     1       5.516  -0.794 403.517  1.00  0.00     0.000 C 
BRANCH   2   3
ATOM      3  C   UNL     1       4.003  -1.064 403.495  1.00  0.00     0.000 C 
BRANCH   3   4
ATOM      4  C   UNL     1       3.660  -2.519 403.863  1.00  0.00     0.000 C 
BRANCH   4   5
ATOM      5  C   UNL     1       2.695  -2.617 405.061  1.00  0.00     0.006 C 
BRANCH   5   6
ATOM      6  C   UNL     1       3.321  -2.242 406.413  1.00  0.00     0.053 C 
BRANCH   6   7
ATOM      7  C   UNL     1       4.581  -3.007 406.680  1.00  0.00     0.041 C 
ATOM      8  O   UNL     1       4.539  -4.254 406.854  1.00  0.00    -0.550 OA
ATOM      9  O   UNL     1       5.803  -2.348 406.706  1.00  0.00    -0.550 OA
ENDBRANCH   6   7
ENDBRANCH   5   6
ENDBRANCH   4   5
ENDBRANCH   3   4
ENDBRANCH   2   3
ENDBRANCH   1   2
BRANCH   1  10
ATOM     10  C   UNL     1       5.035   1.621 404.222  1.00  0.00     0.000 C 
BRANCH  10  11
ATOM     11  C   UNL     1       5.398   2.358 402.921  1.00  0.00    -0.000 C 
BRANCH  11  12
ATOM     12  C   UNL     1       4.164   2.674 402.060  1.00  0.00    -0.000 C 
BRANCH  12  13
ATOM     13  C   UNL     1       4.141   1.881 400.741  1.00  0.00    -0.000 C 
BRANCH  13  14
ATOM     14  C   UNL     1       5.507   1.265 400.395  1.00  0.00    -0.000 C 
BRANCH  14  15
ATOM     15  C   UNL     1       5.385  -0.163 399.837  1.00  0.00    -0.000 C 
BRANCH  15  16
ATOM     16  C   UNL     1       3.940  -0.686 399.866  1.00  0.00    -0.003 C 
ATOM     17  C   UNL     1       3.862  -2.204 400.020  1.00  0.00     0.004 C 
ENDBRANCH  15  16
ENDBRANCH  14  15
ENDBRANCH  13  14
ENDBRANCH  12  13
ENDBRANCH  11  12
ENDBRANCH  10  11
ENDBRANCH   1  10
TORSDOF 13
ENDMDL
MODEL 4
REMARK VINA RESULT:    -3.670      1.726      4.089
REMARK INTER + INTRA:          -8.417
REMARK INTER:                  -6.574
REMARK INTRA:                  -1.843
REMARK UNBOUND:                -1.958
REMARK SMILES CCCCCCCCCCCCCCC(=O)[O-]
REMARK SMILES IDX 9 1 10 2 11 3 12 4 13 5 14 6 15 7 16 8 17 9 8 10 7 11 6 12
REMARK SMILES IDX 5 13 4 14 3 15 2 16 1 17
REMARK H PARENT
REMARK Flexibility Score: inf
ROOT
ATOM      1  C   UNL     1       4.520   2.505 402.626  1.00  0.00     0.000 C 
ENDROOT
BRANCH   1   2
ATOM      2  C   UNL     1       5.734   2.167 403.511  1.00  0.00     0.000 C 
BRANCH   2   3
ATOM      3  C   UNL     1       5.896   0.657 403.743  1.00  0.00     0.000 C 
BRANCH   3   4
ATOM      4  C   UNL     1       4.601  -0.004 404.247  1.00  0.00     0.000 C 
BRANCH   4   5
ATOM      5  C   UNL     1       4.861  -1.324 404.999  1.00  0.00     0.006 C 
BRANCH   5   6
ATOM      6  C   UNL     1       3.658  -1.845 405.801  1.00  0.00     0.053 C 
BRANCH   6   7
ATOM      7  C   UNL     1       3.147  -3.147 405.266  1.00  0.00     0.041 C 
ATOM      8  O   UNL     1       2.098  -3.178 404.570  1.00  0.00    -0.550 OA
ATOM      9  O   UNL     1       3.848  -4.321 405.507  1.00  0.00    -0.550 OA
ENDBRANCH   6   7
ENDBRANCH   5   6
ENDBRANCH   4   5
ENDBRANCH   3   4
ENDBRANCH   2   3
ENDBRANCH   1   2
BRANCH   1  10
ATOM     10  C   UNL     1       4.734   2.119 401.154  1.00  0.00     0.000 C 
BRANCH  10  11
ATOM     11  C   UNL     1       3.462   1.545 400.504  1.00  0.00    -0.000 C 
BRANCH  11  12
ATOM     12  C   UNL     1       3.652   0.100 400.015  1.00  0.00    -0.000 C 
BRANCH  12  13
ATOM     13  C   UNL     1       5.098  -0.399 400.183  1.00  0.00    -0.000 C 
BRANCH  13  14
ATOM     14  C   UNL     1       5.170  -1.855 400.672  1.00  0.00    -0.000 C 
BRANCH  14  15
ATOM     15  C   UNL     1       3.979  -2.237 401.566  1.00  0.00    -0.000 C 
BRANCH  15  16
ATOM     16  C   UNL     1       3.388  -3.610 401.205  1.00  0.00    -0.003 C 
ATOM     17  C   UNL     1       4.083  -4.763 401.927  1.00  0.00     0.004 C 
ENDBRANCH  15  16
ENDBRANCH  14  15
ENDBRANCH  13  14
ENDBRANCH  12  13
ENDBRANCH  11  12
ENDBRANCH  10  11
ENDBRANCH   1  10
TORSDOF 13
ENDMDL
MODEL 5
REMARK VINA RESULT:    -3.667      4.489      6.203
REMARK INTER + INTRA:          -8.412
REMARK INTER:                  -5.963
REMARK INTRA:                  -2.449
REMARK UNBOUND:                -1.958
REMARK SMILES CCCCCCCCCCCCCCC(=O)[O-]
REMARK SMILES IDX 9 1 10 2 11 3 12 4 13 5 14 6 15 7 16 8 17 9 8 10 7 11 6 12
REMARK SMILES IDX 5 13 4 14 3 15 2 16 1 17
REMARK H PARENT
REMARK Flexibility Score: inf
ROOT
ATOM      1  C   UNL     1       6.815   0.801 403.091  1.00  0.00     0.000 C 
ENDROOT
BRANCH   1   2
ATOM      2  C   UNL     1       7.212  -0.589 402.563  1.00  0.00     0.000 C 
BRANCH   2   3
ATOM      3  C   UNL     1       7.426  -0.607 401.041  1.00  0.00     0.000 C 
BRANCH   3   4
ATOM      4  C   UNL     1       7.457   0.807 400.434  1.00  0.00     0.000 C 
BRANCH   4   5
ATOM      5  C   UNL     1       7.137   0.815 398.927  1.00  0.00     0.006 C 
BRANCH   5   6
ATOM      6  C   UNL     1       8.320   0.430 398.025  1.00  0.00     0.053 C 
BRANCH   6   7
ATOM      7  C   UNL     1       9.496   1.338 398.224  1.00  0.00     0.041 C 
ATOM      8  O   UNL     1      10.571   0.886 398.699  1.00  0.00    -0.550 OA
ATOM      9  O   UNL     1       9.413   2.673 397.853  1.00  0.00    -0.550 OA
ENDBRANCH   6   7
ENDBRANCH   5   6
ENDBRANCH   4   5
ENDBRANCH   3   4
ENDBRANCH   2   3
ENDBRANCH   1   2
BRANCH   1  10
ATOM     10  C   UNL     1       5.628   0.746 404.068  1.00  0.00     0.000 C 
BRANCH  10  11
ATOM     11  C   UNL     1       4.368   1.424 403.502  1.00  0.00    -0.000 C 
BRANCH  11  12
ATOM     12  C   UNL     1       4.687   2.404 402.362  1.00  0.00    -0.000 C 
BRANCH  12  13
ATOM     13  C   UNL     1       4.036   1.996 401.028  1.00  0.00    -0.000 C 
BRANCH  13  14
ATOM     14  C   UNL     1       3.446   0.577 401.065  1.00  0.00    -0.000 C 
BRANCH  14  15
ATOM     15  C   UNL     1       3.820  -0.251 399.824  1.00  0.00    -0.000 C 
BRANCH  15  16
ATOM     16  C   UNL     1       4.079  -1.729 400.157  1.00  0.00    -0.003 C 
ATOM     17  C   UNL     1       3.962  -2.028 401.652  1.00  0.00     0.004 C 
ENDBRANCH  15  16
ENDBRANCH  14  15
ENDBRANCH  13  14
ENDBRANCH  12  13
ENDBRANCH  11  12
ENDBRANCH  10  11
ENDBRANCH   1  10
TORSDOF 13
ENDMDL
MODEL 6
REMARK VINA RESULT:    -3.628      1.729      3.640
REMARK INTER + INTRA:          -8.343
REMARK INTER:                  -6.598
REMARK INTRA:                  -1.745
REMARK UNBOUND:                -1.958
REMARK SMILES CCCCCCCCCCCCCCC(=O)[O-]
REMARK SMILES IDX 9 1 10 2 11 3 12 4 13 5 14 6 15 7 16 8 17 9 8 10 7 11 6 12
REMARK SMILES IDX 5 13 4 14 3 15 2 16 1 17
REMARK H PARENT
REMARK Flexibility Score: inf
ROOT
ATOM      1  C   UNL     1       5.069   0.042 404.191  1.00  0.00     0.000 C 
ENDROOT
BRANCH   1   2
ATOM      2  C   UNL     1       4.017  -0.967 403.696  1.00  0.00     0.000 C 
BRANCH   2   3
ATOM      3  C   UNL     1       3.610  -1.979 404.778  1.00  0.00     0.000 C 
BRANCH   3   4
ATOM      4  C   UNL     1       2.943  -3.235 404.190  1.00  0.00     0.000 C 
BRANCH   4   5
ATOM      5  C   UNL     1       3.953  -4.361 403.895  1.00  0.00     0.006 C 
BRANCH   5   6
ATOM      6  C   UNL     1       3.877  -4.924 402.468  1.00  0.00     0.053 C 
BRANCH   6   7
ATOM      7  C   UNL     1       4.029  -3.851 401.433  1.00  0.00     0.041 C 
ATOM      8  O   UNL     1       5.175  -3.453 401.096  1.00  0.00    -0.550 OA
ATOM      9  O   UNL     1       2.905  -3.315 400.817  1.00  0.00    -0.550 OA
ENDBRANCH   6   7
ENDBRANCH   5   6
ENDBRANCH   4   5
ENDBRANCH   3   4
ENDBRANCH   2   3
ENDBRANCH   1   2
BRANCH   1  10
ATOM     10  C   UNL     1       4.580   1.497 404.107  1.00  0.00     0.000 C 
BRANCH  10  11
ATOM     11  C   UNL     1       5.123   2.231 402.867  1.00  0.00    -0.000 C 
BRANCH  11  12
ATOM     12  C   UNL     1       4.006   2.869 402.026  1.00  0.00    -0.000 C 
BRANCH  12  13
ATOM     13  C   UNL     1       3.923   2.282 400.605  1.00  0.00    -0.000 C 
BRANCH  13  14
ATOM     14  C   UNL     1       3.327   0.865 400.583  1.00  0.00    -0.000 C 
BRANCH  14  15
ATOM     15  C   UNL     1       4.313  -0.181 400.037  1.00  0.00    -0.000 C 
BRANCH  15  16
ATOM     16  C   UNL     1       5.715   0.401 399.793  1.00  0.00    -0.003 C 
ATOM     17  C   UNL     1       6.798  -0.296 400.616  1.00  0.00     0.004 C 
ENDBRANCH  15  16
ENDBRANCH  14  15
ENDBRANCH  13  14
ENDBRANCH  12  13
ENDBRANCH  11  12
ENDBRANCH  10  11
ENDBRANCH   1  10
TORSDOF 13
ENDMDL
MODEL 7
REMARK VINA RESULT:    -3.549      2.278      3.316
REMARK INTER + INTRA:          -8.205
REMARK INTER:                  -6.752
REMARK INTRA:                  -1.453
REMARK UNBOUND:                -1.958
REMARK SMILES CCCCCCCCCCCCCCC(=O)[O-]
REMARK SMILES IDX 9 1 10 2 11 3 12 4 13 5 14 6 15 7 16 8 17 9 8 10 7 11 6 12
REMARK SMILES IDX 5 13 4 14 3 15 2 16 1 17
REMARK H PARENT
REMARK Flexibility Score: inf
ROOT
ATOM      1  C   UNL     1       5.072  -1.511 400.264  1.00  0.00     0.000 C 
ENDROOT
BRANCH   1   2
ATOM      2  C   UNL     1       3.668  -2.097 400.030  1.00  0.00     0.000 C 
BRANCH   2   3
ATOM      3  C   UNL     1       3.223  -3.042 401.157  1.00  0.00     0.000 C 
BRANCH   3   4
ATOM      4  C   UNL     1       4.359  -3.962 401.637  1.00  0.00     0.000 C 
BRANCH   4   5
ATOM      5  C   UNL     1       4.687  -3.773 403.131  1.00  0.00     0.006 C 
BRANCH   5   6
ATOM      6  C   UNL     1       4.195  -2.445 403.726  1.00  0.00     0.053 C 
BRANCH   6   7
ATOM      7  C   UNL     1       3.108  -2.650 404.737  1.00  0.00     0.041 C 
ATOM      8  O   UNL     1       3.122  -2.009 405.820  1.00  0.00    -0.550 OA
ATOM      9  O   UNL     1       2.064  -3.524 404.467  1.00  0.00    -0.550 OA
ENDBRANCH   6   7
ENDBRANCH   5   6
ENDBRANCH   4   5
ENDBRANCH   3   4
ENDBRANCH   2   3
ENDBRANCH   1   2
BRANCH   1  10
ATOM     10  C   UNL     1       5.117   0.014 400.074  1.00  0.00     0.000 C 
BRANCH  10  11
ATOM     11  C   UNL     1       3.736   0.670 400.245  1.00  0.00    -0.000 C 
BRANCH  11  12
ATOM     12  C   UNL     1       3.705   1.687 401.398  1.00  0.00    -0.000 C 
BRANCH  12  13
ATOM     13  C   UNL     1       3.611   1.015 402.780  1.00  0.00    -0.000 C 
BRANCH  13  14
ATOM     14  C   UNL     1       4.717   1.479 403.742  1.00  0.00    -0.000 C 
BRANCH  14  15
ATOM     15  C   UNL     1       5.718   2.435 403.073  1.00  0.00    -0.000 C 
BRANCH  15  16
ATOM     16  C   UNL     1       6.683   3.079 404.083  1.00  0.00    -0.003 C 
ATOM     17  C   UNL     1       6.702   4.605 403.994  1.00  0.00     0.004 C 
ENDBRANCH  15  16
ENDBRANCH  14  15
ENDBRANCH  13  14
ENDBRANCH  12  13
ENDBRANCH  11  12
ENDBRANCH  10  11
ENDBRANCH   1  10
TORSDOF 13
ENDMDL
MODEL 8
REMARK VINA RESULT:    -3.548      1.199      2.225
REMARK INTER + INTRA:          -8.202
REMARK INTER:                  -6.435
REMARK INTRA:                  -1.767
REMARK UNBOUND:                -1.958
REMARK SMILES CCCCCCCCCCCCCCC(=O)[O-]
REMARK SMILES IDX 9 1 10 2 11 3 12 4 13 5 14 6 15 7 16 8 17 9 8 10 7 11 6 12
REMARK SMILES IDX 5 13 4 14 3 15 2 16 1 17
REMARK H PARENT
REMARK Flexibility Score: inf
ROOT
ATOM      1  C   UNL     1       4.344  -2.464 400.774  1.00  0.00     0.000 C 
ENDROOT
BRANCH   1   2
ATOM      2  C   UNL     1       3.217  -3.304 401.401  1.00  0.00     0.000 C 
BRANCH   2   3
ATOM      3  C   UNL     1       3.366  -3.453 402.923  1.00  0.00     0.000 C 
BRANCH   3   4
ATOM      4  C   UNL     1       4.814  -3.753 403.348  1.00  0.00     0.000 C 
BRANCH   4   5
ATOM      5  C   UNL     1       5.100  -5.262 403.464  1.00  0.00     0.006 C 
BRANCH   5   6
ATOM      6  C   UNL     1       5.657  -5.904 402.183  1.00  0.00     0.053 C 
BRANCH   6   7
ATOM      7  C   UNL     1       4.851  -7.092 401.754  1.00  0.00     0.041 C 
ATOM      8  O   UNL     1       5.425  -8.110 401.285  1.00  0.00    -0.550 OA
ATOM      9  O   UNL     1       3.471  -7.087 401.904  1.00  0.00    -0.550 OA
ENDBRANCH   6   7
ENDBRANCH   5   6
ENDBRANCH   4   5
ENDBRANCH   3   4
ENDBRANCH   2   3
ENDBRANCH   1   2
BRANCH   1  10
ATOM     10  C   UNL     1       3.828  -1.476 399.714  1.00  0.00     0.000 C 
BRANCH  10  11
ATOM     11  C   UNL     1       4.408  -0.063 399.893  1.00  0.00    -0.000 C 
BRANCH  11  12
ATOM     12  C   UNL     1       3.349   0.956 400.345  1.00  0.00    -0.000 C 
BRANCH  12  13
ATOM     13  C   UNL     1       3.969   2.235 400.936  1.00  0.00    -0.000 C 
BRANCH  13  14
ATOM     14  C   UNL     1       4.579   2.010 402.330  1.00  0.00    -0.000 C 
BRANCH  14  15
ATOM     15  C   UNL     1       3.737   1.058 403.196  1.00  0.00    -0.000 C 
BRANCH  15  16
ATOM     16  C   UNL     1       4.580  -0.054 403.839  1.00  0.00    -0.003 C 
ATOM     17  C   UNL     1       5.993  -0.137 403.261  1.00  0.00     0.004 C 
ENDBRANCH  15  16
ENDBRANCH  14  15
ENDBRANCH  13  14
ENDBRANCH  12  13
ENDBRANCH  11  12
ENDBRANCH  10  11
ENDBRANCH   1  10
TORSDOF 13
ENDMDL
MODEL 9
REMARK VINA RESULT:    -3.539      2.095      3.967
REMARK INTER + INTRA:          -8.186
REMARK INTER:                  -5.925
REMARK INTRA:                  -2.261
REMARK UNBOUND:                -1.958
REMARK SMILES CCCCCCCCCCCCCCC(=O)[O-]
REMARK SMILES IDX 9 1 10 2 11 3 12 4 13 5 14 6 15 7 16 8 17 9 8 10 7 11 6 12
REMARK SMILES IDX 5 13 4 14 3 15 2 16 1 17
REMARK H PARENT
REMARK Flexibility Score: inf
ROOT
ATOM      1  C   UNL     1       3.889   1.715 403.043  1.00  0.00     0.000 C 
ENDROOT
BRANCH   1   2
ATOM      2  C   UNL     1       5.164   1.714 403.906  1.00  0.00     0.000 C 
BRANCH   2   3
ATOM      3  C   UNL     1       5.659   0.296 404.232  1.00  0.00     0.000 C 
BRANCH   3   4
ATOM      4  C   UNL     1       4.542  -0.757 404.127  1.00  0.00     0.000 C 
BRANCH   4   5
ATOM      5  C   UNL     1       4.912  -1.926 403.194  1.00  0.00     0.006 C 
BRANCH   5   6
ATOM      6  C   UNL     1       3.743  -2.866 402.859  1.00  0.00     0.053 C 
BRANCH   6   7
ATOM      7  C   UNL     1       3.227  -3.575 404.073  1.00  0.00     0.041 C 
ATOM      8  O   UNL     1       2.056  -3.359 404.483  1.00  0.00    -0.550 OA
ATOM      9  O   UNL     1       4.029  -4.498 404.732  1.00  0.00    -0.550 OA
ENDBRANCH   6   7
ENDBRANCH   5   6
ENDBRANCH   4   5
ENDBRANCH   3   4
ENDBRANCH   2   3
ENDBRANCH   1   2
BRANCH   1  10
ATOM     10  C   UNL     1       4.002   2.639 401.820  1.00  0.00     0.000 C 
BRANCH  10  11
ATOM     11  C   UNL     1       3.640   1.925 400.505  1.00  0.00    -0.000 C 
BRANCH  11  12
ATOM     12  C   UNL     1       3.611   0.396 400.655  1.00  0.00    -0.000 C 
BRANCH  12  13
ATOM     13  C   UNL     1       4.725  -0.301 399.851  1.00  0.00    -0.000 C 
BRANCH  13  14
ATOM     14  C   UNL     1       5.970   0.584 399.674  1.00  0.00    -0.000 C 
BRANCH  14  15
ATOM     15  C   UNL     1       6.952   0.463 400.851  1.00  0.00    -0.000 C 
BRANCH  15  16
ATOM     16  C   UNL     1       7.865  -0.768 400.732  1.00  0.00    -0.003 C 
ATOM     17  C   UNL     1       8.366  -1.268 402.087  1.00  0.00     0.004 C 
ENDBRANCH  15  16
ENDBRANCH  14  15
ENDBRANCH  13  14
ENDBRANCH  12  13
ENDBRANCH  11  12
ENDBRANCH  10  11
ENDBRANCH   1  10
TORSDOF 13
ENDMDL
