MODEL 1
REMARK VINA RESULT:    -7.479      0.000      0.000
REMARK INTER + INTRA:          -9.327
REMARK INTER:                  -9.009
REMARK INTRA:                  -0.318
REMARK UNBOUND:                -0.318
REMARK SMILES O=c1c(O)c(-c2ccc(O)c(O)c2)oc2cc(O)cc(O)c12
REMARK SMILES IDX 5 1 3 2 2 3 1 4 22 5 20 6 19 7 17 8 16 9 15 10 14 11 6 12
REMARK SMILES IDX 7 13 8 14 9 15 13 16 11 17 10 18 12 20 4 22 21 24 18 26
REMARK H PARENT 10 19 12 21 4 23 21 25 18 27
REMARK Flexibility Score: inf
ROOT
ATOM      1  C   UNL     1     -39.288  11.795   8.666  1.00  0.00     0.180 A 
ATOM      2  C   UNL     1     -39.533  10.559   9.291  1.00  0.00     0.208 A 
ATOM      3  C   UNL     1     -40.578  10.462  10.224  1.00  0.00     0.238 A 
ATOM      4  O   UNL     1     -40.756   9.368  10.820  1.00  0.00    -0.285 OA
ATOM      5  C   UNL     1     -41.375  11.597  10.508  1.00  0.00     0.111 A 
ATOM      6  C   UNL     1     -42.484  11.603  11.406  1.00  0.00     0.134 A 
ATOM      7  C   UNL     1     -43.119  12.813  11.712  1.00  0.00     0.093 A 
ATOM      8  C   UNL     1     -42.727  14.006  11.101  1.00  0.00     0.123 A 
ATOM      9  C   UNL     1     -41.685  14.000  10.178  1.00  0.00     0.094 A 
ATOM     10  C   UNL     1     -41.008  12.815   9.881  1.00  0.00     0.146 A 
ATOM     11  O   UNL     1     -40.012  12.856   9.003  1.00  0.00    -0.452 OA
ENDROOT
BRANCH   1  12
ATOM     12  C   UNL     1     -38.222  11.968   7.653  1.00  0.00     0.025 A 
ATOM     13  C   UNL     1     -37.008  12.561   8.025  1.00  0.00     0.016 A 
ATOM     14  C   UNL     1     -35.997  12.753   7.081  1.00  0.00     0.051 A 
ATOM     15  C   UNL     1     -36.183  12.370   5.749  1.00  0.00     0.157 A 
ATOM     16  C   UNL     1     -38.421  11.604   6.310  1.00  0.00     0.062 A 
ATOM     17  C   UNL     1     -37.413  11.794   5.357  1.00  0.00     0.158 A 
BRANCH  15  18
ATOM     18  O   UNL     1     -35.130  12.581   4.857  1.00  0.00    -0.504 OA
ATOM     19  H   UNL     1     -34.162  12.385   5.068  1.00  0.00     0.293 HD
ENDBRANCH  15  18
BRANCH  17  20
ATOM     20  O   UNL     1     -37.679  11.407   4.041  1.00  0.00    -0.504 OA
ATOM     21  H   UNL     1     -38.285  10.641   3.790  1.00  0.00     0.293 HD
ENDBRANCH  17  20
ENDBRANCH   1  12
BRANCH   2  22
ATOM     22  O   UNL     1     -38.720   9.458   9.011  1.00  0.00    -0.502 OA
ATOM     23  H   UNL     1     -39.096   8.564   8.714  1.00  0.00     0.293 HD
ENDBRANCH   2  22
BRANCH   6  24
ATOM     24  O   UNL     1     -43.014  10.453  11.999  1.00  0.00    -0.507 OA
ATOM     25  H   UNL     1     -42.773  10.117  12.919  1.00  0.00     0.293 HD
ENDBRANCH   6  24
BRANCH   8  26
ATOM     26  O   UNL     1     -43.375  15.203  11.398  1.00  0.00    -0.508 OA
ATOM     27  H   UNL     1     -44.150  15.539  10.838  1.00  0.00     0.293 HD
ENDBRANCH   8  26
TORSDOF 6
ENDMDL
MODEL 2
REMARK VINA RESULT:    -7.318      0.653      1.439
REMARK INTER + INTRA:          -9.133
REMARK INTER:                  -8.837
REMARK INTRA:                  -0.296
REMARK UNBOUND:                -0.318
REMARK SMILES O=c1c(O)c(-c2ccc(O)c(O)c2)oc2cc(O)cc(O)c12
REMARK SMILES IDX 5 1 3 2 2 3 1 4 22 5 20 6 19 7 17 8 16 9 15 10 14 11 6 12
REMARK SMILES IDX 7 13 8 14 9 15 13 16 11 17 10 18 12 20 4 22 21 24 18 26
REMARK H PARENT 10 19 12 21 4 23 21 25 18 27
REMARK Flexibility Score: inf
ROOT
ATOM      1  C   UNL     1     -39.283  11.690   8.357  1.00  0.00     0.180 A 
ATOM      2  C   UNL     1     -39.446  10.511   9.105  1.00  0.00     0.208 A 
ATOM      3  C   UNL     1     -40.417  10.477  10.120  1.00  0.00     0.238 A 
ATOM      4  O   UNL     1     -40.521   9.438  10.823  1.00  0.00    -0.285 OA
ATOM      5  C   UNL     1     -41.224  11.615  10.361  1.00  0.00     0.111 A 
ATOM      6  C   UNL     1     -42.264  11.679  11.335  1.00  0.00     0.134 A 
ATOM      7  C   UNL     1     -42.909  12.897  11.578  1.00  0.00     0.093 A 
ATOM      8  C   UNL     1     -42.598  14.038  10.836  1.00  0.00     0.123 A 
ATOM      9  C   UNL     1     -41.625  13.971   9.842  1.00  0.00     0.094 A 
ATOM     10  C   UNL     1     -40.938  12.778   9.601  1.00  0.00     0.146 A 
ATOM     11  O   UNL     1     -40.010  12.762   8.651  1.00  0.00    -0.452 OA
ENDROOT
BRANCH   1  12
ATOM     12  C   UNL     1     -38.299  11.793   7.255  1.00  0.00     0.025 A 
ATOM     13  C   UNL     1     -38.608  11.247   6.002  1.00  0.00     0.016 A 
ATOM     14  C   UNL     1     -37.686  11.315   4.954  1.00  0.00     0.051 A 
ATOM     15  C   UNL     1     -36.437  11.917   5.142  1.00  0.00     0.157 A 
ATOM     16  C   UNL     1     -37.036  12.378   7.453  1.00  0.00     0.062 A 
ATOM     17  C   UNL     1     -36.105  12.449   6.409  1.00  0.00     0.158 A 
BRANCH  15  18
ATOM     18  O   UNL     1     -35.564  11.961   4.053  1.00  0.00    -0.504 OA
ATOM     19  H   UNL     1     -34.654  12.397   4.075  1.00  0.00     0.293 HD
ENDBRANCH  15  18
BRANCH  17  20
ATOM     20  O   UNL     1     -34.871  13.045   6.677  1.00  0.00    -0.504 OA
ATOM     21  H   UNL     1     -34.720  14.042   6.706  1.00  0.00     0.293 HD
ENDBRANCH  17  20
ENDBRANCH   1  12
BRANCH   2  22
ATOM     22  O   UNL     1     -38.625   9.407   8.865  1.00  0.00    -0.502 OA
ATOM     23  H   UNL     1     -37.731   9.281   9.326  1.00  0.00     0.293 HD
ENDBRANCH   2  22
BRANCH   6  24
ATOM     24  O   UNL     1     -42.717  10.576  12.067  1.00  0.00    -0.507 OA
ATOM     25  H   UNL     1     -43.383  10.622  12.823  1.00  0.00     0.293 HD
ENDBRANCH   6  24
BRANCH   8  26
ATOM     26  O   UNL     1     -43.256  15.243  11.073  1.00  0.00    -0.508 OA
ATOM     27  H   UNL     1     -43.818  15.689  10.357  1.00  0.00     0.293 HD
ENDBRANCH   8  26
TORSDOF 6
ENDMDL
MODEL 3
REMARK VINA RESULT:    -7.309      5.903     11.882
REMARK INTER + INTRA:          -9.123
REMARK INTER:                  -9.525
REMARK INTRA:                   0.403
REMARK UNBOUND:                -0.318
REMARK SMILES O=c1c(O)c(-c2ccc(O)c(O)c2)oc2cc(O)cc(O)c12
REMARK SMILES IDX 5 1 3 2 2 3 1 4 22 5 20 6 19 7 17 8 16 9 15 10 14 11 6 12
REMARK SMILES IDX 7 13 8 14 9 15 13 16 11 17 10 18 12 20 4 22 21 24 18 26
REMARK H PARENT 10 19 12 21 4 23 21 25 18 27
REMARK Flexibility Score: inf
ROOT
ATOM      1  C   UNL     1     -33.198  14.686   3.038  1.00  0.00     0.180 A 
ATOM      2  C   UNL     1     -33.542  15.022   1.717  1.00  0.00     0.208 A 
ATOM      3  C   UNL     1     -32.520  15.189   0.768  1.00  0.00     0.238 A 
ATOM      4  O   UNL     1     -32.831  15.544  -0.399  1.00  0.00    -0.285 OA
ATOM      5  C   UNL     1     -31.169  15.002   1.147  1.00  0.00     0.111 A 
ATOM      6  C   UNL     1     -30.057  15.106   0.260  1.00  0.00     0.134 A 
ATOM      7  C   UNL     1     -28.756  15.031   0.772  1.00  0.00     0.093 A 
ATOM      8  C   UNL     1     -28.528  14.788   2.128  1.00  0.00     0.123 A 
ATOM      9  C   UNL     1     -29.608  14.626   2.992  1.00  0.00     0.094 A 
ATOM     10  C   UNL     1     -30.917  14.733   2.517  1.00  0.00     0.146 A 
ATOM     11  O   UNL     1     -31.918  14.581   3.378  1.00  0.00    -0.452 OA
ENDROOT
BRANCH   1  12
ATOM     12  C   UNL     1     -34.220  14.468   4.087  1.00  0.00     0.025 A 
ATOM     13  C   UNL     1     -35.473  15.083   3.966  1.00  0.00     0.016 A 
ATOM     14  C   UNL     1     -36.445  14.907   4.954  1.00  0.00     0.051 A 
ATOM     15  C   UNL     1     -36.179  14.128   6.085  1.00  0.00     0.157 A 
ATOM     16  C   UNL     1     -33.942  13.704   5.233  1.00  0.00     0.062 A 
ATOM     17  C   UNL     1     -34.909  13.524   6.230  1.00  0.00     0.158 A 
BRANCH  15  18
ATOM     18  O   UNL     1     -37.196  13.985   7.032  1.00  0.00    -0.504 OA
ATOM     19  H   UNL     1     -37.387  13.128   7.531  1.00  0.00     0.293 HD
ENDBRANCH  15  18
BRANCH  17  20
ATOM     20  O   UNL     1     -34.564  12.750   7.341  1.00  0.00    -0.504 OA
ATOM     21  H   UNL     1     -34.843  12.964   8.286  1.00  0.00     0.293 HD
ENDBRANCH  17  20
ENDBRANCH   1  12
BRANCH   2  22
ATOM     22  O   UNL     1     -34.880  15.224   1.369  1.00  0.00    -0.502 OA
ATOM     23  H   UNL     1     -35.419  14.536   0.855  1.00  0.00     0.293 HD
ENDBRANCH   2  22
BRANCH   6  24
ATOM     24  O   UNL     1     -30.174  15.256  -1.125  1.00  0.00    -0.507 OA
ATOM     25  H   UNL     1     -31.032  15.474  -1.609  1.00  0.00     0.293 HD
ENDBRANCH   6  24
BRANCH   8  26
ATOM     26  O   UNL     1     -27.230  14.698   2.626  1.00  0.00    -0.508 OA
ATOM     27  H   UNL     1     -26.442  15.096   2.128  1.00  0.00     0.293 HD
ENDBRANCH   8  26
TORSDOF 6
ENDMDL
MODEL 4
REMARK VINA RESULT:    -7.266      6.912     10.357
REMARK INTER + INTRA:          -9.071
REMARK INTER:                  -8.946
REMARK INTRA:                  -0.125
REMARK UNBOUND:                -0.318
REMARK SMILES O=c1c(O)c(-c2ccc(O)c(O)c2)oc2cc(O)cc(O)c12
REMARK SMILES IDX 5 1 3 2 2 3 1 4 22 5 20 6 19 7 17 8 16 9 15 10 14 11 6 12
REMARK SMILES IDX 7 13 8 14 9 15 13 16 11 17 10 18 12 20 4 22 21 24 18 26
REMARK H PARENT 10 19 12 21 4 23 21 25 18 27
REMARK Flexibility Score: inf
ROOT
ATOM      1  C   UNL     1     -32.059  13.893   1.911  1.00  0.00     0.180 A 
ATOM      2  C   UNL     1     -32.511  12.805   1.145  1.00  0.00     0.208 A 
ATOM      3  C   UNL     1     -33.823  12.338   1.331  1.00  0.00     0.238 A 
ATOM      4  O   UNL     1     -34.204  11.329   0.682  1.00  0.00    -0.285 OA
ATOM      5  C   UNL     1     -34.670  12.976   2.269  1.00  0.00     0.111 A 
ATOM      6  C   UNL     1     -36.029  12.613   2.512  1.00  0.00     0.134 A 
ATOM      7  C   UNL     1     -36.732  13.226   3.555  1.00  0.00     0.093 A 
ATOM      8  C   UNL     1     -36.147  14.236   4.322  1.00  0.00     0.123 A 
ATOM      9  C   UNL     1     -34.842  14.639   4.054  1.00  0.00     0.094 A 
ATOM     10  C   UNL     1     -34.102  14.020   3.044  1.00  0.00     0.146 A 
ATOM     11  O   UNL     1     -32.857  14.428   2.829  1.00  0.00    -0.452 OA
ENDROOT
BRANCH   1  12
ATOM     12  C   UNL     1     -30.699  14.457   1.752  1.00  0.00     0.025 A 
ATOM     13  C   UNL     1     -29.855  14.546   2.867  1.00  0.00     0.016 A 
ATOM     14  C   UNL     1     -28.576  15.093   2.744  1.00  0.00     0.051 A 
ATOM     15  C   UNL     1     -28.122  15.574   1.512  1.00  0.00     0.157 A 
ATOM     16  C   UNL     1     -30.254  14.961   0.518  1.00  0.00     0.062 A 
ATOM     17  C   UNL     1     -28.974  15.513   0.385  1.00  0.00     0.158 A 
BRANCH  15  18
ATOM     18  O   UNL     1     -26.830  16.102   1.454  1.00  0.00    -0.504 OA
ATOM     19  H   UNL     1     -26.111  15.913   2.138  1.00  0.00     0.293 HD
ENDBRANCH  15  18
BRANCH  17  20
ATOM     20  O   UNL     1     -28.598  15.992  -0.872  1.00  0.00    -0.504 OA
ATOM     21  H   UNL     1     -28.515  16.971  -1.101  1.00  0.00     0.293 HD
ENDBRANCH  17  20
ENDBRANCH   1  12
BRANCH   2  22
ATOM     22  O   UNL     1     -31.652  12.177   0.240  1.00  0.00    -0.502 OA
ATOM     23  H   UNL     1     -31.988  11.686  -0.580  1.00  0.00     0.293 HD
ENDBRANCH   2  22
BRANCH   6  24
ATOM     24  O   UNL     1     -36.736  11.682   1.745  1.00  0.00    -0.507 OA
ATOM     25  H   UNL     1     -36.984  11.806   0.775  1.00  0.00     0.293 HD
ENDBRANCH   6  24
BRANCH   8  26
ATOM     26  O   UNL     1     -36.860  14.853   5.348  1.00  0.00    -0.508 OA
ATOM     27  H   UNL     1     -37.083  15.841   5.319  1.00  0.00     0.293 HD
ENDBRANCH   8  26
TORSDOF 6
ENDMDL
MODEL 5
REMARK VINA RESULT:    -7.166      9.221     11.845
REMARK INTER + INTRA:          -8.951
REMARK INTER:                  -8.670
REMARK INTRA:                  -0.280
REMARK UNBOUND:                -0.318
REMARK SMILES O=c1c(O)c(-c2ccc(O)c(O)c2)oc2cc(O)cc(O)c12
REMARK SMILES IDX 5 1 3 2 2 3 1 4 22 5 20 6 19 7 17 8 16 9 15 10 14 11 6 12
REMARK SMILES IDX 7 13 8 14 9 15 13 16 11 17 10 18 12 20 4 22 21 24 18 26
REMARK H PARENT 10 19 12 21 4 23 21 25 18 27
REMARK Flexibility Score: inf
ROOT
ATOM      1  C   UNL     1     -31.604  13.841   1.348  1.00  0.00     0.180 A 
ATOM      2  C   UNL     1     -32.737  14.452   1.913  1.00  0.00     0.208 A 
ATOM      3  C   UNL     1     -33.965  13.772   1.880  1.00  0.00     0.238 A 
ATOM      4  O   UNL     1     -34.987  14.346   2.338  1.00  0.00    -0.285 OA
ATOM      5  C   UNL     1     -34.041  12.484   1.296  1.00  0.00     0.111 A 
ATOM      6  C   UNL     1     -35.224  11.688   1.242  1.00  0.00     0.134 A 
ATOM      7  C   UNL     1     -35.215  10.486   0.525  1.00  0.00     0.093 A 
ATOM      8  C   UNL     1     -34.049  10.019  -0.085  1.00  0.00     0.123 A 
ATOM      9  C   UNL     1     -32.874  10.760   0.013  1.00  0.00     0.094 A 
ATOM     10  C   UNL     1     -32.861  11.982   0.691  1.00  0.00     0.146 A 
ATOM     11  O   UNL     1     -31.721  12.661   0.750  1.00  0.00    -0.452 OA
ENDROOT
BRANCH   1  12
ATOM     12  C   UNL     1     -30.270  14.485   1.369  1.00  0.00     0.025 A 
ATOM     13  C   UNL     1     -29.527  14.492   2.557  1.00  0.00     0.016 A 
ATOM     14  C   UNL     1     -28.275  15.110   2.605  1.00  0.00     0.051 A 
ATOM     15  C   UNL     1     -27.749  15.744   1.474  1.00  0.00     0.157 A 
ATOM     16  C   UNL     1     -29.755  15.141   0.238  1.00  0.00     0.062 A 
ATOM     17  C   UNL     1     -28.502  15.765   0.277  1.00  0.00     0.158 A 
BRANCH  15  18
ATOM     18  O   UNL     1     -26.490  16.336   1.585  1.00  0.00    -0.504 OA
ATOM     19  H   UNL     1     -25.642  15.827   1.791  1.00  0.00     0.293 HD
ENDBRANCH  15  18
BRANCH  17  20
ATOM     20  O   UNL     1     -28.052  16.396  -0.885  1.00  0.00    -0.504 OA
ATOM     21  H   UNL     1     -28.124  17.388  -1.053  1.00  0.00     0.293 HD
ENDBRANCH  17  20
ENDBRANCH   1  12
BRANCH   2  22
ATOM     22  O   UNL     1     -32.644  15.732   2.465  1.00  0.00    -0.502 OA
ATOM     23  H   UNL     1     -32.533  15.890   3.460  1.00  0.00     0.293 HD
ENDBRANCH   2  22
BRANCH   6  24
ATOM     24  O   UNL     1     -36.416  12.017   1.894  1.00  0.00    -0.507 OA
ATOM     25  H   UNL     1     -36.951  11.384   2.469  1.00  0.00     0.293 HD
ENDBRANCH   6  24
BRANCH   8  26
ATOM     26  O   UNL     1     -34.045   8.814  -0.783  1.00  0.00    -0.508 OA
ATOM     27  H   UNL     1     -34.702   8.073  -0.567  1.00  0.00     0.293 HD
ENDBRANCH   8  26
TORSDOF 6
ENDMDL
MODEL 6
REMARK VINA RESULT:    -7.044      1.819      7.046
REMARK INTER + INTRA:          -8.803
REMARK INTER:                  -8.498
REMARK INTRA:                  -0.305
REMARK UNBOUND:                -0.318
REMARK SMILES O=c1c(O)c(-c2ccc(O)c(O)c2)oc2cc(O)cc(O)c12
REMARK SMILES IDX 5 1 3 2 2 3 1 4 22 5 20 6 19 7 17 8 16 9 15 10 14 11 6 12
REMARK SMILES IDX 7 13 8 14 9 15 13 16 11 17 10 18 12 20 4 22 21 24 18 26
REMARK H PARENT 10 19 12 21 4 23 21 25 18 27
REMARK Flexibility Score: inf
ROOT
ATOM      1  C   UNL     1     -40.341  11.435   8.768  1.00  0.00     0.180 A 
ATOM      2  C   UNL     1     -38.983  11.775   8.903  1.00  0.00     0.208 A 
ATOM      3  C   UNL     1     -38.123  11.597   7.807  1.00  0.00     0.238 A 
ATOM      4  O   UNL     1     -36.899  11.851   7.951  1.00  0.00    -0.285 OA
ATOM      5  C   UNL     1     -38.635  11.097   6.585  1.00  0.00     0.111 A 
ATOM      6  C   UNL     1     -37.863  10.913   5.399  1.00  0.00     0.134 A 
ATOM      7  C   UNL     1     -38.443  10.289   4.288  1.00  0.00     0.093 A 
ATOM      8  C   UNL     1     -39.784   9.901   4.298  1.00  0.00     0.123 A 
ATOM      9  C   UNL     1     -40.561  10.129   5.430  1.00  0.00     0.094 A 
ATOM     10  C   UNL     1     -40.001  10.717   6.568  1.00  0.00     0.146 A 
ATOM     11  O   UNL     1     -40.776  10.907   7.630  1.00  0.00    -0.452 OA
ENDROOT
BRANCH   1  12
ATOM     12  C   UNL     1     -41.313  11.619   9.870  1.00  0.00     0.025 A 
ATOM     13  C   UNL     1     -41.746  10.504  10.600  1.00  0.00     0.016 A 
ATOM     14  C   UNL     1     -42.677  10.652  11.630  1.00  0.00     0.051 A 
ATOM     15  C   UNL     1     -43.203  11.911  11.941  1.00  0.00     0.157 A 
ATOM     16  C   UNL     1     -41.856  12.881  10.164  1.00  0.00     0.062 A 
ATOM     17  C   UNL     1     -42.792  13.039  11.194  1.00  0.00     0.158 A 
BRANCH  15  18
ATOM     18  O   UNL     1     -44.124  11.993  12.987  1.00  0.00    -0.504 OA
ATOM     19  H   UNL     1     -44.328  12.841  13.496  1.00  0.00     0.293 HD
ENDBRANCH  15  18
BRANCH  17  20
ATOM     20  O   UNL     1     -43.289  14.323  11.433  1.00  0.00    -0.504 OA
ATOM     21  H   UNL     1     -42.872  15.166  11.069  1.00  0.00     0.293 HD
ENDBRANCH  17  20
ENDBRANCH   1  12
BRANCH   2  22
ATOM     22  O   UNL     1     -38.496  12.247  10.125  1.00  0.00    -0.502 OA
ATOM     23  H   UNL     1     -38.752  11.829  11.012  1.00  0.00     0.293 HD
ENDBRANCH   2  22
BRANCH   6  24
ATOM     24  O   UNL     1     -36.543  11.348   5.252  1.00  0.00    -0.507 OA
ATOM     25  H   UNL     1     -35.831  10.860   4.730  1.00  0.00     0.293 HD
ENDBRANCH   6  24
BRANCH   8  26
ATOM     26  O   UNL     1     -40.357   9.294   3.182  1.00  0.00    -0.508 OA
ATOM     27  H   UNL     1     -40.588   8.307   3.176  1.00  0.00     0.293 HD
ENDBRANCH   8  26
TORSDOF 6
ENDMDL
MODEL 7
REMARK VINA RESULT:    -7.012      7.231     10.441
REMARK INTER + INTRA:          -8.764
REMARK INTER:                  -8.463
REMARK INTRA:                  -0.302
REMARK UNBOUND:                -0.318
REMARK SMILES O=c1c(O)c(-c2ccc(O)c(O)c2)oc2cc(O)cc(O)c12
REMARK SMILES IDX 5 1 3 2 2 3 1 4 22 5 20 6 19 7 17 8 16 9 15 10 14 11 6 12
REMARK SMILES IDX 7 13 8 14 9 15 13 16 11 17 10 18 12 20 4 22 21 24 18 26
REMARK H PARENT 10 19 12 21 4 23 21 25 18 27
REMARK Flexibility Score: inf
ROOT
ATOM      1  C   UNL     1     -32.751  14.224   1.848  1.00  0.00     0.180 A 
ATOM      2  C   UNL     1     -33.557  15.073   2.625  1.00  0.00     0.208 A 
ATOM      3  C   UNL     1     -34.802  14.606   3.077  1.00  0.00     0.238 A 
ATOM      4  O   UNL     1     -35.543  15.390   3.727  1.00  0.00    -0.285 OA
ATOM      5  C   UNL     1     -35.218  13.290   2.760  1.00  0.00     0.111 A 
ATOM      6  C   UNL     1     -36.441  12.699   3.198  1.00  0.00     0.134 A 
ATOM      7  C   UNL     1     -36.810  11.438   2.715  1.00  0.00     0.093 A 
ATOM      8  C   UNL     1     -35.969  10.719   1.863  1.00  0.00     0.123 A 
ATOM      9  C   UNL     1     -34.747  11.262   1.477  1.00  0.00     0.094 A 
ATOM     10  C   UNL     1     -34.368  12.534   1.913  1.00  0.00     0.146 A 
ATOM     11  O   UNL     1     -33.198  13.019   1.512  1.00  0.00    -0.452 OA
ENDROOT
BRANCH   1  12
ATOM     12  C   UNL     1     -31.416  14.636   1.357  1.00  0.00     0.025 A 
ATOM     13  C   UNL     1     -31.255  14.985   0.010  1.00  0.00     0.016 A 
ATOM     14  C   UNL     1     -30.000  15.358  -0.479  1.00  0.00     0.051 A 
ATOM     15  C   UNL     1     -28.883  15.375   0.364  1.00  0.00     0.157 A 
ATOM     16  C   UNL     1     -30.292  14.630   2.200  1.00  0.00     0.062 A 
ATOM     17  C   UNL     1     -29.030  15.000   1.720  1.00  0.00     0.158 A 
BRANCH  15  18
ATOM     18  O   UNL     1     -27.660  15.765  -0.184  1.00  0.00    -0.504 OA
ATOM     19  H   UNL     1     -27.484  16.675  -0.585  1.00  0.00     0.293 HD
ENDBRANCH  15  18
BRANCH  17  20
ATOM     20  O   UNL     1     -27.957  14.973   2.614  1.00  0.00    -0.504 OA
ATOM     21  H   UNL     1     -27.822  14.258   3.312  1.00  0.00     0.293 HD
ENDBRANCH  17  20
ENDBRANCH   1  12
BRANCH   2  22
ATOM     22  O   UNL     1     -33.137  16.375   2.909  1.00  0.00    -0.502 OA
ATOM     23  H   UNL     1     -32.426  16.580   3.601  1.00  0.00     0.293 HD
ENDBRANCH   2  22
BRANCH   6  24
ATOM     24  O   UNL     1     -37.308  13.293   4.120  1.00  0.00    -0.507 OA
ATOM     25  H   UNL     1     -38.013  12.800   4.646  1.00  0.00     0.293 HD
ENDBRANCH   6  24
BRANCH   8  26
ATOM     26  O   UNL     1     -36.337   9.457   1.399  1.00  0.00    -0.508 OA
ATOM     27  H   UNL     1     -37.088   9.337   0.730  1.00  0.00     0.293 HD
ENDBRANCH   8  26
TORSDOF 6
ENDMDL
MODEL 8
REMARK VINA RESULT:    -6.941      1.594      6.921
REMARK INTER + INTRA:          -8.679
REMARK INTER:                  -8.398
REMARK INTRA:                  -0.281
REMARK UNBOUND:                -0.318
REMARK SMILES O=c1c(O)c(-c2ccc(O)c(O)c2)oc2cc(O)cc(O)c12
REMARK SMILES IDX 5 1 3 2 2 3 1 4 22 5 20 6 19 7 17 8 16 9 15 10 14 11 6 12
REMARK SMILES IDX 7 13 8 14 9 15 13 16 11 17 10 18 12 20 4 22 21 24 18 26
REMARK H PARENT 10 19 12 21 4 23 21 25 18 27
REMARK Flexibility Score: inf
ROOT
ATOM      1  C   UNL     1     -40.358  11.485   8.149  1.00  0.00     0.180 A 
ATOM      2  C   UNL     1     -40.676  10.686   7.037  1.00  0.00     0.208 A 
ATOM      3  C   UNL     1     -39.726  10.532   6.014  1.00  0.00     0.238 A 
ATOM      4  O   UNL     1     -40.036   9.860   4.996  1.00  0.00    -0.285 OA
ATOM      5  C   UNL     1     -38.464  11.164   6.125  1.00  0.00     0.111 A 
ATOM      6  C   UNL     1     -37.411  11.045   5.169  1.00  0.00     0.134 A 
ATOM      7  C   UNL     1     -36.254  11.820   5.315  1.00  0.00     0.093 A 
ATOM      8  C   UNL     1     -36.084  12.660   6.417  1.00  0.00     0.123 A 
ATOM      9  C   UNL     1     -37.081  12.738   7.387  1.00  0.00     0.094 A 
ATOM     10  C   UNL     1     -38.262  12.005   7.249  1.00  0.00     0.146 A 
ATOM     11  O   UNL     1     -39.191  12.118   8.192  1.00  0.00    -0.452 OA
ENDROOT
BRANCH   1  12
ATOM     12  C   UNL     1     -41.298  11.674   9.278  1.00  0.00     0.025 A 
ATOM     13  C   UNL     1     -41.453  10.651  10.223  1.00  0.00     0.016 A 
ATOM     14  C   UNL     1     -42.349  10.800  11.285  1.00  0.00     0.051 A 
ATOM     15  C   UNL     1     -43.115  11.963  11.413  1.00  0.00     0.157 A 
ATOM     16  C   UNL     1     -42.084  12.833   9.391  1.00  0.00     0.062 A 
ATOM     17  C   UNL     1     -42.986  12.990  10.450  1.00  0.00     0.158 A 
BRANCH  15  18
ATOM     18  O   UNL     1     -43.986  12.053  12.501  1.00  0.00    -0.504 OA
ATOM     19  H   UNL     1     -44.503  12.886  12.744  1.00  0.00     0.293 HD
ENDBRANCH  15  18
BRANCH  17  20
ATOM     20  O   UNL     1     -43.733  14.170  10.502  1.00  0.00    -0.504 OA
ATOM     21  H   UNL     1     -43.657  14.915   9.827  1.00  0.00     0.293 HD
ENDBRANCH  17  20
ENDBRANCH   1  12
BRANCH   2  22
ATOM     22  O   UNL     1     -41.935  10.088   6.938  1.00  0.00    -0.502 OA
ATOM     23  H   UNL     1     -42.707  10.522   6.445  1.00  0.00     0.293 HD
ENDBRANCH   2  22
BRANCH   6  24
ATOM     24  O   UNL     1     -37.441  10.167   4.082  1.00  0.00    -0.507 OA
ATOM     25  H   UNL     1     -38.237  10.024   3.479  1.00  0.00     0.293 HD
ENDBRANCH   6  24
BRANCH   8  26
ATOM     26  O   UNL     1     -34.923  13.416   6.563  1.00  0.00    -0.508 OA
ATOM     27  H   UNL     1     -34.452  13.823   5.764  1.00  0.00     0.293 HD
ENDBRANCH   8  26
TORSDOF 6
ENDMDL
MODEL 9
REMARK VINA RESULT:    -6.910      1.819      7.064
REMARK INTER + INTRA:          -8.641
REMARK INTER:                  -8.349
REMARK INTRA:                  -0.292
REMARK UNBOUND:                -0.318
REMARK SMILES O=c1c(O)c(-c2ccc(O)c(O)c2)oc2cc(O)cc(O)c12
REMARK SMILES IDX 5 1 3 2 2 3 1 4 22 5 20 6 19 7 17 8 16 9 15 10 14 11 6 12
REMARK SMILES IDX 7 13 8 14 9 15 13 16 11 17 10 18 12 20 4 22 21 24 18 26
REMARK H PARENT 10 19 12 21 4 23 21 25 18 27
REMARK Flexibility Score: inf
ROOT
ATOM      1  C   UNL     1     -39.545  11.053   7.589  1.00  0.00     0.180 A 
ATOM      2  C   UNL     1     -39.822  10.455   6.347  1.00  0.00     0.208 A 
ATOM      3  C   UNL     1     -38.904  10.611   5.295  1.00  0.00     0.238 A 
ATOM      4  O   UNL     1     -39.183  10.119   4.171  1.00  0.00    -0.285 OA
ATOM      5  C   UNL     1     -37.714  11.349   5.504  1.00  0.00     0.111 A 
ATOM      6  C   UNL     1     -36.696  11.538   4.522  1.00  0.00     0.134 A 
ATOM      7  C   UNL     1     -35.623  12.396   4.795  1.00  0.00     0.093 A 
ATOM      8  C   UNL     1     -35.498  13.019   6.038  1.00  0.00     0.123 A 
ATOM      9  C   UNL     1     -36.456  12.794   7.024  1.00  0.00     0.094 A 
ATOM     10  C   UNL     1     -37.557  11.973   6.768  1.00  0.00     0.146 A 
ATOM     11  O   UNL     1     -38.452  11.794   7.733  1.00  0.00    -0.452 OA
ENDROOT
BRANCH   1  12
ATOM     12  C   UNL     1     -40.452  10.911   8.751  1.00  0.00     0.025 A 
ATOM     13  C   UNL     1     -41.583  11.733   8.847  1.00  0.00     0.016 A 
ATOM     14  C   UNL     1     -42.440  11.629   9.945  1.00  0.00     0.051 A 
ATOM     15  C   UNL     1     -42.177  10.716  10.972  1.00  0.00     0.157 A 
ATOM     16  C   UNL     1     -40.172  10.009   9.792  1.00  0.00     0.062 A 
ATOM     17  C   UNL     1     -41.025   9.900  10.898  1.00  0.00     0.158 A 
BRANCH  15  18
ATOM     18  O   UNL     1     -43.078  10.657  12.037  1.00  0.00    -0.504 OA
ATOM     19  H   UNL     1     -44.012  10.279  11.968  1.00  0.00     0.293 HD
ENDBRANCH  15  18
BRANCH  17  20
ATOM     20  O   UNL     1     -40.687   8.982  11.894  1.00  0.00    -0.504 OA
ATOM     21  H   UNL     1     -40.524   9.229  12.858  1.00  0.00     0.293 HD
ENDBRANCH  17  20
ENDBRANCH   1  12
BRANCH   2  22
ATOM     22  O   UNL     1     -41.012   9.749   6.157  1.00  0.00    -0.502 OA
ATOM     23  H   UNL     1     -41.063   8.738   6.220  1.00  0.00     0.293 HD
ENDBRANCH   2  22
BRANCH   6  24
ATOM     24  O   UNL     1     -36.676  10.890   3.283  1.00  0.00    -0.507 OA
ATOM     25  H   UNL     1     -35.915  10.322   2.943  1.00  0.00     0.293 HD
ENDBRANCH   6  24
BRANCH   8  26
ATOM     26  O   UNL     1     -34.420  13.859   6.308  1.00  0.00    -0.508 OA
ATOM     27  H   UNL     1     -33.836  14.226   5.565  1.00  0.00     0.293 HD
ENDBRANCH   8  26
TORSDOF 6
ENDMDL
