MODEL 1
REMARK VINA RESULT:    -4.304      0.000      0.000
REMARK INTER + INTRA:          -9.567
REMARK INTER:                  -7.826
REMARK INTRA:                  -1.741
REMARK UNBOUND:                -1.741
REMARK SMILES CCCCCCCCCCCCCCCC(=O)[O-]
REMARK SMILES IDX 9 1 10 2 11 3 12 4 13 5 14 6 15 7 16 8 17 9 18 10 8 11 7 12
REMARK SMILES IDX 6 13 5 14 4 15 3 16 2 17 1 18
REMARK H PARENT
REMARK Flexibility Score: inf
ROOT
ATOM      1  C   UNL     1      15.753  30.433  70.775  1.00  0.00     0.000 C 
ENDROOT
BRANCH   1   2
ATOM      2  C   UNL     1      17.115  30.374  71.496  1.00  0.00     0.000 C 
BRANCH   2   3
ATOM      3  C   UNL     1      18.284  31.043  70.746  1.00  0.00     0.000 C 
BRANCH   3   4
ATOM      4  C   UNL     1      19.288  30.065  70.108  1.00  0.00     0.000 C 
BRANCH   4   5
ATOM      5  C   UNL     1      19.580  30.389  68.633  1.00  0.00     0.000 C 
BRANCH   5   6
ATOM      6  C   UNL     1      19.218  31.840  68.257  1.00  0.00     0.006 C 
BRANCH   6   7
ATOM      7  C   UNL     1      18.954  32.042  66.755  1.00  0.00     0.053 C 
BRANCH   7   8
ATOM      8  C   UNL     1      19.296  33.423  66.293  1.00  0.00     0.041 C 
ATOM      9  O   UNL     1      20.500  33.781  66.199  1.00  0.00    -0.550 OA
ATOM     10  O   UNL     1      18.287  34.317  65.956  1.00  0.00    -0.550 OA
ENDBRANCH   7   8
ENDBRANCH   6   7
ENDBRANCH   5   6
ENDBRANCH   4   5
ENDBRANCH   3   4
ENDBRANCH   2   3
ENDBRANCH   1   2
BRANCH   1  11
ATOM     11  C   UNL     1      15.706  29.711  69.417  1.00  0.00     0.000 C 
BRANCH  11  12
ATOM     12  C   UNL     1      15.536  30.674  68.233  1.00  0.00    -0.000 C 
BRANCH  12  13
ATOM     13  C   UNL     1      15.129  32.073  68.719  1.00  0.00    -0.000 C 
BRANCH  13  14
ATOM     14  C   UNL     1      15.493  33.185  67.718  1.00  0.00    -0.000 C 
BRANCH  14  15
ATOM     15  C   UNL     1      14.292  33.849  67.020  1.00  0.00    -0.000 C 
BRANCH  15  16
ATOM     16  C   UNL     1      13.728  35.094  67.731  1.00  0.00    -0.000 C 
BRANCH  16  17
ATOM     17  C   UNL     1      14.350  36.422  67.246  1.00  0.00    -0.003 C 
ATOM     18  C   UNL     1      14.993  36.303  65.865  1.00  0.00     0.004 C 
ENDBRANCH  16  17
ENDBRANCH  15  16
ENDBRANCH  14  15
ENDBRANCH  13  14
ENDBRANCH  12  13
ENDBRANCH  11  12
ENDBRANCH   1  11
TORSDOF 14
ENDMDL
MODEL 2
REMARK VINA RESULT:    -4.266      2.600      5.664
REMARK INTER + INTRA:          -9.498
REMARK INTER:                  -7.385
REMARK INTRA:                  -2.112
REMARK UNBOUND:                -1.741
REMARK SMILES CCCCCCCCCCCCCCCC(=O)[O-]
REMARK SMILES IDX 9 1 10 2 11 3 12 4 13 5 14 6 15 7 16 8 17 9 18 10 8 11 7 12
REMARK SMILES IDX 6 13 5 14 4 15 3 16 2 17 1 18
REMARK H PARENT
REMARK Flexibility Score: inf
ROOT
ATOM      1  C   UNL     1      11.951  31.272  66.443  1.00  0.00     0.000 C 
ENDROOT
BRANCH   1   2
ATOM      2  C   UNL     1      11.451  32.407  67.360  1.00  0.00     0.000 C 
BRANCH   2   3
ATOM      3  C   UNL     1      12.367  32.737  68.555  1.00  0.00     0.000 C 
BRANCH   3   4
ATOM      4  C   UNL     1      13.324  33.922  68.328  1.00  0.00     0.000 C 
BRANCH   4   5
ATOM      5  C   UNL     1      14.794  33.484  68.205  1.00  0.00     0.000 C 
BRANCH   5   6
ATOM      6  C   UNL     1      15.530  34.181  67.043  1.00  0.00     0.006 C 
BRANCH   6   7
ATOM      7  C   UNL     1      15.771  35.682  67.275  1.00  0.00     0.053 C 
BRANCH   7   8
ATOM      8  C   UNL     1      14.855  36.543  66.463  1.00  0.00     0.041 C 
ATOM      9  O   UNL     1      14.911  36.519  65.205  1.00  0.00    -0.550 OA
ATOM     10  O   UNL     1      13.931  37.368  67.093  1.00  0.00    -0.550 OA
ENDBRANCH   7   8
ENDBRANCH   6   7
ENDBRANCH   5   6
ENDBRANCH   4   5
ENDBRANCH   3   4
ENDBRANCH   2   3
ENDBRANCH   1   2
BRANCH   1  11
ATOM     11  C   UNL     1      13.066  31.675  65.462  1.00  0.00     0.000 C 
BRANCH  11  12
ATOM     12  C   UNL     1      14.375  30.909  65.698  1.00  0.00    -0.000 C 
BRANCH  12  13
ATOM     13  C   UNL     1      14.183  29.807  66.749  1.00  0.00    -0.000 C 
BRANCH  13  14
ATOM     14  C   UNL     1      15.179  29.912  67.919  1.00  0.00    -0.000 C 
BRANCH  14  15
ATOM     15  C   UNL     1      14.536  29.973  69.317  1.00  0.00    -0.000 C 
BRANCH  15  16
ATOM     16  C   UNL     1      15.487  30.387  70.457  1.00  0.00    -0.000 C 
BRANCH  16  17
ATOM     17  C   UNL     1      16.878  30.847  69.970  1.00  0.00    -0.003 C 
ATOM     18  C   UNL     1      17.915  30.876  71.092  1.00  0.00     0.004 C 
ENDBRANCH  16  17
ENDBRANCH  15  16
ENDBRANCH  14  15
ENDBRANCH  13  14
ENDBRANCH  12  13
ENDBRANCH  11  12
ENDBRANCH   1  11
TORSDOF 14
ENDMDL
MODEL 3
REMARK VINA RESULT:    -4.250      1.415      4.468
REMARK INTER + INTRA:          -9.470
REMARK INTER:                  -7.299
REMARK INTRA:                  -2.171
REMARK UNBOUND:                -1.741
REMARK SMILES CCCCCCCCCCCCCCCC(=O)[O-]
REMARK SMILES IDX 9 1 10 2 11 3 12 4 13 5 14 6 15 7 16 8 17 9 18 10 8 11 7 12
REMARK SMILES IDX 6 13 5 14 4 15 3 16 2 17 1 18
REMARK H PARENT
REMARK Flexibility Score: inf
ROOT
ATOM      1  C   UNL     1      16.749  29.660  71.391  1.00  0.00     0.000 C 
ENDROOT
BRANCH   1   2
ATOM      2  C   UNL     1      15.680  30.495  70.658  1.00  0.00     0.000 C 
BRANCH   2   3
ATOM      3  C   UNL     1      15.261  29.956  69.275  1.00  0.00     0.000 C 
BRANCH   3   4
ATOM      4  C   UNL     1      14.906  31.039  68.240  1.00  0.00     0.000 C 
BRANCH   4   5
ATOM      5  C   UNL     1      15.624  32.373  68.502  1.00  0.00     0.000 C 
BRANCH   5   6
ATOM      6  C   UNL     1      15.820  33.208  67.222  1.00  0.00     0.006 C 
BRANCH   6   7
ATOM      7  C   UNL     1      15.063  34.547  67.234  1.00  0.00     0.053 C 
BRANCH   7   8
ATOM      8  C   UNL     1      15.678  35.563  66.323  1.00  0.00     0.041 C 
ATOM      9  O   UNL     1      16.929  35.691  66.268  1.00  0.00    -0.550 OA
ATOM     10  O   UNL     1      14.871  36.366  65.526  1.00  0.00    -0.550 OA
ENDBRANCH   7   8
ENDBRANCH   6   7
ENDBRANCH   5   6
ENDBRANCH   4   5
ENDBRANCH   3   4
ENDBRANCH   2   3
ENDBRANCH   1   2
BRANCH   1  11
ATOM     11  C   UNL     1      18.075  29.491  70.628  1.00  0.00     0.000 C 
BRANCH  11  12
ATOM     12  C   UNL     1      18.922  30.772  70.612  1.00  0.00    -0.000 C 
BRANCH  12  13
ATOM     13  C   UNL     1      19.075  31.310  69.183  1.00  0.00    -0.000 C 
BRANCH  13  14
ATOM     14  C   UNL     1      19.086  30.196  68.120  1.00  0.00    -0.000 C 
BRANCH  14  15
ATOM     15  C   UNL     1      18.360  30.543  66.807  1.00  0.00    -0.000 C 
BRANCH  15  16
ATOM     16  C   UNL     1      19.269  31.060  65.675  1.00  0.00    -0.000 C 
BRANCH  16  17
ATOM     17  C   UNL     1      19.014  32.535  65.297  1.00  0.00    -0.003 C 
ATOM     18  C   UNL     1      19.751  33.514  66.210  1.00  0.00     0.004 C 
ENDBRANCH  16  17
ENDBRANCH  15  16
ENDBRANCH  14  15
ENDBRANCH  13  14
ENDBRANCH  12  13
ENDBRANCH  11  12
ENDBRANCH   1  11
TORSDOF 14
ENDMDL
MODEL 4
REMARK VINA RESULT:    -4.247      1.928      4.817
REMARK INTER + INTRA:          -9.465
REMARK INTER:                  -7.501
REMARK INTRA:                  -1.963
REMARK UNBOUND:                -1.741
REMARK SMILES CCCCCCCCCCCCCCCC(=O)[O-]
REMARK SMILES IDX 9 1 10 2 11 3 12 4 13 5 14 6 15 7 16 8 17 9 18 10 8 11 7 12
REMARK SMILES IDX 6 13 5 14 4 15 3 16 2 17 1 18
REMARK H PARENT
REMARK Flexibility Score: inf
ROOT
ATOM      1  C   UNL     1      16.923  30.653  71.364  1.00  0.00     0.000 C 
ENDROOT
BRANCH   1   2
ATOM      2  C   UNL     1      15.877  30.131  70.358  1.00  0.00     0.000 C 
BRANCH   2   3
ATOM      3  C   UNL     1      15.154  31.219  69.540  1.00  0.00     0.000 C 
BRANCH   3   4
ATOM      4  C   UNL     1      14.992  30.902  68.042  1.00  0.00     0.000 C 
BRANCH   4   5
ATOM      5  C   UNL     1      14.663  32.148  67.202  1.00  0.00     0.000 C 
BRANCH   5   6
ATOM      6  C   UNL     1      15.124  33.458  67.870  1.00  0.00     0.006 C 
BRANCH   6   7
ATOM      7  C   UNL     1      15.714  34.481  66.884  1.00  0.00     0.053 C 
BRANCH   7   8
ATOM      8  C   UNL     1      14.808  35.650  66.658  1.00  0.00     0.041 C 
ATOM      9  O   UNL     1      14.894  36.326  65.599  1.00  0.00    -0.550 OA
ATOM     10  O   UNL     1      13.859  35.993  67.614  1.00  0.00    -0.550 OA
ENDBRANCH   7   8
ENDBRANCH   6   7
ENDBRANCH   5   6
ENDBRANCH   4   5
ENDBRANCH   3   4
ENDBRANCH   2   3
ENDBRANCH   1   2
BRANCH   1  11
ATOM     11  C   UNL     1      18.319  30.912  70.772  1.00  0.00     0.000 C 
BRANCH  11  12
ATOM     12  C   UNL     1      18.839  29.735  69.934  1.00  0.00    -0.000 C 
BRANCH  12  13
ATOM     13  C   UNL     1      19.045  30.152  68.471  1.00  0.00    -0.000 C 
BRANCH  13  14
ATOM     14  C   UNL     1      18.652  31.617  68.204  1.00  0.00    -0.000 C 
BRANCH  14  15
ATOM     15  C   UNL     1      19.109  32.175  66.843  1.00  0.00    -0.000 C 
BRANCH  15  16
ATOM     16  C   UNL     1      19.470  31.111  65.789  1.00  0.00    -0.000 C 
BRANCH  16  17
ATOM     17  C   UNL     1      18.513  31.085  64.578  1.00  0.00    -0.003 C 
ATOM     18  C   UNL     1      17.077  30.737  64.968  1.00  0.00     0.004 C 
ENDBRANCH  16  17
ENDBRANCH  15  16
ENDBRANCH  14  15
ENDBRANCH  13  14
ENDBRANCH  12  13
ENDBRANCH  11  12
ENDBRANCH   1  11
TORSDOF 14
ENDMDL
MODEL 5
REMARK VINA RESULT:    -4.210      1.039      2.206
REMARK INTER + INTRA:          -9.397
REMARK INTER:                  -7.540
REMARK INTRA:                  -1.856
REMARK UNBOUND:                -1.741
REMARK SMILES CCCCCCCCCCCCCCCC(=O)[O-]
REMARK SMILES IDX 9 1 10 2 11 3 12 4 13 5 14 6 15 7 16 8 17 9 18 10 8 11 7 12
REMARK SMILES IDX 6 13 5 14 4 15 3 16 2 17 1 18
REMARK H PARENT
REMARK Flexibility Score: inf
ROOT
ATOM      1  C   UNL     1      17.561  30.903  71.212  1.00  0.00     0.000 C 
ENDROOT
BRANCH   1   2
ATOM      2  C   UNL     1      18.987  30.861  70.627  1.00  0.00     0.000 C 
BRANCH   2   3
ATOM      3  C   UNL     1      19.092  31.209  69.129  1.00  0.00     0.000 C 
BRANCH   3   4
ATOM      4  C   UNL     1      18.658  30.084  68.172  1.00  0.00     0.000 C 
BRANCH   4   5
ATOM      5  C   UNL     1      18.128  30.615  66.830  1.00  0.00     0.000 C 
BRANCH   5   6
ATOM      6  C   UNL     1      19.254  30.975  65.841  1.00  0.00     0.006 C 
BRANCH   6   7
ATOM      7  C   UNL     1      19.019  32.297  65.089  1.00  0.00     0.053 C 
BRANCH   7   8
ATOM      8  C   UNL     1      19.319  33.497  65.931  1.00  0.00     0.041 C 
ATOM      9  O   UNL     1      18.391  34.092  66.540  1.00  0.00    -0.550 OA
ATOM     10  O   UNL     1      20.624  33.958  66.051  1.00  0.00    -0.550 OA
ENDBRANCH   7   8
ENDBRANCH   6   7
ENDBRANCH   5   6
ENDBRANCH   4   5
ENDBRANCH   3   4
ENDBRANCH   2   3
ENDBRANCH   1   2
BRANCH   1  11
ATOM     11  C   UNL     1      16.904  29.527  71.420  1.00  0.00     0.000 C 
BRANCH  11  12
ATOM     12  C   UNL     1      15.703  29.292  70.493  1.00  0.00    -0.000 C 
BRANCH  12  13
ATOM     13  C   UNL     1      14.887  30.581  70.318  1.00  0.00    -0.000 C 
BRANCH  13  14
ATOM     14  C   UNL     1      14.737  31.001  68.843  1.00  0.00    -0.000 C 
BRANCH  14  15
ATOM     15  C   UNL     1      15.363  32.362  68.489  1.00  0.00    -0.000 C 
BRANCH  15  16
ATOM     16  C   UNL     1      14.964  32.926  67.112  1.00  0.00    -0.000 C 
BRANCH  16  17
ATOM     17  C   UNL     1      14.958  34.469  67.050  1.00  0.00    -0.003 C 
ATOM     18  C   UNL     1      13.708  35.080  67.683  1.00  0.00     0.004 C 
ENDBRANCH  16  17
ENDBRANCH  15  16
ENDBRANCH  14  15
ENDBRANCH  13  14
ENDBRANCH  12  13
ENDBRANCH  11  12
ENDBRANCH   1  11
TORSDOF 14
ENDMDL
MODEL 6
REMARK VINA RESULT:    -4.191      1.676      2.627
REMARK INTER + INTRA:          -9.363
REMARK INTER:                  -7.047
REMARK INTRA:                  -2.316
REMARK UNBOUND:                -1.741
REMARK SMILES CCCCCCCCCCCCCCCC(=O)[O-]
REMARK SMILES IDX 9 1 10 2 11 3 12 4 13 5 14 6 15 7 16 8 17 9 18 10 8 11 7 12
REMARK SMILES IDX 6 13 5 14 4 15 3 16 2 17 1 18
REMARK H PARENT
REMARK Flexibility Score: inf
ROOT
ATOM      1  C   UNL     1      15.530  31.282  69.616  1.00  0.00     0.000 C 
ENDROOT
BRANCH   1   2
ATOM      2  C   UNL     1      15.735  30.440  70.891  1.00  0.00     0.000 C 
BRANCH   2   3
ATOM      3  C   UNL     1      17.177  29.944  71.124  1.00  0.00     0.000 C 
BRANCH   3   4
ATOM      4  C   UNL     1      18.257  31.039  71.055  1.00  0.00     0.000 C 
BRANCH   4   5
ATOM      5  C   UNL     1      19.497  30.603  70.256  1.00  0.00     0.000 C 
BRANCH   5   6
ATOM      6  C   UNL     1      19.220  30.474  68.745  1.00  0.00     0.006 C 
BRANCH   6   7
ATOM      7  C   UNL     1      19.366  31.797  67.974  1.00  0.00     0.053 C 
BRANCH   7   8
ATOM      8  C   UNL     1      19.369  31.599  66.491  1.00  0.00     0.041 C 
ATOM      9  O   UNL     1      19.203  32.580  65.719  1.00  0.00    -0.550 OA
ATOM     10  O   UNL     1      19.564  30.331  65.956  1.00  0.00    -0.550 OA
ENDBRANCH   7   8
ENDBRANCH   6   7
ENDBRANCH   5   6
ENDBRANCH   4   5
ENDBRANCH   3   4
ENDBRANCH   2   3
ENDBRANCH   1   2
BRANCH   1  11
ATOM     11  C   UNL     1      15.612  30.493  68.297  1.00  0.00     0.000 C 
BRANCH  11  12
ATOM     12  C   UNL     1      15.694  31.402  67.062  1.00  0.00    -0.000 C 
BRANCH  12  13
ATOM     13  C   UNL     1      15.940  32.861  67.470  1.00  0.00    -0.000 C 
BRANCH  13  14
ATOM     14  C   UNL     1      14.799  33.804  67.044  1.00  0.00    -0.000 C 
BRANCH  14  15
ATOM     15  C   UNL     1      13.388  33.193  67.121  1.00  0.00    -0.000 C 
BRANCH  15  16
ATOM     16  C   UNL     1      12.699  33.311  68.495  1.00  0.00    -0.000 C 
BRANCH  16  17
ATOM     17  C   UNL     1      11.887  32.059  68.893  1.00  0.00    -0.003 C 
ATOM     18  C   UNL     1      11.959  30.951  67.843  1.00  0.00     0.004 C 
ENDBRANCH  16  17
ENDBRANCH  15  16
ENDBRANCH  14  15
ENDBRANCH  13  14
ENDBRANCH  12  13
ENDBRANCH  11  12
ENDBRANCH   1  11
TORSDOF 14
ENDMDL
MODEL 7
REMARK VINA RESULT:    -4.187      2.096      5.326
REMARK INTER + INTRA:          -9.355
REMARK INTER:                  -7.341
REMARK INTRA:                  -2.013
REMARK UNBOUND:                -1.741
REMARK SMILES CCCCCCCCCCCCCCCC(=O)[O-]
REMARK SMILES IDX 9 1 10 2 11 3 12 4 13 5 14 6 15 7 16 8 17 9 18 10 8 11 7 12
REMARK SMILES IDX 6 13 5 14 4 15 3 16 2 17 1 18
REMARK H PARENT
REMARK Flexibility Score: inf
ROOT
ATOM      1  C   UNL     1      14.335  29.657  68.775  1.00  0.00     0.000 C 
ENDROOT
BRANCH   1   2
ATOM      2  C   UNL     1      14.041  31.111  69.195  1.00  0.00     0.000 C 
BRANCH   2   3
ATOM      3  C   UNL     1      12.616  31.609  68.883  1.00  0.00     0.000 C 
BRANCH   3   4
ATOM      4  C   UNL     1      12.542  32.757  67.860  1.00  0.00     0.000 C 
BRANCH   4   5
ATOM      5  C   UNL     1      13.644  32.674  66.790  1.00  0.00     0.000 C 
BRANCH   5   6
ATOM      6  C   UNL     1      14.455  33.979  66.666  1.00  0.00     0.006 C 
BRANCH   6   7
ATOM      7  C   UNL     1      14.147  35.008  67.767  1.00  0.00     0.053 C 
BRANCH   7   8
ATOM      8  C   UNL     1      14.696  36.364  67.455  1.00  0.00     0.041 C 
ATOM      9  O   UNL     1      15.929  36.591  67.571  1.00  0.00    -0.550 OA
ATOM     10  O   UNL     1      13.849  37.380  67.028  1.00  0.00    -0.550 OA
ENDBRANCH   7   8
ENDBRANCH   6   7
ENDBRANCH   5   6
ENDBRANCH   4   5
ENDBRANCH   3   4
ENDBRANCH   2   3
ENDBRANCH   1   2
BRANCH   1  11
ATOM     11  C   UNL     1      15.003  28.791  69.858  1.00  0.00     0.000 C 
BRANCH  11  12
ATOM     12  C   UNL     1      15.136  29.517  71.204  1.00  0.00    -0.000 C 
BRANCH  12  13
ATOM     13  C   UNL     1      16.604  29.589  71.646  1.00  0.00    -0.000 C 
BRANCH  13  14
ATOM     14  C   UNL     1      17.286  30.911  71.250  1.00  0.00    -0.000 C 
BRANCH  14  15
ATOM     15  C   UNL     1      18.509  30.760  70.325  1.00  0.00    -0.000 C 
BRANCH  15  16
ATOM     16  C   UNL     1      18.181  30.418  68.859  1.00  0.00    -0.000 C 
BRANCH  16  17
ATOM     17  C   UNL     1      17.466  31.556  68.100  1.00  0.00    -0.003 C 
ATOM     18  C   UNL     1      17.116  31.177  66.661  1.00  0.00     0.004 C 
ENDBRANCH  16  17
ENDBRANCH  15  16
ENDBRANCH  14  15
ENDBRANCH  13  14
ENDBRANCH  12  13
ENDBRANCH  11  12
ENDBRANCH   1  11
TORSDOF 14
ENDMDL
MODEL 8
REMARK VINA RESULT:    -4.176      1.139      5.196
REMARK INTER + INTRA:          -9.335
REMARK INTER:                  -7.733
REMARK INTRA:                  -1.602
REMARK UNBOUND:                -1.741
REMARK SMILES CCCCCCCCCCCCCCCC(=O)[O-]
REMARK SMILES IDX 9 1 10 2 11 3 12 4 13 5 14 6 15 7 16 8 17 9 18 10 8 11 7 12
REMARK SMILES IDX 6 13 5 14 4 15 3 16 2 17 1 18
REMARK H PARENT
REMARK Flexibility Score: inf
ROOT
ATOM      1  C   UNL     1      14.245  32.930  66.815  1.00  0.00     0.000 C 
ENDROOT
BRANCH   1   2
ATOM      2  C   UNL     1      13.725  34.000  67.797  1.00  0.00     0.000 C 
BRANCH   2   3
ATOM      3  C   UNL     1      14.207  35.437  67.516  1.00  0.00     0.000 C 
BRANCH   3   4
ATOM      4  C   UNL     1      14.913  35.630  66.162  1.00  0.00     0.000 C 
BRANCH   4   5
ATOM      5  C   UNL     1      16.388  36.039  66.312  1.00  0.00     0.000 C 
BRANCH   5   6
ATOM      6  C   UNL     1      17.326  34.832  66.505  1.00  0.00     0.006 C 
BRANCH   6   7
ATOM      7  C   UNL     1      18.417  34.717  65.426  1.00  0.00     0.053 C 
BRANCH   7   8
ATOM      8  C   UNL     1      19.494  33.748  65.800  1.00  0.00     0.041 C 
ATOM      9  O   UNL     1      20.417  34.096  66.583  1.00  0.00    -0.550 OA
ATOM     10  O   UNL     1      19.478  32.456  65.290  1.00  0.00    -0.550 OA
ENDBRANCH   7   8
ENDBRANCH   6   7
ENDBRANCH   5   6
ENDBRANCH   4   5
ENDBRANCH   3   4
ENDBRANCH   2   3
ENDBRANCH   1   2
BRANCH   1  11
ATOM     11  C   UNL     1      14.953  31.733  67.475  1.00  0.00     0.000 C 
BRANCH  11  12
ATOM     12  C   UNL     1      15.454  32.044  68.893  1.00  0.00    -0.000 C 
BRANCH  12  13
ATOM     13  C   UNL     1      14.991  30.968  69.886  1.00  0.00    -0.000 C 
BRANCH  13  14
ATOM     14  C   UNL     1      16.074  29.912  70.173  1.00  0.00    -0.000 C 
BRANCH  14  15
ATOM     15  C   UNL     1      16.989  30.229  71.371  1.00  0.00    -0.000 C 
BRANCH  15  16
ATOM     16  C   UNL     1      18.275  31.004  71.024  1.00  0.00    -0.000 C 
BRANCH  16  17
ATOM     17  C   UNL     1      19.055  30.413  69.830  1.00  0.00    -0.003 C 
ATOM     18  C   UNL     1      19.269  31.425  68.706  1.00  0.00     0.004 C 
ENDBRANCH  16  17
ENDBRANCH  15  16
ENDBRANCH  14  15
ENDBRANCH  13  14
ENDBRANCH  12  13
ENDBRANCH  11  12
ENDBRANCH   1  11
TORSDOF 14
ENDMDL
MODEL 9
REMARK VINA RESULT:    -4.137      2.171      5.065
REMARK INTER + INTRA:          -9.264
REMARK INTER:                  -7.242
REMARK INTRA:                  -2.022
REMARK UNBOUND:                -1.741
REMARK SMILES CCCCCCCCCCCCCCCC(=O)[O-]
REMARK SMILES IDX 9 1 10 2 11 3 12 4 13 5 14 6 15 7 16 8 17 9 18 10 8 11 7 12
REMARK SMILES IDX 6 13 5 14 4 15 3 16 2 17 1 18
REMARK H PARENT
REMARK Flexibility Score: inf
ROOT
ATOM      1  C   UNL     1      17.612  30.952  65.408  1.00  0.00     0.000 C 
ENDROOT
BRANCH   1   2
ATOM      2  C   UNL     1      18.952  31.402  66.027  1.00  0.00     0.000 C 
BRANCH   2   3
ATOM      3  C   UNL     1      18.846  32.539  67.063  1.00  0.00     0.000 C 
BRANCH   3   4
ATOM      4  C   UNL     1      19.242  33.931  66.538  1.00  0.00     0.000 C 
BRANCH   4   5
ATOM      5  C   UNL     1      18.267  34.466  65.476  1.00  0.00     0.000 C 
BRANCH   5   6
ATOM      6  C   UNL     1      17.374  35.607  66.004  1.00  0.00     0.006 C 
BRANCH   6   7
ATOM      7  C   UNL     1      16.198  35.123  66.869  1.00  0.00     0.053 C 
BRANCH   7   8
ATOM      8  C   UNL     1      14.908  35.791  66.510  1.00  0.00     0.041 C 
ATOM      9  O   UNL     1      14.827  36.497  65.470  1.00  0.00    -0.550 OA
ATOM     10  O   UNL     1      13.790  35.630  67.318  1.00  0.00    -0.550 OA
ENDBRANCH   7   8
ENDBRANCH   6   7
ENDBRANCH   5   6
ENDBRANCH   4   5
ENDBRANCH   3   4
ENDBRANCH   2   3
ENDBRANCH   1   2
BRANCH   1  11
ATOM     11  C   UNL     1      16.490  30.672  66.423  1.00  0.00     0.000 C 
BRANCH  11  12
ATOM     12  C   UNL     1      15.279  31.599  66.245  1.00  0.00    -0.000 C 
BRANCH  12  13
ATOM     13  C   UNL     1      14.603  31.883  67.593  1.00  0.00    -0.000 C 
BRANCH  13  14
ATOM     14  C   UNL     1      15.598  31.919  68.768  1.00  0.00    -0.000 C 
BRANCH  14  15
ATOM     15  C   UNL     1      15.151  31.146  70.022  1.00  0.00    -0.000 C 
BRANCH  15  16
ATOM     16  C   UNL     1      16.295  30.564  70.874  1.00  0.00    -0.000 C 
BRANCH  16  17
ATOM     17  C   UNL     1      17.587  30.287  70.075  1.00  0.00    -0.003 C 
ATOM     18  C   UNL     1      18.788  31.069  70.606  1.00  0.00     0.004 C 
ENDBRANCH  16  17
ENDBRANCH  15  16
ENDBRANCH  14  15
ENDBRANCH  13  14
ENDBRANCH  12  13
ENDBRANCH  11  12
ENDBRANCH   1  11
TORSDOF 14
ENDMDL
