MODEL 1
REMARK VINA RESULT:    -4.574      0.000      0.000
REMARK INTER + INTRA:          -5.294
REMARK INTER:                  -4.975
REMARK INTRA:                  -0.319
REMARK UNBOUND:                -0.319
REMARK SMILES C=C1C[C@]2(O)O[C@]3(C[C@H]2C(C)C)[C@H](C)CC[C@H]13
REMARK SMILES IDX 14 1 13 2 15 3 16 4 17 5 7 6 8 7 9 8 4 9 6 10 3 11 2 12 1 13
REMARK SMILES IDX 10 14 11 15 12 16 5 17
REMARK H PARENT 5 18
REMARK Flexibility Score: inf
ROOT
ATOM      1  C   UNL     1      45.575  15.306  -5.221  1.00  0.00     0.011 C 
ATOM      2  C   UNL     1      46.883  16.000  -4.821  1.00  0.00     0.019 C 
ATOM      3  C   UNL     1      47.358  17.002  -5.883  1.00  0.00     0.007 C 
ATOM      4  C   UNL     1      48.886  16.914  -5.931  1.00  0.00     0.011 C 
ATOM      5  C   UNL     1      49.298  15.949  -4.817  1.00  0.00     0.047 C 
ATOM      6  C   UNL     1      48.069  15.045  -4.610  1.00  0.00     0.081 C 
ATOM      7  C   UNL     1      48.092  14.352  -3.244  1.00  0.00     0.046 C 
ATOM      8  C   UNL     1      48.777  13.016  -3.542  1.00  0.00     0.054 C 
ATOM      9  C   UNL     1      49.028  13.097  -5.081  1.00  0.00     0.173 C 
ATOM     10  O   UNL     1      48.087  14.018  -5.578  1.00  0.00    -0.342 OA
ATOM     11  C   UNL     1      50.446  13.654  -5.409  1.00  0.00     0.096 C 
ATOM     12  C   UNL     1      50.541  15.146  -5.163  1.00  0.00    -0.066 C 
ATOM     13  C   UNL     1      51.729  15.759  -5.263  1.00  0.00     0.008 C 
ENDROOT
BRANCH   8  14
ATOM     14  C   UNL     1      47.937  11.812  -2.994  1.00  0.00    -0.009 C 
ATOM     15  C   UNL     1      48.452  11.207  -1.673  1.00  0.00     0.008 C 
ATOM     16  C   UNL     1      46.438  12.134  -2.892  1.00  0.00     0.008 C 
ENDBRANCH   8  14
BRANCH   9  17
ATOM     17  O   UNL     1      48.842  11.863  -5.726  1.00  0.00    -0.365 OA
ATOM     18  H   UNL     1      48.611  11.189  -5.034  1.00  0.00     0.214 HD
ENDBRANCH   9  17
TORSDOF 2
ENDMDL
MODEL 2
REMARK VINA RESULT:    -4.556      6.915      8.968
REMARK INTER + INTRA:          -5.274
REMARK INTER:                  -5.053
REMARK INTRA:                  -0.221
REMARK UNBOUND:                -0.319
REMARK SMILES C=C1C[C@]2(O)O[C@]3(C[C@H]2C(C)C)[C@H](C)CC[C@H]13
REMARK SMILES IDX 14 1 13 2 15 3 16 4 17 5 7 6 8 7 9 8 4 9 6 10 3 11 2 12 1 13
REMARK SMILES IDX 10 14 11 15 12 16 5 17
REMARK H PARENT 5 18
REMARK Flexibility Score: inf
ROOT
ATOM      1  C   UNL     1      41.933  16.520  -5.696  1.00  0.00     0.011 C 
ATOM      2  C   UNL     1      42.476  16.891  -4.310  1.00  0.00     0.019 C 
ATOM      3  C   UNL     1      41.513  16.493  -3.183  1.00  0.00     0.007 C 
ATOM      4  C   UNL     1      41.587  17.594  -2.122  1.00  0.00     0.011 C 
ATOM      5  C   UNL     1      42.676  18.565  -2.581  1.00  0.00     0.047 C 
ATOM      6  C   UNL     1      42.732  18.393  -4.110  1.00  0.00     0.081 C 
ATOM      7  C   UNL     1      44.055  18.897  -4.694  1.00  0.00     0.046 C 
ATOM      8  C   UNL     1      43.741  20.348  -5.068  1.00  0.00     0.054 C 
ATOM      9  C   UNL     1      42.235  20.482  -4.680  1.00  0.00     0.173 C 
ATOM     10  O   UNL     1      41.713  19.175  -4.697  1.00  0.00    -0.342 OA
ATOM     11  C   UNL     1      42.055  21.039  -3.236  1.00  0.00     0.096 C 
ATOM     12  C   UNL     1      42.389  20.003  -2.182  1.00  0.00    -0.066 C 
ATOM     13  C   UNL     1      42.421  20.359  -0.891  1.00  0.00     0.008 C 
ENDROOT
BRANCH   8  14
ATOM     14  C   UNL     1      44.152  20.655  -6.549  1.00  0.00    -0.009 C 
ATOM     15  C   UNL     1      44.692  22.078  -6.793  1.00  0.00     0.008 C 
ATOM     16  C   UNL     1      45.116  19.606  -7.125  1.00  0.00     0.008 C 
ENDBRANCH   8  14
BRANCH   9  17
ATOM     17  O   UNL     1      41.510  21.273  -5.587  1.00  0.00    -0.365 OA
ATOM     18  H   UNL     1      41.339  22.151  -5.156  1.00  0.00     0.214 HD
ENDBRANCH   9  17
TORSDOF 2
ENDMDL
MODEL 3
REMARK VINA RESULT:    -4.524      1.726      4.511
REMARK INTER + INTRA:          -5.240
REMARK INTER:                  -4.965
REMARK INTRA:                  -0.274
REMARK UNBOUND:                -0.319
REMARK SMILES C=C1C[C@]2(O)O[C@]3(C[C@H]2C(C)C)[C@H](C)CC[C@H]13
REMARK SMILES IDX 14 1 13 2 15 3 16 4 17 5 7 6 8 7 9 8 4 9 6 10 3 11 2 12 1 13
REMARK SMILES IDX 10 14 11 15 12 16 5 17
REMARK H PARENT 5 18
REMARK Flexibility Score: inf
ROOT
ATOM      1  C   UNL     1      47.755  13.514  -2.474  1.00  0.00     0.011 C 
ATOM      2  C   UNL     1      47.955  12.633  -3.714  1.00  0.00     0.019 C 
ATOM      3  C   UNL     1      48.531  11.255  -3.362  1.00  0.00     0.007 C 
ATOM      4  C   UNL     1      49.502  10.875  -4.483  1.00  0.00     0.011 C 
ATOM      5  C   UNL     1      49.397  11.978  -5.537  1.00  0.00     0.047 C 
ATOM      6  C   UNL     1      48.920  13.218  -4.758  1.00  0.00     0.081 C 
ATOM      7  C   UNL     1      48.297  14.269  -5.682  1.00  0.00     0.046 C 
ATOM      8  C   UNL     1      49.479  15.182  -6.018  1.00  0.00     0.054 C 
ATOM      9  C   UNL     1      50.644  14.548  -5.195  1.00  0.00     0.173 C 
ATOM     10  O   UNL     1      50.034  13.834  -4.148  1.00  0.00    -0.342 OA
ATOM     11  C   UNL     1      51.466  13.529  -6.041  1.00  0.00     0.096 C 
ATOM     12  C   UNL     1      50.712  12.233  -6.256  1.00  0.00    -0.066 C 
ATOM     13  C   UNL     1      51.217  11.302  -7.079  1.00  0.00     0.008 C 
ENDROOT
BRANCH   8  14
ATOM     14  C   UNL     1      49.127  16.687  -5.761  1.00  0.00    -0.009 C 
ATOM     15  C   UNL     1      49.415  17.635  -6.941  1.00  0.00     0.008 C 
ATOM     16  C   UNL     1      47.689  16.879  -5.253  1.00  0.00     0.008 C 
ENDBRANCH   8  14
BRANCH   9  17
ATOM     17  O   UNL     1      51.506  15.512  -4.646  1.00  0.00    -0.365 OA
ATOM     18  H   UNL     1      51.686  15.258  -3.703  1.00  0.00     0.214 HD
ENDBRANCH   9  17
TORSDOF 2
ENDMDL
MODEL 4
REMARK VINA RESULT:    -4.396      4.870      7.641
REMARK INTER + INTRA:          -5.100
REMARK INTER:                  -4.855
REMARK INTRA:                  -0.246
REMARK UNBOUND:                -0.319
REMARK SMILES C=C1C[C@]2(O)O[C@]3(C[C@H]2C(C)C)[C@H](C)CC[C@H]13
REMARK SMILES IDX 14 1 13 2 15 3 16 4 17 5 7 6 8 7 9 8 4 9 6 10 3 11 2 12 1 13
REMARK SMILES IDX 10 14 11 15 12 16 5 17
REMARK H PARENT 5 18
REMARK Flexibility Score: inf
ROOT
ATOM      1  C   UNL     1      43.507  20.893  -3.171  1.00  0.00     0.011 C 
ATOM      2  C   UNL     1      42.269  20.036  -3.465  1.00  0.00     0.019 C 
ATOM      3  C   UNL     1      41.220  20.128  -2.348  1.00  0.00     0.007 C 
ATOM      4  C   UNL     1      40.598  18.736  -2.203  1.00  0.00     0.011 C 
ATOM      5  C   UNL     1      41.204  17.874  -3.312  1.00  0.00     0.047 C 
ATOM      6  C   UNL     1      42.559  18.535  -3.623  1.00  0.00     0.081 C 
ATOM      7  C   UNL     1      43.089  18.131  -5.003  1.00  0.00     0.046 C 
ATOM      8  C   UNL     1      43.975  16.921  -4.695  1.00  0.00     0.054 C 
ATOM      9  C   UNL     1      43.870  16.808  -3.142  1.00  0.00     0.173 C 
ATOM     10  O   UNL     1      43.514  18.089  -2.683  1.00  0.00    -0.342 OA
ATOM     11  C   UNL     1      42.742  15.824  -2.706  1.00  0.00     0.096 C 
ATOM     12  C   UNL     1      41.363  16.418  -2.906  1.00  0.00    -0.066 C 
ATOM     13  C   UNL     1      40.279  15.654  -2.713  1.00  0.00     0.008 C 
ENDROOT
BRANCH   8  14
ATOM     14  C   UNL     1      45.399  17.083  -5.329  1.00  0.00    -0.009 C 
ATOM     15  C   UNL     1      45.978  15.803  -5.963  1.00  0.00     0.008 C 
ATOM     16  C   UNL     1      45.476  18.257  -6.316  1.00  0.00     0.008 C 
ENDBRANCH   8  14
BRANCH   9  17
ATOM     17  O   UNL     1      45.084  16.432  -2.543  1.00  0.00    -0.365 OA
ATOM     18  H   UNL     1      45.623  15.950  -3.223  1.00  0.00     0.214 HD
ENDBRANCH   9  17
TORSDOF 2
ENDMDL
MODEL 5
REMARK VINA RESULT:    -4.281      1.464      2.237
REMARK INTER + INTRA:          -4.975
REMARK INTER:                  -4.655
REMARK INTRA:                  -0.320
REMARK UNBOUND:                -0.319
REMARK SMILES C=C1C[C@]2(O)O[C@]3(C[C@H]2C(C)C)[C@H](C)CC[C@H]13
REMARK SMILES IDX 14 1 13 2 15 3 16 4 17 5 7 6 8 7 9 8 4 9 6 10 3 11 2 12 1 13
REMARK SMILES IDX 10 14 11 15 12 16 5 17
REMARK H PARENT 5 18
REMARK Flexibility Score: inf
ROOT
ATOM      1  C   UNL     1      48.187  16.559  -5.855  1.00  0.00     0.011 C 
ATOM      2  C   UNL     1      49.690  16.310  -5.675  1.00  0.00     0.019 C 
ATOM      3  C   UNL     1      50.508  16.804  -6.876  1.00  0.00     0.007 C 
ATOM      4  C   UNL     1      51.644  15.800  -7.087  1.00  0.00     0.011 C 
ATOM      5  C   UNL     1      51.550  14.793  -5.938  1.00  0.00     0.047 C 
ATOM      6  C   UNL     1      50.073  14.831  -5.507  1.00  0.00     0.081 C 
ATOM      7  C   UNL     1      49.876  14.280  -4.091  1.00  0.00     0.046 C 
ATOM      8  C   UNL     1      49.561  12.801  -4.334  1.00  0.00     0.054 C 
ATOM      9  C   UNL     1      49.577  12.700  -5.892  1.00  0.00     0.173 C 
ATOM     10  O   UNL     1      49.322  14.000  -6.367  1.00  0.00    -0.342 OA
ATOM     11  C   UNL     1      50.975  12.271  -6.431  1.00  0.00     0.096 C 
ATOM     12  C   UNL     1      51.987  13.395  -6.343  1.00  0.00    -0.066 C 
ATOM     13  C   UNL     1      53.272  13.153  -6.635  1.00  0.00     0.008 C 
ENDROOT
BRANCH   8  14
ATOM     14  C   UNL     1      48.258  12.366  -3.580  1.00  0.00    -0.009 C 
ATOM     15  C   UNL     1      48.489  11.706  -2.207  1.00  0.00     0.008 C 
ATOM     16  C   UNL     1      47.233  13.506  -3.465  1.00  0.00     0.008 C 
ENDBRANCH   8  14
BRANCH   9  17
ATOM     17  O   UNL     1      48.591  11.833  -6.389  1.00  0.00    -0.365 OA
ATOM     18  H   UNL     1      48.800  10.917  -6.068  1.00  0.00     0.214 HD
ENDBRANCH   9  17
TORSDOF 2
ENDMDL
MODEL 6
REMARK VINA RESULT:    -4.256      1.766      4.341
REMARK INTER + INTRA:          -4.948
REMARK INTER:                  -4.652
REMARK INTRA:                  -0.296
REMARK UNBOUND:                -0.319
REMARK SMILES C=C1C[C@]2(O)O[C@]3(C[C@H]2C(C)C)[C@H](C)CC[C@H]13
REMARK SMILES IDX 14 1 13 2 15 3 16 4 17 5 7 6 8 7 9 8 4 9 6 10 3 11 2 12 1 13
REMARK SMILES IDX 10 14 11 15 12 16 5 17
REMARK H PARENT 5 18
REMARK Flexibility Score: inf
ROOT
ATOM      1  C   UNL     1      47.424  12.909  -1.165  1.00  0.00     0.011 C 
ATOM      2  C   UNL     1      47.521  12.208  -2.527  1.00  0.00     0.019 C 
ATOM      3  C   UNL     1      48.775  11.330  -2.641  1.00  0.00     0.007 C 
ATOM      4  C   UNL     1      49.281  11.458  -4.081  1.00  0.00     0.011 C 
ATOM      5  C   UNL     1      48.255  12.314  -4.825  1.00  0.00     0.047 C 
ATOM      6  C   UNL     1      47.587  13.164  -3.729  1.00  0.00     0.081 C 
ATOM      7  C   UNL     1      46.231  13.716  -4.179  1.00  0.00     0.046 C 
ATOM      8  C   UNL     1      46.587  15.091  -4.751  1.00  0.00     0.054 C 
ATOM      9  C   UNL     1      48.128  15.171  -4.514  1.00  0.00     0.173 C 
ATOM     10  O   UNL     1      48.403  14.284  -3.457  1.00  0.00    -0.342 OA
ATOM     11  C   UNL     1      48.932  14.683  -5.756  1.00  0.00     0.096 C 
ATOM     12  C   UNL     1      48.882  13.176  -5.908  1.00  0.00    -0.066 C 
ATOM     13  C   UNL     1      49.405  12.604  -7.001  1.00  0.00     0.008 C 
ENDROOT
BRANCH   8  14
ATOM     14  C   UNL     1      45.685  16.214  -4.133  1.00  0.00    -0.009 C 
ATOM     15  C   UNL     1      44.816  16.983  -5.147  1.00  0.00     0.008 C 
ATOM     16  C   UNL     1      44.829  15.707  -2.962  1.00  0.00     0.008 C 
ENDBRANCH   8  14
BRANCH   9  17
ATOM     17  O   UNL     1      48.553  16.459  -4.149  1.00  0.00    -0.365 OA
ATOM     18  H   UNL     1      48.661  16.991  -4.981  1.00  0.00     0.214 HD
ENDBRANCH   9  17
TORSDOF 2
ENDMDL
MODEL 7
REMARK VINA RESULT:    -4.239      1.435      3.870
REMARK INTER + INTRA:          -4.930
REMARK INTER:                  -4.619
REMARK INTRA:                  -0.310
REMARK UNBOUND:                -0.319
REMARK SMILES C=C1C[C@]2(O)O[C@]3(C[C@H]2C(C)C)[C@H](C)CC[C@H]13
REMARK SMILES IDX 14 1 13 2 15 3 16 4 17 5 7 6 8 7 9 8 4 9 6 10 3 11 2 12 1 13
REMARK SMILES IDX 10 14 11 15 12 16 5 17
REMARK H PARENT 5 18
REMARK Flexibility Score: inf
ROOT
ATOM      1  C   UNL     1      49.904  16.762  -6.744  1.00  0.00     0.011 C 
ATOM      2  C   UNL     1      50.277  15.817  -5.595  1.00  0.00     0.019 C 
ATOM      3  C   UNL     1      51.384  14.830  -5.990  1.00  0.00     0.007 C 
ATOM      4  C   UNL     1      51.059  13.497  -5.311  1.00  0.00     0.011 C 
ATOM      5  C   UNL     1      49.833  13.747  -4.432  1.00  0.00     0.047 C 
ATOM      6  C   UNL     1      49.118  14.942  -5.091  1.00  0.00     0.081 C 
ATOM      7  C   UNL     1      48.166  15.645  -4.119  1.00  0.00     0.046 C 
ATOM      8  C   UNL     1      46.826  14.953  -4.384  1.00  0.00     0.054 C 
ATOM      9  C   UNL     1      47.179  13.949  -5.525  1.00  0.00     0.173 C 
ATOM     10  O   UNL     1      48.323  14.469  -6.158  1.00  0.00    -0.342 OA
ATOM     11  C   UNL     1      47.552  12.543  -4.966  1.00  0.00     0.096 C 
ATOM     12  C   UNL     1      48.925  12.532  -4.326  1.00  0.00    -0.066 C 
ATOM     13  C   UNL     1      49.343  11.439  -3.673  1.00  0.00     0.008 C 
ENDROOT
BRANCH   8  14
ATOM     14  C   UNL     1      45.688  15.999  -4.647  1.00  0.00    -0.009 C 
ATOM     15  C   UNL     1      44.930  16.467  -3.389  1.00  0.00     0.008 C 
ATOM     16  C   UNL     1      46.172  17.205  -5.466  1.00  0.00     0.008 C 
ENDBRANCH   8  14
BRANCH   9  17
ATOM     17  O   UNL     1      46.152  13.824  -6.475  1.00  0.00    -0.365 OA
ATOM     18  H   UNL     1      45.304  14.113  -6.046  1.00  0.00     0.214 HD
ENDBRANCH   9  17
TORSDOF 2
ENDMDL
MODEL 8
REMARK VINA RESULT:    -4.206      1.879      3.879
REMARK INTER + INTRA:          -4.894
REMARK INTER:                  -4.574
REMARK INTRA:                  -0.320
REMARK UNBOUND:                -0.319
REMARK SMILES C=C1C[C@]2(O)O[C@]3(C[C@H]2C(C)C)[C@H](C)CC[C@H]13
REMARK SMILES IDX 14 1 13 2 15 3 16 4 17 5 7 6 8 7 9 8 4 9 6 10 3 11 2 12 1 13
REMARK SMILES IDX 10 14 11 15 12 16 5 17
REMARK H PARENT 5 18
REMARK Flexibility Score: inf
ROOT
ATOM      1  C   UNL     1      48.878  12.166  -3.126  1.00  0.00     0.011 C 
ATOM      2  C   UNL     1      48.961  12.962  -4.435  1.00  0.00     0.019 C 
ATOM      3  C   UNL     1      50.232  13.819  -4.514  1.00  0.00     0.007 C 
ATOM      4  C   UNL     1      49.847  15.128  -5.208  1.00  0.00     0.011 C 
ATOM      5  C   UNL     1      48.385  14.979  -5.633  1.00  0.00     0.047 C 
ATOM      6  C   UNL     1      47.799  13.945  -4.654  1.00  0.00     0.081 C 
ATOM      7  C   UNL     1      46.518  13.304  -5.199  1.00  0.00     0.046 C 
ATOM      8  C   UNL     1      45.412  14.187  -4.616  1.00  0.00     0.054 C 
ATOM      9  C   UNL     1      46.213  15.219  -3.761  1.00  0.00     0.173 C 
ATOM     10  O   UNL     1      47.439  14.599  -3.456  1.00  0.00    -0.342 OA
ATOM     11  C   UNL     1      46.532  16.515  -4.564  1.00  0.00     0.096 C 
ATOM     12  C   UNL     1      47.622  16.293  -5.592  1.00  0.00    -0.066 C 
ATOM     13  C   UNL     1      47.921  17.268  -6.462  1.00  0.00     0.008 C 
ENDROOT
BRANCH   8  14
ATOM     14  C   UNL     1      44.316  13.327  -3.898  1.00  0.00    -0.009 C 
ATOM     15  C   UNL     1      43.055  13.047  -4.738  1.00  0.00     0.008 C 
ATOM     16  C   UNL     1      44.878  12.021  -3.316  1.00  0.00     0.008 C 
ENDBRANCH   8  14
BRANCH   9  17
ATOM     17  O   UNL     1      45.561  15.552  -2.562  1.00  0.00    -0.365 OA
ATOM     18  H   UNL     1      45.011  16.361  -2.730  1.00  0.00     0.214 HD
ENDBRANCH   9  17
TORSDOF 2
ENDMDL
