MODEL 1
REMARK VINA RESULT:    12.715      0.000      0.000
REMARK INTER + INTRA:          30.296
REMARK INTER:                  19.404
REMARK INTRA:                  10.892
REMARK UNBOUND:                10.892
REMARK SMILES CC1=CCC[C@@H](C)C(=O)C[C@H](C(C)C)C(=O)C1
REMARK SMILES IDX 8 1 9 2 6 3 7 4 5 5 4 6 3 7 2 8 1 9 10 11 11 12 15 13 16 14
REMARK SMILES IDX 17 15 12 17 13 18 14 19
REMARK H PARENT
REMARK Flexibility Score: 70.00
ROOT
ATOM      1  C   UNL     1      -8.072 -23.793  19.767  1.00  0.00     0.136 C 
ATOM      2  O   UNL     1      -7.441 -23.662  18.728  1.00  0.00    -0.299 OA
ENDROOT
BRANCH   1   3
ATOM      3  C   UNL     1      -9.511 -23.312  19.831  1.00  0.00     0.053 C 
ATOM      4  C   UNL     1     -10.477 -24.500  19.725  1.00  0.00     0.016 C 
BRANCH   3   5
ATOM      5  C   UNL     1      -9.787 -22.276  18.718  1.00  0.00     0.015 C 
BRANCH   5   6
ATOM      6  C   UNL     1      -9.701 -20.833  19.253  1.00  0.00     0.028 C 
BRANCH   6   7
ATOM      7  C   UNL     1     -10.068 -20.715  20.712  1.00  0.00    -0.028 C 
ATOM      8  C   UNL     1     -10.347 -21.753  21.539  1.00  0.00    -0.070 CG0
ATOM      9  C   UNL     1     -10.791 -21.428  22.943  1.00  0.00     0.039 C 
ATOM     10  G   UNL     1     -10.189 -23.215  21.140  1.00  0.00     0.000 G0
ENDBRANCH   6   7
ENDBRANCH   5   6
ENDBRANCH   3   5
ENDBRANCH   1   3
BRANCH   1  11
ATOM     11  C   UNL     1      -7.403 -24.443  20.956  1.00  0.00     0.087 C 
BRANCH  11  12
ATOM     12  C   UNL     1      -7.876 -23.836  22.303  1.00  0.00     0.066 C 
BRANCH  12  13
ATOM     13  C   UNL     1      -9.391 -23.904  22.438  1.00  0.00     0.140 C 
ATOM     14  O   UNL     1      -9.903 -24.435  23.413  1.00  0.00    -0.299 OA
BRANCH  13  15
ATOM     15  C   UNL     1     -10.271 -23.262  21.392  1.00  0.00     0.106 CG0
ATOM     16  G   UNL     1     -10.282 -21.740  21.443  1.00  0.00     0.000 G0
ENDBRANCH  13  15
ENDBRANCH  12  13
BRANCH  12  17
ATOM     17  C   UNL     1      -7.153 -24.445  23.549  1.00  0.00    -0.006 C 
ATOM     18  C   UNL     1      -7.188 -23.483  24.748  1.00  0.00     0.008 C 
ATOM     19  C   UNL     1      -5.700 -24.879  23.275  1.00  0.00     0.008 C 
ENDBRANCH  12  17
ENDBRANCH  11  12
ENDBRANCH   1  11
TORSDOF 1
ENDMDL
MODEL 2
REMARK VINA RESULT:    15.535     17.143     18.818
REMARK INTER + INTRA:          34.601
REMARK INTER:                  29.707
REMARK INTRA:                   4.894
REMARK UNBOUND:                10.892
REMARK SMILES CC1=CCC[C@@H](C)C(=O)C[C@H](C(C)C)C(=O)C1
REMARK SMILES IDX 8 1 9 2 6 3 7 4 5 5 4 6 3 7 2 8 1 9 10 11 11 12 15 13 16 14
REMARK SMILES IDX 17 15 12 17 13 18 14 19
REMARK H PARENT
REMARK Flexibility Score: 70.00
ROOT
ATOM      1  C   UNL     1       4.042 -23.039   7.790  1.00  0.00     0.136 C 
ATOM      2  O   UNL     1       3.897 -22.064   8.513  1.00  0.00    -0.299 OA
ENDROOT
BRANCH   1   3
ATOM      3  C   UNL     1       2.838 -23.891   7.435  1.00  0.00     0.053 C 
ATOM      4  C   UNL     1       1.637 -23.001   7.084  1.00  0.00     0.016 C 
BRANCH   3   5
ATOM      5  C   UNL     1       2.492 -24.852   8.595  1.00  0.00     0.015 C 
BRANCH   5   6
ATOM      6  C   UNL     1       1.838 -24.106   9.774  1.00  0.00     0.028 C 
BRANCH   6   7
ATOM      7  C   UNL     1       2.813 -23.756  10.872  1.00  0.00    -0.028 C 
ATOM      8  C   UNL     1       4.107 -24.155  10.931  1.00  0.00    -0.070 CG0
ATOM      9  C   UNL     1       4.898 -23.783  12.160  1.00  0.00     0.039 C 
ATOM     10  G   UNL     1       4.809 -24.909   9.808  1.00  0.00     0.000 G0
ENDBRANCH   6   7
ENDBRANCH   5   6
ENDBRANCH   3   5
ENDBRANCH   1   3
BRANCH   1  11
ATOM     11  C   UNL     1       5.421 -23.360   7.258  1.00  0.00     0.087 C 
BRANCH  11  12
ATOM     12  C   UNL     1       6.492 -23.391   8.381  1.00  0.00     0.066 C 
BRANCH  12  13
ATOM     13  C   UNL     1       6.162 -24.445   9.429  1.00  0.00     0.140 C 
ATOM     14  O   UNL     1       7.050 -24.947  10.103  1.00  0.00    -0.299 OA
BRANCH  13  15
ATOM     15  C   UNL     1       4.725 -24.832   9.683  1.00  0.00     0.106 CG0
ATOM     16  G   UNL     1       4.149 -24.260  10.973  1.00  0.00     0.000 G0
ENDBRANCH  13  15
ENDBRANCH  12  13
BRANCH  12  17
ATOM     17  C   UNL     1       7.953 -23.542   7.844  1.00  0.00    -0.006 C 
ATOM     18  C   UNL     1       8.102 -24.788   6.956  1.00  0.00     0.008 C 
ATOM     19  C   UNL     1       9.024 -23.563   8.951  1.00  0.00     0.008 C 
ENDBRANCH  12  17
ENDBRANCH  11  12
ENDBRANCH   1  11
TORSDOF 1
ENDMDL
