MODEL 1
REMARK VINA RESULT:    -4.132      0.000      0.000
REMARK INTER + INTRA:          -4.650
REMARK INTER:                  -4.495
REMARK INTRA:                  -0.155
REMARK UNBOUND:                -0.155
REMARK SMILES CC1=CC[C@@](O)(C(C)C)CC1
REMARK SMILES IDX 1 1 2 2 3 3 4 4 5 5 10 6 11 7 7 8 8 9 9 10 6 11
REMARK H PARENT 6 12
REMARK Flexibility Score: inf
ROOT
ATOM      1  C   UNL     1     140.513 134.843 149.953  1.00  0.00     0.039 C 
ATOM      2  C   UNL     1     139.497 133.735 149.918  1.00  0.00    -0.077 C 
ATOM      3  C   UNL     1     138.908 133.422 148.744  1.00  0.00    -0.025 C 
ATOM      4  C   UNL     1     137.917 132.293 148.601  1.00  0.00     0.062 C 
ATOM      5  C   UNL     1     137.175 131.989 149.934  1.00  0.00     0.071 C 
ATOM      6  C   UNL     1     138.256 131.805 151.026  1.00  0.00     0.040 C 
ATOM      7  C   UNL     1     139.071 133.093 151.224  1.00  0.00     0.033 C 
ENDROOT
BRANCH   5   8
ATOM      8  C   UNL     1     136.251 130.716 149.848  1.00  0.00     0.015 C 
ATOM      9  C   UNL     1     136.482 129.676 150.963  1.00  0.00     0.010 C 
ATOM     10  C   UNL     1     136.325 130.013 148.480  1.00  0.00     0.010 C 
ENDBRANCH   5   8
BRANCH   5  11
ATOM     11  O   UNL     1     136.379 133.091 150.320  1.00  0.00    -0.389 OA
ATOM     12  H   UNL     1     136.639 133.374 151.236  1.00  0.00     0.211 HD
ENDBRANCH   5  11
TORSDOF 2
ENDMDL
MODEL 2
REMARK VINA RESULT:    -4.087      1.545      4.445
REMARK INTER + INTRA:          -4.600
REMARK INTER:                  -4.445
REMARK INTRA:                  -0.155
REMARK UNBOUND:                -0.155
REMARK SMILES CC1=CC[C@@](O)(C(C)C)CC1
REMARK SMILES IDX 1 1 2 2 3 3 4 4 5 5 10 6 11 7 7 8 8 9 9 10 6 11
REMARK H PARENT 6 12
REMARK Flexibility Score: inf
ROOT
ATOM      1  C   UNL     1     135.910 130.237 150.294  1.00  0.00     0.039 C 
ATOM      2  C   UNL     1     137.134 131.112 150.300  1.00  0.00    -0.077 C 
ATOM      3  C   UNL     1     138.345 130.543 150.478  1.00  0.00    -0.025 C 
ATOM      4  C   UNL     1     139.632 131.332 150.447  1.00  0.00     0.062 C 
ATOM      5  C   UNL     1     139.419 132.821 150.845  1.00  0.00     0.071 C 
ATOM      6  C   UNL     1     138.269 133.367 149.965  1.00  0.00     0.040 C 
ATOM      7  C   UNL     1     136.957 132.616 150.236  1.00  0.00     0.033 C 
ENDROOT
BRANCH   5   8
ATOM      8  C   UNL     1     140.717 133.696 150.670  1.00  0.00     0.015 C 
ATOM      9  C   UNL     1     140.515 134.992 149.860  1.00  0.00     0.010 C 
ATOM     10  C   UNL     1     141.896 132.906 150.072  1.00  0.00     0.010 C 
ENDBRANCH   5   8
BRANCH   5  11
ATOM     11  O   UNL     1     138.995 132.918 152.190  1.00  0.00    -0.389 OA
ATOM     12  H   UNL     1     138.967 132.009 152.588  1.00  0.00     0.211 HD
ENDBRANCH   5  11
TORSDOF 2
ENDMDL
MODEL 3
REMARK VINA RESULT:    -4.073     12.974     14.613
REMARK INTER + INTRA:          -4.585
REMARK INTER:                  -4.443
REMARK INTRA:                  -0.142
REMARK UNBOUND:                -0.155
REMARK SMILES CC1=CC[C@@](O)(C(C)C)CC1
REMARK SMILES IDX 1 1 2 2 3 3 4 4 5 5 10 6 11 7 7 8 8 9 9 10 6 11
REMARK H PARENT 6 12
REMARK Flexibility Score: inf
ROOT
ATOM      1  C   UNL     1     140.390 143.812 146.171  1.00  0.00     0.039 C 
ATOM      2  C   UNL     1     141.418 143.692 145.081  1.00  0.00    -0.077 C 
ATOM      3  C   UNL     1     142.617 143.139 145.367  1.00  0.00    -0.025 C 
ATOM      4  C   UNL     1     143.690 142.929 144.328  1.00  0.00     0.062 C 
ATOM      5  C   UNL     1     143.575 143.939 143.150  1.00  0.00     0.071 C 
ATOM      6  C   UNL     1     142.116 143.876 142.638  1.00  0.00     0.040 C 
ATOM      7  C   UNL     1     141.125 144.311 143.729  1.00  0.00     0.033 C 
ENDROOT
BRANCH   5   8
ATOM      8  C   UNL     1     144.588 143.640 141.981  1.00  0.00     0.015 C 
ATOM      9  C   UNL     1     144.361 144.473 140.704  1.00  0.00     0.010 C 
ATOM     10  C   UNL     1     144.646 142.147 141.607  1.00  0.00     0.010 C 
ENDBRANCH   5   8
BRANCH   5  11
ATOM     11  O   UNL     1     143.799 145.259 143.606  1.00  0.00    -0.389 OA
ATOM     12  H   UNL     1     144.326 145.752 142.924  1.00  0.00     0.211 HD
ENDBRANCH   5  11
TORSDOF 2
ENDMDL
MODEL 4
REMARK VINA RESULT:    -4.071      2.076      2.900
REMARK INTER + INTRA:          -4.583
REMARK INTER:                  -4.453
REMARK INTRA:                  -0.129
REMARK UNBOUND:                -0.155
REMARK SMILES CC1=CC[C@@](O)(C(C)C)CC1
REMARK SMILES IDX 1 1 2 2 3 3 4 4 5 5 10 6 11 7 7 8 8 9 9 10 6 11
REMARK H PARENT 6 12
REMARK Flexibility Score: inf
ROOT
ATOM      1  C   UNL     1     142.663 131.859 152.064  1.00  0.00     0.039 C 
ATOM      2  C   UNL     1     141.314 132.050 151.427  1.00  0.00    -0.077 C 
ATOM      3  C   UNL     1     140.454 132.940 151.968  1.00  0.00    -0.025 C 
ATOM      4  C   UNL     1     139.101 133.238 151.369  1.00  0.00     0.062 C 
ATOM      5  C   UNL     1     138.546 132.041 150.544  1.00  0.00     0.071 C 
ATOM      6  C   UNL     1     139.652 131.626 149.544  1.00  0.00     0.040 C 
ATOM      7  C   UNL     1     140.914 131.147 150.278  1.00  0.00     0.033 C 
ENDROOT
BRANCH   5   8
ATOM      8  C   UNL     1     137.210 132.383 149.784  1.00  0.00     0.015 C 
ATOM      9  C   UNL     1     136.293 131.174 149.517  1.00  0.00     0.010 C 
ATOM     10  C   UNL     1     137.450 133.137 148.462  1.00  0.00     0.010 C 
ENDBRANCH   5   8
BRANCH   5  11
ATOM     11  O   UNL     1     138.308 130.929 151.384  1.00  0.00    -0.389 OA
ATOM     12  H   UNL     1     137.459 130.492 151.111  1.00  0.00     0.211 HD
ENDBRANCH   5  11
TORSDOF 2
ENDMDL
MODEL 5
REMARK VINA RESULT:    -3.946      2.178      2.795
REMARK INTER + INTRA:          -4.447
REMARK INTER:                  -4.292
REMARK INTRA:                  -0.155
REMARK UNBOUND:                -0.155
REMARK SMILES CC1=CC[C@@](O)(C(C)C)CC1
REMARK SMILES IDX 1 1 2 2 3 3 4 4 5 5 10 6 11 7 7 8 8 9 9 10 6 11
REMARK H PARENT 6 12
REMARK Flexibility Score: inf
ROOT
ATOM      1  C   UNL     1     143.502 132.602 150.395  1.00  0.00     0.039 C 
ATOM      2  C   UNL     1     142.000 132.539 150.361  1.00  0.00    -0.077 C 
ATOM      3  C   UNL     1     141.307 133.627 149.960  1.00  0.00    -0.025 C 
ATOM      4  C   UNL     1     139.803 133.641 149.844  1.00  0.00     0.062 C 
ATOM      5  C   UNL     1     139.128 132.613 150.798  1.00  0.00     0.071 C 
ATOM      6  C   UNL     1     139.813 131.247 150.552  1.00  0.00     0.040 C 
ATOM      7  C   UNL     1     141.308 131.304 150.901  1.00  0.00     0.033 C 
ENDROOT
BRANCH   5   8
ATOM      8  C   UNL     1     137.572 132.501 150.583  1.00  0.00     0.015 C 
ATOM      9  C   UNL     1     137.056 131.068 150.350  1.00  0.00     0.010 C 
ATOM     10  C   UNL     1     137.057 133.413 149.453  1.00  0.00     0.010 C 
ENDBRANCH   5   8
BRANCH   5  11
ATOM     11  O   UNL     1     139.367 132.959 152.148  1.00  0.00    -0.389 OA
ATOM     12  H   UNL     1     139.582 132.137 152.660  1.00  0.00     0.211 HD
ENDBRANCH   5  11
TORSDOF 2
ENDMDL
MODEL 6
REMARK VINA RESULT:    -3.922      1.347      4.276
REMARK INTER + INTRA:          -4.421
REMARK INTER:                  -4.312
REMARK INTRA:                  -0.109
REMARK UNBOUND:                -0.155
REMARK SMILES CC1=CC[C@@](O)(C(C)C)CC1
REMARK SMILES IDX 1 1 2 2 3 3 4 4 5 5 10 6 11 7 7 8 8 9 9 10 6 11
REMARK H PARENT 6 12
REMARK Flexibility Score: inf
ROOT
ATOM      1  C   UNL     1     135.993 129.268 147.969  1.00  0.00     0.039 C 
ATOM      2  C   UNL     1     136.737 130.409 148.605  1.00  0.00    -0.077 C 
ATOM      3  C   UNL     1     137.971 130.719 148.154  1.00  0.00    -0.025 C 
ATOM      4  C   UNL     1     138.772 131.879 148.694  1.00  0.00     0.062 C 
ATOM      5  C   UNL     1     138.381 132.234 150.158  1.00  0.00     0.071 C 
ATOM      6  C   UNL     1     136.843 132.402 150.189  1.00  0.00     0.040 C 
ATOM      7  C   UNL     1     136.133 131.090 149.817  1.00  0.00     0.033 C 
ENDROOT
BRANCH   5   8
ATOM      8  C   UNL     1     139.092 133.536 150.687  1.00  0.00     0.015 C 
ATOM      9  C   UNL     1     140.200 134.084 149.765  1.00  0.00     0.010 C 
ATOM     10  C   UNL     1     139.655 133.373 152.111  1.00  0.00     0.010 C 
ENDBRANCH   5   8
BRANCH   5  11
ATOM     11  O   UNL     1     138.700 131.167 151.028  1.00  0.00    -0.389 OA
ATOM     12  H   UNL     1     137.879 130.639 151.208  1.00  0.00     0.211 HD
ENDBRANCH   5  11
TORSDOF 2
ENDMDL
MODEL 7
REMARK VINA RESULT:    -3.902     12.105     13.010
REMARK INTER + INTRA:          -4.399
REMARK INTER:                  -4.273
REMARK INTRA:                  -0.126
REMARK UNBOUND:                -0.155
REMARK SMILES CC1=CC[C@@](O)(C(C)C)CC1
REMARK SMILES IDX 1 1 2 2 3 3 4 4 5 5 10 6 11 7 7 8 8 9 9 10 6 11
REMARK H PARENT 6 12
REMARK Flexibility Score: inf
ROOT
ATOM      1  C   UNL     1     144.811 139.918 143.108  1.00  0.00     0.039 C 
ATOM      2  C   UNL     1     143.887 141.029 143.524  1.00  0.00    -0.077 C 
ATOM      3  C   UNL     1     143.790 141.345 144.833  1.00  0.00    -0.025 C 
ATOM      4  C   UNL     1     142.930 142.478 145.339  1.00  0.00     0.062 C 
ATOM      5  C   UNL     1     141.738 142.784 144.386  1.00  0.00     0.071 C 
ATOM      6  C   UNL     1     142.326 142.963 142.966  1.00  0.00     0.040 C 
ATOM      7  C   UNL     1     143.000 141.672 142.476  1.00  0.00     0.033 C 
ENDROOT
BRANCH   5   8
ATOM      8  C   UNL     1     140.920 144.060 144.814  1.00  0.00     0.015 C 
ATOM      9  C   UNL     1     141.754 145.351 144.928  1.00  0.00     0.010 C 
ATOM     10  C   UNL     1     140.127 143.854 146.118  1.00  0.00     0.010 C 
ENDBRANCH   5   8
BRANCH   5  11
ATOM     11  O   UNL     1     140.852 141.684 144.333  1.00  0.00    -0.389 OA
ATOM     12  H   UNL     1     141.360 140.850 144.509  1.00  0.00     0.211 HD
ENDBRANCH   5  11
TORSDOF 2
ENDMDL
MODEL 8
REMARK VINA RESULT:    -3.858     12.087     13.127
REMARK INTER + INTRA:          -4.352
REMARK INTER:                  -4.207
REMARK INTRA:                  -0.144
REMARK UNBOUND:                -0.155
REMARK SMILES CC1=CC[C@@](O)(C(C)C)CC1
REMARK SMILES IDX 1 1 2 2 3 3 4 4 5 5 10 6 11 7 7 8 8 9 9 10 6 11
REMARK H PARENT 6 12
REMARK Flexibility Score: inf
ROOT
ATOM      1  C   UNL     1     142.514 141.714 140.040  1.00  0.00     0.039 C 
ATOM      2  C   UNL     1     142.328 142.061 141.491  1.00  0.00    -0.077 C 
ATOM      3  C   UNL     1     143.007 141.362 142.425  1.00  0.00    -0.025 C 
ATOM      4  C   UNL     1     142.926 141.672 143.899  1.00  0.00     0.062 C 
ATOM      5  C   UNL     1     141.583 142.357 144.283  1.00  0.00     0.071 C 
ATOM      6  C   UNL     1     141.396 143.560 143.328  1.00  0.00     0.040 C 
ATOM      7  C   UNL     1     141.288 143.098 141.866  1.00  0.00     0.033 C 
ENDROOT
BRANCH   5   8
ATOM      8  C   UNL     1     141.539 142.829 145.785  1.00  0.00     0.015 C 
ATOM      9  C   UNL     1     140.405 143.820 146.117  1.00  0.00     0.010 C 
ATOM     10  C   UNL     1     142.879 143.416 146.267  1.00  0.00     0.010 C 
ENDBRANCH   5   8
BRANCH   5  11
ATOM     11  O   UNL     1     140.497 141.479 144.061  1.00  0.00    -0.389 OA
ATOM     12  H   UNL     1     140.456 141.252 143.096  1.00  0.00     0.211 HD
ENDBRANCH   5  11
TORSDOF 2
ENDMDL
MODEL 9
REMARK VINA RESULT:    -3.847      1.613      2.135
REMARK INTER + INTRA:          -4.339
REMARK INTER:                  -4.211
REMARK INTRA:                  -0.128
REMARK UNBOUND:                -0.155
REMARK SMILES CC1=CC[C@@](O)(C(C)C)CC1
REMARK SMILES IDX 1 1 2 2 3 3 4 4 5 5 10 6 11 7 7 8 8 9 9 10 6 11
REMARK H PARENT 6 12
REMARK Flexibility Score: inf
ROOT
ATOM      1  C   UNL     1     140.028 134.193 150.489  1.00  0.00     0.039 C 
ATOM      2  C   UNL     1     139.131 133.014 150.234  1.00  0.00    -0.077 C 
ATOM      3  C   UNL     1     137.832 133.088 150.596  1.00  0.00    -0.025 C 
ATOM      4  C   UNL     1     136.845 131.977 150.333  1.00  0.00     0.062 C 
ATOM      5  C   UNL     1     137.535 130.585 150.241  1.00  0.00     0.071 C 
ATOM      6  C   UNL     1     138.692 130.718 149.221  1.00  0.00     0.040 C 
ATOM      7  C   UNL     1     139.741 131.734 149.699  1.00  0.00     0.033 C 
ENDROOT
BRANCH   5   8
ATOM      8  C   UNL     1     136.548 129.435 149.815  1.00  0.00     0.015 C 
ATOM      9  C   UNL     1     135.952 129.588 148.401  1.00  0.00     0.010 C 
ATOM     10  C   UNL     1     135.404 129.223 150.824  1.00  0.00     0.010 C 
ENDBRANCH   5   8
BRANCH   5  11
ATOM     11  O   UNL     1     138.115 130.237 151.482  1.00  0.00    -0.389 OA
ATOM     12  H   UNL     1     138.106 129.249 151.579  1.00  0.00     0.211 HD
ENDBRANCH   5  11
TORSDOF 2
ENDMDL
