MODEL 1
REMARK VINA RESULT:    -2.932      0.000      0.000
REMARK INTER + INTRA:          -5.666
REMARK INTER:                  -4.731
REMARK INTRA:                  -0.935
REMARK UNBOUND:                -0.935
REMARK SMILES C=C(CC[C@@H](C(=O)[O-])[C@@H]1[C@@H](O)C[C@]2(C)C3=CC[C@H](C(=C)C)[C@@](C)(CCC(=O)[O-])C3=CC[C@@]12C)C(C)C
REMARK SMILES IDX 5 1 9 2 22 3 29 4 18 5 23 6 15 7 30 8 17 9 13 10 16 11 31 12
REMARK SMILES IDX 32 13 12 14 14 15 33 16 10 17 24 18 25 19 26 20 27 21 28 22
REMARK SMILES IDX 19 23 20 24 21 25 11 26 6 28 7 29 8 30 4 31 3 32 2 33 1 34
REMARK SMILES IDX 34 35 35 36 36 37
REMARK H PARENT 11 27
REMARK Flexibility Score: inf
ROOT
ATOM      1  C   UNL     1      98.392 112.128 112.464  1.00  0.00     0.042 C 
ENDROOT
BRANCH   1   2
ATOM      2  C   UNL     1      99.313 112.053 113.732  1.00  0.00     0.034 C 
ATOM      3  C   UNL     1     100.401 115.772 118.234  1.00  0.00    -0.000 C 
ATOM      4  C   UNL     1     100.199 114.834 117.018  1.00  0.00    -0.042 C 
ATOM      5  C   UNL     1     100.541 114.897 119.547  1.00  0.00     0.028 C 
ATOM      6  C   UNL     1      99.148 116.688 118.292  1.00  0.00     0.017 C 
ATOM      7  C   UNL     1      99.919 113.365 117.216  1.00  0.00    -0.042 C 
ATOM      8  C   UNL     1     100.177 115.340 115.749  1.00  0.00    -0.022 C 
ATOM      9  C   UNL     1      99.496 113.767 119.611  1.00  0.00     0.036 C 
ATOM     10  C   UNL     1     100.063 112.482 115.992  1.00  0.00     0.001 C 
ATOM     11  C   UNL     1      99.648 112.867 118.428  1.00  0.00    -0.022 C 
ATOM     12  C   UNL     1      99.969 114.501 114.494  1.00  0.00     0.035 C 
ATOM     13  C   UNL     1      99.272 113.160 114.829  1.00  0.00    -0.014 C 
ATOM     14  C   UNL     1      99.470 111.060 116.011  1.00  0.00     0.044 C 
ATOM     15  C   UNL     1     101.603 112.333 115.758  1.00  0.00     0.017 C 
ATOM     16  C   UNL     1      97.792 113.487 115.227  1.00  0.00     0.013 C 
ATOM     17  C   UNL     1      99.207 110.714 114.524  1.00  0.00     0.119 C 
BRANCH   3  18
ATOM     18  C   UNL     1     101.737 116.597 118.031  1.00  0.00     0.018 C 
BRANCH  18  19
ATOM     19  C   UNL     1     102.983 115.816 117.558  1.00  0.00     0.053 C 
BRANCH  19  20
ATOM     20  C   UNL     1     103.871 116.640 116.671  1.00  0.00     0.041 C 
ATOM     21  O   UNL     1     104.960 116.167 116.249  1.00  0.00    -0.550 OA
ATOM     22  O   UNL     1     103.479 117.913 116.278  1.00  0.00    -0.550 OA
ENDBRANCH  19  20
ENDBRANCH  18  19
ENDBRANCH   3  18
BRANCH   5  23
ATOM     23  C   UNL     1     100.597 115.676 120.863  1.00  0.00    -0.076 C 
ATOM     24  C   UNL     1      99.537 115.763 121.686  1.00  0.00     0.008 C 
ATOM     25  C   UNL     1     101.900 116.289 121.315  1.00  0.00     0.039 C 
ENDBRANCH   5  23
BRANCH  17  26
ATOM     26  O   UNL     1     100.165 109.804 114.050  1.00  0.00    -0.393 OA
ATOM     27  H   UNL     1      99.739 109.300 113.308  1.00  0.00     0.210 HD
ENDBRANCH  17  26
ENDBRANCH   1   2
BRANCH   1  28
ATOM     28  C   UNL     1      99.205 112.352 111.210  1.00  0.00     0.045 C 
ATOM     29  O   UNL     1     100.406 112.727 111.264  1.00  0.00    -0.550 OA
ATOM     30  O   UNL     1      98.635 112.088 109.971  1.00  0.00    -0.550 OA
ENDBRANCH   1  28
BRANCH   1  31
ATOM     31  C   UNL     1      97.137 113.062 112.544  1.00  0.00     0.014 C 
BRANCH  31  32
ATOM     32  C   UNL     1      95.901 112.425 111.878  1.00  0.00     0.031 C 
BRANCH  32  33
ATOM     33  C   UNL     1      95.285 113.198 110.717  1.00  0.00    -0.075 C 
ATOM     34  C   UNL     1      95.155 114.541 110.714  1.00  0.00     0.008 C 
BRANCH  33  35
ATOM     35  C   UNL     1      94.801 112.383 109.526  1.00  0.00     0.008 C 
ATOM     36  C   UNL     1      93.543 112.993 108.898  1.00  0.00     0.012 C 
ATOM     37  C   UNL     1      94.575 110.913 109.906  1.00  0.00     0.012 C 
ENDBRANCH  33  35
ENDBRANCH  32  33
ENDBRANCH  31  32
ENDBRANCH   1  31
TORSDOF 11
ENDMDL
MODEL 2
REMARK VINA RESULT:    -2.581      3.220      6.035
REMARK INTER + INTRA:          -5.101
REMARK INTER:                  -6.127
REMARK INTRA:                   1.026
REMARK UNBOUND:                -0.935
REMARK SMILES C=C(CC[C@@H](C(=O)[O-])[C@@H]1[C@@H](O)C[C@]2(C)C3=CC[C@H](C(=C)C)[C@@](C)(CCC(=O)[O-])C3=CC[C@@]12C)C(C)C
REMARK SMILES IDX 5 1 9 2 22 3 29 4 18 5 23 6 15 7 30 8 17 9 13 10 16 11 31 12
REMARK SMILES IDX 32 13 12 14 14 15 33 16 10 17 24 18 25 19 26 20 27 21 28 22
REMARK SMILES IDX 19 23 20 24 21 25 11 26 6 28 7 29 8 30 4 31 3 32 2 33 1 34
REMARK SMILES IDX 34 35 35 36 36 37
REMARK H PARENT 11 27
REMARK Flexibility Score: inf
ROOT
ATOM      1  C   UNL     1      99.408 112.307 117.060  1.00  0.00     0.042 C 
ENDROOT
BRANCH   1   2
ATOM      2  C   UNL     1      99.663 113.745 117.635  1.00  0.00     0.034 C 
ATOM      3  C   UNL     1     100.220 115.922 123.132  1.00  0.00    -0.000 C 
ATOM      4  C   UNL     1      99.983 115.384 121.700  1.00  0.00    -0.042 C 
ATOM      5  C   UNL     1     101.349 117.033 123.089  1.00  0.00     0.028 C 
ATOM      6  C   UNL     1     100.656 114.703 123.990  1.00  0.00     0.017 C 
ATOM      7  C   UNL     1     100.925 115.738 120.577  1.00  0.00    -0.042 C 
ATOM      8  C   UNL     1      98.967 114.503 121.450  1.00  0.00    -0.022 C 
ATOM      9  C   UNL     1     102.546 116.618 122.214  1.00  0.00     0.036 C 
ATOM     10  C   UNL     1     100.438 115.444 119.172  1.00  0.00     0.001 C 
ATOM     11  C   UNL     1     102.087 116.359 120.815  1.00  0.00    -0.022 C 
ATOM     12  C   UNL     1      98.666 113.908 120.081  1.00  0.00     0.035 C 
ATOM     13  C   UNL     1      99.906 113.977 119.157  1.00  0.00    -0.014 C 
ATOM     14  C   UNL     1     101.447 115.443 118.007  1.00  0.00     0.044 C 
ATOM     15  C   UNL     1      99.374 116.547 118.855  1.00  0.00     0.017 C 
ATOM     16  C   UNL     1     100.960 112.956 119.709  1.00  0.00     0.013 C 
ATOM     17  C   UNL     1     100.817 114.522 116.931  1.00  0.00     0.119 C 
BRANCH   3  18
ATOM     18  C   UNL     1      98.882 116.580 123.664  1.00  0.00     0.018 C 
BRANCH  18  19
ATOM     19  C   UNL     1      98.466 117.932 123.043  1.00  0.00     0.053 C 
BRANCH  19  20
ATOM     20  C   UNL     1      98.425 119.038 124.057  1.00  0.00     0.041 C 
ATOM     21  O   UNL     1      97.734 118.913 125.103  1.00  0.00    -0.550 OA
ATOM     22  O   UNL     1      99.179 120.189 123.869  1.00  0.00    -0.550 OA
ENDBRANCH  19  20
ENDBRANCH  18  19
ENDBRANCH   3  18
BRANCH   5  23
ATOM     23  C   UNL     1     101.812 117.564 124.448  1.00  0.00    -0.076 C 
ATOM     24  C   UNL     1     101.978 116.757 125.510  1.00  0.00     0.008 C 
ATOM     25  C   UNL     1     102.194 119.017 124.592  1.00  0.00     0.039 C 
ENDBRANCH   5  23
BRANCH  17  26
ATOM     26  O   UNL     1     100.301 115.281 115.868  1.00  0.00    -0.393 OA
ATOM     27  H   UNL     1      99.479 115.723 116.204  1.00  0.00     0.210 HD
ENDBRANCH  17  26
ENDBRANCH   1   2
BRANCH   1  28
ATOM     28  C   UNL     1      99.627 111.249 118.116  1.00  0.00     0.045 C 
ATOM     29  O   UNL     1      98.659 110.652 118.657  1.00  0.00    -0.550 OA
ATOM     30  O   UNL     1     100.922 110.886 118.463  1.00  0.00    -0.550 OA
ENDBRANCH   1  28
BRANCH   1  31
ATOM     31  C   UNL     1     100.091 111.949 115.697  1.00  0.00     0.014 C 
BRANCH  31  32
ATOM     32  C   UNL     1      99.064 111.495 114.639  1.00  0.00     0.031 C 
BRANCH  32  33
ATOM     33  C   UNL     1      98.838 112.443 113.467  1.00  0.00    -0.075 C 
ATOM     34  C   UNL     1      97.785 113.283 113.392  1.00  0.00     0.008 C 
BRANCH  33  35
ATOM     35  C   UNL     1      99.867 112.408 112.345  1.00  0.00     0.008 C 
ATOM     36  C   UNL     1     100.760 113.654 112.361  1.00  0.00     0.012 C 
ATOM     37  C   UNL     1      99.200 112.219 110.976  1.00  0.00     0.012 C 
ENDBRANCH  33  35
ENDBRANCH  32  33
ENDBRANCH  31  32
ENDBRANCH   1  31
TORSDOF 11
ENDMDL
MODEL 3
REMARK VINA RESULT:    -2.315      4.223      7.830
REMARK INTER + INTRA:          -4.671
REMARK INTER:                  -3.343
REMARK INTRA:                  -1.328
REMARK UNBOUND:                -0.935
REMARK SMILES C=C(CC[C@@H](C(=O)[O-])[C@@H]1[C@@H](O)C[C@]2(C)C3=CC[C@H](C(=C)C)[C@@](C)(CCC(=O)[O-])C3=CC[C@@]12C)C(C)C
REMARK SMILES IDX 5 1 9 2 22 3 29 4 18 5 23 6 15 7 30 8 17 9 13 10 16 11 31 12
REMARK SMILES IDX 32 13 12 14 14 15 33 16 10 17 24 18 25 19 26 20 27 21 28 22
REMARK SMILES IDX 19 23 20 24 21 25 11 26 6 28 7 29 8 30 4 31 3 32 2 33 1 34
REMARK SMILES IDX 34 35 35 36 36 37
REMARK H PARENT 11 27
REMARK Flexibility Score: inf
ROOT
ATOM      1  C   UNL     1     100.165 111.698 117.794  1.00  0.00     0.042 C 
ENDROOT
BRANCH   1   2
ATOM      2  C   UNL     1     100.232 113.222 118.163  1.00  0.00     0.034 C 
ATOM      3  C   UNL     1     100.225 116.198 123.303  1.00  0.00    -0.000 C 
ATOM      4  C   UNL     1     100.132 115.441 121.955  1.00  0.00    -0.042 C 
ATOM      5  C   UNL     1     101.230 117.412 123.148  1.00  0.00     0.028 C 
ATOM      6  C   UNL     1     100.733 115.168 124.348  1.00  0.00     0.017 C 
ATOM      7  C   UNL     1     101.098 115.738 120.837  1.00  0.00    -0.042 C 
ATOM      8  C   UNL     1      99.231 114.425 121.792  1.00  0.00    -0.022 C 
ATOM      9  C   UNL     1     102.515 117.015 122.398  1.00  0.00     0.036 C 
ATOM     10  C   UNL     1     100.730 115.197 119.469  1.00  0.00     0.001 C 
ATOM     11  C   UNL     1     102.172 116.513 121.033  1.00  0.00    -0.022 C 
ATOM     12  C   UNL     1      99.077 113.613 120.512  1.00  0.00     0.035 C 
ATOM     13  C   UNL     1     100.357 113.691 119.644  1.00  0.00    -0.014 C 
ATOM     14  C   UNL     1     101.802 115.145 118.362  1.00  0.00     0.044 C 
ATOM     15  C   UNL     1      99.578 116.117 118.947  1.00  0.00     0.017 C 
ATOM     16  C   UNL     1     101.477 112.883 120.386  1.00  0.00     0.013 C 
ATOM     17  C   UNL     1     101.338 114.018 117.406  1.00  0.00     0.119 C 
BRANCH   3  18
ATOM     18  C   UNL     1      98.794 116.769 123.672  1.00  0.00     0.018 C 
BRANCH  18  19
ATOM     19  C   UNL     1      98.294 117.990 122.867  1.00  0.00     0.053 C 
BRANCH  19  20
ATOM     20  C   UNL     1      98.052 119.188 123.739  1.00  0.00     0.041 C 
ATOM     21  O   UNL     1      97.962 119.055 124.989  1.00  0.00    -0.550 OA
ATOM     22  O   UNL     1      97.964 120.455 123.178  1.00  0.00    -0.550 OA
ENDBRANCH  19  20
ENDBRANCH  18  19
ENDBRANCH   3  18
BRANCH   5  23
ATOM     23  C   UNL     1     101.553 118.178 124.434  1.00  0.00    -0.076 C 
ATOM     24  C   UNL     1     102.081 117.571 125.512  1.00  0.00     0.008 C 
ATOM     25  C   UNL     1     101.371 119.675 124.479  1.00  0.00     0.039 C 
ENDBRANCH   5  23
BRANCH  17  26
ATOM     26  O   UNL     1     100.811 114.557 116.222  1.00  0.00    -0.393 OA
ATOM     27  H   UNL     1     100.966 113.885 115.507  1.00  0.00     0.210 HD
ENDBRANCH  17  26
ENDBRANCH   1   2
BRANCH   1  28
ATOM     28  C   UNL     1      99.191 111.450 116.666  1.00  0.00     0.045 C 
ATOM     29  O   UNL     1      98.472 112.376 116.204  1.00  0.00    -0.550 OA
ATOM     30  O   UNL     1      99.121 110.189 116.089  1.00  0.00    -0.550 OA
ENDBRANCH   1  28
BRANCH   1  31
ATOM     31  C   UNL     1      99.993 110.682 118.974  1.00  0.00     0.014 C 
BRANCH  31  32
ATOM     32  C   UNL     1     101.001 109.518 118.883  1.00  0.00     0.031 C 
BRANCH  32  33
ATOM     33  C   UNL     1     101.739 109.161 120.169  1.00  0.00    -0.075 C 
ATOM     34  C   UNL     1     101.109 108.749 121.289  1.00  0.00     0.008 C 
BRANCH  33  35
ATOM     35  C   UNL     1     103.255 109.291 120.151  1.00  0.00     0.008 C 
ATOM     36  C   UNL     1     103.920 108.057 119.529  1.00  0.00     0.012 C 
ATOM     37  C   UNL     1     103.811 109.574 121.553  1.00  0.00     0.012 C 
ENDBRANCH  33  35
ENDBRANCH  32  33
ENDBRANCH  31  32
ENDBRANCH   1  31
TORSDOF 11
ENDMDL
MODEL 4
REMARK VINA RESULT:    -2.072      2.992      5.170
REMARK INTER + INTRA:          -4.278
REMARK INTER:                  -4.525
REMARK INTRA:                   0.247
REMARK UNBOUND:                -0.935
REMARK SMILES C=C(CC[C@@H](C(=O)[O-])[C@@H]1[C@@H](O)C[C@]2(C)C3=CC[C@H](C(=C)C)[C@@](C)(CCC(=O)[O-])C3=CC[C@@]12C)C(C)C
REMARK SMILES IDX 5 1 9 2 22 3 29 4 18 5 23 6 15 7 30 8 17 9 13 10 16 11 31 12
REMARK SMILES IDX 32 13 12 14 14 15 33 16 10 17 24 18 25 19 26 20 27 21 28 22
REMARK SMILES IDX 19 23 20 24 21 25 11 26 6 28 7 29 8 30 4 31 3 32 2 33 1 34
REMARK SMILES IDX 34 35 35 36 36 37
REMARK H PARENT 11 27
REMARK Flexibility Score: inf
ROOT
ATOM      1  C   UNL     1     100.053 113.018 115.476  1.00  0.00     0.042 C 
ENDROOT
BRANCH   1   2
ATOM      2  C   UNL     1      99.911 114.274 116.405  1.00  0.00     0.034 C 
ATOM      3  C   UNL     1     100.538 115.141 122.247  1.00  0.00    -0.000 C 
ATOM      4  C   UNL     1     100.279 114.909 120.739  1.00  0.00    -0.042 C 
ATOM      5  C   UNL     1     101.227 116.554 122.445  1.00  0.00     0.028 C 
ATOM      6  C   UNL     1     101.466 113.986 122.714  1.00  0.00     0.017 C 
ATOM      7  C   UNL     1     100.880 115.826 119.703  1.00  0.00    -0.042 C 
ATOM      8  C   UNL     1      99.578 113.814 120.316  1.00  0.00    -0.022 C 
ATOM      9  C   UNL     1     102.352 116.804 121.423  1.00  0.00     0.036 C 
ATOM     10  C   UNL     1     100.313 115.722 118.301  1.00  0.00     0.001 C 
ATOM     11  C   UNL     1     101.800 116.740 120.036  1.00  0.00    -0.022 C 
ATOM     12  C   UNL     1      99.287 113.493 118.856  1.00  0.00     0.035 C 
ATOM     13  C   UNL     1     100.287 114.209 117.916  1.00  0.00    -0.014 C 
ATOM     14  C   UNL     1     101.084 116.350 117.124  1.00  0.00     0.044 C 
ATOM     15  C   UNL     1      98.915 116.423 118.359  1.00  0.00     0.017 C 
ATOM     16  C   UNL     1     101.684 113.523 118.108  1.00  0.00     0.013 C 
ATOM     17  C   UNL     1     100.635 115.550 115.877  1.00  0.00     0.119 C 
BRANCH   3  18
ATOM     18  C   UNL     1      99.152 115.142 123.014  1.00  0.00     0.018 C 
BRANCH  18  19
ATOM     19  C   UNL     1      98.304 116.431 122.935  1.00  0.00     0.053 C 
BRANCH  19  20
ATOM     20  C   UNL     1      98.312 117.200 124.225  1.00  0.00     0.041 C 
ATOM     21  O   UNL     1      98.021 116.624 125.307  1.00  0.00    -0.550 OA
ATOM     22  O   UNL     1      98.678 118.539 124.239  1.00  0.00    -0.550 OA
ENDBRANCH  19  20
ENDBRANCH  18  19
ENDBRANCH   3  18
BRANCH   5  23
ATOM     23  C   UNL     1     101.689 116.876 123.868  1.00  0.00    -0.076 C 
ATOM     24  C   UNL     1     102.237 118.061 124.189  1.00  0.00     0.008 C 
ATOM     25  C   UNL     1     101.440 115.885 124.979  1.00  0.00     0.039 C 
ENDBRANCH   5  23
BRANCH  17  26
ATOM     26  O   UNL     1      99.751 116.308 115.092  1.00  0.00    -0.393 OA
ATOM     27  H   UNL     1      98.913 116.403 115.615  1.00  0.00     0.210 HD
ENDBRANCH  17  26
ENDBRANCH   1   2
BRANCH   1  28
ATOM     28  C   UNL     1     101.135 113.223 114.441  1.00  0.00     0.045 C 
ATOM     29  O   UNL     1     100.869 113.672 113.294  1.00  0.00    -0.550 OA
ATOM     30  O   UNL     1     102.458 112.960 114.774  1.00  0.00    -0.550 OA
ENDBRANCH   1  28
BRANCH   1  31
ATOM     31  C   UNL     1      98.738 112.426 114.865  1.00  0.00     0.014 C 
BRANCH  31  32
ATOM     32  C   UNL     1      98.114 113.369 113.816  1.00  0.00     0.031 C 
BRANCH  32  33
ATOM     33  C   UNL     1      97.877 112.778 112.431  1.00  0.00    -0.075 C 
ATOM     34  C   UNL     1      98.845 112.167 111.717  1.00  0.00     0.008 C 
BRANCH  33  35
ATOM     35  C   UNL     1      96.472 112.905 111.859  1.00  0.00     0.008 C 
ATOM     36  C   UNL     1      96.424 112.491 110.384  1.00  0.00     0.012 C 
ATOM     37  C   UNL     1      95.911 114.319 112.057  1.00  0.00     0.012 C 
ENDBRANCH  33  35
ENDBRANCH  32  33
ENDBRANCH  31  32
ENDBRANCH   1  31
TORSDOF 11
ENDMDL
MODEL 5
REMARK VINA RESULT:    -1.612      3.042      9.511
REMARK INTER + INTRA:          -3.536
REMARK INTER:                  -4.312
REMARK INTRA:                   0.776
REMARK UNBOUND:                -0.935
REMARK SMILES C=C(CC[C@@H](C(=O)[O-])[C@@H]1[C@@H](O)C[C@]2(C)C3=CC[C@H](C(=C)C)[C@@](C)(CCC(=O)[O-])C3=CC[C@@]12C)C(C)C
REMARK SMILES IDX 5 1 9 2 22 3 29 4 18 5 23 6 15 7 30 8 17 9 13 10 16 11 31 12
REMARK SMILES IDX 32 13 12 14 14 15 33 16 10 17 24 18 25 19 26 20 27 21 28 22
REMARK SMILES IDX 19 23 20 24 21 25 11 26 6 28 7 29 8 30 4 31 3 32 2 33 1 34
REMARK SMILES IDX 34 35 35 36 36 37
REMARK H PARENT 11 27
REMARK Flexibility Score: inf
ROOT
ATOM      1  C   UNL     1     100.536 115.479 121.780  1.00  0.00     0.042 C 
ENDROOT
BRANCH   1   2
ATOM      2  C   UNL     1     101.178 115.260 120.366  1.00  0.00     0.034 C 
ATOM      3  C   UNL     1      99.364 112.516 115.421  1.00  0.00    -0.000 C 
ATOM      4  C   UNL     1      99.889 113.152 116.732  1.00  0.00    -0.042 C 
ATOM      5  C   UNL     1      99.848 113.389 114.190  1.00  0.00     0.028 C 
ATOM      6  C   UNL     1      97.816 112.500 115.532  1.00  0.00     0.017 C 
ATOM      7  C   UNL     1     100.508 114.527 116.727  1.00  0.00    -0.042 C 
ATOM      8  C   UNL     1      99.712 112.516 117.929  1.00  0.00    -0.022 C 
ATOM      9  C   UNL     1      99.670 114.899 114.439  1.00  0.00     0.036 C 
ATOM     10  C   UNL     1     101.278 114.922 117.972  1.00  0.00     0.001 C 
ATOM     11  C   UNL     1     100.453 115.311 115.644  1.00  0.00    -0.022 C 
ATOM     12  C   UNL     1     100.177 113.069 119.270  1.00  0.00     0.035 C 
ATOM     13  C   UNL     1     100.373 114.603 119.204  1.00  0.00    -0.014 C 
ATOM     14  C   UNL     1     101.639 116.403 118.201  1.00  0.00     0.044 C 
ATOM     15  C   UNL     1     102.624 114.127 117.906  1.00  0.00     0.017 C 
ATOM     16  C   UNL     1      98.952 115.253 119.082  1.00  0.00     0.013 C 
ATOM     17  C   UNL     1     101.796 116.545 119.736  1.00  0.00     0.119 C 
BRANCH   3  18
ATOM     18  C   UNL     1      99.970 111.060 115.277  1.00  0.00     0.018 C 
BRANCH  18  19
ATOM     19  C   UNL     1      99.125 109.888 115.824  1.00  0.00     0.053 C 
BRANCH  19  20
ATOM     20  C   UNL     1      99.125 109.836 117.325  1.00  0.00     0.041 C 
ATOM     21  O   UNL     1      98.060 110.041 117.966  1.00  0.00    -0.550 OA
ATOM     22  O   UNL     1     100.289 109.523 118.013  1.00  0.00    -0.550 OA
ENDBRANCH  19  20
ENDBRANCH  18  19
ENDBRANCH   3  18
BRANCH   5  23
ATOM     23  C   UNL     1      99.290 112.982 112.825  1.00  0.00    -0.076 C 
ATOM     24  C   UNL     1     100.089 112.603 111.812  1.00  0.00     0.008 C 
ATOM     25  C   UNL     1      97.796 112.904 112.620  1.00  0.00     0.039 C 
ENDBRANCH   5  23
BRANCH  17  26
ATOM     26  O   UNL     1     103.151 116.645 120.089  1.00  0.00    -0.393 OA
ATOM     27  H   UNL     1     103.625 115.910 119.619  1.00  0.00     0.210 HD
ENDBRANCH  17  26
ENDBRANCH   1   2
BRANCH   1  28
ATOM     28  C   UNL     1     100.135 114.164 122.409  1.00  0.00     0.045 C 
ATOM     29  O   UNL     1     100.962 113.465 123.052  1.00  0.00    -0.550 OA
ATOM     30  O   UNL     1      98.815 113.740 122.323  1.00  0.00    -0.550 OA
ENDBRANCH   1  28
BRANCH   1  31
ATOM     31  C   UNL     1      99.418 116.570 121.899  1.00  0.00     0.014 C 
BRANCH  31  32
ATOM     32  C   UNL     1      99.115 116.927 123.369  1.00  0.00     0.031 C 
BRANCH  32  33
ATOM     33  C   UNL     1      99.695 118.242 123.877  1.00  0.00    -0.075 C 
ATOM     34  C   UNL     1     100.984 118.383 124.250  1.00  0.00     0.008 C 
BRANCH  33  35
ATOM     35  C   UNL     1      98.744 119.428 123.958  1.00  0.00     0.008 C 
ATOM     36  C   UNL     1      99.496 120.736 124.232  1.00  0.00     0.012 C 
ATOM     37  C   UNL     1      97.640 119.194 124.998  1.00  0.00     0.012 C 
ENDBRANCH  33  35
ENDBRANCH  32  33
ENDBRANCH  31  32
ENDBRANCH   1  31
TORSDOF 11
ENDMDL
MODEL 6
REMARK VINA RESULT:    -1.573      2.739      9.325
REMARK INTER + INTRA:          -3.473
REMARK INTER:                  -3.707
REMARK INTRA:                   0.234
REMARK UNBOUND:                -0.935
REMARK SMILES C=C(CC[C@@H](C(=O)[O-])[C@@H]1[C@@H](O)C[C@]2(C)C3=CC[C@H](C(=C)C)[C@@](C)(CCC(=O)[O-])C3=CC[C@@]12C)C(C)C
REMARK SMILES IDX 5 1 9 2 22 3 29 4 18 5 23 6 15 7 30 8 17 9 13 10 16 11 31 12
REMARK SMILES IDX 32 13 12 14 14 15 33 16 10 17 24 18 25 19 26 20 27 21 28 22
REMARK SMILES IDX 19 23 20 24 21 25 11 26 6 28 7 29 8 30 4 31 3 32 2 33 1 34
REMARK SMILES IDX 34 35 35 36 36 37
REMARK H PARENT 11 27
REMARK Flexibility Score: inf
ROOT
ATOM      1  C   UNL     1     100.832 116.140 120.867  1.00  0.00     0.042 C 
ENDROOT
BRANCH   1   2
ATOM      2  C   UNL     1     101.389 115.441 119.577  1.00  0.00     0.034 C 
ATOM      3  C   UNL     1      98.847 112.517 115.077  1.00  0.00    -0.000 C 
ATOM      4  C   UNL     1      99.530 113.194 116.290  1.00  0.00    -0.042 C 
ATOM      5  C   UNL     1      99.623 112.916 113.754  1.00  0.00     0.028 C 
ATOM      6  C   UNL     1      97.383 113.036 115.054  1.00  0.00     0.017 C 
ATOM      7  C   UNL     1     100.582 114.256 116.089  1.00  0.00    -0.042 C 
ATOM      8  C   UNL     1      99.123 112.906 117.563  1.00  0.00    -0.022 C 
ATOM      9  C   UNL     1      99.967 114.417 113.707  1.00  0.00     0.036 C 
ATOM     10  C   UNL     1     101.415 114.616 117.304  1.00  0.00     0.001 C 
ATOM     11  C   UNL     1     100.818 114.779 114.880  1.00  0.00    -0.022 C 
ATOM     12  C   UNL     1      99.722 113.532 118.817  1.00  0.00     0.035 C 
ATOM     13  C   UNL     1     100.431 114.869 118.490  1.00  0.00    -0.014 C 
ATOM     14  C   UNL     1     102.255 115.908 117.289  1.00  0.00     0.044 C 
ATOM     15  C   UNL     1     102.410 113.425 117.500  1.00  0.00     0.017 C 
ATOM     16  C   UNL     1      99.319 115.913 118.128  1.00  0.00     0.013 C 
ATOM     17  C   UNL     1     102.420 116.296 118.780  1.00  0.00     0.119 C 
BRANCH   3  18
ATOM     18  C   UNL     1      98.922 110.945 115.253  1.00  0.00     0.018 C 
BRANCH  18  19
ATOM     19  C   UNL     1     100.049 110.390 116.153  1.00  0.00     0.053 C 
BRANCH  19  20
ATOM     20  C   UNL     1      99.572 110.087 117.544  1.00  0.00     0.041 C 
ATOM     21  O   UNL     1      98.344 109.914 117.769  1.00  0.00    -0.550 OA
ATOM     22  O   UNL     1     100.483 109.957 118.583  1.00  0.00    -0.550 OA
ENDBRANCH  19  20
ENDBRANCH  18  19
ENDBRANCH   3  18
BRANCH   5  23
ATOM     23  C   UNL     1      98.987 112.450 112.442  1.00  0.00    -0.076 C 
ATOM     24  C   UNL     1      97.683 112.640 112.176  1.00  0.00     0.008 C 
ATOM     25  C   UNL     1      99.852 111.847 111.363  1.00  0.00     0.039 C 
ENDBRANCH   5  23
BRANCH  17  26
ATOM     26  O   UNL     1     103.721 116.011 119.225  1.00  0.00    -0.393 OA
ATOM     27  H   UNL     1     103.665 115.876 120.207  1.00  0.00     0.210 HD
ENDBRANCH  17  26
ENDBRANCH   1   2
BRANCH   1  28
ATOM     28  C   UNL     1     101.909 116.295 121.915  1.00  0.00     0.045 C 
ATOM     29  O   UNL     1     102.037 115.464 122.853  1.00  0.00    -0.550 OA
ATOM     30  O   UNL     1     102.812 117.346 121.816  1.00  0.00    -0.550 OA
ENDBRANCH   1  28
BRANCH   1  31
ATOM     31  C   UNL     1      99.491 115.587 121.458  1.00  0.00     0.014 C 
BRANCH  31  32
ATOM     32  C   UNL     1      98.624 116.708 122.069  1.00  0.00     0.031 C 
BRANCH  32  33
ATOM     33  C   UNL     1      98.981 117.142 123.486  1.00  0.00    -0.075 C 
ATOM     34  C   UNL     1      99.013 116.288 124.531  1.00  0.00     0.008 C 
BRANCH  33  35
ATOM     35  C   UNL     1      99.307 118.614 123.694  1.00  0.00     0.008 C 
ATOM     36  C   UNL     1     100.714 118.805 124.271  1.00  0.00     0.012 C 
ATOM     37  C   UNL     1      98.250 119.305 124.567  1.00  0.00     0.012 C 
ENDBRANCH  33  35
ENDBRANCH  32  33
ENDBRANCH  31  32
ENDBRANCH   1  31
TORSDOF 11
ENDMDL
MODEL 7
REMARK VINA RESULT:    -1.273      1.693      3.081
REMARK INTER + INTRA:          -2.989
REMARK INTER:                  -2.255
REMARK INTRA:                  -0.734
REMARK UNBOUND:                -0.935
REMARK SMILES C=C(CC[C@@H](C(=O)[O-])[C@@H]1[C@@H](O)C[C@]2(C)C3=CC[C@H](C(=C)C)[C@@](C)(CCC(=O)[O-])C3=CC[C@@]12C)C(C)C
REMARK SMILES IDX 5 1 9 2 22 3 29 4 18 5 23 6 15 7 30 8 17 9 13 10 16 11 31 12
REMARK SMILES IDX 32 13 12 14 14 15 33 16 10 17 24 18 25 19 26 20 27 21 28 22
REMARK SMILES IDX 19 23 20 24 21 25 11 26 6 28 7 29 8 30 4 31 3 32 2 33 1 34
REMARK SMILES IDX 34 35 35 36 36 37
REMARK H PARENT 11 27
REMARK Flexibility Score: inf
ROOT
ATOM      1  C   UNL     1      98.419 112.597 112.215  1.00  0.00     0.042 C 
ENDROOT
BRANCH   1   2
ATOM      2  C   UNL     1      99.338 112.395 113.471  1.00  0.00     0.034 C 
ATOM      3  C   UNL     1     100.424 115.647 118.319  1.00  0.00    -0.000 C 
ATOM      4  C   UNL     1     100.223 114.835 117.017  1.00  0.00    -0.042 C 
ATOM      5  C   UNL     1     100.561 114.647 119.540  1.00  0.00     0.028 C 
ATOM      6  C   UNL     1      99.173 116.555 118.466  1.00  0.00     0.017 C 
ATOM      7  C   UNL     1      99.941 113.355 117.068  1.00  0.00    -0.042 C 
ATOM      8  C   UNL     1     100.204 115.465 115.804  1.00  0.00    -0.022 C 
ATOM      9  C   UNL     1      99.514 113.517 119.491  1.00  0.00     0.036 C 
ATOM     10  C   UNL     1     100.085 112.597 115.763  1.00  0.00     0.001 C 
ATOM     11  C   UNL     1      99.667 112.739 118.225  1.00  0.00    -0.022 C 
ATOM     12  C   UNL     1      99.996 114.754 114.472  1.00  0.00     0.035 C 
ATOM     13  C   UNL     1      99.297 113.388 114.671  1.00  0.00    -0.014 C 
ATOM     14  C   UNL     1      99.489 111.181 115.640  1.00  0.00     0.044 C 
ATOM     15  C   UNL     1     101.625 112.469 115.517  1.00  0.00     0.017 C 
ATOM     16  C   UNL     1      97.816 113.676 115.098  1.00  0.00     0.013 C 
ATOM     17  C   UNL     1      99.229 110.984 114.125  1.00  0.00     0.119 C 
BRANCH   3  18
ATOM     18  C   UNL     1     101.762 116.487 118.201  1.00  0.00     0.018 C 
BRANCH  18  19
ATOM     19  C   UNL     1     103.015 115.746 117.684  1.00  0.00     0.053 C 
BRANCH  19  20
ATOM     20  C   UNL     1     103.818 116.581 116.728  1.00  0.00     0.041 C 
ATOM     21  O   UNL     1     104.888 116.131 116.239  1.00  0.00    -0.550 OA
ATOM     22  O   UNL     1     103.366 117.838 116.348  1.00  0.00    -0.550 OA
ENDBRANCH  19  20
ENDBRANCH  18  19
ENDBRANCH   3  18
BRANCH   5  23
ATOM     23  C   UNL     1     100.616 115.291 120.927  1.00  0.00    -0.076 C 
ATOM     24  C   UNL     1      99.603 115.182 121.805  1.00  0.00     0.008 C 
ATOM     25  C   UNL     1     101.875 115.991 121.378  1.00  0.00     0.039 C 
ENDBRANCH   5  23
BRANCH  17  26
ATOM     26  O   UNL     1     100.186 110.124 113.564  1.00  0.00    -0.393 OA
ATOM     27  H   UNL     1     101.027 110.644 113.483  1.00  0.00     0.210 HD
ENDBRANCH  17  26
ENDBRANCH   1   2
BRANCH   1  28
ATOM     28  C   UNL     1      96.957 112.534 112.590  1.00  0.00     0.045 C 
ATOM     29  O   UNL     1      96.507 111.615 113.324  1.00  0.00    -0.550 OA
ATOM     30  O   UNL     1      96.098 113.538 112.162  1.00  0.00    -0.550 OA
ENDBRANCH   1  28
BRANCH   1  31
ATOM     31  C   UNL     1      98.752 111.750 110.940  1.00  0.00     0.014 C 
BRANCH  31  32
ATOM     32  C   UNL     1      99.462 112.591 109.858  1.00  0.00     0.031 C 
BRANCH  32  33
ATOM     33  C   UNL     1     100.979 112.463 109.792  1.00  0.00    -0.075 C 
ATOM     34  C   UNL     1     101.612 111.285 109.616  1.00  0.00     0.008 C 
BRANCH  33  35
ATOM     35  C   UNL     1     101.785 113.747 109.939  1.00  0.00     0.008 C 
ATOM     36  C   UNL     1     101.663 114.330 111.351  1.00  0.00     0.012 C 
ATOM     37  C   UNL     1     101.394 114.781 108.875  1.00  0.00     0.012 C 
ENDBRANCH  33  35
ENDBRANCH  32  33
ENDBRANCH  31  32
ENDBRANCH   1  31
TORSDOF 11
ENDMDL
MODEL 8
REMARK VINA RESULT:    -1.106      3.100      4.519
REMARK INTER + INTRA:          -2.719
REMARK INTER:                  -2.991
REMARK INTRA:                   0.271
REMARK UNBOUND:                -0.935
REMARK SMILES C=C(CC[C@@H](C(=O)[O-])[C@@H]1[C@@H](O)C[C@]2(C)C3=CC[C@H](C(=C)C)[C@@](C)(CCC(=O)[O-])C3=CC[C@@]12C)C(C)C
REMARK SMILES IDX 5 1 9 2 22 3 29 4 18 5 23 6 15 7 30 8 17 9 13 10 16 11 31 12
REMARK SMILES IDX 32 13 12 14 14 15 33 16 10 17 24 18 25 19 26 20 27 21 28 22
REMARK SMILES IDX 19 23 20 24 21 25 11 26 6 28 7 29 8 30 4 31 3 32 2 33 1 34
REMARK SMILES IDX 34 35 35 36 36 37
REMARK H PARENT 11 27
REMARK Flexibility Score: inf
ROOT
ATOM      1  C   UNL     1      99.861 113.118 114.993  1.00  0.00     0.042 C 
ENDROOT
BRANCH   1   2
ATOM      2  C   UNL     1     100.166 112.711 116.478  1.00  0.00     0.034 C 
ATOM      3  C   UNL     1     100.639 115.765 121.549  1.00  0.00    -0.000 C 
ATOM      4  C   UNL     1     100.612 114.970 120.221  1.00  0.00    -0.042 C 
ATOM      5  C   UNL     1      99.989 114.884 122.695  1.00  0.00     0.028 C 
ATOM      6  C   UNL     1      99.824 117.063 121.299  1.00  0.00     0.017 C 
ATOM      7  C   UNL     1      99.821 113.692 120.103  1.00  0.00    -0.042 C 
ATOM      8  C   UNL     1     101.230 115.464 119.106  1.00  0.00    -0.022 C 
ATOM      9  C   UNL     1      98.691 114.194 122.236  1.00  0.00     0.036 C 
ATOM     10  C   UNL     1     100.116 112.827 118.894  1.00  0.00     0.001 C 
ATOM     11  C   UNL     1      98.973 113.309 121.065  1.00  0.00    -0.022 C 
ATOM     12  C   UNL     1     101.244 114.764 117.753  1.00  0.00     0.035 C 
ATOM     13  C   UNL     1     100.080 113.751 117.636  1.00  0.00    -0.014 C 
ATOM     14  C   UNL     1      99.133 111.704 118.508  1.00  0.00     0.044 C 
ATOM     15  C   UNL     1     101.495 112.147 119.187  1.00  0.00     0.017 C 
ATOM     16  C   UNL     1      98.749 114.574 117.540  1.00  0.00     0.013 C 
ATOM     17  C   UNL     1      99.346 111.488 116.989  1.00  0.00     0.119 C 
BRANCH   3  18
ATOM     18  C   UNL     1     102.144 116.069 121.938  1.00  0.00     0.018 C 
BRANCH  18  19
ATOM     19  C   UNL     1     102.405 116.648 123.347  1.00  0.00     0.053 C 
BRANCH  19  20
ATOM     20  C   UNL     1     102.747 118.109 123.309  1.00  0.00     0.041 C 
ATOM     21  O   UNL     1     103.694 118.520 122.587  1.00  0.00    -0.550 OA
ATOM     22  O   UNL     1     101.997 119.022 124.040  1.00  0.00    -0.550 OA
ENDBRANCH  19  20
ENDBRANCH  18  19
ENDBRANCH   3  18
BRANCH   5  23
ATOM     23  C   UNL     1      99.800 115.581 124.045  1.00  0.00    -0.076 C 
ATOM     24  C   UNL     1     100.543 115.266 125.120  1.00  0.00     0.008 C 
ATOM     25  C   UNL     1      98.823 116.725 124.166  1.00  0.00     0.039 C 
ENDBRANCH   5  23
BRANCH  17  26
ATOM     26  O   UNL     1     100.062 110.303 116.752  1.00  0.00    -0.393 OA
ATOM     27  H   UNL     1     100.993 110.465 117.055  1.00  0.00     0.210 HD
ENDBRANCH  17  26
ENDBRANCH   1   2
BRANCH   1  28
ATOM     28  C   UNL     1      98.636 112.406 114.470  1.00  0.00     0.045 C 
ATOM     29  O   UNL     1      97.568 113.028 114.227  1.00  0.00    -0.550 OA
ATOM     30  O   UNL     1      98.699 111.044 114.202  1.00  0.00    -0.550 OA
ENDBRANCH   1  28
BRANCH   1  31
ATOM     31  C   UNL     1     101.056 113.084 113.981  1.00  0.00     0.014 C 
BRANCH  31  32
ATOM     32  C   UNL     1     100.700 113.769 112.646  1.00  0.00     0.031 C 
BRANCH  32  33
ATOM     33  C   UNL     1     100.651 112.868 111.417  1.00  0.00    -0.075 C 
ATOM     34  C   UNL     1      99.670 111.966 111.204  1.00  0.00     0.008 C 
BRANCH  33  35
ATOM     35  C   UNL     1     101.780 113.018 110.407  1.00  0.00     0.008 C 
ATOM     36  C   UNL     1     101.729 114.378 109.702  1.00  0.00     0.012 C 
ATOM     37  C   UNL     1     101.785 111.866 109.393  1.00  0.00     0.012 C 
ENDBRANCH  33  35
ENDBRANCH  32  33
ENDBRANCH  31  32
ENDBRANCH   1  31
TORSDOF 11
ENDMDL
MODEL 9
REMARK VINA RESULT:    -0.832      3.018      5.479
REMARK INTER + INTRA:          -2.278
REMARK INTER:                  -2.222
REMARK INTRA:                  -0.056
REMARK UNBOUND:                -0.935
REMARK SMILES C=C(CC[C@@H](C(=O)[O-])[C@@H]1[C@@H](O)C[C@]2(C)C3=CC[C@H](C(=C)C)[C@@](C)(CCC(=O)[O-])C3=CC[C@@]12C)C(C)C
REMARK SMILES IDX 5 1 9 2 22 3 29 4 18 5 23 6 15 7 30 8 17 9 13 10 16 11 31 12
REMARK SMILES IDX 32 13 12 14 14 15 33 16 10 17 24 18 25 19 26 20 27 21 28 22
REMARK SMILES IDX 19 23 20 24 21 25 11 26 6 28 7 29 8 30 4 31 3 32 2 33 1 34
REMARK SMILES IDX 34 35 35 36 36 37
REMARK H PARENT 11 27
REMARK Flexibility Score: inf
ROOT
ATOM      1  C   UNL     1      99.936 113.870 115.553  1.00  0.00     0.042 C 
ENDROOT
BRANCH   1   2
ATOM      2  C   UNL     1     100.647 114.874 116.527  1.00  0.00     0.034 C 
ATOM      3  C   UNL     1      99.629 116.565 122.128  1.00  0.00    -0.000 C 
ATOM      4  C   UNL     1      99.849 116.204 120.639  1.00  0.00    -0.042 C 
ATOM      5  C   UNL     1     101.037 116.736 122.834  1.00  0.00     0.028 C 
ATOM      6  C   UNL     1      98.822 115.391 122.747  1.00  0.00     0.017 C 
ATOM      7  C   UNL     1     101.218 115.832 120.129  1.00  0.00    -0.042 C 
ATOM      8  C   UNL     1      98.787 116.127 119.781  1.00  0.00    -0.022 C 
ATOM      9  C   UNL     1     102.024 115.618 122.449  1.00  0.00     0.036 C 
ATOM     10  C   UNL     1     101.396 115.819 118.624  1.00  0.00     0.001 C 
ATOM     11  C   UNL     1     102.237 115.615 120.971  1.00  0.00    -0.022 C 
ATOM     12  C   UNL     1      98.901 115.764 118.305  1.00  0.00     0.035 C 
ATOM     13  C   UNL     1     100.214 114.996 118.019  1.00  0.00    -0.014 C 
ATOM     14  C   UNL     1     102.629 115.124 118.013  1.00  0.00     0.044 C 
ATOM     15  C   UNL     1     101.456 117.322 118.193  1.00  0.00     0.017 C 
ATOM     16  C   UNL     1     100.081 113.578 118.673  1.00  0.00     0.013 C 
ATOM     17  C   UNL     1     102.198 114.728 116.579  1.00  0.00     0.119 C 
BRANCH   3  18
ATOM     18  C   UNL     1      98.849 117.940 122.216  1.00  0.00     0.018 C 
BRANCH  18  19
ATOM     19  C   UNL     1      98.421 118.420 123.621  1.00  0.00     0.053 C 
BRANCH  19  20
ATOM     20  C   UNL     1      98.289 119.913 123.699  1.00  0.00     0.041 C 
ATOM     21  O   UNL     1      97.520 120.523 122.909  1.00  0.00    -0.550 OA
ATOM     22  O   UNL     1      98.983 120.628 124.666  1.00  0.00    -0.550 OA
ENDBRANCH  19  20
ENDBRANCH  18  19
ENDBRANCH   3  18
BRANCH   5  23
ATOM     23  C   UNL     1     101.001 116.947 124.350  1.00  0.00    -0.076 C 
ATOM     24  C   UNL     1     100.541 116.004 125.190  1.00  0.00     0.008 C 
ATOM     25  C   UNL     1     101.586 118.205 124.944  1.00  0.00     0.039 C 
ENDBRANCH   5  23
BRANCH  17  26
ATOM     26  O   UNL     1     102.788 115.577 115.630  1.00  0.00    -0.393 OA
ATOM     27  H   UNL     1     102.125 115.698 114.901  1.00  0.00     0.210 HD
ENDBRANCH  17  26
ENDBRANCH   1   2
BRANCH   1  28
ATOM     28  C   UNL     1     100.698 112.569 115.454  1.00  0.00     0.045 C 
ATOM     29  O   UNL     1     101.864 112.527 114.979  1.00  0.00    -0.550 OA
ATOM     30  O   UNL     1     100.126 111.402 115.945  1.00  0.00    -0.550 OA
ENDBRANCH   1  28
BRANCH   1  31
ATOM     31  C   UNL     1      99.496 114.419 114.153  1.00  0.00     0.014 C 
BRANCH  31  32
ATOM     32  C   UNL     1      99.101 113.283 113.187  1.00  0.00     0.031 C 
BRANCH  32  33
ATOM     33  C   UNL     1     100.058 113.017 112.030  1.00  0.00    -0.075 C 
ATOM     34  C   UNL     1     101.205 113.703 111.851  1.00  0.00     0.008 C 
BRANCH  33  35
ATOM     35  C   UNL     1      99.664 111.920 111.050  1.00  0.00     0.008 C 
ATOM     36  C   UNL     1     100.841 111.516 110.154  1.00  0.00     0.012 C 
ATOM     37  C   UNL     1      98.443 112.326 110.214  1.00  0.00     0.012 C 
ENDBRANCH  33  35
ENDBRANCH  32  33
ENDBRANCH  31  32
ENDBRANCH   1  31
TORSDOF 11
ENDMDL
