MODEL 1
REMARK VINA RESULT:    -4.088      0.000      0.000
REMARK INTER + INTRA:         -13.039
REMARK INTER:                  -9.346
REMARK INTRA:                  -3.693
REMARK UNBOUND:                -3.693
REMARK SMILES CCCCCCCCCCCCCCCCCCCCCCCC(=O)[O-]
REMARK SMILES IDX 13 1 14 2 15 3 16 4 17 5 18 6 19 7 20 8 21 9 22 10 23 11
REMARK SMILES IDX 24 12 25 13 26 14 12 15 11 16 10 17 9 18 8 19 7 20 6 21 5 22
REMARK SMILES IDX 4 23 3 24 2 25 1 26
REMARK H PARENT
REMARK Flexibility Score: inf
ROOT
ATOM      1  C   UNL     1      19.047  13.082  35.905  1.00  0.00     0.000 C 
ENDROOT
BRANCH   1   2
ATOM      2  C   UNL     1      17.958  12.336  35.121  1.00  0.00     0.000 C 
BRANCH   2   3
ATOM      3  C   UNL     1      18.274  12.213  33.619  1.00  0.00     0.000 C 
BRANCH   3   4
ATOM      4  C   UNL     1      18.441  10.773  33.100  1.00  0.00     0.000 C 
BRANCH   4   5
ATOM      5  C   UNL     1      19.629  10.616  32.135  1.00  0.00     0.000 C 
BRANCH   5   6
ATOM      6  C   UNL     1      19.764  11.804  31.168  1.00  0.00     0.000 C 
BRANCH   6   7
ATOM      7  C   UNL     1      21.042  12.623  31.405  1.00  0.00     0.000 C 
BRANCH   7   8
ATOM      8  C   UNL     1      20.761  14.125  31.276  1.00  0.00     0.000 C 
BRANCH   8   9
ATOM      9  C   UNL     1      22.064  14.937  31.344  1.00  0.00     0.000 C 
BRANCH   9  10
ATOM     10  C   UNL     1      22.747  15.088  29.972  1.00  0.00     0.006 C 
BRANCH  10  11
ATOM     11  C   UNL     1      24.071  15.868  30.008  1.00  0.00     0.053 C 
BRANCH  11  12
ATOM     12  C   UNL     1      23.856  17.325  30.276  1.00  0.00     0.041 C 
ATOM     13  O   UNL     1      24.522  17.912  31.170  1.00  0.00    -0.550 OA
ATOM     14  O   UNL     1      22.939  18.044  29.518  1.00  0.00    -0.550 OA
ENDBRANCH  11  12
ENDBRANCH  10  11
ENDBRANCH   9  10
ENDBRANCH   8   9
ENDBRANCH   7   8
ENDBRANCH   6   7
ENDBRANCH   5   6
ENDBRANCH   4   5
ENDBRANCH   3   4
ENDBRANCH   2   3
ENDBRANCH   1   2
BRANCH   1  15
ATOM     15  C   UNL     1      20.244  13.414  35.005  1.00  0.00     0.000 C 
BRANCH  15  16
ATOM     16  C   UNL     1      21.534  12.791  35.557  1.00  0.00     0.000 C 
BRANCH  16  17
ATOM     17  C   UNL     1      21.999  11.567  34.747  1.00  0.00     0.000 C 
BRANCH  17  18
ATOM     18  C   UNL     1      22.126  10.258  35.552  1.00  0.00    -0.000 C 
BRANCH  18  19
ATOM     19  C   UNL     1      21.016   9.220  35.303  1.00  0.00    -0.000 C 
BRANCH  19  20
ATOM     20  C   UNL     1      19.821   9.380  36.258  1.00  0.00    -0.000 C 
BRANCH  20  21
ATOM     21  C   UNL     1      19.466   8.077  36.998  1.00  0.00    -0.000 C 
BRANCH  21  22
ATOM     22  C   UNL     1      19.659   6.784  36.183  1.00  0.00    -0.000 C 
BRANCH  22  23
ATOM     23  C   UNL     1      18.362   6.291  35.525  1.00  0.00    -0.000 C 
BRANCH  23  24
ATOM     24  C   UNL     1      18.398   6.513  34.005  1.00  0.00    -0.000 C 
BRANCH  24  25
ATOM     25  C   UNL     1      19.807   6.343  33.418  1.00  0.00    -0.003 C 
ATOM     26  C   UNL     1      19.881   6.714  31.938  1.00  0.00     0.004 C 
ENDBRANCH  24  25
ENDBRANCH  23  24
ENDBRANCH  22  23
ENDBRANCH  21  22
ENDBRANCH  20  21
ENDBRANCH  19  20
ENDBRANCH  18  19
ENDBRANCH  17  18
ENDBRANCH  16  17
ENDBRANCH  15  16
ENDBRANCH   1  15
TORSDOF 22
ENDMDL
MODEL 2
REMARK VINA RESULT:    -3.898      3.931      7.506
REMARK INTER + INTRA:         -12.604
REMARK INTER:                  -8.734
REMARK INTRA:                  -3.870
REMARK UNBOUND:                -3.693
REMARK SMILES CCCCCCCCCCCCCCCCCCCCCCCC(=O)[O-]
REMARK SMILES IDX 13 1 14 2 15 3 16 4 17 5 18 6 19 7 20 8 21 9 22 10 23 11
REMARK SMILES IDX 24 12 25 13 26 14 12 15 11 16 10 17 9 18 8 19 7 20 6 21 5 22
REMARK SMILES IDX 4 23 3 24 2 25 1 26
REMARK H PARENT
REMARK Flexibility Score: inf
ROOT
ATOM      1  C   UNL     1      21.971  11.430  34.770  1.00  0.00     0.000 C 
ENDROOT
BRANCH   1   2
ATOM      2  C   UNL     1      22.068  10.137  35.593  1.00  0.00     0.000 C 
BRANCH   2   3
ATOM      3  C   UNL     1      20.950   9.130  35.266  1.00  0.00     0.000 C 
BRANCH   3   4
ATOM      4  C   UNL     1      19.770   9.117  36.255  1.00  0.00     0.000 C 
BRANCH   4   5
ATOM      5  C   UNL     1      19.435   7.706  36.772  1.00  0.00     0.000 C 
BRANCH   5   6
ATOM      6  C   UNL     1      19.637   6.622  35.700  1.00  0.00     0.000 C 
BRANCH   6   7
ATOM      7  C   UNL     1      18.341   6.278  34.951  1.00  0.00     0.000 C 
BRANCH   7   8
ATOM      8  C   UNL     1      18.467   6.608  33.458  1.00  0.00     0.000 C 
BRANCH   8   9
ATOM      9  C   UNL     1      19.873   6.273  32.937  1.00  0.00     0.000 C 
BRANCH   9  10
ATOM     10  C   UNL     1      20.013   6.483  31.418  1.00  0.00     0.006 C 
BRANCH  10  11
ATOM     11  C   UNL     1      19.450   5.333  30.566  1.00  0.00     0.053 C 
BRANCH  11  12
ATOM     12  C   UNL     1      20.459   4.812  29.591  1.00  0.00     0.041 C 
ATOM     13  O   UNL     1      21.403   5.549  29.199  1.00  0.00    -0.550 OA
ATOM     14  O   UNL     1      20.373   3.502  29.135  1.00  0.00    -0.550 OA
ENDBRANCH  11  12
ENDBRANCH  10  11
ENDBRANCH   9  10
ENDBRANCH   8   9
ENDBRANCH   7   8
ENDBRANCH   6   7
ENDBRANCH   5   6
ENDBRANCH   4   5
ENDBRANCH   3   4
ENDBRANCH   2   3
ENDBRANCH   1   2
BRANCH   1  15
ATOM     15  C   UNL     1      21.750  12.646  35.678  1.00  0.00     0.000 C 
BRANCH  15  16
ATOM     16  C   UNL     1      20.460  13.387  35.298  1.00  0.00     0.000 C 
BRANCH  16  17
ATOM     17  C   UNL     1      19.202  12.750  35.916  1.00  0.00     0.000 C 
BRANCH  17  18
ATOM     18  C   UNL     1      18.193  12.175  34.901  1.00  0.00    -0.000 C 
BRANCH  18  19
ATOM     19  C   UNL     1      18.712  12.036  33.459  1.00  0.00    -0.000 C 
BRANCH  19  20
ATOM     20  C   UNL     1      17.914  11.015  32.630  1.00  0.00    -0.000 C 
BRANCH  20  21
ATOM     21  C   UNL     1      18.809   9.959  31.955  1.00  0.00    -0.000 C 
BRANCH  21  22
ATOM     22  C   UNL     1      20.323  10.225  32.046  1.00  0.00    -0.000 C 
BRANCH  22  23
ATOM     23  C   UNL     1      20.942  10.639  30.703  1.00  0.00    -0.000 C 
BRANCH  23  24
ATOM     24  C   UNL     1      21.971  11.763  30.895  1.00  0.00    -0.000 C 
BRANCH  24  25
ATOM     25  C   UNL     1      21.349  13.161  30.762  1.00  0.00    -0.003 C 
ATOM     26  C   UNL     1      21.527  14.010  32.020  1.00  0.00     0.004 C 
ENDBRANCH  24  25
ENDBRANCH  23  24
ENDBRANCH  22  23
ENDBRANCH  21  22
ENDBRANCH  20  21
ENDBRANCH  19  20
ENDBRANCH  18  19
ENDBRANCH  17  18
ENDBRANCH  16  17
ENDBRANCH  15  16
ENDBRANCH   1  15
TORSDOF 22
ENDMDL
MODEL 3
REMARK VINA RESULT:    -3.819      1.286      3.287
REMARK INTER + INTRA:         -12.423
REMARK INTER:                  -8.552
REMARK INTRA:                  -3.871
REMARK UNBOUND:                -3.693
REMARK SMILES CCCCCCCCCCCCCCCCCCCCCCCC(=O)[O-]
REMARK SMILES IDX 13 1 14 2 15 3 16 4 17 5 18 6 19 7 20 8 21 9 22 10 23 11
REMARK SMILES IDX 24 12 25 13 26 14 12 15 11 16 10 17 9 18 8 19 7 20 6 21 5 22
REMARK SMILES IDX 4 23 3 24 2 25 1 26
REMARK H PARENT
REMARK Flexibility Score: inf
ROOT
ATOM      1  C   UNL     1      21.846  10.707  35.687  1.00  0.00     0.000 C 
ENDROOT
BRANCH   1   2
ATOM      2  C   UNL     1      22.521  11.287  34.435  1.00  0.00     0.000 C 
BRANCH   2   3
ATOM      3  C   UNL     1      21.642  11.182  33.175  1.00  0.00     0.000 C 
BRANCH   3   4
ATOM      4  C   UNL     1      21.933  12.229  32.084  1.00  0.00     0.000 C 
BRANCH   4   5
ATOM      5  C   UNL     1      21.461  13.643  32.468  1.00  0.00     0.000 C 
BRANCH   5   6
ATOM      6  C   UNL     1      20.682  14.332  31.336  1.00  0.00     0.000 C 
BRANCH   6   7
ATOM      7  C   UNL     1      20.936  13.692  29.963  1.00  0.00     0.000 C 
BRANCH   7   8
ATOM      8  C   UNL     1      21.710  14.649  29.047  1.00  0.00     0.000 C 
BRANCH   8   9
ATOM      9  C   UNL     1      23.223  14.399  29.141  1.00  0.00     0.000 C 
BRANCH   9  10
ATOM     10  C   UNL     1      23.970  15.524  29.881  1.00  0.00     0.006 C 
BRANCH  10  11
ATOM     11  C   UNL     1      23.461  16.938  29.559  1.00  0.00     0.053 C 
BRANCH  11  12
ATOM     12  C   UNL     1      23.342  17.784  30.789  1.00  0.00     0.041 C 
ATOM     13  O   UNL     1      24.336  18.431  31.214  1.00  0.00    -0.550 OA
ATOM     14  O   UNL     1      22.123  17.882  31.451  1.00  0.00    -0.550 OA
ENDBRANCH  11  12
ENDBRANCH  10  11
ENDBRANCH   9  10
ENDBRANCH   8   9
ENDBRANCH   7   8
ENDBRANCH   6   7
ENDBRANCH   5   6
ENDBRANCH   4   5
ENDBRANCH   3   4
ENDBRANCH   2   3
ENDBRANCH   1   2
BRANCH   1  15
ATOM     15  C   UNL     1      20.322  10.866  35.615  1.00  0.00     0.000 C 
BRANCH  15  16
ATOM     16  C   UNL     1      19.894  12.264  36.083  1.00  0.00     0.000 C 
BRANCH  16  17
ATOM     17  C   UNL     1      18.944  12.960  35.091  1.00  0.00     0.000 C 
BRANCH  17  18
ATOM     18  C   UNL     1      18.031  12.013  34.286  1.00  0.00    -0.000 C 
BRANCH  18  19
ATOM     19  C   UNL     1      17.983  12.273  32.769  1.00  0.00    -0.000 C 
BRANCH  19  20
ATOM     20  C   UNL     1      18.167  10.993  31.936  1.00  0.00    -0.000 C 
BRANCH  20  21
ATOM     21  C   UNL     1      18.224   9.719  32.799  1.00  0.00    -0.000 C 
BRANCH  21  22
ATOM     22  C   UNL     1      19.150   8.608  32.269  1.00  0.00    -0.000 C 
BRANCH  22  23
ATOM     23  C   UNL     1      20.201   8.162  33.298  1.00  0.00    -0.000 C 
BRANCH  23  24
ATOM     24  C   UNL     1      19.762   6.872  34.007  1.00  0.00    -0.000 C 
BRANCH  24  25
ATOM     25  C   UNL     1      20.307   6.773  35.440  1.00  0.00    -0.003 C 
ATOM     26  C   UNL     1      19.353   7.361  36.479  1.00  0.00     0.004 C 
ENDBRANCH  24  25
ENDBRANCH  23  24
ENDBRANCH  22  23
ENDBRANCH  21  22
ENDBRANCH  20  21
ENDBRANCH  19  20
ENDBRANCH  18  19
ENDBRANCH  17  18
ENDBRANCH  16  17
ENDBRANCH  15  16
ENDBRANCH   1  15
TORSDOF 22
ENDMDL
MODEL 4
REMARK VINA RESULT:    -3.778      1.605      3.630
REMARK INTER + INTRA:         -12.330
REMARK INTER:                  -8.569
REMARK INTRA:                  -3.761
REMARK UNBOUND:                -3.693
REMARK SMILES CCCCCCCCCCCCCCCCCCCCCCCC(=O)[O-]
REMARK SMILES IDX 13 1 14 2 15 3 16 4 17 5 18 6 19 7 20 8 21 9 22 10 23 11
REMARK SMILES IDX 24 12 25 13 26 14 12 15 11 16 10 17 9 18 8 19 7 20 6 21 5 22
REMARK SMILES IDX 4 23 3 24 2 25 1 26
REMARK H PARENT
REMARK Flexibility Score: inf
ROOT
ATOM      1  C   UNL     1      22.046  11.132  34.154  1.00  0.00     0.000 C 
ENDROOT
BRANCH   1   2
ATOM      2  C   UNL     1      21.996  11.887  32.817  1.00  0.00     0.000 C 
BRANCH   2   3
ATOM      3  C   UNL     1      21.373  13.290  32.941  1.00  0.00     0.000 C 
BRANCH   3   4
ATOM      4  C   UNL     1      20.611  13.780  31.696  1.00  0.00     0.000 C 
BRANCH   4   5
ATOM      5  C   UNL     1      21.256  13.319  30.377  1.00  0.00     0.000 C 
BRANCH   5   6
ATOM      6  C   UNL     1      21.509  14.483  29.405  1.00  0.00     0.000 C 
BRANCH   6   7
ATOM      7  C   UNL     1      23.001  14.816  29.249  1.00  0.00     0.000 C 
BRANCH   7   8
ATOM      8  C   UNL     1      23.500  15.658  30.430  1.00  0.00     0.000 C 
BRANCH   8   9
ATOM      9  C   UNL     1      23.870  17.079  29.976  1.00  0.00     0.000 C 
BRANCH   9  10
ATOM     10  C   UNL     1      23.091  18.170  30.734  1.00  0.00     0.006 C 
BRANCH  10  11
ATOM     11  C   UNL     1      21.684  17.745  31.183  1.00  0.00     0.053 C 
BRANCH  11  12
ATOM     12  C   UNL     1      20.631  18.174  30.209  1.00  0.00     0.041 C 
ATOM     13  O   UNL     1      20.848  18.110  28.970  1.00  0.00    -0.550 OA
ATOM     14  O   UNL     1      19.397  18.619  30.670  1.00  0.00    -0.550 OA
ENDBRANCH  11  12
ENDBRANCH  10  11
ENDBRANCH   9  10
ENDBRANCH   8   9
ENDBRANCH   7   8
ENDBRANCH   6   7
ENDBRANCH   5   6
ENDBRANCH   4   5
ENDBRANCH   3   4
ENDBRANCH   2   3
ENDBRANCH   1   2
BRANCH   1  15
ATOM     15  C   UNL     1      21.625  12.041  35.316  1.00  0.00     0.000 C 
BRANCH  15  16
ATOM     16  C   UNL     1      20.353  11.512  35.993  1.00  0.00     0.000 C 
BRANCH  16  17
ATOM     17  C   UNL     1      19.212  12.545  36.009  1.00  0.00     0.000 C 
BRANCH  17  18
ATOM     18  C   UNL     1      18.240  12.465  34.814  1.00  0.00    -0.000 C 
BRANCH  18  19
ATOM     19  C   UNL     1      18.006  11.053  34.246  1.00  0.00    -0.000 C 
BRANCH  19  20
ATOM     20  C   UNL     1      18.390  10.935  32.761  1.00  0.00    -0.000 C 
BRANCH  20  21
ATOM     21  C   UNL     1      19.159   9.640  32.441  1.00  0.00    -0.000 C 
BRANCH  21  22
ATOM     22  C   UNL     1      18.855   8.449  33.369  1.00  0.00    -0.000 C 
BRANCH  22  23
ATOM     23  C   UNL     1      20.104   7.626  33.719  1.00  0.00    -0.000 C 
BRANCH  23  24
ATOM     24  C   UNL     1      20.521   7.855  35.180  1.00  0.00    -0.000 C 
BRANCH  24  25
ATOM     25  C   UNL     1      19.347   7.700  36.159  1.00  0.00    -0.003 C 
ATOM     26  C   UNL     1      19.397   6.388  36.941  1.00  0.00     0.004 C 
ENDBRANCH  24  25
ENDBRANCH  23  24
ENDBRANCH  22  23
ENDBRANCH  21  22
ENDBRANCH  20  21
ENDBRANCH  19  20
ENDBRANCH  18  19
ENDBRANCH  17  18
ENDBRANCH  16  17
ENDBRANCH  15  16
ENDBRANCH   1  15
TORSDOF 22
ENDMDL
MODEL 5
REMARK VINA RESULT:    -3.759      1.432      3.531
REMARK INTER + INTRA:         -12.286
REMARK INTER:                  -8.841
REMARK INTRA:                  -3.446
REMARK UNBOUND:                -3.693
REMARK SMILES CCCCCCCCCCCCCCCCCCCCCCCC(=O)[O-]
REMARK SMILES IDX 13 1 14 2 15 3 16 4 17 5 18 6 19 7 20 8 21 9 22 10 23 11
REMARK SMILES IDX 24 12 25 13 26 14 12 15 11 16 10 17 9 18 8 19 7 20 6 21 5 22
REMARK SMILES IDX 4 23 3 24 2 25 1 26
REMARK H PARENT
REMARK Flexibility Score: inf
ROOT
ATOM      1  C   UNL     1      21.180  10.223  35.403  1.00  0.00     0.000 C 
ENDROOT
BRANCH   1   2
ATOM      2  C   UNL     1      21.763  11.632  35.592  1.00  0.00     0.000 C 
BRANCH   2   3
ATOM      3  C   UNL     1      20.702  12.742  35.478  1.00  0.00     0.000 C 
BRANCH   3   4
ATOM      4  C   UNL     1      20.970  13.795  34.387  1.00  0.00     0.000 C 
BRANCH   4   5
ATOM      5  C   UNL     1      20.434  13.378  33.006  1.00  0.00     0.000 C 
BRANCH   5   6
ATOM      6  C   UNL     1      21.552  12.939  32.046  1.00  0.00     0.000 C 
BRANCH   6   7
ATOM      7  C   UNL     1      21.042  12.665  30.623  1.00  0.00     0.000 C 
BRANCH   7   8
ATOM      8  C   UNL     1      21.363  13.840  29.691  1.00  0.00     0.000 C 
BRANCH   8   9
ATOM      9  C   UNL     1      22.879  14.074  29.601  1.00  0.00     0.000 C 
BRANCH   9  10
ATOM     10  C   UNL     1      23.252  15.567  29.565  1.00  0.00     0.006 C 
BRANCH  10  11
ATOM     11  C   UNL     1      22.115  16.513  29.986  1.00  0.00     0.053 C 
BRANCH  11  12
ATOM     12  C   UNL     1      22.577  17.543  30.969  1.00  0.00     0.041 C 
ATOM     13  O   UNL     1      21.760  18.065  31.773  1.00  0.00    -0.550 OA
ATOM     14  O   UNL     1      23.918  17.907  31.017  1.00  0.00    -0.550 OA
ENDBRANCH  11  12
ENDBRANCH  10  11
ENDBRANCH   9  10
ENDBRANCH   8   9
ENDBRANCH   7   8
ENDBRANCH   6   7
ENDBRANCH   5   6
ENDBRANCH   4   5
ENDBRANCH   3   4
ENDBRANCH   2   3
ENDBRANCH   1   2
BRANCH   1  15
ATOM     15  C   UNL     1      20.889   9.940  33.924  1.00  0.00     0.000 C 
BRANCH  15  16
ATOM     16  C   UNL     1      19.377   9.879  33.665  1.00  0.00     0.000 C 
BRANCH  16  17
ATOM     17  C   UNL     1      19.031   9.822  32.166  1.00  0.00     0.000 C 
BRANCH  17  18
ATOM     18  C   UNL     1      20.134   9.236  31.261  1.00  0.00    -0.000 C 
BRANCH  18  19
ATOM     19  C   UNL     1      19.668   8.160  30.264  1.00  0.00    -0.000 C 
BRANCH  19  20
ATOM     20  C   UNL     1      19.899   6.728  30.778  1.00  0.00    -0.000 C 
BRANCH  20  21
ATOM     21  C   UNL     1      18.732   6.201  31.632  1.00  0.00    -0.000 C 
BRANCH  21  22
ATOM     22  C   UNL     1      18.995   6.158  33.149  1.00  0.00    -0.000 C 
BRANCH  22  23
ATOM     23  C   UNL     1      20.486   6.253  33.503  1.00  0.00    -0.000 C 
BRANCH  23  24
ATOM     24  C   UNL     1      20.678   6.626  34.981  1.00  0.00    -0.000 C 
BRANCH  24  25
ATOM     25  C   UNL     1      19.345   6.831  35.715  1.00  0.00    -0.003 C 
ATOM     26  C   UNL     1      19.356   6.264  37.134  1.00  0.00     0.004 C 
ENDBRANCH  24  25
ENDBRANCH  23  24
ENDBRANCH  22  23
ENDBRANCH  21  22
ENDBRANCH  20  21
ENDBRANCH  19  20
ENDBRANCH  18  19
ENDBRANCH  17  18
ENDBRANCH  16  17
ENDBRANCH  15  16
ENDBRANCH   1  15
TORSDOF 22
ENDMDL
MODEL 6
REMARK VINA RESULT:    -3.654      4.020      7.368
REMARK INTER + INTRA:         -12.045
REMARK INTER:                  -7.944
REMARK INTRA:                  -4.101
REMARK UNBOUND:                -3.693
REMARK SMILES CCCCCCCCCCCCCCCCCCCCCCCC(=O)[O-]
REMARK SMILES IDX 13 1 14 2 15 3 16 4 17 5 18 6 19 7 20 8 21 9 22 10 23 11
REMARK SMILES IDX 24 12 25 13 26 14 12 15 11 16 10 17 9 18 8 19 7 20 6 21 5 22
REMARK SMILES IDX 4 23 3 24 2 25 1 26
REMARK H PARENT
REMARK Flexibility Score: inf
ROOT
ATOM      1  C   UNL     1      18.141  12.034  32.250  1.00  0.00     0.000 C 
ENDROOT
BRANCH   1   2
ATOM      2  C   UNL     1      18.439  10.531  32.359  1.00  0.00     0.000 C 
BRANCH   2   3
ATOM      3  C   UNL     1      18.534   9.836  30.988  1.00  0.00     0.000 C 
BRANCH   3   4
ATOM      4  C   UNL     1      19.909   9.226  30.657  1.00  0.00     0.000 C 
BRANCH   4   5
ATOM      5  C   UNL     1      19.827   8.085  29.627  1.00  0.00     0.000 C 
BRANCH   5   6
ATOM      6  C   UNL     1      20.133   6.711  30.244  1.00  0.00     0.000 C 
BRANCH   6   7
ATOM      7  C   UNL     1      18.871   5.983  30.732  1.00  0.00     0.000 C 
BRANCH   7   8
ATOM      8  C   UNL     1      18.749   6.064  32.259  1.00  0.00     0.000 C 
BRANCH   8   9
ATOM      9  C   UNL     1      20.127   6.248  32.913  1.00  0.00     0.000 C 
BRANCH   9  10
ATOM     10  C   UNL     1      20.164   7.421  33.910  1.00  0.00     0.006 C 
BRANCH  10  11
ATOM     11  C   UNL     1      20.542   7.020  35.345  1.00  0.00     0.053 C 
BRANCH  11  12
ATOM     12  C   UNL     1      19.358   7.033  36.261  1.00  0.00     0.041 C 
ATOM     13  O   UNL     1      18.360   6.303  36.020  1.00  0.00    -0.550 OA
ATOM     14  O   UNL     1      19.368   7.831  37.399  1.00  0.00    -0.550 OA
ENDBRANCH  11  12
ENDBRANCH  10  11
ENDBRANCH   9  10
ENDBRANCH   8   9
ENDBRANCH   7   8
ENDBRANCH   6   7
ENDBRANCH   5   6
ENDBRANCH   4   5
ENDBRANCH   3   4
ENDBRANCH   2   3
ENDBRANCH   1   2
BRANCH   1  15
ATOM     15  C   UNL     1      17.899  12.443  30.792  1.00  0.00     0.000 C 
BRANCH  15  16
ATOM     16  C   UNL     1      18.866  13.558  30.367  1.00  0.00     0.000 C 
BRANCH  16  17
ATOM     17  C   UNL     1      20.341  13.187  30.598  1.00  0.00     0.000 C 
BRANCH  17  18
ATOM     18  C   UNL     1      21.086  14.068  31.621  1.00  0.00    -0.000 C 
BRANCH  18  19
ATOM     19  C   UNL     1      21.492  13.364  32.928  1.00  0.00    -0.000 C 
BRANCH  19  20
ATOM     20  C   UNL     1      21.874  11.888  32.720  1.00  0.00    -0.000 C 
BRANCH  20  21
ATOM     21  C   UNL     1      22.477  11.241  33.980  1.00  0.00    -0.000 C 
BRANCH  21  22
ATOM     22  C   UNL     1      21.878  11.719  35.316  1.00  0.00    -0.000 C 
BRANCH  22  23
ATOM     23  C   UNL     1      20.868  10.726  35.910  1.00  0.00    -0.000 C 
BRANCH  23  24
ATOM     24  C   UNL     1      19.432  11.256  35.774  1.00  0.00    -0.000 C 
BRANCH  24  25
ATOM     25  C   UNL     1      19.372  12.790  35.730  1.00  0.00    -0.003 C 
ATOM     26  C   UNL     1      18.110  13.353  36.384  1.00  0.00     0.004 C 
ENDBRANCH  24  25
ENDBRANCH  23  24
ENDBRANCH  22  23
ENDBRANCH  21  22
ENDBRANCH  20  21
ENDBRANCH  19  20
ENDBRANCH  18  19
ENDBRANCH  17  18
ENDBRANCH  16  17
ENDBRANCH  15  16
ENDBRANCH   1  15
TORSDOF 22
ENDMDL
MODEL 7
REMARK VINA RESULT:    -3.653      3.558      8.169
REMARK INTER + INTRA:         -12.044
REMARK INTER:                  -8.559
REMARK INTRA:                  -3.485
REMARK UNBOUND:                -3.693
REMARK SMILES CCCCCCCCCCCCCCCCCCCCCCCC(=O)[O-]
REMARK SMILES IDX 13 1 14 2 15 3 16 4 17 5 18 6 19 7 20 8 21 9 22 10 23 11
REMARK SMILES IDX 24 12 25 13 26 14 12 15 11 16 10 17 9 18 8 19 7 20 6 21 5 22
REMARK SMILES IDX 4 23 3 24 2 25 1 26
REMARK H PARENT
REMARK Flexibility Score: inf
ROOT
ATOM      1  C   UNL     1      19.382  13.384  35.616  1.00  0.00     0.000 C 
ENDROOT
BRANCH   1   2
ATOM      2  C   UNL     1      20.709  13.160  34.876  1.00  0.00     0.000 C 
BRANCH   2   3
ATOM      3  C   UNL     1      21.685  12.255  35.651  1.00  0.00     0.000 C 
BRANCH   3   4
ATOM      4  C   UNL     1      22.258  11.072  34.849  1.00  0.00     0.000 C 
BRANCH   4   5
ATOM      5  C   UNL     1      21.747   9.708  35.343  1.00  0.00     0.000 C 
BRANCH   5   6
ATOM      6  C   UNL     1      20.384   9.808  36.047  1.00  0.00     0.000 C 
BRANCH   6   7
ATOM      7  C   UNL     1      19.766   8.434  36.346  1.00  0.00     0.000 C 
BRANCH   7   8
ATOM      8  C   UNL     1      20.066   7.441  35.216  1.00  0.00     0.000 C 
BRANCH   8   9
ATOM      9  C   UNL     1      18.847   6.551  34.927  1.00  0.00     0.000 C 
BRANCH   9  10
ATOM     10  C   UNL     1      18.642   6.288  33.423  1.00  0.00     0.006 C 
BRANCH  10  11
ATOM     11  C   UNL     1      19.932   6.353  32.589  1.00  0.00     0.053 C 
BRANCH  11  12
ATOM     12  C   UNL     1      19.650   6.340  31.119  1.00  0.00     0.041 C 
ATOM     13  O   UNL     1      20.023   7.298  30.392  1.00  0.00    -0.550 OA
ATOM     14  O   UNL     1      18.998   5.254  30.546  1.00  0.00    -0.550 OA
ENDBRANCH  11  12
ENDBRANCH  10  11
ENDBRANCH   9  10
ENDBRANCH   8   9
ENDBRANCH   7   8
ENDBRANCH   6   7
ENDBRANCH   5   6
ENDBRANCH   4   5
ENDBRANCH   3   4
ENDBRANCH   2   3
ENDBRANCH   1   2
BRANCH   1  15
ATOM     15  C   UNL     1      18.223  12.687  34.892  1.00  0.00     0.000 C 
BRANCH  15  16
ATOM     16  C   UNL     1      18.631  12.284  33.468  1.00  0.00     0.000 C 
BRANCH  16  17
ATOM     17  C   UNL     1      18.401  10.789  33.183  1.00  0.00     0.000 C 
BRANCH  17  18
ATOM     18  C   UNL     1      19.562  10.073  32.462  1.00  0.00    -0.000 C 
BRANCH  18  19
ATOM     19  C   UNL     1      20.092  10.781  31.201  1.00  0.00    -0.000 C 
BRANCH  19  20
ATOM     20  C   UNL     1      21.436  11.492  31.434  1.00  0.00    -0.000 C 
BRANCH  20  21
ATOM     21  C   UNL     1      21.578  12.789  30.616  1.00  0.00    -0.000 C 
BRANCH  21  22
ATOM     22  C   UNL     1      21.347  14.092  31.403  1.00  0.00    -0.000 C 
BRANCH  22  23
ATOM     23  C   UNL     1      21.284  15.334  30.501  1.00  0.00    -0.000 C 
BRANCH  23  24
ATOM     24  C   UNL     1      22.436  16.300  30.815  1.00  0.00    -0.000 C 
BRANCH  24  25
ATOM     25  C   UNL     1      21.940  17.683  31.264  1.00  0.00    -0.003 C 
ATOM     26  C   UNL     1      22.482  18.817  30.395  1.00  0.00     0.004 C 
ENDBRANCH  24  25
ENDBRANCH  23  24
ENDBRANCH  22  23
ENDBRANCH  21  22
ENDBRANCH  20  21
ENDBRANCH  19  20
ENDBRANCH  18  19
ENDBRANCH  17  18
ENDBRANCH  16  17
ENDBRANCH  15  16
ENDBRANCH   1  15
TORSDOF 22
ENDMDL
MODEL 8
REMARK VINA RESULT:    -3.651      4.356      7.072
REMARK INTER + INTRA:         -12.039
REMARK INTER:                  -8.009
REMARK INTRA:                  -4.030
REMARK UNBOUND:                -3.693
REMARK SMILES CCCCCCCCCCCCCCCCCCCCCCCC(=O)[O-]
REMARK SMILES IDX 13 1 14 2 15 3 16 4 17 5 18 6 19 7 20 8 21 9 22 10 23 11
REMARK SMILES IDX 24 12 25 13 26 14 12 15 11 16 10 17 9 18 8 19 7 20 6 21 5 22
REMARK SMILES IDX 4 23 3 24 2 25 1 26
REMARK H PARENT
REMARK Flexibility Score: inf
ROOT
ATOM      1  C   UNL     1      21.001   8.813  35.457  1.00  0.00     0.000 C 
ENDROOT
BRANCH   1   2
ATOM      2  C   UNL     1      19.789   9.141  36.341  1.00  0.00     0.000 C 
BRANCH   2   3
ATOM      3  C   UNL     1      19.368   7.968  37.245  1.00  0.00     0.000 C 
BRANCH   3   4
ATOM      4  C   UNL     1      19.379   6.584  36.570  1.00  0.00     0.000 C 
BRANCH   4   5
ATOM      5  C   UNL     1      18.044   6.237  35.889  1.00  0.00     0.000 C 
BRANCH   5   6
ATOM      6  C   UNL     1      18.008   6.657  34.410  1.00  0.00     0.000 C 
BRANCH   6   7
ATOM      7  C   UNL     1      19.246   6.190  33.629  1.00  0.00     0.000 C 
BRANCH   7   8
ATOM      8  C   UNL     1      19.585   7.174  32.502  1.00  0.00     0.000 C 
BRANCH   8   9
ATOM      9  C   UNL     1      18.394   7.351  31.548  1.00  0.00     0.000 C 
BRANCH   9  10
ATOM     10  C   UNL     1      18.482   6.443  30.307  1.00  0.00     0.006 C 
BRANCH  10  11
ATOM     11  C   UNL     1      19.783   6.597  29.502  1.00  0.00     0.053 C 
BRANCH  11  12
ATOM     12  C   UNL     1      20.498   5.292  29.337  1.00  0.00     0.041 C 
ATOM     13  O   UNL     1      21.757   5.257  29.303  1.00  0.00    -0.550 OA
ATOM     14  O   UNL     1      19.774   4.108  29.249  1.00  0.00    -0.550 OA
ENDBRANCH  11  12
ENDBRANCH  10  11
ENDBRANCH   9  10
ENDBRANCH   8   9
ENDBRANCH   7   8
ENDBRANCH   6   7
ENDBRANCH   5   6
ENDBRANCH   4   5
ENDBRANCH   3   4
ENDBRANCH   2   3
ENDBRANCH   1   2
BRANCH   1  15
ATOM     15  C   UNL     1      21.294   9.957  34.478  1.00  0.00     0.000 C 
BRANCH  15  16
ATOM     16  C   UNL     1      22.463  10.819  34.976  1.00  0.00     0.000 C 
BRANCH  16  17
ATOM     17  C   UNL     1      21.997  12.113  35.668  1.00  0.00     0.000 C 
BRANCH  17  18
ATOM     18  C   UNL     1      21.076  13.014  34.820  1.00  0.00    -0.000 C 
BRANCH  18  19
ATOM     19  C   UNL     1      19.667  13.246  35.394  1.00  0.00    -0.000 C 
BRANCH  19  20
ATOM     20  C   UNL     1      18.552  12.991  34.365  1.00  0.00    -0.000 C 
BRANCH  20  21
ATOM     21  C   UNL     1      17.875  11.619  34.541  1.00  0.00    -0.000 C 
BRANCH  21  22
ATOM     22  C   UNL     1      17.955  10.685  33.318  1.00  0.00    -0.000 C 
BRANCH  22  23
ATOM     23  C   UNL     1      19.031  11.109  32.308  1.00  0.00    -0.000 C 
BRANCH  23  24
ATOM     24  C   UNL     1      18.517  10.975  30.867  1.00  0.00    -0.000 C 
BRANCH  24  25
ATOM     25  C   UNL     1      19.578  10.407  29.913  1.00  0.00    -0.003 C 
ATOM     26  C   UNL     1      20.989  10.458  30.497  1.00  0.00     0.004 C 
ENDBRANCH  24  25
ENDBRANCH  23  24
ENDBRANCH  22  23
ENDBRANCH  21  22
ENDBRANCH  20  21
ENDBRANCH  19  20
ENDBRANCH  18  19
ENDBRANCH  17  18
ENDBRANCH  16  17
ENDBRANCH  15  16
ENDBRANCH   1  15
TORSDOF 22
ENDMDL
MODEL 9
REMARK VINA RESULT:    -3.636      2.705      6.377
REMARK INTER + INTRA:         -12.006
REMARK INTER:                  -8.115
REMARK INTRA:                  -3.891
REMARK UNBOUND:                -3.693
REMARK SMILES CCCCCCCCCCCCCCCCCCCCCCCC(=O)[O-]
REMARK SMILES IDX 13 1 14 2 15 3 16 4 17 5 18 6 19 7 20 8 21 9 22 10 23 11
REMARK SMILES IDX 24 12 25 13 26 14 12 15 11 16 10 17 9 18 8 19 7 20 6 21 5 22
REMARK SMILES IDX 4 23 3 24 2 25 1 26
REMARK H PARENT
REMARK Flexibility Score: inf
ROOT
ATOM      1  C   UNL     1      21.204   9.292  35.594  1.00  0.00     0.000 C 
ENDROOT
BRANCH   1   2
ATOM      2  C   UNL     1      19.719   9.098  35.938  1.00  0.00     0.000 C 
BRANCH   2   3
ATOM      3  C   UNL     1      19.465   7.873  36.837  1.00  0.00     0.000 C 
BRANCH   3   4
ATOM      4  C   UNL     1      19.356   6.528  36.096  1.00  0.00     0.000 C 
BRANCH   4   5
ATOM      5  C   UNL     1      18.093   6.424  35.223  1.00  0.00     0.000 C 
BRANCH   5   6
ATOM      6  C   UNL     1      18.406   5.995  33.781  1.00  0.00     0.000 C 
BRANCH   6   7
ATOM      7  C   UNL     1      19.838   6.350  33.352  1.00  0.00     0.000 C 
BRANCH   7   8
ATOM      8  C   UNL     1      19.863   7.668  32.566  1.00  0.00     0.000 C 
BRANCH   8   9
ATOM      9  C   UNL     1      18.562   7.860  31.770  1.00  0.00     0.000 C 
BRANCH   9  10
ATOM     10  C   UNL     1      18.721   7.523  30.276  1.00  0.00     0.006 C 
BRANCH  10  11
ATOM     11  C   UNL     1      20.134   7.764  29.721  1.00  0.00     0.053 C 
BRANCH  11  12
ATOM     12  C   UNL     1      20.372   9.208  29.401  1.00  0.00     0.041 C 
ATOM     13  O   UNL     1      21.536   9.687  29.456  1.00  0.00    -0.550 OA
ATOM     14  O   UNL     1      19.311  10.018  29.013  1.00  0.00    -0.550 OA
ENDBRANCH  11  12
ENDBRANCH  10  11
ENDBRANCH   9  10
ENDBRANCH   8   9
ENDBRANCH   7   8
ENDBRANCH   6   7
ENDBRANCH   5   6
ENDBRANCH   4   5
ENDBRANCH   3   4
ENDBRANCH   2   3
ENDBRANCH   1   2
BRANCH   1  15
ATOM     15  C   UNL     1      21.408  10.533  34.716  1.00  0.00     0.000 C 
BRANCH  15  16
ATOM     16  C   UNL     1      21.832  11.740  35.564  1.00  0.00     0.000 C 
BRANCH  16  17
ATOM     17  C   UNL     1      20.773  12.857  35.584  1.00  0.00     0.000 C 
BRANCH  17  18
ATOM     18  C   UNL     1      19.454  12.496  36.297  1.00  0.00    -0.000 C 
BRANCH  18  19
ATOM     19  C   UNL     1      18.206  13.248  35.799  1.00  0.00    -0.000 C 
BRANCH  19  20
ATOM     20  C   UNL     1      17.972  13.084  34.287  1.00  0.00    -0.000 C 
BRANCH  20  21
ATOM     21  C   UNL     1      17.875  11.610  33.851  1.00  0.00    -0.000 C 
BRANCH  21  22
ATOM     22  C   UNL     1      18.724  11.231  32.623  1.00  0.00    -0.000 C 
BRANCH  22  23
ATOM     23  C   UNL     1      18.955  12.409  31.666  1.00  0.00    -0.000 C 
BRANCH  23  24
ATOM     24  C   UNL     1      20.425  12.478  31.225  1.00  0.00    -0.000 C 
BRANCH  24  25
ATOM     25  C   UNL     1      21.273  13.378  32.136  1.00  0.00    -0.003 C 
ATOM     26  C   UNL     1      21.683  14.686  31.462  1.00  0.00     0.004 C 
ENDBRANCH  24  25
ENDBRANCH  23  24
ENDBRANCH  22  23
ENDBRANCH  21  22
ENDBRANCH  20  21
ENDBRANCH  19  20
ENDBRANCH  18  19
ENDBRANCH  17  18
ENDBRANCH  16  17
ENDBRANCH  15  16
ENDBRANCH   1  15
TORSDOF 22
ENDMDL
