MODEL 1
REMARK VINA RESULT:    -7.032      0.000      0.000
REMARK INTER + INTRA:         -10.303
REMARK INTER:                  -9.293
REMARK INTRA:                  -1.010
REMARK UNBOUND:                -1.010
REMARK SMILES CC[C@@H](C=C[C@@H](C)[C@@H]1CC[C@@H]2[C@H]3CC=C4C[C@H](O)CC[C@]4(C)[C@@H]3CC[C@]21C)C(C)C
REMARK SMILES IDX 6 1 7 2 5 3 4 4 3 5 2 6 1 7 28 8 29 9 30 10 8 11 9 12 26 13
REMARK SMILES IDX 10 14 11 15 25 16 27 17 12 18 24 19 23 20 13 21 21 22 14 23
REMARK SMILES IDX 15 24 20 25 22 26 16 27 19 28 17 29 18 30
REMARK H PARENT 18 31
REMARK Flexibility Score: inf
ROOT
ATOM      1  C   UNL     1     173.441 164.954 151.213  1.00  0.00     0.012 C 
ATOM      2  C   UNL     1     172.280 164.273 151.960  1.00  0.00     0.012 C 
ENDROOT
BRANCH   1   3
ATOM      3  C   UNL     1     174.477 163.907 150.859  1.00  0.00    -0.028 C 
ATOM      4  C   UNL     1     174.358 162.639 151.288  1.00  0.00    -0.027 C 
BRANCH   4   5
ATOM      5  C   UNL     1     175.386 161.584 150.934  1.00  0.00     0.014 C 
BRANCH   5   6
ATOM      6  C   UNL     1     174.728 160.433 150.134  1.00  0.00     0.004 C 
ATOM      7  C   UNL     1     173.200 160.526 150.140  1.00  0.00     0.004 C 
ENDBRANCH   5   6
BRANCH   5   8
ATOM      8  C   UNL     1     176.124 161.104 152.222  1.00  0.00    -0.011 C 
ATOM      9  C   UNL     1     176.125 159.574 152.352  1.00  0.00     0.008 C 
ATOM     10  C   UNL     1     175.582 161.751 153.507  1.00  0.00     0.008 C 
ENDBRANCH   5   8
ENDBRANCH   4   5
ENDBRANCH   1   3
BRANCH   1  11
ATOM     11  C   UNL     1     174.110 166.164 151.963  1.00  0.00     0.002 C 
ATOM     12  C   UNL     1     174.064 166.159 153.514  1.00  0.00     0.005 C 
ATOM     13  C   UNL     1     173.623 167.582 151.574  1.00  0.00    -0.026 C 
ATOM     14  C   UNL     1     174.115 167.638 153.950  1.00  0.00     0.005 C 
ATOM     15  C   UNL     1     174.332 168.412 152.652  1.00  0.00    -0.001 C 
ATOM     16  C   UNL     1     174.129 168.082 150.201  1.00  0.00     0.007 C 
ATOM     17  C   UNL     1     172.067 167.676 151.651  1.00  0.00     0.012 C 
ATOM     18  C   UNL     1     173.967 169.910 152.600  1.00  0.00     0.000 C 
ATOM     19  C   UNL     1     173.844 169.591 150.019  1.00  0.00     0.005 C 
ATOM     20  C   UNL     1     174.362 170.478 151.202  1.00  0.00     0.003 C 
ATOM     21  C   UNL     1     174.745 170.683 153.671  1.00  0.00     0.031 C 
ATOM     22  C   UNL     1     174.008 172.017 151.068  1.00  0.00    -0.008 C 
ATOM     23  C   UNL     1     174.487 172.153 153.564  1.00  0.00    -0.027 C 
ATOM     24  C   UNL     1     174.200 172.773 152.399  1.00  0.00    -0.065 C 
ATOM     25  C   UNL     1     172.524 172.228 150.629  1.00  0.00     0.014 C 
ATOM     26  C   UNL     1     174.955 172.633 150.005  1.00  0.00     0.016 C 
ATOM     27  C   UNL     1     173.802 174.234 152.446  1.00  0.00     0.063 C 
ATOM     28  C   UNL     1     172.050 173.697 150.673  1.00  0.00     0.033 C 
ATOM     29  C   UNL     1     172.335 174.396 152.017  1.00  0.00     0.118 C 
BRANCH  29  30
ATOM     30  O   UNL     1     171.454 173.952 153.021  1.00  0.00    -0.393 OA
ATOM     31  H   UNL     1     171.734 174.357 153.882  1.00  0.00     0.210 HD
ENDBRANCH  29  30
ENDBRANCH   1  11
TORSDOF 6
ENDMDL
MODEL 2
REMARK VINA RESULT:    -6.938      7.748     12.735
REMARK INTER + INTRA:         -10.178
REMARK INTER:                  -9.144
REMARK INTRA:                  -1.034
REMARK UNBOUND:                -1.010
REMARK SMILES CC[C@@H](C=C[C@@H](C)[C@@H]1CC[C@@H]2[C@H]3CC=C4C[C@H](O)CC[C@]4(C)[C@@H]3CC[C@]21C)C(C)C
REMARK SMILES IDX 6 1 7 2 5 3 4 4 3 5 2 6 1 7 28 8 29 9 30 10 8 11 9 12 26 13
REMARK SMILES IDX 10 14 11 15 25 16 27 17 12 18 24 19 23 20 13 21 21 22 14 23
REMARK SMILES IDX 15 24 20 25 22 26 16 27 19 28 17 29 18 30
REMARK H PARENT 18 31
REMARK Flexibility Score: inf
ROOT
ATOM      1  C   UNL     1     172.854 159.369 154.856  1.00  0.00     0.012 C 
ATOM      2  C   UNL     1     171.894 158.513 154.009  1.00  0.00     0.012 C 
ENDROOT
BRANCH   1   3
ATOM      3  C   UNL     1     173.757 160.155 153.928  1.00  0.00    -0.028 C 
ATOM      4  C   UNL     1     174.626 159.534 153.113  1.00  0.00    -0.027 C 
BRANCH   4   5
ATOM      5  C   UNL     1     175.529 160.312 152.178  1.00  0.00     0.014 C 
BRANCH   5   6
ATOM      6  C   UNL     1     175.659 161.782 152.648  1.00  0.00     0.004 C 
ATOM      7  C   UNL     1     175.898 162.742 151.480  1.00  0.00     0.004 C 
ENDBRANCH   5   6
BRANCH   5   8
ATOM      8  C   UNL     1     175.025 160.171 150.709  1.00  0.00    -0.011 C 
ATOM      9  C   UNL     1     173.803 159.246 150.602  1.00  0.00     0.008 C 
ATOM     10  C   UNL     1     176.124 159.722 149.732  1.00  0.00     0.008 C 
ENDBRANCH   5   8
ENDBRANCH   4   5
ENDBRANCH   1   3
BRANCH   1  11
ATOM     11  C   UNL     1     173.703 158.582 155.920  1.00  0.00     0.002 C 
ATOM     12  C   UNL     1     173.668 157.032 155.860  1.00  0.00     0.005 C 
ATOM     13  C   UNL     1     173.432 158.909 157.410  1.00  0.00    -0.026 C 
ATOM     14  C   UNL     1     173.944 156.540 157.295  1.00  0.00     0.005 C 
ATOM     15  C   UNL     1     174.266 157.809 158.080  1.00  0.00    -0.001 C 
ATOM     16  C   UNL     1     173.997 160.269 157.883  1.00  0.00     0.007 C 
ATOM     17  C   UNL     1     171.908 158.807 157.733  1.00  0.00     0.012 C 
ATOM     18  C   UNL     1     174.130 157.798 159.617  1.00  0.00     0.000 C 
ATOM     19  C   UNL     1     173.941 160.388 159.424  1.00  0.00     0.005 C 
ATOM     20  C   UNL     1     174.596 159.178 160.175  1.00  0.00     0.003 C 
ATOM     21  C   UNL     1     175.024 156.708 160.220  1.00  0.00     0.031 C 
ATOM     22  C   UNL     1     174.477 159.247 161.754  1.00  0.00    -0.008 C 
ATOM     23  C   UNL     1     174.989 156.755 161.716  1.00  0.00    -0.027 C 
ATOM     24  C   UNL     1     174.790 157.891 162.418  1.00  0.00    -0.065 C 
ATOM     25  C   UNL     1     173.038 159.658 162.203  1.00  0.00     0.014 C 
ATOM     26  C   UNL     1     175.497 160.299 162.264  1.00  0.00     0.016 C 
ATOM     27  C   UNL     1     174.617 157.782 163.919  1.00  0.00     0.063 C 
ATOM     28  C   UNL     1     172.791 159.550 163.723  1.00  0.00     0.033 C 
ATOM     29  C   UNL     1     173.188 158.184 164.317  1.00  0.00     0.118 C 
BRANCH  29  30
ATOM     30  O   UNL     1     172.258 157.186 163.970  1.00  0.00    -0.393 OA
ATOM     31  H   UNL     1     172.743 156.326 163.883  1.00  0.00     0.210 HD
ENDBRANCH  29  30
ENDBRANCH   1  11
TORSDOF 6
ENDMDL
MODEL 3
REMARK VINA RESULT:    -6.871      1.315      1.985
REMARK INTER + INTRA:         -10.089
REMARK INTER:                  -9.071
REMARK INTRA:                  -1.018
REMARK UNBOUND:                -1.010
REMARK SMILES CC[C@@H](C=C[C@@H](C)[C@@H]1CC[C@@H]2[C@H]3CC=C4C[C@H](O)CC[C@]4(C)[C@@H]3CC[C@]21C)C(C)C
REMARK SMILES IDX 6 1 7 2 5 3 4 4 3 5 2 6 1 7 28 8 29 9 30 10 8 11 9 12 26 13
REMARK SMILES IDX 10 14 11 15 25 16 27 17 12 18 24 19 23 20 13 21 21 22 14 23
REMARK SMILES IDX 15 24 20 25 22 26 16 27 19 28 17 29 18 30
REMARK H PARENT 18 31
REMARK Flexibility Score: inf
ROOT
ATOM      1  C   UNL     1     172.253 163.554 151.141  1.00  0.00     0.012 C 
ATOM      2  C   UNL     1     171.002 162.997 151.844  1.00  0.00     0.012 C 
ENDROOT
BRANCH   1   3
ATOM      3  C   UNL     1     173.148 162.397 150.746  1.00  0.00    -0.028 C 
ATOM      4  C   UNL     1     172.711 161.128 150.807  1.00  0.00    -0.027 C 
BRANCH   4   5
ATOM      5  C   UNL     1     173.597 159.966 150.410  1.00  0.00     0.014 C 
BRANCH   5   6
ATOM      6  C   UNL     1     173.022 158.634 150.954  1.00  0.00     0.004 C 
ATOM      7  C   UNL     1     172.959 157.549 149.876  1.00  0.00     0.004 C 
ENDBRANCH   5   6
BRANCH   5   8
ATOM      8  C   UNL     1     175.067 160.237 150.856  1.00  0.00    -0.011 C 
ATOM      9  C   UNL     1     176.084 159.824 149.782  1.00  0.00     0.008 C 
ATOM     10  C   UNL     1     175.419 159.588 152.205  1.00  0.00     0.008 C 
ENDBRANCH   5   8
ENDBRANCH   4   5
ENDBRANCH   1   3
BRANCH   1  11
ATOM     11  C   UNL     1     173.063 164.629 151.954  1.00  0.00     0.002 C 
ATOM     12  C   UNL     1     172.755 164.763 153.469  1.00  0.00     0.005 C 
ATOM     13  C   UNL     1     173.015 166.085 151.427  1.00  0.00    -0.026 C 
ATOM     14  C   UNL     1     173.096 166.219 153.849  1.00  0.00     0.005 C 
ATOM     15  C   UNL     1     173.714 166.810 152.585  1.00  0.00    -0.001 C 
ATOM     16  C   UNL     1     173.854 166.336 150.152  1.00  0.00     0.007 C 
ATOM     17  C   UNL     1     171.540 166.550 151.213  1.00  0.00     0.012 C 
ATOM     18  C   UNL     1     173.744 168.343 152.408  1.00  0.00     0.000 C 
ATOM     19  C   UNL     1     173.985 167.849 149.863  1.00  0.00     0.005 C 
ATOM     20  C   UNL     1     174.498 168.684 151.086  1.00  0.00     0.003 C 
ATOM     21  C   UNL     1     174.497 168.996 153.574  1.00  0.00     0.031 C 
ATOM     22  C   UNL     1     174.564 170.247 150.830  1.00  0.00    -0.008 C 
ATOM     23  C   UNL     1     174.631 170.471 153.364  1.00  0.00    -0.027 C 
ATOM     24  C   UNL     1     174.708 171.043 152.143  1.00  0.00    -0.065 C 
ATOM     25  C   UNL     1     173.274 170.766 150.117  1.00  0.00     0.014 C 
ATOM     26  C   UNL     1     175.799 170.532 149.936  1.00  0.00     0.016 C 
ATOM     27  C   UNL     1     174.681 172.555 152.059  1.00  0.00     0.063 C 
ATOM     28  C   UNL     1     173.178 172.303 150.016  1.00  0.00     0.033 C 
ATOM     29  C   UNL     1     173.394 173.023 151.361  1.00  0.00     0.118 C 
BRANCH  29  30
ATOM     30  O   UNL     1     172.274 172.885 152.202  1.00  0.00    -0.393 OA
ATOM     31  H   UNL     1     172.138 173.741 152.682  1.00  0.00     0.210 HD
ENDBRANCH  29  30
ENDBRANCH   1  11
TORSDOF 6
ENDMDL
MODEL 4
REMARK VINA RESULT:    -6.843      3.923      9.059
REMARK INTER + INTRA:         -10.053
REMARK INTER:                  -9.056
REMARK INTRA:                  -0.997
REMARK UNBOUND:                -1.010
REMARK SMILES CC[C@@H](C=C[C@@H](C)[C@@H]1CC[C@@H]2[C@H]3CC=C4C[C@H](O)CC[C@]4(C)[C@@H]3CC[C@]21C)C(C)C
REMARK SMILES IDX 6 1 7 2 5 3 4 4 3 5 2 6 1 7 28 8 29 9 30 10 8 11 9 12 26 13
REMARK SMILES IDX 10 14 11 15 25 16 27 17 12 18 24 19 23 20 13 21 21 22 14 23
REMARK SMILES IDX 15 24 20 25 22 26 16 27 19 28 17 29 18 30
REMARK H PARENT 18 31
REMARK Flexibility Score: inf
ROOT
ATOM      1  C   UNL     1     173.895 173.181 156.178  1.00  0.00     0.012 C 
ATOM      2  C   UNL     1     173.901 174.706 156.387  1.00  0.00     0.012 C 
ENDROOT
BRANCH   1   3
ATOM      3  C   UNL     1     174.431 172.514 157.429  1.00  0.00    -0.028 C 
ATOM      4  C   UNL     1     174.621 173.212 158.561  1.00  0.00    -0.027 C 
BRANCH   4   5
ATOM      5  C   UNL     1     175.152 172.552 159.818  1.00  0.00     0.014 C 
BRANCH   5   6
ATOM      6  C   UNL     1     174.291 171.318 160.187  1.00  0.00     0.004 C 
ATOM      7  C   UNL     1     175.144 170.068 160.414  1.00  0.00     0.004 C 
ENDBRANCH   5   6
BRANCH   5   8
ATOM      8  C   UNL     1     175.260 173.601 160.967  1.00  0.00    -0.011 C 
ATOM      9  C   UNL     1     173.948 173.736 161.753  1.00  0.00     0.008 C 
ATOM     10  C   UNL     1     175.740 174.980 160.484  1.00  0.00     0.008 C 
ENDBRANCH   5   8
ENDBRANCH   4   5
ENDBRANCH   1   3
BRANCH   1  11
ATOM     11  C   UNL     1     174.663 172.669 154.905  1.00  0.00     0.002 C 
ATOM     12  C   UNL     1     175.075 173.724 153.845  1.00  0.00     0.005 C 
ATOM     13  C   UNL     1     173.978 171.550 154.080  1.00  0.00    -0.026 C 
ATOM     14  C   UNL     1     175.142 172.976 152.498  1.00  0.00     0.005 C 
ATOM     15  C   UNL     1     174.909 171.512 152.861  1.00  0.00    -0.001 C 
ATOM     16  C   UNL     1     174.019 170.150 154.736  1.00  0.00     0.007 C 
ATOM     17  C   UNL     1     172.511 171.944 153.720  1.00  0.00     0.012 C 
ATOM     18  C   UNL     1     174.433 170.531 151.768  1.00  0.00     0.000 C 
ATOM     19  C   UNL     1     173.581 169.055 153.736  1.00  0.00     0.005 C 
ATOM     20  C   UNL     1     174.356 169.097 152.375  1.00  0.00     0.003 C 
ATOM     21  C   UNL     1     175.432 170.509 150.605  1.00  0.00     0.031 C 
ATOM     22  C   UNL     1     173.865 168.030 151.310  1.00  0.00    -0.008 C 
ATOM     23  C   UNL     1     175.045 169.484 149.586  1.00  0.00    -0.027 C 
ATOM     24  C   UNL     1     174.383 168.348 149.892  1.00  0.00    -0.065 C 
ATOM     25  C   UNL     1     172.305 167.978 151.229  1.00  0.00     0.014 C 
ATOM     26  C   UNL     1     174.408 166.642 151.739  1.00  0.00     0.016 C 
ATOM     27  C   UNL     1     173.908 167.469 148.753  1.00  0.00     0.063 C 
ATOM     28  C   UNL     1     171.758 167.111 150.075  1.00  0.00     0.033 C 
ATOM     29  C   UNL     1     172.372 167.453 148.703  1.00  0.00     0.118 C 
BRANCH  29  30
ATOM     30  O   UNL     1     171.861 168.664 148.201  1.00  0.00    -0.393 OA
ATOM     31  H   UNL     1     170.872 168.637 148.268  1.00  0.00     0.210 HD
ENDBRANCH  29  30
ENDBRANCH   1  11
TORSDOF 6
ENDMDL
MODEL 5
REMARK VINA RESULT:    -6.728      5.598      9.264
REMARK INTER + INTRA:          -9.901
REMARK INTER:                  -8.513
REMARK INTRA:                  -1.388
REMARK UNBOUND:                -1.010
REMARK SMILES CC[C@@H](C=C[C@@H](C)[C@@H]1CC[C@@H]2[C@H]3CC=C4C[C@H](O)CC[C@]4(C)[C@@H]3CC[C@]21C)C(C)C
REMARK SMILES IDX 6 1 7 2 5 3 4 4 3 5 2 6 1 7 28 8 29 9 30 10 8 11 9 12 26 13
REMARK SMILES IDX 10 14 11 15 25 16 27 17 12 18 24 19 23 20 13 21 21 22 14 23
REMARK SMILES IDX 15 24 20 25 22 26 16 27 19 28 17 29 18 30
REMARK H PARENT 18 31
REMARK Flexibility Score: inf
ROOT
ATOM      1  C   UNL     1     170.725 170.553 152.460  1.00  0.00     0.012 C 
ATOM      2  C   UNL     1     170.928 169.446 153.511  1.00  0.00     0.012 C 
ENDROOT
BRANCH   1   3
ATOM      3  C   UNL     1     172.072 170.920 151.870  1.00  0.00    -0.028 C 
ATOM      4  C   UNL     1     172.162 171.586 150.706  1.00  0.00    -0.027 C 
BRANCH   4   5
ATOM      5  C   UNL     1     173.504 171.961 150.112  1.00  0.00     0.014 C 
BRANCH   5   6
ATOM      6  C   UNL     1     174.656 171.339 150.938  1.00  0.00     0.004 C 
ATOM      7  C   UNL     1     175.372 170.219 150.178  1.00  0.00     0.004 C 
ENDBRANCH   5   6
BRANCH   5   8
ATOM      8  C   UNL     1     173.609 173.511 149.967  1.00  0.00    -0.011 C 
ATOM      9  C   UNL     1     174.932 174.056 150.525  1.00  0.00     0.008 C 
ATOM     10  C   UNL     1     172.417 174.259 150.586  1.00  0.00     0.008 C 
ENDBRANCH   5   8
ENDBRANCH   4   5
ENDBRANCH   1   3
BRANCH   1  11
ATOM     11  C   UNL     1     169.973 171.837 152.967  1.00  0.00     0.002 C 
ATOM     12  C   UNL     1     169.635 171.919 154.479  1.00  0.00     0.005 C 
ATOM     13  C   UNL     1     168.640 172.189 152.261  1.00  0.00    -0.026 C 
ATOM     14  C   UNL     1     168.385 172.816 154.591  1.00  0.00     0.005 C 
ATOM     15  C   UNL     1     168.148 173.322 153.171  1.00  0.00    -0.001 C 
ATOM     16  C   UNL     1     168.799 172.776 150.839  1.00  0.00     0.007 C 
ATOM     17  C   UNL     1     167.680 170.958 152.240  1.00  0.00     0.012 C 
ATOM     18  C   UNL     1     166.749 173.846 152.783  1.00  0.00     0.000 C 
ATOM     19  C   UNL     1     167.463 173.362 150.326  1.00  0.00     0.005 C 
ATOM     20  C   UNL     1     166.797 174.377 151.317  1.00  0.00     0.003 C 
ATOM     21  C   UNL     1     166.344 175.005 153.702  1.00  0.00     0.031 C 
ATOM     22  C   UNL     1     165.389 174.927 150.841  1.00  0.00    -0.008 C 
ATOM     23  C   UNL     1     165.039 175.597 153.272  1.00  0.00    -0.027 C 
ATOM     24  C   UNL     1     164.617 175.611 151.988  1.00  0.00    -0.065 C 
ATOM     25  C   UNL     1     164.480 173.780 150.296  1.00  0.00     0.014 C 
ATOM     26  C   UNL     1     165.638 175.968 149.719  1.00  0.00     0.016 C 
ATOM     27  C   UNL     1     163.211 176.095 151.704  1.00  0.00     0.063 C 
ATOM     28  C   UNL     1     163.026 174.205 150.002  1.00  0.00     0.033 C 
ATOM     29  C   UNL     1     162.349 174.935 151.179  1.00  0.00     0.118 C 
BRANCH  29  30
ATOM     30  O   UNL     1     162.009 174.040 152.210  1.00  0.00    -0.393 OA
ATOM     31  H   UNL     1     162.419 174.365 153.052  1.00  0.00     0.210 HD
ENDBRANCH  29  30
ENDBRANCH   1  11
TORSDOF 6
ENDMDL
MODEL 6
REMARK VINA RESULT:    -6.563      9.083     13.857
REMARK INTER + INTRA:          -9.683
REMARK INTER:                  -8.214
REMARK INTRA:                  -1.469
REMARK UNBOUND:                -1.010
REMARK SMILES CC[C@@H](C=C[C@@H](C)[C@@H]1CC[C@@H]2[C@H]3CC=C4C[C@H](O)CC[C@]4(C)[C@@H]3CC[C@]21C)C(C)C
REMARK SMILES IDX 6 1 7 2 5 3 4 4 3 5 2 6 1 7 28 8 29 9 30 10 8 11 9 12 26 13
REMARK SMILES IDX 10 14 11 15 25 16 27 17 12 18 24 19 23 20 13 21 21 22 14 23
REMARK SMILES IDX 15 24 20 25 22 26 16 27 19 28 17 29 18 30
REMARK H PARENT 18 31
REMARK Flexibility Score: inf
ROOT
ATOM      1  C   UNL     1     174.881 159.042 163.258  1.00  0.00     0.012 C 
ATOM      2  C   UNL     1     176.125 158.519 164.000  1.00  0.00     0.012 C 
ENDROOT
BRANCH   1   3
ATOM      3  C   UNL     1     173.740 159.169 164.246  1.00  0.00    -0.028 C 
ATOM      4  C   UNL     1     172.741 158.271 164.273  1.00  0.00    -0.027 C 
BRANCH   4   5
ATOM      5  C   UNL     1     171.598 158.387 165.261  1.00  0.00     0.014 C 
BRANCH   5   6
ATOM      6  C   UNL     1     171.375 157.040 165.992  1.00  0.00     0.004 C 
ATOM      7  C   UNL     1     172.424 155.993 165.606  1.00  0.00     0.004 C 
ENDBRANCH   5   6
BRANCH   5   8
ATOM      8  C   UNL     1     170.322 158.922 164.541  1.00  0.00    -0.011 C 
ATOM      9  C   UNL     1     169.032 158.504 165.263  1.00  0.00     0.008 C 
ATOM     10  C   UNL     1     170.256 158.531 163.056  1.00  0.00     0.008 C 
ENDBRANCH   5   8
ENDBRANCH   4   5
ENDBRANCH   1   3
BRANCH   1  11
ATOM     11  C   UNL     1     174.439 158.203 162.004  1.00  0.00     0.002 C 
ATOM     12  C   UNL     1     175.204 156.884 161.719  1.00  0.00     0.005 C 
ATOM     13  C   UNL     1     174.429 158.938 160.640  1.00  0.00    -0.026 C 
ATOM     14  C   UNL     1     175.103 156.649 160.198  1.00  0.00     0.005 C 
ATOM     15  C   UNL     1     174.172 157.752 159.701  1.00  0.00    -0.001 C 
ATOM     16  C   UNL     1     173.262 159.935 160.454  1.00  0.00     0.007 C 
ATOM     17  C   UNL     1     175.798 159.642 160.379  1.00  0.00     0.012 C 
ATOM     18  C   UNL     1     174.201 158.145 158.209  1.00  0.00     0.000 C 
ATOM     19  C   UNL     1     173.158 160.401 158.984  1.00  0.00     0.005 C 
ATOM     20  C   UNL     1     173.106 159.225 157.950  1.00  0.00     0.003 C 
ATOM     21  C   UNL     1     173.890 156.925 157.334  1.00  0.00     0.031 C 
ATOM     22  C   UNL     1     173.079 159.687 156.434  1.00  0.00    -0.008 C 
ATOM     23  C   UNL     1     173.806 157.310 155.890  1.00  0.00    -0.027 C 
ATOM     24  C   UNL     1     173.401 158.528 155.470  1.00  0.00    -0.065 C 
ATOM     25  C   UNL     1     174.123 160.816 156.161  1.00  0.00     0.014 C 
ATOM     26  C   UNL     1     171.653 160.213 156.122  1.00  0.00     0.016 C 
ATOM     27  C   UNL     1     173.511 158.846 153.993  1.00  0.00     0.063 C 
ATOM     28  C   UNL     1     174.295 161.176 154.669  1.00  0.00     0.033 C 
ATOM     29  C   UNL     1     174.553 159.953 153.767  1.00  0.00     0.118 C 
BRANCH  29  30
ATOM     30  O   UNL     1     175.863 159.465 153.928  1.00  0.00    -0.393 OA
ATOM     31  H   UNL     1     175.874 158.509 153.665  1.00  0.00     0.210 HD
ENDBRANCH  29  30
ENDBRANCH   1  11
TORSDOF 6
ENDMDL
MODEL 7
REMARK VINA RESULT:    -6.550      8.538     13.300
REMARK INTER + INTRA:          -9.666
REMARK INTER:                  -8.360
REMARK INTRA:                  -1.306
REMARK UNBOUND:                -1.010
REMARK SMILES CC[C@@H](C=C[C@@H](C)[C@@H]1CC[C@@H]2[C@H]3CC=C4C[C@H](O)CC[C@]4(C)[C@@H]3CC[C@]21C)C(C)C
REMARK SMILES IDX 6 1 7 2 5 3 4 4 3 5 2 6 1 7 28 8 29 9 30 10 8 11 9 12 26 13
REMARK SMILES IDX 10 14 11 15 25 16 27 17 12 18 24 19 23 20 13 21 21 22 14 23
REMARK SMILES IDX 15 24 20 25 22 26 16 27 19 28 17 29 18 30
REMARK H PARENT 18 31
REMARK Flexibility Score: inf
ROOT
ATOM      1  C   UNL     1     164.192 157.624 153.341  1.00  0.00     0.012 C 
ATOM      2  C   UNL     1     164.048 156.325 154.155  1.00  0.00     0.012 C 
ENDROOT
BRANCH   1   3
ATOM      3  C   UNL     1     162.820 158.057 152.864  1.00  0.00    -0.028 C 
ATOM      4  C   UNL     1     162.557 158.211 151.556  1.00  0.00    -0.027 C 
BRANCH   4   5
ATOM      5  C   UNL     1     161.187 158.639 151.070  1.00  0.00     0.014 C 
BRANCH   5   6
ATOM      6  C   UNL     1     160.352 157.404 150.648  1.00  0.00     0.004 C 
ATOM      7  C   UNL     1     161.231 156.262 150.133  1.00  0.00     0.004 C 
ENDBRANCH   5   6
BRANCH   5   8
ATOM      8  C   UNL     1     161.329 159.707 149.943  1.00  0.00    -0.011 C 
ATOM      9  C   UNL     1     160.144 159.680 148.967  1.00  0.00     0.008 C 
ATOM     10  C   UNL     1     162.658 159.604 149.176  1.00  0.00     0.008 C 
ENDBRANCH   5   8
ENDBRANCH   4   5
ENDBRANCH   1   3
BRANCH   1  11
ATOM     11  C   UNL     1     165.203 157.560 152.138  1.00  0.00     0.002 C 
ATOM     12  C   UNL     1     165.559 156.159 151.575  1.00  0.00     0.005 C 
ATOM     13  C   UNL     1     166.576 158.247 152.344  1.00  0.00    -0.026 C 
ATOM     14  C   UNL     1     166.971 156.286 150.969  1.00  0.00     0.005 C 
ATOM     15  C   UNL     1     167.302 157.773 151.078  1.00  0.00    -0.001 C 
ATOM     16  C   UNL     1     166.537 159.792 152.301  1.00  0.00     0.007 C 
ATOM     17  C   UNL     1     167.253 157.753 153.661  1.00  0.00     0.012 C 
ATOM     18  C   UNL     1     168.778 158.221 151.024  1.00  0.00     0.000 C 
ATOM     19  C   UNL     1     167.963 160.383 152.223  1.00  0.00     0.005 C 
ATOM     20  C   UNL     1     168.835 159.778 151.070  1.00  0.00     0.003 C 
ATOM     21  C   UNL     1     169.426 157.754 149.715  1.00  0.00     0.031 C 
ATOM     22  C   UNL     1     170.325 160.317 151.026  1.00  0.00    -0.008 C 
ATOM     23  C   UNL     1     170.824 158.272 149.595  1.00  0.00    -0.027 C 
ATOM     24  C   UNL     1     171.232 159.440 150.138  1.00  0.00    -0.065 C 
ATOM     25  C   UNL     1     170.967 160.345 152.451  1.00  0.00     0.014 C 
ATOM     26  C   UNL     1     170.297 161.754 150.443  1.00  0.00     0.016 C 
ATOM     27  C   UNL     1     172.707 159.777 150.084  1.00  0.00     0.063 C 
ATOM     28  C   UNL     1     172.477 160.665 152.462  1.00  0.00     0.033 C 
ATOM     29  C   UNL     1     173.300 159.785 151.502  1.00  0.00     0.118 C 
BRANCH  29  30
ATOM     30  O   UNL     1     173.448 158.478 152.004  1.00  0.00    -0.393 OA
ATOM     31  H   UNL     1     173.672 157.878 151.248  1.00  0.00     0.210 HD
ENDBRANCH  29  30
ENDBRANCH   1  11
TORSDOF 6
ENDMDL
MODEL 8
REMARK VINA RESULT:    -6.529      2.071      4.531
REMARK INTER + INTRA:          -9.638
REMARK INTER:                  -8.332
REMARK INTRA:                  -1.306
REMARK UNBOUND:                -1.010
REMARK SMILES CC[C@@H](C=C[C@@H](C)[C@@H]1CC[C@@H]2[C@H]3CC=C4C[C@H](O)CC[C@]4(C)[C@@H]3CC[C@]21C)C(C)C
REMARK SMILES IDX 6 1 7 2 5 3 4 4 3 5 2 6 1 7 28 8 29 9 30 10 8 11 9 12 26 13
REMARK SMILES IDX 10 14 11 15 25 16 27 17 12 18 24 19 23 20 13 21 21 22 14 23
REMARK SMILES IDX 15 24 20 25 22 26 16 27 19 28 17 29 18 30
REMARK H PARENT 18 31
REMARK Flexibility Score: inf
ROOT
ATOM      1  C   UNL     1     173.424 161.698 153.309  1.00  0.00     0.012 C 
ATOM      2  C   UNL     1     174.631 161.188 154.118  1.00  0.00     0.012 C 
ENDROOT
BRANCH   1   3
ATOM      3  C   UNL     1     172.624 160.507 152.821  1.00  0.00    -0.028 C 
ATOM      4  C   UNL     1     172.264 160.393 151.532  1.00  0.00    -0.027 C 
BRANCH   4   5
ATOM      5  C   UNL     1     171.468 159.203 151.034  1.00  0.00     0.014 C 
BRANCH   5   6
ATOM      6  C   UNL     1     172.418 158.090 150.526  1.00  0.00     0.004 C 
ATOM      7  C   UNL     1     173.774 158.647 150.085  1.00  0.00     0.004 C 
ENDBRANCH   5   6
BRANCH   5   8
ATOM      8  C   UNL     1     170.426 159.665 149.970  1.00  0.00    -0.011 C 
ATOM      9  C   UNL     1     170.051 158.536 148.999  1.00  0.00     0.008 C 
ATOM     10  C   UNL     1     170.868 160.916 149.193  1.00  0.00     0.008 C 
ENDBRANCH   5   8
ENDBRANCH   4   5
ENDBRANCH   1   3
BRANCH   1  11
ATOM     11  C   UNL     1     173.768 162.661 152.114  1.00  0.00     0.002 C 
ATOM     12  C   UNL     1     175.219 162.630 151.565  1.00  0.00     0.005 C 
ATOM     13  C   UNL     1     173.475 164.167 152.326  1.00  0.00    -0.026 C 
ATOM     14  C   UNL     1     175.482 164.028 150.969  1.00  0.00     0.005 C 
ATOM     15  C   UNL     1     174.139 164.746 151.070  1.00  0.00    -0.001 C 
ATOM     16  C   UNL     1     171.977 164.546 152.271  1.00  0.00     0.007 C 
ATOM     17  C   UNL     1     174.121 164.678 153.652  1.00  0.00     0.012 C 
ATOM     18  C   UNL     1     174.106 166.289 151.024  1.00  0.00     0.000 C 
ATOM     19  C   UNL     1     171.793 166.079 152.201  1.00  0.00     0.005 C 
ATOM     20  C   UNL     1     172.620 166.763 151.059  1.00  0.00     0.003 C 
ATOM     21  C   UNL     1     174.742 166.794 149.724  1.00  0.00     0.031 C 
ATOM     22  C   UNL     1     172.504 168.343 151.024  1.00  0.00    -0.008 C 
ATOM     23  C   UNL     1     174.620 168.281 149.611  1.00  0.00    -0.027 C 
ATOM     24  C   UNL     1     173.600 168.985 150.149  1.00  0.00    -0.065 C 
ATOM     25  C   UNL     1     172.636 168.960 152.453  1.00  0.00     0.014 C 
ATOM     26  C   UNL     1     171.118 168.706 150.430  1.00  0.00     0.016 C 
ATOM     27  C   UNL     1     173.674 170.497 150.104  1.00  0.00     0.063 C 
ATOM     28  C   UNL     1     172.734 170.500 152.474  1.00  0.00     0.033 C 
ATOM     29  C   UNL     1     173.813 171.062 151.527  1.00  0.00     0.118 C 
BRANCH  29  30
ATOM     30  O   UNL     1     175.106 170.849 152.040  1.00  0.00    -0.393 OA
ATOM     31  H   UNL     1     175.759 171.263 151.420  1.00  0.00     0.210 HD
ENDBRANCH  29  30
ENDBRANCH   1  11
TORSDOF 6
ENDMDL
MODEL 9
REMARK VINA RESULT:    -6.511      8.310     11.026
REMARK INTER + INTRA:          -9.614
REMARK INTER:                  -8.380
REMARK INTRA:                  -1.234
REMARK UNBOUND:                -1.010
REMARK SMILES CC[C@@H](C=C[C@@H](C)[C@@H]1CC[C@@H]2[C@H]3CC=C4C[C@H](O)CC[C@]4(C)[C@@H]3CC[C@]21C)C(C)C
REMARK SMILES IDX 6 1 7 2 5 3 4 4 3 5 2 6 1 7 28 8 29 9 30 10 8 11 9 12 26 13
REMARK SMILES IDX 10 14 11 15 25 16 27 17 12 18 24 19 23 20 13 21 21 22 14 23
REMARK SMILES IDX 15 24 20 25 22 26 16 27 19 28 17 29 18 30
REMARK H PARENT 18 31
REMARK Flexibility Score: inf
ROOT
ATOM      1  C   UNL     1     174.683 160.370 156.526  1.00  0.00     0.012 C 
ATOM      2  C   UNL     1     176.093 160.401 157.143  1.00  0.00     0.012 C 
ENDROOT
BRANCH   1   3
ATOM      3  C   UNL     1     173.701 159.881 157.572  1.00  0.00    -0.028 C 
ATOM      4  C   UNL     1     173.773 158.633 158.063  1.00  0.00    -0.027 C 
BRANCH   4   5
ATOM      5  C   UNL     1     172.799 158.138 159.112  1.00  0.00     0.014 C 
BRANCH   5   6
ATOM      6  C   UNL     1     171.588 159.098 159.224  1.00  0.00     0.004 C 
ATOM      7  C   UNL     1     170.289 158.445 158.747  1.00  0.00     0.004 C 
ENDBRANCH   5   6
BRANCH   5   8
ATOM      8  C   UNL     1     173.541 157.913 160.466  1.00  0.00    -0.011 C 
ATOM      9  C   UNL     1     173.433 159.132 161.395  1.00  0.00     0.008 C 
ATOM     10  C   UNL     1     175.012 157.503 160.289  1.00  0.00     0.008 C 
ENDBRANCH   5   8
ENDBRANCH   4   5
ENDBRANCH   1   3
BRANCH   1  11
ATOM     11  C   UNL     1     174.543 159.533 155.201  1.00  0.00     0.002 C 
ATOM     12  C   UNL     1     175.748 159.533 154.224  1.00  0.00     0.005 C 
ATOM     13  C   UNL     1     173.324 159.851 154.300  1.00  0.00    -0.026 C 
ATOM     14  C   UNL     1     175.161 159.285 152.819  1.00  0.00     0.005 C 
ATOM     15  C   UNL     1     173.680 159.013 153.066  1.00  0.00    -0.001 C 
ATOM     16  C   UNL     1     171.972 159.329 154.838  1.00  0.00     0.007 C 
ATOM     17  C   UNL     1     173.240 161.381 153.999  1.00  0.00     0.012 C 
ATOM     18  C   UNL     1     172.679 159.191 151.904  1.00  0.00     0.000 C 
ATOM     19  C   UNL     1     170.868 159.430 153.760  1.00  0.00     0.005 C 
ATOM     20  C   UNL     1     171.259 158.770 152.393  1.00  0.00     0.003 C 
ATOM     21  C   UNL     1     173.069 158.290 150.726  1.00  0.00     0.031 C 
ATOM     22  C   UNL     1     170.169 158.934 151.253  1.00  0.00    -0.008 C 
ATOM     23  C   UNL     1     172.049 158.367 149.634  1.00  0.00    -0.027 C 
ATOM     24  C   UNL     1     170.739 158.609 149.857  1.00  0.00    -0.065 C 
ATOM     25  C   UNL     1     169.615 160.393 151.195  1.00  0.00     0.014 C 
ATOM     26  C   UNL     1     169.009 157.951 151.558  1.00  0.00     0.016 C 
ATOM     27  C   UNL     1     169.838 158.821 148.659  1.00  0.00     0.063 C 
ATOM     28  C   UNL     1     168.701 160.679 149.984  1.00  0.00     0.033 C 
ATOM     29  C   UNL     1     169.322 160.269 148.634  1.00  0.00     0.118 C 
BRANCH  29  30
ATOM     30  O   UNL     1     170.332 161.167 148.242  1.00  0.00    -0.393 OA
ATOM     31  H   UNL     1     171.189 160.866 148.640  1.00  0.00     0.210 HD
ENDBRANCH  29  30
ENDBRANCH   1  11
TORSDOF 6
ENDMDL
