MODEL 1
REMARK VINA RESULT:    -1.705      0.000      0.000
REMARK INTER + INTRA:          -1.915
REMARK INTER:                  -1.904
REMARK INTRA:                  -0.011
REMARK UNBOUND:                -0.011
REMARK SMILES CCCC(=O)[O-]
REMARK SMILES IDX 3 1 4 2 5 3 6 4 2 5 1 6
REMARK H PARENT
REMARK Flexibility Score: inf
ROOT
ATOM      1  C   UNL     1      16.778   5.921   7.963  1.00  0.00     0.052 C 
ENDROOT
BRANCH   1   2
ATOM      2  C   UNL     1      15.791   6.699   8.779  1.00  0.00     0.041 C 
ATOM      3  O   UNL     1      14.568   6.680   8.482  1.00  0.00    -0.550 OA
ATOM      4  O   UNL     1      16.219   7.419   9.887  1.00  0.00    -0.550 OA
ENDBRANCH   1   2
BRANCH   1   5
ATOM      5  C   UNL     1      16.108   5.234   6.766  1.00  0.00     0.003 C 
ATOM      6  C   UNL     1      17.115   4.504   5.876  1.00  0.00     0.004 C 
ENDBRANCH   1   5
TORSDOF 2
ENDMDL
MODEL 2
REMARK VINA RESULT:    -1.466     25.964     26.683
REMARK INTER + INTRA:          -1.648
REMARK INTER:                  -1.640
REMARK INTRA:                  -0.008
REMARK UNBOUND:                -0.011
REMARK SMILES CCCC(=O)[O-]
REMARK SMILES IDX 3 1 4 2 5 3 6 4 2 5 1 6
REMARK H PARENT
REMARK Flexibility Score: inf
ROOT
ATOM      1  C   UNL     1      -0.050  -4.631  25.464  1.00  0.00     0.052 C 
ENDROOT
BRANCH   1   2
ATOM      2  C   UNL     1      -0.774  -5.908  25.764  1.00  0.00     0.041 C 
ATOM      3  O   UNL     1      -2.028  -5.966  25.666  1.00  0.00    -0.550 OA
ATOM      4  O   UNL     1      -0.060  -7.045  26.121  1.00  0.00    -0.550 OA
ENDBRANCH   1   2
BRANCH   1   5
ATOM      5  C   UNL     1       1.334  -4.596  26.125  1.00  0.00     0.003 C 
ATOM      6  C   UNL     1       2.024  -3.241  25.959  1.00  0.00     0.004 C 
ENDBRANCH   1   5
TORSDOF 2
ENDMDL
MODEL 3
REMARK VINA RESULT:    -1.205      2.383      3.318
REMARK INTER + INTRA:          -1.357
REMARK INTER:                  -1.339
REMARK INTRA:                  -0.017
REMARK UNBOUND:                -0.011
REMARK SMILES CCCC(=O)[O-]
REMARK SMILES IDX 3 1 4 2 5 3 6 4 2 5 1 6
REMARK H PARENT
REMARK Flexibility Score: inf
ROOT
ATOM      1  C   UNL     1      15.569   6.016   7.304  1.00  0.00     0.052 C 
ENDROOT
BRANCH   1   2
ATOM      2  C   UNL     1      16.638   5.115   6.765  1.00  0.00     0.041 C 
ATOM      3  O   UNL     1      16.366   4.268   5.875  1.00  0.00    -0.550 OA
ATOM      4  O   UNL     1      17.944   5.234   7.224  1.00  0.00    -0.550 OA
ENDBRANCH   1   2
BRANCH   1   5
ATOM      5  C   UNL     1      15.526   5.991   8.837  1.00  0.00     0.003 C 
ATOM      6  C   UNL     1      16.208   7.210   9.459  1.00  0.00     0.004 C 
ENDBRANCH   1   5
TORSDOF 2
ENDMDL
MODEL 4
REMARK VINA RESULT:    -0.666      1.977      2.402
REMARK INTER + INTRA:          -0.755
REMARK INTER:                  -0.715
REMARK INTRA:                  -0.040
REMARK UNBOUND:                -0.011
REMARK SMILES CCCC(=O)[O-]
REMARK SMILES IDX 3 1 4 2 5 3 6 4 2 5 1 6
REMARK H PARENT
REMARK Flexibility Score: inf
ROOT
ATOM      1  C   UNL     1      15.710   7.303   9.171  1.00  0.00     0.052 C 
ENDROOT
BRANCH   1   2
ATOM      2  C   UNL     1      17.038   7.780   9.676  1.00  0.00     0.041 C 
ATOM      3  O   UNL     1      17.917   6.953  10.031  1.00  0.00    -0.550 OA
ATOM      4  O   UNL     1      17.315   9.141   9.724  1.00  0.00    -0.550 OA
ENDBRANCH   1   2
BRANCH   1   5
ATOM      5  C   UNL     1      15.774   5.843   8.704  1.00  0.00     0.003 C 
ATOM      6  C   UNL     1      16.007   5.723   7.197  1.00  0.00     0.004 C 
ENDBRANCH   1   5
TORSDOF 2
ENDMDL
MODEL 5
REMARK VINA RESULT:    -0.415      2.021      3.185
REMARK INTER + INTRA:          -0.474
REMARK INTER:                  -0.464
REMARK INTRA:                  -0.010
REMARK UNBOUND:                -0.011
REMARK SMILES CCCC(=O)[O-]
REMARK SMILES IDX 3 1 4 2 5 3 6 4 2 5 1 6
REMARK H PARENT
REMARK Flexibility Score: inf
ROOT
ATOM      1  C   UNL     1      16.057   6.411   9.411  1.00  0.00     0.052 C 
ENDROOT
BRANCH   1   2
ATOM      2  C   UNL     1      15.509   6.285   8.022  1.00  0.00     0.041 C 
ATOM      3  O   UNL     1      14.484   6.932   7.683  1.00  0.00    -0.550 OA
ATOM      4  O   UNL     1      16.150   5.476   7.093  1.00  0.00    -0.550 OA
ENDBRANCH   1   2
BRANCH   1   5
ATOM      5  C   UNL     1      16.687   7.790   9.648  1.00  0.00     0.003 C 
ATOM      6  C   UNL     1      18.117   7.694  10.178  1.00  0.00     0.004 C 
ENDBRANCH   1   5
TORSDOF 2
ENDMDL
MODEL 6
REMARK VINA RESULT:     1.268     11.204     11.855
REMARK INTER + INTRA:           1.405
REMARK INTER:                   0.857
REMARK INTRA:                   0.548
REMARK UNBOUND:                -0.011
REMARK SMILES CCCC(=O)[O-]
REMARK SMILES IDX 3 1 4 2 5 3 6 4 2 5 1 6
REMARK H PARENT
REMARK Flexibility Score: inf
ROOT
ATOM      1  C   UNL     1      18.125  -5.687   9.555  1.00  0.00     0.052 C 
ENDROOT
BRANCH   1   2
ATOM      2  C   UNL     1      17.284  -4.755   8.736  1.00  0.00     0.041 C 
ATOM      3  O   UNL     1      16.219  -4.279   9.209  1.00  0.00    -0.550 OA
ATOM      4  O   UNL     1      17.695  -4.386   7.461  1.00  0.00    -0.550 OA
ENDBRANCH   1   2
BRANCH   1   5
ATOM      5  C   UNL     1      18.115  -7.110   8.983  1.00  0.00     0.003 C 
ATOM      6  C   UNL     1      18.125  -7.122   7.454  1.00  0.00     0.004 C 
ENDBRANCH   1   5
TORSDOF 2
ENDMDL
