MODEL 1
REMARK VINA RESULT:    -4.956      0.000      0.000
REMARK INTER + INTRA:          -5.671
REMARK INTER:                  -5.535
REMARK INTRA:                  -0.136
REMARK UNBOUND:                -0.136
REMARK SMILES COc1cc2ccc(=O)oc2cc1OC
REMARK SMILES IDX 3 1 13 2 12 3 11 4 5 5 4 6 6 7 7 8 8 9 9 10 10 11 2 12 1 13
REMARK SMILES IDX 14 14 15 15
REMARK H PARENT
REMARK Flexibility Score: inf
ROOT
ATOM      1  C   UNL     1     128.051 129.383 114.225  1.00  0.00     0.161 A 
ATOM      2  C   UNL     1     129.452 129.308 114.308  1.00  0.00     0.164 A 
ATOM      3  C   UNL     1     130.081 129.318 115.568  1.00  0.00     0.098 A 
ATOM      4  C   UNL     1     129.320 129.402 116.738  1.00  0.00     0.142 A 
ATOM      5  C   UNL     1     127.915 129.477 116.656  1.00  0.00     0.022 A 
ATOM      6  C   UNL     1     127.285 129.468 115.406  1.00  0.00     0.062 A 
ATOM      7  C   UNL     1     127.182 129.560 117.845  1.00  0.00     0.019 A 
ATOM      8  C   UNL     1     127.855 129.566 119.066  1.00  0.00     0.094 A 
ATOM      9  C   UNL     1     129.252 129.489 119.070  1.00  0.00     0.336 A 
ATOM     10  O   UNL     1     129.879 129.492 120.161  1.00  0.00    -0.246 OA
ATOM     11  O   UNL     1     129.924 129.411 117.923  1.00  0.00    -0.423 OA
ENDROOT
BRANCH   1  12
ATOM     12  O   UNL     1     127.459 129.370 112.953  1.00  0.00    -0.493 OA
ATOM     13  C   UNL     1     126.761 130.470 112.376  1.00  0.00     0.278 C 
ENDBRANCH   1  12
BRANCH   2  14
ATOM     14  O   UNL     1     130.184 129.225 113.112  1.00  0.00    -0.493 OA
ATOM     15  C   UNL     1     130.761 128.028 112.600  1.00  0.00     0.278 C 
ENDBRANCH   2  14
TORSDOF 2
ENDMDL
MODEL 2
REMARK VINA RESULT:    -4.498      5.123      8.372
REMARK INTER + INTRA:          -5.159
REMARK INTER:                  -5.031
REMARK INTRA:                  -0.129
REMARK UNBOUND:                -0.136
REMARK SMILES COc1cc2ccc(=O)oc2cc1OC
REMARK SMILES IDX 3 1 13 2 12 3 11 4 5 5 4 6 6 7 7 8 8 9 9 10 10 11 2 12 1 13
REMARK SMILES IDX 14 14 15 15
REMARK H PARENT
REMARK Flexibility Score: inf
ROOT
ATOM      1  C   UNL     1     124.703 131.592 111.041  1.00  0.00     0.161 A 
ATOM      2  C   UNL     1     124.642 131.567 112.445  1.00  0.00     0.164 A 
ATOM      3  C   UNL     1     123.408 131.764 113.096  1.00  0.00     0.098 A 
ATOM      4  C   UNL     1     122.243 131.982 112.354  1.00  0.00     0.142 A 
ATOM      5  C   UNL     1     122.304 132.006 110.946  1.00  0.00     0.022 A 
ATOM      6  C   UNL     1     123.527 131.813 110.294  1.00  0.00     0.062 A 
ATOM      7  C   UNL     1     121.121 132.228 110.232  1.00  0.00     0.019 A 
ATOM      8  C   UNL     1     119.927 132.416 110.927  1.00  0.00     0.094 A 
ATOM      9  C   UNL     1     119.943 132.378 112.325  1.00  0.00     0.336 A 
ATOM     10  O   UNL     1     118.876 132.545 112.972  1.00  0.00    -0.246 OA
ATOM     11  O   UNL     1     121.083 132.166 112.979  1.00  0.00    -0.423 OA
ENDROOT
BRANCH   1  12
ATOM     12  O   UNL     1     125.949 131.393 110.427  1.00  0.00    -0.493 OA
ATOM     13  C   UNL     1     126.426 130.135 109.960  1.00  0.00     0.278 C 
ENDBRANCH   1  12
BRANCH   2  14
ATOM     14  O   UNL     1     125.831 131.346 113.157  1.00  0.00    -0.493 OA
ATOM     15  C   UNL     1     125.995 130.353 114.165  1.00  0.00     0.278 C 
ENDBRANCH   2  14
TORSDOF 2
ENDMDL
MODEL 3
REMARK VINA RESULT:    -4.391      5.331      8.768
REMARK INTER + INTRA:          -5.041
REMARK INTER:                  -4.907
REMARK INTRA:                  -0.134
REMARK UNBOUND:                -0.136
REMARK SMILES COc1cc2ccc(=O)oc2cc1OC
REMARK SMILES IDX 3 1 13 2 12 3 11 4 5 5 4 6 6 7 7 8 8 9 9 10 10 11 2 12 1 13
REMARK SMILES IDX 14 14 15 15
REMARK H PARENT
REMARK Flexibility Score: inf
ROOT
ATOM      1  C   UNL     1     124.445 131.709 112.393  1.00  0.00     0.161 A 
ATOM      2  C   UNL     1     124.551 131.590 110.997  1.00  0.00     0.164 A 
ATOM      3  C   UNL     1     123.399 131.715 110.194  1.00  0.00     0.098 A 
ATOM      4  C   UNL     1     122.153 131.958 110.778  1.00  0.00     0.142 A 
ATOM      5  C   UNL     1     122.047 132.078 112.179  1.00  0.00     0.022 A 
ATOM      6  C   UNL     1     123.187 131.954 112.981  1.00  0.00     0.062 A 
ATOM      7  C   UNL     1     120.785 132.321 112.732  1.00  0.00     0.019 A 
ATOM      8  C   UNL     1     119.679 132.436 111.892  1.00  0.00     0.094 A 
ATOM      9  C   UNL     1     119.860 132.306 110.511  1.00  0.00     0.336 A 
ATOM     10  O   UNL     1     118.875 132.406 109.734  1.00  0.00    -0.246 OA
ATOM     11  O   UNL     1     121.072 132.074 110.011  1.00  0.00    -0.423 OA
ENDROOT
BRANCH   1  12
ATOM     12  O   UNL     1     125.613 131.579 113.161  1.00  0.00    -0.493 OA
ATOM     13  C   UNL     1     125.910 130.464 113.995  1.00  0.00     0.278 C 
ENDBRANCH   1  12
BRANCH   2  14
ATOM     14  O   UNL     1     125.818 131.345 110.445  1.00  0.00    -0.493 OA
ATOM     15  C   UNL     1     126.360 130.049 110.211  1.00  0.00     0.278 C 
ENDBRANCH   2  14
TORSDOF 2
ENDMDL
MODEL 4
REMARK VINA RESULT:    -4.381      5.359      8.402
REMARK INTER + INTRA:          -5.029
REMARK INTER:                  -4.909
REMARK INTRA:                  -0.120
REMARK UNBOUND:                -0.136
REMARK SMILES COc1cc2ccc(=O)oc2cc1OC
REMARK SMILES IDX 3 1 13 2 12 3 11 4 5 5 4 6 6 7 7 8 8 9 9 10 10 11 2 12 1 13
REMARK SMILES IDX 14 14 15 15
REMARK H PARENT
REMARK Flexibility Score: inf
ROOT
ATOM      1  C   UNL     1     121.805 132.469 110.262  1.00  0.00     0.161 A 
ATOM      2  C   UNL     1     121.225 132.422 111.541  1.00  0.00     0.164 A 
ATOM      3  C   UNL     1     121.994 132.002 112.645  1.00  0.00     0.098 A 
ATOM      4  C   UNL     1     123.331 131.632 112.475  1.00  0.00     0.142 A 
ATOM      5  C   UNL     1     123.914 131.679 111.192  1.00  0.00     0.022 A 
ATOM      6  C   UNL     1     123.154 132.095 110.092  1.00  0.00     0.062 A 
ATOM      7  C   UNL     1     125.254 131.302 111.056  1.00  0.00     0.019 A 
ATOM      8  C   UNL     1     125.970 130.895 112.181  1.00  0.00     0.094 A 
ATOM      9  C   UNL     1     125.325 130.874 113.422  1.00  0.00     0.336 A 
ATOM     10  O   UNL     1     125.952 130.509 114.451  1.00  0.00    -0.246 OA
ATOM     11  O   UNL     1     124.049 131.237 113.523  1.00  0.00    -0.423 OA
ENDROOT
BRANCH   1  12
ATOM     12  O   UNL     1     121.009 132.892 109.186  1.00  0.00    -0.493 OA
ATOM     13  C   UNL     1     121.177 134.126 108.494  1.00  0.00     0.278 C 
ENDBRANCH   1  12
BRANCH   2  14
ATOM     14  O   UNL     1     119.879 132.800 111.674  1.00  0.00    -0.493 OA
ATOM     15  C   UNL     1     119.012 132.348 112.709  1.00  0.00     0.278 C 
ENDBRANCH   2  14
TORSDOF 2
ENDMDL
MODEL 5
REMARK VINA RESULT:    -4.326      5.419      8.417
REMARK INTER + INTRA:          -4.968
REMARK INTER:                  -4.855
REMARK INTRA:                  -0.112
REMARK UNBOUND:                -0.136
REMARK SMILES COc1cc2ccc(=O)oc2cc1OC
REMARK SMILES IDX 3 1 13 2 12 3 11 4 5 5 4 6 6 7 7 8 8 9 9 10 10 11 2 12 1 13
REMARK SMILES IDX 14 14 15 15
REMARK H PARENT
REMARK Flexibility Score: inf
ROOT
ATOM      1  C   UNL     1     121.107 132.414 111.569  1.00  0.00     0.161 A 
ATOM      2  C   UNL     1     121.724 132.386 110.306  1.00  0.00     0.164 A 
ATOM      3  C   UNL     1     123.075 132.003 110.196  1.00  0.00     0.098 A 
ATOM      4  C   UNL     1     123.805 131.649 111.334  1.00  0.00     0.142 A 
ATOM      5  C   UNL     1     123.187 131.677 112.600  1.00  0.00     0.022 A 
ATOM      6  C   UNL     1     121.845 132.058 112.716  1.00  0.00     0.062 A 
ATOM      7  C   UNL     1     123.946 131.319 113.720  1.00  0.00     0.019 A 
ATOM      8  C   UNL     1     125.279 130.947 113.553  1.00  0.00     0.094 A 
ATOM      9  C   UNL     1     125.825 130.943 112.266  1.00  0.00     0.336 A 
ATOM     10  O   UNL     1     127.027 130.610 112.094  1.00  0.00    -0.246 OA
ATOM     11  O   UNL     1     125.081 131.289 111.218  1.00  0.00    -0.423 OA
ENDROOT
BRANCH   1  12
ATOM     12  O   UNL     1     119.759 132.801 111.641  1.00  0.00    -0.493 OA
ATOM     13  C   UNL     1     118.875 132.452 112.702  1.00  0.00     0.278 C 
ENDBRANCH   1  12
BRANCH   2  14
ATOM     14  O   UNL     1     120.959 132.748 109.185  1.00  0.00    -0.493 OA
ATOM     15  C   UNL     1     120.972 134.038 108.583  1.00  0.00     0.278 C 
ENDBRANCH   2  14
TORSDOF 2
ENDMDL
MODEL 6
REMARK VINA RESULT:    -4.291      5.896      8.842
REMARK INTER + INTRA:          -4.929
REMARK INTER:                  -4.772
REMARK INTRA:                  -0.156
REMARK UNBOUND:                -0.136
REMARK SMILES COc1cc2ccc(=O)oc2cc1OC
REMARK SMILES IDX 3 1 13 2 12 3 11 4 5 5 4 6 6 7 7 8 8 9 9 10 10 11 2 12 1 13
REMARK SMILES IDX 14 14 15 15
REMARK H PARENT
REMARK Flexibility Score: inf
ROOT
ATOM      1  C   UNL     1     120.910 132.319 111.922  1.00  0.00     0.161 A 
ATOM      2  C   UNL     1     121.249 133.148 110.838  1.00  0.00     0.164 A 
ATOM      3  C   UNL     1     122.602 133.445 110.580  1.00  0.00     0.098 A 
ATOM      4  C   UNL     1     123.609 132.919 111.393  1.00  0.00     0.142 A 
ATOM      5  C   UNL     1     123.270 132.087 112.479  1.00  0.00     0.022 A 
ATOM      6  C   UNL     1     121.928 131.789 112.742  1.00  0.00     0.062 A 
ATOM      7  C   UNL     1     124.302 131.576 113.275  1.00  0.00     0.019 A 
ATOM      8  C   UNL     1     125.624 131.902 112.974  1.00  0.00     0.094 A 
ATOM      9  C   UNL     1     125.885 132.733 111.881  1.00  0.00     0.336 A 
ATOM     10  O   UNL     1     127.071 133.040 111.591  1.00  0.00    -0.246 OA
ATOM     11  O   UNL     1     124.884 133.206 111.141  1.00  0.00    -0.423 OA
ENDROOT
BRANCH   1  12
ATOM     12  O   UNL     1     119.553 132.044 112.149  1.00  0.00    -0.493 OA
ATOM     13  C   UNL     1     118.875 130.882 111.682  1.00  0.00     0.278 C 
ENDBRANCH   1  12
BRANCH   2  14
ATOM     14  O   UNL     1     120.211 133.659 110.043  1.00  0.00    -0.493 OA
ATOM     15  C   UNL     1     119.922 133.227 108.718  1.00  0.00     0.278 C 
ENDBRANCH   2  14
TORSDOF 2
ENDMDL
MODEL 7
REMARK VINA RESULT:    -4.254      4.370      7.460
REMARK INTER + INTRA:          -4.888
REMARK INTER:                  -4.734
REMARK INTRA:                  -0.154
REMARK UNBOUND:                -0.136
REMARK SMILES COc1cc2ccc(=O)oc2cc1OC
REMARK SMILES IDX 3 1 13 2 12 3 11 4 5 5 4 6 6 7 7 8 8 9 9 10 10 11 2 12 1 13
REMARK SMILES IDX 14 14 15 15
REMARK H PARENT
REMARK Flexibility Score: inf
ROOT
ATOM      1  C   UNL     1     126.172 131.017 111.997  1.00  0.00     0.161 A 
ATOM      2  C   UNL     1     125.873 131.111 110.627  1.00  0.00     0.164 A 
ATOM      3  C   UNL     1     124.575 131.478 110.218  1.00  0.00     0.098 A 
ATOM      4  C   UNL     1     123.585 131.750 111.166  1.00  0.00     0.142 A 
ATOM      5  C   UNL     1     123.885 131.656 112.540  1.00  0.00     0.022 A 
ATOM      6  C   UNL     1     125.172 131.291 112.952  1.00  0.00     0.062 A 
ATOM      7  C   UNL     1     122.871 131.933 113.463  1.00  0.00     0.019 A 
ATOM      8  C   UNL     1     121.605 132.292 113.004  1.00  0.00     0.094 A 
ATOM      9  C   UNL     1     121.380 132.365 111.625  1.00  0.00     0.336 A 
ATOM     10  O   UNL     1     120.244 132.687 111.188  1.00  0.00    -0.246 OA
ATOM     11  O   UNL     1     122.363 132.095 110.768  1.00  0.00    -0.423 OA
ENDROOT
BRANCH   1  12
ATOM     12  O   UNL     1     127.475 130.649 112.369  1.00  0.00    -0.493 OA
ATOM     13  C   UNL     1     127.828 129.391 112.935  1.00  0.00     0.278 C 
ENDBRANCH   1  12
BRANCH   2  14
ATOM     14  O   UNL     1     126.892 130.831 109.704  1.00  0.00    -0.493 OA
ATOM     15  C   UNL     1     127.095 129.564 109.086  1.00  0.00     0.278 C 
ENDBRANCH   2  14
TORSDOF 2
ENDMDL
MODEL 8
REMARK VINA RESULT:    -4.139      6.552      8.277
REMARK INTER + INTRA:          -4.759
REMARK INTER:                  -4.600
REMARK INTRA:                  -0.158
REMARK UNBOUND:                -0.136
REMARK SMILES COc1cc2ccc(=O)oc2cc1OC
REMARK SMILES IDX 3 1 13 2 12 3 11 4 5 5 4 6 6 7 7 8 8 9 9 10 10 11 2 12 1 13
REMARK SMILES IDX 14 14 15 15
REMARK H PARENT
REMARK Flexibility Score: inf
ROOT
ATOM      1  C   UNL     1     126.391 134.129 111.472  1.00  0.00     0.161 A 
ATOM      2  C   UNL     1     125.557 134.788 110.552  1.00  0.00     0.164 A 
ATOM      3  C   UNL     1     124.183 134.478 110.506  1.00  0.00     0.098 A 
ATOM      4  C   UNL     1     123.644 133.521 111.370  1.00  0.00     0.142 A 
ATOM      5  C   UNL     1     124.480 132.861 112.294  1.00  0.00     0.022 A 
ATOM      6  C   UNL     1     125.846 133.163 112.343  1.00  0.00     0.062 A 
ATOM      7  C   UNL     1     123.910 131.907 113.145  1.00  0.00     0.019 A 
ATOM      8  C   UNL     1     122.544 131.640 113.057  1.00  0.00     0.094 A 
ATOM      9  C   UNL     1     121.777 132.335 112.116  1.00  0.00     0.336 A 
ATOM     10  O   UNL     1     120.543 132.109 112.020  1.00  0.00    -0.246 OA
ATOM     11  O   UNL     1     122.346 133.236 111.318  1.00  0.00    -0.423 OA
ENDROOT
BRANCH   1  12
ATOM     12  O   UNL     1     127.755 134.462 111.490  1.00  0.00    -0.493 OA
ATOM     13  C   UNL     1     128.803 133.599 111.060  1.00  0.00     0.278 C 
ENDBRANCH   1  12
BRANCH   2  14
ATOM     14  O   UNL     1     126.133 135.742 109.699  1.00  0.00    -0.493 OA
ATOM     15  C   UNL     1     126.408 135.529 108.318  1.00  0.00     0.278 C 
ENDBRANCH   2  14
TORSDOF 2
ENDMDL
MODEL 9
REMARK VINA RESULT:    -4.025      6.215      9.158
REMARK INTER + INTRA:          -4.632
REMARK INTER:                  -4.465
REMARK INTRA:                  -0.166
REMARK UNBOUND:                -0.136
REMARK SMILES COc1cc2ccc(=O)oc2cc1OC
REMARK SMILES IDX 3 1 13 2 12 3 11 4 5 5 4 6 6 7 7 8 8 9 9 10 10 11 2 12 1 13
REMARK SMILES IDX 14 14 15 15
REMARK H PARENT
REMARK Flexibility Score: inf
ROOT
ATOM      1  C   UNL     1     120.638 132.865 110.071  1.00  0.00     0.161 A 
ATOM      2  C   UNL     1     121.661 132.730 109.117  1.00  0.00     0.164 A 
ATOM      3  C   UNL     1     122.943 132.307 109.521  1.00  0.00     0.098 A 
ATOM      4  C   UNL     1     123.203 132.018 110.863  1.00  0.00     0.142 A 
ATOM      5  C   UNL     1     122.177 132.152 111.820  1.00  0.00     0.022 A 
ATOM      6  C   UNL     1     120.901 132.574 111.425  1.00  0.00     0.062 A 
ATOM      7  C   UNL     1     122.469 131.857 113.156  1.00  0.00     0.019 A 
ATOM      8  C   UNL     1     123.754 131.441 113.500  1.00  0.00     0.094 A 
ATOM      9  C   UNL     1     124.722 131.330 112.497  1.00  0.00     0.336 A 
ATOM     10  O   UNL     1     125.889 130.957 112.786  1.00  0.00    -0.246 OA
ATOM     11  O   UNL     1     124.417 131.619 111.234  1.00  0.00    -0.423 OA
ENDROOT
BRANCH   1  12
ATOM     12  O   UNL     1     119.373 133.289 109.633  1.00  0.00    -0.493 OA
ATOM     13  C   UNL     1     118.875 134.616 109.771  1.00  0.00     0.278 C 
ENDBRANCH   1  12
BRANCH   2  14
ATOM     14  O   UNL     1     121.365 133.029 107.778  1.00  0.00    -0.493 OA
ATOM     15  C   UNL     1     121.718 134.245 107.125  1.00  0.00     0.278 C 
ENDBRANCH   2  14
TORSDOF 2
ENDMDL
