MODEL 1
REMARK VINA RESULT:    -2.182      0.000      0.000
REMARK INTER + INTRA:          -2.431
REMARK INTER:                  -2.310
REMARK INTRA:                  -0.121
REMARK UNBOUND:                -0.121
REMARK SMILES C=C(C)[C@@H]1CC=C(C)CC1
REMARK SMILES IDX 8 1 7 2 6 3 5 4 4 5 10 6 9 7 2 8 1 9 3 10
REMARK H PARENT
REMARK Flexibility Score: inf
ROOT
ATOM      1  C   UNL     1     172.096 171.874 137.659  1.00  0.00     0.039 C 
ATOM      2  C   UNL     1     170.799 172.585 137.934  1.00  0.00    -0.077 C 
ATOM      3  C   UNL     1     169.881 172.678 136.948  1.00  0.00    -0.027 C 
ATOM      4  C   UNL     1     168.530 173.323 137.140  1.00  0.00     0.035 C 
ATOM      5  C   UNL     1     168.520 174.308 138.321  1.00  0.00     0.018 C 
ATOM      6  C   UNL     1     169.156 173.652 139.555  1.00  0.00     0.013 C 
ATOM      7  C   UNL     1     170.617 173.287 139.266  1.00  0.00     0.031 C 
ENDROOT
BRANCH   5   8
ATOM      8  C   UNL     1     167.111 174.806 138.615  1.00  0.00    -0.077 C 
ATOM      9  C   UNL     1     166.866 176.123 138.698  1.00  0.00     0.008 C 
ATOM     10  C   UNL     1     165.963 173.847 138.808  1.00  0.00     0.039 C 
ENDBRANCH   5   8
TORSDOF 1
ENDMDL
MODEL 2
REMARK VINA RESULT:    -2.156     19.111     20.662
REMARK INTER + INTRA:          -2.404
REMARK INTER:                  -2.275
REMARK INTRA:                  -0.129
REMARK UNBOUND:                -0.121
REMARK SMILES C=C(C)[C@@H]1CC=C(C)CC1
REMARK SMILES IDX 8 1 7 2 6 3 5 4 4 5 10 6 9 7 2 8 1 9 3 10
REMARK H PARENT
REMARK Flexibility Score: inf
ROOT
ATOM      1  C   UNL     1     157.179 157.026 143.546  1.00  0.00     0.039 C 
ATOM      2  C   UNL     1     157.261 157.002 142.044  1.00  0.00    -0.077 C 
ATOM      3  C   UNL     1     158.100 157.857 141.420  1.00  0.00    -0.027 C 
ATOM      4  C   UNL     1     158.292 157.873 139.923  1.00  0.00     0.035 C 
ATOM      5  C   UNL     1     157.097 157.256 139.177  1.00  0.00     0.018 C 
ATOM      6  C   UNL     1     156.723 155.909 139.812  1.00  0.00     0.013 C 
ATOM      7  C   UNL     1     156.305 156.112 141.273  1.00  0.00     0.031 C 
ENDROOT
BRANCH   5   8
ATOM      8  C   UNL     1     157.388 157.112 137.689  1.00  0.00    -0.077 C 
ATOM      9  C   UNL     1     157.162 155.943 137.069  1.00  0.00     0.008 C 
ATOM     10  C   UNL     1     157.919 158.267 136.876  1.00  0.00     0.039 C 
ENDBRANCH   5   8
TORSDOF 1
ENDMDL
MODEL 3
REMARK VINA RESULT:    -2.126      1.112      4.690
REMARK INTER + INTRA:          -2.372
REMARK INTER:                  -2.249
REMARK INTRA:                  -0.123
REMARK UNBOUND:                -0.121
REMARK SMILES C=C(C)[C@@H]1CC=C(C)CC1
REMARK SMILES IDX 8 1 7 2 6 3 5 4 4 5 10 6 9 7 2 8 1 9 3 10
REMARK H PARENT
REMARK Flexibility Score: inf
ROOT
ATOM      1  C   UNL     1     164.873 176.125 139.470  1.00  0.00     0.039 C 
ATOM      2  C   UNL     1     166.125 175.343 139.179  1.00  0.00    -0.077 C 
ATOM      3  C   UNL     1     167.314 175.982 139.190  1.00  0.00    -0.027 C 
ATOM      4  C   UNL     1     168.629 175.276 138.964  1.00  0.00     0.035 C 
ATOM      5  C   UNL     1     168.454 173.952 138.201  1.00  0.00     0.018 C 
ATOM      6  C   UNL     1     167.325 173.127 138.839  1.00  0.00     0.013 C 
ATOM      7  C   UNL     1     165.999 173.892 138.754  1.00  0.00     0.031 C 
ENDROOT
BRANCH   5   8
ATOM      8  C   UNL     1     169.758 173.168 138.145  1.00  0.00    -0.077 C 
ATOM      9  C   UNL     1     170.095 172.500 137.030  1.00  0.00     0.008 C 
ATOM     10  C   UNL     1     170.702 173.128 139.322  1.00  0.00     0.039 C 
ENDBRANCH   5   8
TORSDOF 1
ENDMDL
MODEL 4
REMARK VINA RESULT:    -2.120      0.443      1.642
REMARK INTER + INTRA:          -2.366
REMARK INTER:                  -2.237
REMARK INTRA:                  -0.128
REMARK UNBOUND:                -0.121
REMARK SMILES C=C(C)[C@@H]1CC=C(C)CC1
REMARK SMILES IDX 8 1 7 2 6 3 5 4 4 5 10 6 9 7 2 8 1 9 3 10
REMARK H PARENT
REMARK Flexibility Score: inf
ROOT
ATOM      1  C   UNL     1     172.032 171.763 137.962  1.00  0.00     0.039 C 
ATOM      2  C   UNL     1     170.777 172.574 138.135  1.00  0.00    -0.077 C 
ATOM      3  C   UNL     1     170.617 173.302 139.261  1.00  0.00    -0.027 C 
ATOM      4  C   UNL     1     169.420 174.188 139.504  1.00  0.00     0.035 C 
ATOM      5  C   UNL     1     168.205 173.769 138.658  1.00  0.00     0.018 C 
ATOM      6  C   UNL     1     168.632 173.565 137.196  1.00  0.00     0.013 C 
ATOM      7  C   UNL     1     169.674 172.445 137.101  1.00  0.00     0.031 C 
ENDROOT
BRANCH   5   8
ATOM      8  C   UNL     1     167.073 174.780 138.775  1.00  0.00    -0.077 C 
ATOM      9  C   UNL     1     167.289 176.072 138.479  1.00  0.00     0.008 C 
ATOM     10  C   UNL     1     165.689 174.364 139.209  1.00  0.00     0.039 C 
ENDBRANCH   5   8
TORSDOF 1
ENDMDL
MODEL 5
REMARK VINA RESULT:    -2.118      1.113      4.483
REMARK INTER + INTRA:          -2.363
REMARK INTER:                  -2.237
REMARK INTRA:                  -0.127
REMARK UNBOUND:                -0.121
REMARK SMILES C=C(C)[C@@H]1CC=C(C)CC1
REMARK SMILES IDX 8 1 7 2 6 3 5 4 4 5 10 6 9 7 2 8 1 9 3 10
REMARK H PARENT
REMARK Flexibility Score: inf
ROOT
ATOM      1  C   UNL     1     165.085 176.090 139.469  1.00  0.00     0.039 C 
ATOM      2  C   UNL     1     166.394 175.382 139.248  1.00  0.00    -0.077 C 
ATOM      3  C   UNL     1     166.391 174.176 138.640  1.00  0.00    -0.027 C 
ATOM      4  C   UNL     1     167.654 173.412 138.325  1.00  0.00     0.035 C 
ATOM      5  C   UNL     1     168.831 173.842 139.217  1.00  0.00     0.018 C 
ATOM      6  C   UNL     1     168.936 175.374 139.240  1.00  0.00     0.013 C 
ATOM      7  C   UNL     1     167.659 175.982 139.831  1.00  0.00     0.031 C 
ENDROOT
BRANCH   5   8
ATOM      8  C   UNL     1     170.134 173.197 138.764  1.00  0.00    -0.077 C 
ATOM      9  C   UNL     1     171.214 173.228 139.561  1.00  0.00     0.008 C 
ATOM     10  C   UNL     1     170.245 172.505 137.428  1.00  0.00     0.039 C 
ENDBRANCH   5   8
TORSDOF 1
ENDMDL
MODEL 6
REMARK VINA RESULT:    -2.101     16.209     16.866
REMARK INTER + INTRA:          -2.345
REMARK INTER:                  -2.219
REMARK INTRA:                  -0.126
REMARK UNBOUND:                -0.121
REMARK SMILES C=C(C)[C@@H]1CC=C(C)CC1
REMARK SMILES IDX 8 1 7 2 6 3 5 4 4 5 10 6 9 7 2 8 1 9 3 10
REMARK H PARENT
REMARK Flexibility Score: inf
ROOT
ATOM      1  C   UNL     1     167.076 155.875 139.619  1.00  0.00     0.039 C 
ATOM      2  C   UNL     1     165.778 156.583 139.340  1.00  0.00    -0.077 C 
ATOM      3  C   UNL     1     165.810 157.812 138.780  1.00  0.00    -0.027 C 
ATOM      4  C   UNL     1     164.564 158.580 138.413  1.00  0.00     0.035 C 
ATOM      5  C   UNL     1     163.335 158.109 139.209  1.00  0.00     0.018 C 
ATOM      6  C   UNL     1     163.242 156.577 139.168  1.00  0.00     0.013 C 
ATOM      7  C   UNL     1     164.483 155.954 139.816  1.00  0.00     0.031 C 
ENDROOT
BRANCH   5   8
ATOM      8  C   UNL     1     162.059 158.762 138.697  1.00  0.00    -0.077 C 
ATOM      9  C   UNL     1     160.946 158.749 139.448  1.00  0.00     0.008 C 
ATOM     10  C   UNL     1     162.011 159.446 137.352  1.00  0.00     0.039 C 
ENDBRANCH   5   8
TORSDOF 1
ENDMDL
MODEL 7
REMARK VINA RESULT:    -2.080      1.849      3.190
REMARK INTER + INTRA:          -2.323
REMARK INTER:                  -2.203
REMARK INTRA:                  -0.120
REMARK UNBOUND:                -0.121
REMARK SMILES C=C(C)[C@@H]1CC=C(C)CC1
REMARK SMILES IDX 8 1 7 2 6 3 5 4 4 5 10 6 9 7 2 8 1 9 3 10
REMARK H PARENT
REMARK Flexibility Score: inf
ROOT
ATOM      1  C   UNL     1     169.249 173.136 137.199  1.00  0.00     0.039 C 
ATOM      2  C   UNL     1     168.137 173.801 137.963  1.00  0.00    -0.077 C 
ATOM      3  C   UNL     1     168.124 175.148 138.063  1.00  0.00    -0.027 C 
ATOM      4  C   UNL     1     167.025 175.910 138.761  1.00  0.00     0.035 C 
ATOM      5  C   UNL     1     166.268 175.038 139.777  1.00  0.00     0.018 C 
ATOM      6  C   UNL     1     165.880 173.700 139.130  1.00  0.00     0.013 C 
ATOM      7  C   UNL     1     167.139 172.934 138.706  1.00  0.00     0.031 C 
ENDROOT
BRANCH   5   8
ATOM      8  C   UNL     1     165.051 175.765 140.333  1.00  0.00    -0.077 C 
ATOM      9  C   UNL     1     165.006 176.109 141.630  1.00  0.00     0.008 C 
ATOM     10  C   UNL     1     163.880 176.125 139.452  1.00  0.00     0.039 C 
ENDBRANCH   5   8
TORSDOF 1
ENDMDL
MODEL 8
REMARK VINA RESULT:    -2.005     15.605     16.814
REMARK INTER + INTRA:          -2.244
REMARK INTER:                  -2.121
REMARK INTRA:                  -0.123
REMARK UNBOUND:                -0.121
REMARK SMILES C=C(C)[C@@H]1CC=C(C)CC1
REMARK SMILES IDX 8 1 7 2 6 3 5 4 4 5 10 6 9 7 2 8 1 9 3 10
REMARK H PARENT
REMARK Flexibility Score: inf
ROOT
ATOM      1  C   UNL     1     159.541 160.277 137.505  1.00  0.00     0.039 C 
ATOM      2  C   UNL     1     160.863 159.623 137.799  1.00  0.00    -0.077 C 
ATOM      3  C   UNL     1     161.846 159.688 136.876  1.00  0.00    -0.027 C 
ATOM      4  C   UNL     1     163.222 159.110 137.098  1.00  0.00     0.035 C 
ATOM      5  C   UNL     1     163.224 158.011 138.174  1.00  0.00     0.018 C 
ATOM      6  C   UNL     1     162.468 158.498 139.419  1.00  0.00     0.013 C 
ATOM      7  C   UNL     1     161.007 158.800 139.065  1.00  0.00     0.031 C 
ENDROOT
BRANCH   5   8
ATOM      8  C   UNL     1     164.642 157.573 138.516  1.00  0.00    -0.077 C 
ATOM      9  C   UNL     1     164.910 156.276 138.741  1.00  0.00     0.008 C 
ATOM     10  C   UNL     1     165.774 158.567 138.599  1.00  0.00     0.039 C 
ENDBRANCH   5   8
TORSDOF 1
ENDMDL
MODEL 9
REMARK VINA RESULT:    -1.956     15.895     16.564
REMARK INTER + INTRA:          -2.191
REMARK INTER:                  -2.062
REMARK INTRA:                  -0.129
REMARK UNBOUND:                -0.121
REMARK SMILES C=C(C)[C@@H]1CC=C(C)CC1
REMARK SMILES IDX 8 1 7 2 6 3 5 4 4 5 10 6 9 7 2 8 1 9 3 10
REMARK H PARENT
REMARK Flexibility Score: inf
ROOT
ATOM      1  C   UNL     1     165.533 155.877 140.540  1.00  0.00     0.039 C 
ATOM      2  C   UNL     1     164.669 156.852 139.787  1.00  0.00    -0.077 C 
ATOM      3  C   UNL     1     164.178 157.929 140.437  1.00  0.00    -0.027 C 
ATOM      4  C   UNL     1     163.347 158.990 139.757  1.00  0.00     0.035 C 
ATOM      5  C   UNL     1     162.676 158.470 138.474  1.00  0.00     0.018 C 
ATOM      6  C   UNL     1     163.708 157.736 137.606  1.00  0.00     0.013 C 
ATOM      7  C   UNL     1     164.269 156.526 138.361  1.00  0.00     0.031 C 
ENDROOT
BRANCH   5   8
ATOM      8  C   UNL     1     161.998 159.598 137.707  1.00  0.00    -0.077 C 
ATOM      9  C   UNL     1     162.689 160.703 137.385  1.00  0.00     0.008 C 
ATOM     10  C   UNL     1     160.554 159.502 137.282  1.00  0.00     0.039 C 
ENDBRANCH   5   8
TORSDOF 1
ENDMDL
