MODEL 1
REMARK VINA RESULT:    -6.408      0.000      0.000
REMARK INTER + INTRA:          -6.408
REMARK INTER:                  -6.408
REMARK INTRA:                   0.000
REMARK UNBOUND:                 0.000
REMARK SMILES Cc1cc2cc3c(C)cc(=O)oc3c(C)c2o1
REMARK SMILES IDX 8 1 7 2 9 3 10 4 11 5 12 6 13 7 6 8 5 9 4 10 3 11 2 12 17 13
REMARK SMILES IDX 16 14 14 15 15 16 1 17
REMARK H PARENT
REMARK Flexibility Score: inf
ROOT
ATOM      1  C   UNL     1      -1.615  16.198  49.451  1.00  0.00     0.045 C 
ATOM      2  C   UNL     1      -1.308  17.020  48.226  1.00  0.00    -0.033 A 
ATOM      3  C   UNL     1      -0.945  16.369  47.038  1.00  0.00     0.098 A 
ATOM      4  C   UNL     1      -0.658  17.123  45.900  1.00  0.00     0.336 A 
ATOM      5  O   UNL     1      -0.330  16.543  44.831  1.00  0.00    -0.246 OA
ATOM      6  O   UNL     1      -0.724  18.447  45.931  1.00  0.00    -0.422 OA
ATOM      7  C   UNL     1      -1.063  19.129  47.023  1.00  0.00     0.145 A 
ATOM      8  C   UNL     1      -1.371  18.431  48.235  1.00  0.00     0.022 A 
ATOM      9  C   UNL     1      -1.720  19.165  49.395  1.00  0.00     0.024 A 
ATOM     10  C   UNL     1      -1.746  20.553  49.308  1.00  0.00     0.022 A 
ATOM     11  C   UNL     1      -2.035  21.501  50.262  1.00  0.00     0.054 A 
ATOM     12  C   UNL     1      -1.889  22.711  49.594  1.00  0.00     0.102 A 
ATOM     13  O   UNL     1      -1.543  22.514  48.334  1.00  0.00    -0.461 OA
ATOM     14  C   UNL     1      -1.453  21.219  48.149  1.00  0.00     0.140 A 
ATOM     15  C   UNL     1      -1.114  20.542  46.974  1.00  0.00     0.036 A 
ATOM     16  C   UNL     1      -0.768  21.292  45.718  1.00  0.00     0.052 C 
ATOM     17  C   UNL     1      -2.106  24.058  50.196  1.00  0.00     0.087 C 
ENDROOT
TORSDOF 0
ENDMDL
MODEL 2
REMARK VINA RESULT:    -6.272      2.239      3.435
REMARK INTER + INTRA:          -6.272
REMARK INTER:                  -6.272
REMARK INTRA:                   0.000
REMARK UNBOUND:                 0.000
REMARK SMILES Cc1cc2cc3c(C)cc(=O)oc3c(C)c2o1
REMARK SMILES IDX 8 1 7 2 9 3 10 4 11 5 12 6 13 7 6 8 5 9 4 10 3 11 2 12 17 13
REMARK SMILES IDX 16 14 14 15 15 16 1 17
REMARK H PARENT
REMARK Flexibility Score: inf
ROOT
ATOM      1  C   UNL     1      -3.500  19.317  48.140  1.00  0.00     0.045 C 
ATOM      2  C   UNL     1      -2.073  19.702  48.431  1.00  0.00    -0.033 A 
ATOM      3  C   UNL     1      -1.034  19.018  47.786  1.00  0.00     0.098 A 
ATOM      4  C   UNL     1       0.291  19.368  48.051  1.00  0.00     0.336 A 
ATOM      5  O   UNL     1       1.228  18.755  47.474  1.00  0.00    -0.246 OA
ATOM      6  O   UNL     1       0.575  20.341  48.907  1.00  0.00    -0.422 OA
ATOM      7  C   UNL     1      -0.361  21.032  49.552  1.00  0.00     0.145 A 
ATOM      8  C   UNL     1      -1.745  20.734  49.339  1.00  0.00     0.022 A 
ATOM      9  C   UNL     1      -2.734  21.468  50.038  1.00  0.00     0.024 A 
ATOM     10  C   UNL     1      -2.314  22.459  50.919  1.00  0.00     0.022 A 
ATOM     11  C   UNL     1      -3.041  23.305  51.723  1.00  0.00     0.054 A 
ATOM     12  C   UNL     1      -2.078  24.063  52.379  1.00  0.00     0.102 A 
ATOM     13  O   UNL     1      -0.863  23.710  52.000  1.00  0.00    -0.461 OA
ATOM     14  C   UNL     1      -0.991  22.744  51.121  1.00  0.00     0.140 A 
ATOM     15  C   UNL     1       0.024  22.058  50.448  1.00  0.00     0.036 A 
ATOM     16  C   UNL     1       1.472  22.366  50.704  1.00  0.00     0.052 C 
ATOM     17  C   UNL     1      -2.359  25.145  53.366  1.00  0.00     0.087 C 
ENDROOT
TORSDOF 0
ENDMDL
MODEL 3
REMARK VINA RESULT:    -6.121      9.130     11.077
REMARK INTER + INTRA:          -6.121
REMARK INTER:                  -6.121
REMARK INTRA:                   0.000
REMARK UNBOUND:                 0.000
REMARK SMILES Cc1cc2cc3c(C)cc(=O)oc3c(C)c2o1
REMARK SMILES IDX 8 1 7 2 9 3 10 4 11 5 12 6 13 7 6 8 5 9 4 10 3 11 2 12 17 13
REMARK SMILES IDX 16 14 14 15 15 16 1 17
REMARK H PARENT
REMARK Flexibility Score: inf
ROOT
ATOM      1  C   UNL     1      10.445  18.673  41.374  1.00  0.00     0.045 C 
ATOM      2  C   UNL     1       9.300  18.897  42.327  1.00  0.00    -0.033 A 
ATOM      3  C   UNL     1       9.418  18.461  43.654  1.00  0.00     0.098 A 
ATOM      4  C   UNL     1       8.361  18.664  44.542  1.00  0.00     0.336 A 
ATOM      5  O   UNL     1       8.461  18.273  45.735  1.00  0.00    -0.246 OA
ATOM      6  O   UNL     1       7.247  19.265  44.142  1.00  0.00    -0.422 OA
ATOM      7  C   UNL     1       7.069  19.704  42.899  1.00  0.00     0.145 A 
ATOM      8  C   UNL     1       8.104  19.533  41.924  1.00  0.00     0.022 A 
ATOM      9  C   UNL     1       7.902  19.995  40.601  1.00  0.00     0.024 A 
ATOM     10  C   UNL     1       6.687  20.600  40.298  1.00  0.00     0.022 A 
ATOM     11  C   UNL     1       6.222  21.123  39.113  1.00  0.00     0.054 A 
ATOM     12  C   UNL     1       4.944  21.578  39.420  1.00  0.00     0.102 A 
ATOM     13  O   UNL     1       4.658  21.353  40.690  1.00  0.00    -0.461 OA
ATOM     14  C   UNL     1       5.699  20.764  41.230  1.00  0.00     0.140 A 
ATOM     15  C   UNL     1       5.852  20.338  42.552  1.00  0.00     0.036 A 
ATOM     16  C   UNL     1       4.745  20.501  43.554  1.00  0.00     0.052 C 
ATOM     17  C   UNL     1       4.016  22.247  38.464  1.00  0.00     0.087 C 
ENDROOT
TORSDOF 0
ENDMDL
MODEL 4
REMARK VINA RESULT:    -6.060      1.867      5.618
REMARK INTER + INTRA:          -6.060
REMARK INTER:                  -6.060
REMARK INTRA:                   0.000
REMARK UNBOUND:                 0.000
REMARK SMILES Cc1cc2cc3c(C)cc(=O)oc3c(C)c2o1
REMARK SMILES IDX 8 1 7 2 9 3 10 4 11 5 12 6 13 7 6 8 5 9 4 10 3 11 2 12 17 13
REMARK SMILES IDX 16 14 14 15 15 16 1 17
REMARK H PARENT
REMARK Flexibility Score: inf
ROOT
ATOM      1  C   UNL     1       1.586  22.027  50.045  1.00  0.00     0.045 C 
ATOM      2  C   UNL     1       0.141  21.635  49.879  1.00  0.00    -0.033 A 
ATOM      3  C   UNL     1      -0.844  22.338  50.586  1.00  0.00     0.098 A 
ATOM      4  C   UNL     1      -2.185  21.980  50.439  1.00  0.00     0.336 A 
ATOM      5  O   UNL     1      -3.073  22.608  51.073  1.00  0.00    -0.246 OA
ATOM      6  O   UNL     1      -2.535  20.983  49.637  1.00  0.00    -0.422 OA
ATOM      7  C   UNL     1      -1.653  20.276  48.935  1.00  0.00     0.145 A 
ATOM      8  C   UNL     1      -0.256  20.576  49.032  1.00  0.00     0.022 A 
ATOM      9  C   UNL     1       0.677  19.812  48.289  1.00  0.00     0.024 A 
ATOM     10  C   UNL     1       0.191  18.783  47.490  1.00  0.00     0.022 A 
ATOM     11  C   UNL     1       0.856  17.889  46.684  1.00  0.00     0.054 A 
ATOM     12  C   UNL     1      -0.153  17.098  46.147  1.00  0.00     0.102 A 
ATOM     13  O   UNL     1      -1.337  17.484  46.587  1.00  0.00    -0.461 OA
ATOM     14  C   UNL     1      -1.144  18.497  47.397  1.00  0.00     0.140 A 
ATOM     15  C   UNL     1      -2.107  19.228  48.099  1.00  0.00     0.036 A 
ATOM     16  C   UNL     1      -3.566  18.881  48.007  1.00  0.00     0.052 C 
ATOM     17  C   UNL     1       0.052  15.975  45.188  1.00  0.00     0.087 C 
ENDROOT
TORSDOF 0
ENDMDL
MODEL 5
REMARK VINA RESULT:    -6.022      1.949      2.683
REMARK INTER + INTRA:          -6.022
REMARK INTER:                  -6.022
REMARK INTRA:                   0.000
REMARK UNBOUND:                 0.000
REMARK SMILES Cc1cc2cc3c(C)cc(=O)oc3c(C)c2o1
REMARK SMILES IDX 8 1 7 2 9 3 10 4 11 5 12 6 13 7 6 8 5 9 4 10 3 11 2 12 17 13
REMARK SMILES IDX 16 14 14 15 15 16 1 17
REMARK H PARENT
REMARK Flexibility Score: inf
ROOT
ATOM      1  C   UNL     1       3.042  19.631  47.541  1.00  0.00     0.045 C 
ATOM      2  C   UNL     1       1.722  18.908  47.493  1.00  0.00    -0.033 A 
ATOM      3  C   UNL     1       1.638  17.681  46.821  1.00  0.00     0.098 A 
ATOM      4  C   UNL     1       0.418  17.005  46.770  1.00  0.00     0.336 A 
ATOM      5  O   UNL     1       0.336  15.903  46.167  1.00  0.00    -0.246 OA
ATOM      6  O   UNL     1      -0.661  17.513  47.352  1.00  0.00    -0.422 OA
ATOM      7  C   UNL     1      -0.652  18.671  48.008  1.00  0.00     0.145 A 
ATOM      8  C   UNL     1       0.559  19.429  48.103  1.00  0.00     0.022 A 
ATOM      9  C   UNL     1       0.558  20.666  48.794  1.00  0.00     0.024 A 
ATOM     10  C   UNL     1      -0.638  21.101  49.354  1.00  0.00     0.022 A 
ATOM     11  C   UNL     1      -0.929  22.245  50.059  1.00  0.00     0.054 A 
ATOM     12  C   UNL     1      -2.284  22.131  50.350  1.00  0.00     0.102 A 
ATOM     13  O   UNL     1      -2.775  21.005  49.866  1.00  0.00    -0.461 OA
ATOM     14  C   UNL     1      -1.795  20.375  49.263  1.00  0.00     0.140 A 
ATOM     15  C   UNL     1      -1.845  19.144  48.604  1.00  0.00     0.036 A 
ATOM     16  C   UNL     1      -3.131  18.375  48.490  1.00  0.00     0.052 C 
ATOM     17  C   UNL     1      -3.085  23.126  51.120  1.00  0.00     0.087 C 
ENDROOT
TORSDOF 0
ENDMDL
MODEL 6
REMARK VINA RESULT:    -6.016      8.722     12.058
REMARK INTER + INTRA:          -6.016
REMARK INTER:                  -6.016
REMARK INTRA:                   0.000
REMARK UNBOUND:                 0.000
REMARK SMILES Cc1cc2cc3c(C)cc(=O)oc3c(C)c2o1
REMARK SMILES IDX 8 1 7 2 9 3 10 4 11 5 12 6 13 7 6 8 5 9 4 10 3 11 2 12 17 13
REMARK SMILES IDX 16 14 14 15 15 16 1 17
REMARK H PARENT
REMARK Flexibility Score: inf
ROOT
ATOM      1  C   UNL     1       0.310  27.695  36.125  1.00  0.00     0.045 C 
ATOM      2  C   UNL     1      -0.298  27.161  37.396  1.00  0.00    -0.033 A 
ATOM      3  C   UNL     1      -1.506  27.703  37.857  1.00  0.00     0.098 A 
ATOM      4  C   UNL     1      -2.075  27.215  39.033  1.00  0.00     0.336 A 
ATOM      5  O   UNL     1      -3.159  27.699  39.453  1.00  0.00    -0.246 OA
ATOM      6  O   UNL     1      -1.485  26.243  39.718  1.00  0.00    -0.422 OA
ATOM      7  C   UNL     1      -0.340  25.683  39.337  1.00  0.00     0.145 A 
ATOM      8  C   UNL     1       0.312  26.128  38.142  1.00  0.00     0.022 A 
ATOM      9  C   UNL     1       1.536  25.533  37.750  1.00  0.00     0.024 A 
ATOM     10  C   UNL     1       2.064  24.530  38.555  1.00  0.00     0.022 A 
ATOM     11  C   UNL     1       3.220  23.797  38.425  1.00  0.00     0.054 A 
ATOM     12  C   UNL     1       3.218  22.956  39.533  1.00  0.00     0.102 A 
ATOM     13  O   UNL     1       2.143  23.158  40.273  1.00  0.00    -0.461 OA
ATOM     14  C   UNL     1       1.440  24.104  39.696  1.00  0.00     0.140 A 
ATOM     15  C   UNL     1       0.225  24.649  40.121  1.00  0.00     0.036 A 
ATOM     16  C   UNL     1      -0.431  24.188  41.393  1.00  0.00     0.052 C 
ATOM     17  C   UNL     1       4.267  21.945  39.847  1.00  0.00     0.087 C 
ENDROOT
TORSDOF 0
ENDMDL
MODEL 7
REMARK VINA RESULT:    -5.934      1.301      5.416
REMARK INTER + INTRA:          -5.934
REMARK INTER:                  -5.934
REMARK INTRA:                   0.000
REMARK UNBOUND:                 0.000
REMARK SMILES Cc1cc2cc3c(C)cc(=O)oc3c(C)c2o1
REMARK SMILES IDX 8 1 7 2 9 3 10 4 11 5 12 6 13 7 6 8 5 9 4 10 3 11 2 12 17 13
REMARK SMILES IDX 16 14 14 15 15 16 1 17
REMARK H PARENT
REMARK Flexibility Score: inf
ROOT
ATOM      1  C   UNL     1      -2.582  22.987  51.683  1.00  0.00     0.045 C 
ATOM      2  C   UNL     1      -2.142  23.073  50.244  1.00  0.00    -0.033 A 
ATOM      3  C   UNL     1      -1.974  24.334  49.654  1.00  0.00     0.098 A 
ATOM      4  C   UNL     1      -1.568  24.422  48.322  1.00  0.00     0.336 A 
ATOM      5  O   UNL     1      -1.417  25.552  47.787  1.00  0.00    -0.246 OA
ATOM      6  O   UNL     1      -1.339  23.325  47.611  1.00  0.00    -0.422 OA
ATOM      7  C   UNL     1      -1.477  22.099  48.108  1.00  0.00     0.145 A 
ATOM      8  C   UNL     1      -1.893  21.920  49.467  1.00  0.00     0.022 A 
ATOM      9  C   UNL     1      -2.047  20.611  49.985  1.00  0.00     0.024 A 
ATOM     10  C   UNL     1      -1.788  19.538  49.139  1.00  0.00     0.022 A 
ATOM     11  C   UNL     1      -1.865  18.184  49.367  1.00  0.00     0.054 A 
ATOM     12  C   UNL     1      -1.500  17.613  48.153  1.00  0.00     0.102 A 
ATOM     13  O   UNL     1      -1.219  18.546  47.261  1.00  0.00    -0.461 OA
ATOM     14  C   UNL     1      -1.389  19.709  47.841  1.00  0.00     0.140 A 
ATOM     15  C   UNL     1      -1.211  20.979  47.285  1.00  0.00     0.036 A 
ATOM     16  C   UNL     1      -0.799  21.147  45.849  1.00  0.00     0.052 C 
ATOM     17  C   UNL     1      -1.413  16.149  47.882  1.00  0.00     0.087 C 
ENDROOT
TORSDOF 0
ENDMDL
MODEL 8
REMARK VINA RESULT:    -5.664      2.055      2.250
REMARK INTER + INTRA:          -5.664
REMARK INTER:                  -5.664
REMARK INTRA:                   0.000
REMARK UNBOUND:                 0.000
REMARK SMILES Cc1cc2cc3c(C)cc(=O)oc3c(C)c2o1
REMARK SMILES IDX 8 1 7 2 9 3 10 4 11 5 12 6 13 7 6 8 5 9 4 10 3 11 2 12 17 13
REMARK SMILES IDX 16 14 14 15 15 16 1 17
REMARK H PARENT
REMARK Flexibility Score: inf
ROOT
ATOM      1  C   UNL     1      -1.258  15.875  47.074  1.00  0.00     0.045 C 
ATOM      2  C   UNL     1      -0.096  16.832  47.125  1.00  0.00    -0.033 A 
ATOM      3  C   UNL     1       1.130  16.451  46.563  1.00  0.00     0.098 A 
ATOM      4  C   UNL     1       2.212  17.332  46.607  1.00  0.00     0.336 A 
ATOM      5  O   UNL     1       3.316  16.993  46.105  1.00  0.00    -0.246 OA
ATOM      6  O   UNL     1       2.089  18.525  47.174  1.00  0.00    -0.422 OA
ATOM      7  C   UNL     1       0.955  18.952  47.724  1.00  0.00     0.145 A 
ATOM      8  C   UNL     1      -0.201  18.107  47.724  1.00  0.00     0.022 A 
ATOM      9  C   UNL     1      -1.402  18.566  48.321  1.00  0.00     0.024 A 
ATOM     10  C   UNL     1      -1.405  19.832  48.894  1.00  0.00     0.022 A 
ATOM     11  C   UNL     1      -2.408  20.516  49.540  1.00  0.00     0.054 A 
ATOM     12  C   UNL     1      -1.821  21.724  49.900  1.00  0.00     0.102 A 
ATOM     13  O   UNL     1      -0.563  21.772  49.499  1.00  0.00    -0.461 OA
ATOM     14  C   UNL     1      -0.300  20.639  48.893  1.00  0.00     0.140 A 
ATOM     15  C   UNL     1       0.905  20.240  48.307  1.00  0.00     0.036 A 
ATOM     16  C   UNL     1       2.117  21.128  48.341  1.00  0.00     0.052 C 
ATOM     17  C   UNL     1      -2.507  22.833  50.622  1.00  0.00     0.087 C 
ENDROOT
TORSDOF 0
ENDMDL
