MODEL 1
REMARK VINA RESULT:    -3.682      0.000      0.000
REMARK INTER + INTRA:          -4.800
REMARK INTER:                  -4.543
REMARK INTRA:                  -0.257
REMARK UNBOUND:                -0.257
REMARK SMILES C=CC[C@@H](C)C(=O)CC
REMARK SMILES IDX 4 1 5 2 6 3 7 4 8 5 9 6 3 7 2 8 1 9
REMARK H PARENT
REMARK Flexibility Score: inf
ROOT
ATOM      1  C   UNL     1      73.120  33.794  55.121  1.00  0.00     0.057 C 
ATOM      2  C   UNL     1      73.457  32.548  54.291  1.00  0.00     0.016 C 
ENDROOT
BRANCH   1   3
ATOM      3  C   UNL     1      73.555  35.039  54.378  1.00  0.00     0.135 C 
ATOM      4  O   UNL     1      73.516  36.125  54.941  1.00  0.00    -0.299 OA
BRANCH   3   5
ATOM      5  C   UNL     1      74.047  34.968  52.957  1.00  0.00     0.072 C 
ATOM      6  C   UNL     1      73.103  35.716  52.020  1.00  0.00     0.012 C 
ENDBRANCH   3   5
ENDBRANCH   1   3
BRANCH   1   7
ATOM      7  C   UNL     1      71.614  33.873  55.447  1.00  0.00     0.038 C 
BRANCH   7   8
ATOM      8  C   UNL     1      71.335  33.696  56.917  1.00  0.00    -0.034 C 
ATOM      9  C   UNL     1      71.980  32.784  57.651  1.00  0.00     0.004 C 
ENDBRANCH   7   8
ENDBRANCH   1   7
TORSDOF 4
ENDMDL
MODEL 2
REMARK VINA RESULT:    -3.656     15.721     16.863
REMARK INTER + INTRA:          -4.768
REMARK INTER:                  -4.501
REMARK INTRA:                  -0.267
REMARK UNBOUND:                -0.257
REMARK SMILES C=CC[C@@H](C)C(=O)CC
REMARK SMILES IDX 4 1 5 2 6 3 7 4 8 5 9 6 3 7 2 8 1 9
REMARK H PARENT
REMARK Flexibility Score: inf
ROOT
ATOM      1  C   UNL     1      85.008  31.327  65.128  1.00  0.00     0.057 C 
ATOM      2  C   UNL     1      85.501  32.343  64.089  1.00  0.00     0.016 C 
ENDROOT
BRANCH   1   3
ATOM      3  C   UNL     1      85.547  31.688  66.496  1.00  0.00     0.135 C 
ATOM      4  O   UNL     1      84.779  31.788  67.442  1.00  0.00    -0.299 OA
BRANCH   3   5
ATOM      5  C   UNL     1      87.019  31.916  66.719  1.00  0.00     0.072 C 
ATOM      6  C   UNL     1      87.784  30.597  66.665  1.00  0.00     0.012 C 
ENDBRANCH   3   5
ENDBRANCH   1   3
BRANCH   1   7
ATOM      7  C   UNL     1      83.468  31.255  65.170  1.00  0.00     0.038 C 
BRANCH   7   8
ATOM      8  C   UNL     1      82.931  30.029  64.478  1.00  0.00    -0.034 C 
ATOM      9  C   UNL     1      83.636  28.896  64.407  1.00  0.00     0.004 C 
ENDBRANCH   7   8
ENDBRANCH   1   7
TORSDOF 4
ENDMDL
MODEL 3
REMARK VINA RESULT:    -3.568      1.927      2.704
REMARK INTER + INTRA:          -4.659
REMARK INTER:                  -4.477
REMARK INTRA:                  -0.182
REMARK UNBOUND:                -0.257
REMARK SMILES C=CC[C@@H](C)C(=O)CC
REMARK SMILES IDX 4 1 5 2 6 3 7 4 8 5 9 6 3 7 2 8 1 9
REMARK H PARENT
REMARK Flexibility Score: inf
ROOT
ATOM      1  C   UNL     1      73.529  35.029  53.484  1.00  0.00     0.057 C 
ATOM      2  C   UNL     1      73.914  36.055  54.558  1.00  0.00     0.016 C 
ENDROOT
BRANCH   1   3
ATOM      3  C   UNL     1      74.759  34.611  52.707  1.00  0.00     0.135 C 
ATOM      4  O   UNL     1      75.076  33.430  52.664  1.00  0.00    -0.299 OA
BRANCH   3   5
ATOM      5  C   UNL     1      75.599  35.622  51.973  1.00  0.00     0.072 C 
ATOM      6  C   UNL     1      76.968  35.041  51.633  1.00  0.00     0.012 C 
ENDBRANCH   3   5
ENDBRANCH   1   3
BRANCH   1   7
ATOM      7  C   UNL     1      72.846  33.788  54.098  1.00  0.00     0.038 C 
BRANCH   7   8
ATOM      8  C   UNL     1      72.759  33.866  55.600  1.00  0.00    -0.034 C 
ATOM      9  C   UNL     1      71.593  33.754  56.244  1.00  0.00     0.004 C 
ENDBRANCH   7   8
ENDBRANCH   1   7
TORSDOF 4
ENDMDL
MODEL 4
REMARK VINA RESULT:    -3.507     15.679     16.904
REMARK INTER + INTRA:          -4.584
REMARK INTER:                  -4.135
REMARK INTRA:                  -0.449
REMARK UNBOUND:                -0.257
REMARK SMILES C=CC[C@@H](C)C(=O)CC
REMARK SMILES IDX 4 1 5 2 6 3 7 4 8 5 9 6 3 7 2 8 1 9
REMARK H PARENT
REMARK Flexibility Score: inf
ROOT
ATOM      1  C   UNL     1      85.398  31.439  66.340  1.00  0.00     0.057 C 
ATOM      2  C   UNL     1      85.731  31.963  67.744  1.00  0.00     0.016 C 
ENDROOT
BRANCH   1   3
ATOM      3  C   UNL     1      83.899  31.463  66.125  1.00  0.00     0.135 C 
ATOM      4  O   UNL     1      83.154  31.658  67.076  1.00  0.00    -0.299 OA
BRANCH   3   5
ATOM      5  C   UNL     1      83.304  31.263  64.757  1.00  0.00     0.072 C 
ATOM      6  C   UNL     1      83.277  29.781  64.391  1.00  0.00     0.012 C 
ENDBRANCH   3   5
ENDBRANCH   1   3
BRANCH   1   7
ATOM      7  C   UNL     1      86.101  32.263  65.242  1.00  0.00     0.038 C 
BRANCH   7   8
ATOM      8  C   UNL     1      87.022  31.423  64.395  1.00  0.00    -0.034 C 
ATOM      9  C   UNL     1      87.358  30.177  64.745  1.00  0.00     0.004 C 
ENDBRANCH   7   8
ENDBRANCH   1   7
TORSDOF 4
ENDMDL
MODEL 5
REMARK VINA RESULT:    -3.484      1.632      4.529
REMARK INTER + INTRA:          -4.556
REMARK INTER:                  -4.366
REMARK INTRA:                  -0.190
REMARK UNBOUND:                -0.257
REMARK SMILES C=CC[C@@H](C)C(=O)CC
REMARK SMILES IDX 4 1 5 2 6 3 7 4 8 5 9 6 3 7 2 8 1 9
REMARK H PARENT
REMARK Flexibility Score: inf
ROOT
ATOM      1  C   UNL     1      73.756  34.581  54.380  1.00  0.00     0.057 C 
ATOM      2  C   UNL     1      73.520  36.061  54.711  1.00  0.00     0.016 C 
ENDROOT
BRANCH   1   3
ATOM      3  C   UNL     1      72.634  33.742  54.952  1.00  0.00     0.135 C 
ATOM      4  O   UNL     1      72.337  32.682  54.418  1.00  0.00    -0.299 OA
BRANCH   3   5
ATOM      5  C   UNL     1      71.878  34.180  56.179  1.00  0.00     0.072 C 
ATOM      6  C   UNL     1      71.759  33.032  57.178  1.00  0.00     0.012 C 
ENDBRANCH   3   5
ENDBRANCH   1   3
BRANCH   1   7
ATOM      7  C   UNL     1      73.868  34.346  52.860  1.00  0.00     0.038 C 
BRANCH   7   8
ATOM      8  C   UNL     1      75.297  34.206  52.404  1.00  0.00    -0.034 C 
ATOM      9  C   UNL     1      76.007  35.256  51.981  1.00  0.00     0.004 C 
ENDBRANCH   7   8
ENDBRANCH   1   7
TORSDOF 4
ENDMDL
MODEL 6
REMARK VINA RESULT:    -3.478     15.821     17.106
REMARK INTER + INTRA:          -4.549
REMARK INTER:                  -4.137
REMARK INTRA:                  -0.411
REMARK UNBOUND:                -0.257
REMARK SMILES C=CC[C@@H](C)C(=O)CC
REMARK SMILES IDX 4 1 5 2 6 3 7 4 8 5 9 6 3 7 2 8 1 9
REMARK H PARENT
REMARK Flexibility Score: inf
ROOT
ATOM      1  C   UNL     1      85.286  31.472  65.265  1.00  0.00     0.057 C 
ATOM      2  C   UNL     1      85.445  32.358  64.023  1.00  0.00     0.016 C 
ENDROOT
BRANCH   1   3
ATOM      3  C   UNL     1      83.817  31.270  65.569  1.00  0.00     0.135 C 
ATOM      4  O   UNL     1      83.089  30.761  64.727  1.00  0.00    -0.299 OA
BRANCH   3   5
ATOM      5  C   UNL     1      83.231  31.673  66.896  1.00  0.00     0.072 C 
ATOM      6  C   UNL     1      84.324  31.787  67.955  1.00  0.00     0.012 C 
ENDBRANCH   3   5
ENDBRANCH   1   3
BRANCH   1   7
ATOM      7  C   UNL     1      85.980  30.105  65.084  1.00  0.00     0.038 C 
BRANCH   7   8
ATOM      8  C   UNL     1      87.373  30.088  65.657  1.00  0.00    -0.034 C 
ATOM      9  C   UNL     1      87.721  30.869  66.685  1.00  0.00     0.004 C 
ENDBRANCH   7   8
ENDBRANCH   1   7
TORSDOF 4
ENDMDL
MODEL 7
REMARK VINA RESULT:    -3.463      6.378      8.170
REMARK INTER + INTRA:          -4.529
REMARK INTER:                  -4.018
REMARK INTRA:                  -0.512
REMARK UNBOUND:                -0.257
REMARK SMILES C=CC[C@@H](C)C(=O)CC
REMARK SMILES IDX 4 1 5 2 6 3 7 4 8 5 9 6 3 7 2 8 1 9
REMARK H PARENT
REMARK Flexibility Score: inf
ROOT
ATOM      1  C   UNL     1      80.197  35.050  50.950  1.00  0.00     0.057 C 
ATOM      2  C   UNL     1      80.364  35.610  52.369  1.00  0.00     0.016 C 
ENDROOT
BRANCH   1   3
ATOM      3  C   UNL     1      80.615  33.595  50.919  1.00  0.00     0.135 C 
ATOM      4  O   UNL     1      80.886  33.065  49.850  1.00  0.00    -0.299 OA
BRANCH   3   5
ATOM      5  C   UNL     1      80.717  32.785  52.184  1.00  0.00     0.072 C 
ATOM      6  C   UNL     1      79.574  31.779  52.274  1.00  0.00     0.012 C 
ENDBRANCH   3   5
ENDBRANCH   1   3
BRANCH   1   7
ATOM      7  C   UNL     1      78.746  35.192  50.447  1.00  0.00     0.038 C 
BRANCH   7   8
ATOM      8  C   UNL     1      77.755  35.306  51.577  1.00  0.00    -0.034 C 
ATOM      9  C   UNL     1      76.864  34.343  51.831  1.00  0.00     0.004 C 
ENDBRANCH   7   8
ENDBRANCH   1   7
TORSDOF 4
ENDMDL
MODEL 8
REMARK VINA RESULT:    -3.405      6.921      8.038
REMARK INTER + INTRA:          -4.459
REMARK INTER:                  -4.134
REMARK INTRA:                  -0.325
REMARK UNBOUND:                -0.257
REMARK SMILES C=CC[C@@H](C)C(=O)CC
REMARK SMILES IDX 4 1 5 2 6 3 7 4 8 5 9 6 3 7 2 8 1 9
REMARK H PARENT
REMARK Flexibility Score: inf
ROOT
ATOM      1  C   UNL     1      79.931  34.131  51.764  1.00  0.00     0.057 C 
ATOM      2  C   UNL     1      80.611  35.120  52.719  1.00  0.00     0.016 C 
ENDROOT
BRANCH   1   3
ATOM      3  C   UNL     1      80.051  34.627  50.339  1.00  0.00     0.135 C 
ATOM      4  O   UNL     1      80.621  33.938  49.503  1.00  0.00    -0.299 OA
BRANCH   3   5
ATOM      5  C   UNL     1      79.470  35.953  49.922  1.00  0.00     0.072 C 
ATOM      6  C   UNL     1      77.961  35.975  50.146  1.00  0.00     0.012 C 
ENDBRANCH   3   5
ENDBRANCH   1   3
BRANCH   1   7
ATOM      7  C   UNL     1      80.534  32.716  51.882  1.00  0.00     0.038 C 
BRANCH   7   8
ATOM      8  C   UNL     1      79.525  31.698  52.347  1.00  0.00    -0.034 C 
ATOM      9  C   UNL     1      78.213  31.957  52.346  1.00  0.00     0.004 C 
ENDBRANCH   7   8
ENDBRANCH   1   7
TORSDOF 4
ENDMDL
MODEL 9
REMARK VINA RESULT:    -3.388     16.226     17.307
REMARK INTER + INTRA:          -4.438
REMARK INTER:                  -4.075
REMARK INTRA:                  -0.363
REMARK UNBOUND:                -0.257
REMARK SMILES C=CC[C@@H](C)C(=O)CC
REMARK SMILES IDX 4 1 5 2 6 3 7 4 8 5 9 6 3 7 2 8 1 9
REMARK H PARENT
REMARK Flexibility Score: inf
ROOT
ATOM      1  C   UNL     1      85.650  31.973  65.966  1.00  0.00     0.057 C 
ATOM      2  C   UNL     1      84.855  31.741  67.258  1.00  0.00     0.016 C 
ENDROOT
BRANCH   1   3
ATOM      3  C   UNL     1      86.884  31.095  65.958  1.00  0.00     0.135 C 
ATOM      4  O   UNL     1      87.454  30.841  67.010  1.00  0.00    -0.299 OA
BRANCH   3   5
ATOM      5  C   UNL     1      87.420  30.516  64.675  1.00  0.00     0.072 C 
ATOM      6  C   UNL     1      87.698  29.024  64.832  1.00  0.00     0.012 C 
ENDBRANCH   3   5
ENDBRANCH   1   3
BRANCH   1   7
ATOM      7  C   UNL     1      84.796  31.694  64.712  1.00  0.00     0.038 C 
BRANCH   7   8
ATOM      8  C   UNL     1      83.499  31.003  65.043  1.00  0.00    -0.034 C 
ATOM      9  C   UNL     1      83.163  29.835  64.487  1.00  0.00     0.004 C 
ENDBRANCH   7   8
ENDBRANCH   1   7
TORSDOF 4
ENDMDL
