MODEL 1
REMARK VINA RESULT:    -4.881      0.000      0.000
REMARK INTER + INTRA:         -13.457
REMARK INTER:                 -10.588
REMARK INTRA:                  -2.869
REMARK UNBOUND:                -2.869
REMARK SMILES CCCCCCCCCCCCCCCCCCCCCC(=O)[O-]
REMARK SMILES IDX 12 1 11 2 10 3 9 4 8 5 7 6 6 7 5 8 4 9 3 10 2 11 1 12 13 13
REMARK SMILES IDX 14 14 15 15 16 16 17 17 18 18 19 19 20 20 21 21 22 22 23 23
REMARK SMILES IDX 24 24
REMARK H PARENT
REMARK Flexibility Score: inf
ROOT
ATOM      1  C   UNL     1     -10.132 -26.339  30.349  1.00  0.00     0.000 C 
ENDROOT
BRANCH   1   2
ATOM      2  C   UNL     1     -10.209 -26.307  31.884  1.00  0.00     0.000 C 
BRANCH   2   3
ATOM      3  C   UNL     1      -9.408 -25.143  32.497  1.00  0.00     0.000 C 
BRANCH   3   4
ATOM      4  C   UNL     1      -8.692 -24.253  31.464  1.00  0.00    -0.000 C 
BRANCH   4   5
ATOM      5  C   UNL     1      -7.169 -24.204  31.679  1.00  0.00    -0.000 C 
BRANCH   5   6
ATOM      6  C   UNL     1      -6.751 -24.673  33.081  1.00  0.00    -0.000 C 
BRANCH   6   7
ATOM      7  C   UNL     1      -5.466 -25.520  33.060  1.00  0.00    -0.000 C 
BRANCH   7   8
ATOM      8  C   UNL     1      -5.745 -27.030  33.162  1.00  0.00    -0.000 C 
BRANCH   8   9
ATOM      9  C   UNL     1      -6.030 -27.736  31.821  1.00  0.00    -0.000 C 
BRANCH   9  10
ATOM     10  C   UNL     1      -4.897 -28.672  31.350  1.00  0.00    -0.000 C 
BRANCH  10  11
ATOM     11  C   UNL     1      -4.130 -28.102  30.147  1.00  0.00    -0.003 C 
ATOM     12  C   UNL     1      -4.944 -27.026  29.432  1.00  0.00     0.004 C 
ENDBRANCH  10  11
ENDBRANCH   9  10
ENDBRANCH   8   9
ENDBRANCH   7   8
ENDBRANCH   6   7
ENDBRANCH   5   6
ENDBRANCH   4   5
ENDBRANCH   3   4
ENDBRANCH   2   3
ENDBRANCH   1   2
BRANCH   1  13
ATOM     13  C   UNL     1      -9.036 -27.296  29.833  1.00  0.00     0.000 C 
BRANCH  13  14
ATOM     14  C   UNL     1      -8.429 -26.880  28.479  1.00  0.00     0.000 C 
BRANCH  14  15
ATOM     15  C   UNL     1      -8.289 -28.015  27.450  1.00  0.00     0.000 C 
BRANCH  15  16
ATOM     16  C   UNL     1      -9.499 -28.203  26.512  1.00  0.00     0.000 C 
BRANCH  16  17
ATOM     17  C   UNL     1     -10.794 -28.634  27.235  1.00  0.00     0.000 C 
BRANCH  17  18
ATOM     18  C   UNL     1     -11.877 -27.541  27.213  1.00  0.00     0.000 C 
BRANCH  18  19
ATOM     19  C   UNL     1     -11.472 -26.341  26.327  1.00  0.00     0.000 C 
BRANCH  19  20
ATOM     20  C   UNL     1     -11.077 -25.091  27.133  1.00  0.00     0.006 C 
BRANCH  20  21
ATOM     21  C   UNL     1     -10.294 -24.071  26.299  1.00  0.00     0.053 C 
BRANCH  21  22
ATOM     22  C   UNL     1     -11.137 -22.866  26.020  1.00  0.00     0.041 C 
ATOM     23  O   UNL     1     -12.180 -22.970  25.320  1.00  0.00    -0.550 OA
ATOM     24  O   UNL     1     -10.791 -21.634  26.561  1.00  0.00    -0.550 OA
ENDBRANCH  21  22
ENDBRANCH  20  21
ENDBRANCH  19  20
ENDBRANCH  18  19
ENDBRANCH  17  18
ENDBRANCH  16  17
ENDBRANCH  15  16
ENDBRANCH  14  15
ENDBRANCH  13  14
ENDBRANCH   1  13
TORSDOF 20
ENDMDL
MODEL 2
REMARK VINA RESULT:    -4.869      3.498      7.975
REMARK INTER + INTRA:         -13.432
REMARK INTER:                 -10.250
REMARK INTRA:                  -3.182
REMARK UNBOUND:                -2.869
REMARK SMILES CCCCCCCCCCCCCCCCCCCCCC(=O)[O-]
REMARK SMILES IDX 12 1 11 2 10 3 9 4 8 5 7 6 6 7 5 8 4 9 3 10 2 11 1 12 13 13
REMARK SMILES IDX 14 14 15 15 16 16 17 17 18 18 19 19 20 20 21 21 22 22 23 23
REMARK SMILES IDX 24 24
REMARK H PARENT
REMARK Flexibility Score: inf
ROOT
ATOM      1  C   UNL     1     -10.687 -26.106  30.101  1.00  0.00     0.000 C 
ENDROOT
BRANCH   1   2
ATOM      2  C   UNL     1      -9.932 -25.161  29.153  1.00  0.00     0.000 C 
BRANCH   2   3
ATOM      3  C   UNL     1      -8.926 -25.902  28.251  1.00  0.00     0.000 C 
BRANCH   3   4
ATOM      4  C   UNL     1      -9.070 -27.435  28.265  1.00  0.00    -0.000 C 
BRANCH   4   5
ATOM      5  C   UNL     1      -9.682 -27.985  26.965  1.00  0.00    -0.000 C 
BRANCH   5   6
ATOM      6  C   UNL     1     -11.162 -28.366  27.119  1.00  0.00    -0.000 C 
BRANCH   6   7
ATOM      7  C   UNL     1     -12.108 -27.196  26.794  1.00  0.00    -0.000 C 
BRANCH   7   8
ATOM      8  C   UNL     1     -11.500 -26.198  25.793  1.00  0.00    -0.000 C 
BRANCH   8   9
ATOM      9  C   UNL     1     -12.521 -25.321  25.039  1.00  0.00    -0.000 C 
BRANCH   9  10
ATOM     10  C   UNL     1     -12.167 -23.819  25.020  1.00  0.00    -0.000 C 
BRANCH  10  11
ATOM     11  C   UNL     1     -10.943 -23.496  25.892  1.00  0.00    -0.003 C 
ATOM     12  C   UNL     1     -11.123 -22.171  26.629  1.00  0.00     0.004 C 
ENDBRANCH  10  11
ENDBRANCH   9  10
ENDBRANCH   8   9
ENDBRANCH   7   8
ENDBRANCH   6   7
ENDBRANCH   5   6
ENDBRANCH   4   5
ENDBRANCH   3   4
ENDBRANCH   2   3
ENDBRANCH   1   2
BRANCH   1  13
ATOM     13  C   UNL     1     -10.267 -25.923  31.576  1.00  0.00     0.000 C 
BRANCH  13  14
ATOM     14  C   UNL     1      -9.039 -25.013  31.768  1.00  0.00     0.000 C 
BRANCH  14  15
ATOM     15  C   UNL     1      -7.743 -25.740  32.167  1.00  0.00     0.000 C 
BRANCH  15  16
ATOM     16  C   UNL     1      -7.829 -27.279  32.166  1.00  0.00     0.000 C 
BRANCH  16  17
ATOM     17  C   UNL     1      -6.895 -27.960  31.141  1.00  0.00     0.000 C 
BRANCH  17  18
ATOM     18  C   UNL     1      -6.013 -26.953  30.382  1.00  0.00     0.000 C 
BRANCH  18  19
ATOM     19  C   UNL     1      -4.509 -27.166  30.668  1.00  0.00     0.000 C 
BRANCH  19  20
ATOM     20  C   UNL     1      -4.235 -28.259  31.716  1.00  0.00     0.006 C 
BRANCH  20  21
ATOM     21  C   UNL     1      -3.362 -27.764  32.875  1.00  0.00     0.053 C 
BRANCH  21  22
ATOM     22  C   UNL     1      -4.209 -27.118  33.928  1.00  0.00     0.041 C 
ATOM     23  O   UNL     1      -4.597 -25.928  33.787  1.00  0.00    -0.550 OA
ATOM     24  O   UNL     1      -4.597 -27.841  35.049  1.00  0.00    -0.550 OA
ENDBRANCH  21  22
ENDBRANCH  20  21
ENDBRANCH  19  20
ENDBRANCH  18  19
ENDBRANCH  17  18
ENDBRANCH  16  17
ENDBRANCH  15  16
ENDBRANCH  14  15
ENDBRANCH  13  14
ENDBRANCH   1  13
TORSDOF 20
ENDMDL
MODEL 3
REMARK VINA RESULT:    -4.868      1.250      2.801
REMARK INTER + INTRA:         -13.429
REMARK INTER:                 -10.467
REMARK INTRA:                  -2.962
REMARK UNBOUND:                -2.869
REMARK SMILES CCCCCCCCCCCCCCCCCCCCCC(=O)[O-]
REMARK SMILES IDX 12 1 11 2 10 3 9 4 8 5 7 6 6 7 5 8 4 9 3 10 2 11 1 12 13 13
REMARK SMILES IDX 14 14 15 15 16 16 17 17 18 18 19 19 20 20 21 21 22 22 23 23
REMARK SMILES IDX 24 24
REMARK H PARENT
REMARK Flexibility Score: inf
ROOT
ATOM      1  C   UNL     1      -7.878 -24.444  31.770  1.00  0.00     0.000 C 
ENDROOT
BRANCH   1   2
ATOM      2  C   UNL     1      -6.914 -24.470  32.968  1.00  0.00     0.000 C 
BRANCH   2   3
ATOM      3  C   UNL     1      -7.201 -25.631  33.938  1.00  0.00     0.000 C 
BRANCH   3   4
ATOM      4  C   UNL     1      -5.941 -26.327  34.485  1.00  0.00    -0.000 C 
BRANCH   4   5
ATOM      5  C   UNL     1      -4.657 -25.522  34.218  1.00  0.00    -0.000 C 
BRANCH   5   6
ATOM      6  C   UNL     1      -3.399 -26.405  34.182  1.00  0.00    -0.000 C 
BRANCH   6   7
ATOM      7  C   UNL     1      -3.731 -27.893  33.973  1.00  0.00    -0.000 C 
BRANCH   7   8
ATOM      8  C   UNL     1      -3.345 -28.399  32.571  1.00  0.00    -0.000 C 
BRANCH   8   9
ATOM      9  C   UNL     1      -4.530 -28.804  31.671  1.00  0.00    -0.000 C 
BRANCH   9  10
ATOM     10  C   UNL     1      -4.773 -27.847  30.484  1.00  0.00    -0.000 C 
BRANCH  10  11
ATOM     11  C   UNL     1      -6.245 -27.424  30.365  1.00  0.00    -0.003 C 
ATOM     12  C   UNL     1      -7.106 -28.119  31.417  1.00  0.00     0.004 C 
ENDBRANCH  10  11
ENDBRANCH   9  10
ENDBRANCH   8   9
ENDBRANCH   7   8
ENDBRANCH   6   7
ENDBRANCH   5   6
ENDBRANCH   4   5
ENDBRANCH   3   4
ENDBRANCH   2   3
ENDBRANCH   1   2
BRANCH   1  13
ATOM     13  C   UNL     1      -9.271 -25.009  32.120  1.00  0.00     0.000 C 
BRANCH  13  14
ATOM     14  C   UNL     1      -9.968 -25.726  30.948  1.00  0.00     0.000 C 
BRANCH  14  15
ATOM     15  C   UNL     1      -9.767 -25.074  29.570  1.00  0.00     0.000 C 
BRANCH  15  16
ATOM     16  C   UNL     1      -8.891 -25.875  28.586  1.00  0.00     0.000 C 
BRANCH  16  17
ATOM     17  C   UNL     1      -9.458 -27.267  28.230  1.00  0.00     0.000 C 
BRANCH  17  18
ATOM     18  C   UNL     1     -10.019 -27.330  26.798  1.00  0.00     0.000 C 
BRANCH  18  19
ATOM     19  C   UNL     1     -11.332 -26.526  26.654  1.00  0.00     0.000 C 
BRANCH  19  20
ATOM     20  C   UNL     1     -11.279 -25.463  25.543  1.00  0.00     0.006 C 
BRANCH  20  21
ATOM     21  C   UNL     1     -10.407 -24.259  25.915  1.00  0.00     0.053 C 
BRANCH  21  22
ATOM     22  C   UNL     1     -11.263 -23.072  26.233  1.00  0.00     0.041 C 
ATOM     23  O   UNL     1     -11.150 -22.488  27.344  1.00  0.00    -0.550 OA
ATOM     24  O   UNL     1     -12.162 -22.589  25.289  1.00  0.00    -0.550 OA
ENDBRANCH  21  22
ENDBRANCH  20  21
ENDBRANCH  19  20
ENDBRANCH  18  19
ENDBRANCH  17  18
ENDBRANCH  16  17
ENDBRANCH  15  16
ENDBRANCH  14  15
ENDBRANCH  13  14
ENDBRANCH   1  13
TORSDOF 20
ENDMDL
MODEL 4
REMARK VINA RESULT:    -4.837      3.222      7.747
REMARK INTER + INTRA:         -13.362
REMARK INTER:                 -10.229
REMARK INTRA:                  -3.133
REMARK UNBOUND:                -2.869
REMARK SMILES CCCCCCCCCCCCCCCCCCCCCC(=O)[O-]
REMARK SMILES IDX 12 1 11 2 10 3 9 4 8 5 7 6 6 7 5 8 4 9 3 10 2 11 1 12 13 13
REMARK SMILES IDX 14 14 15 15 16 16 17 17 18 18 19 19 20 20 21 21 22 22 23 23
REMARK SMILES IDX 24 24
REMARK H PARENT
REMARK Flexibility Score: inf
ROOT
ATOM      1  C   UNL     1      -8.923 -24.538  31.112  1.00  0.00     0.000 C 
ENDROOT
BRANCH   1   2
ATOM      2  C   UNL     1      -9.726 -25.314  30.055  1.00  0.00     0.000 C 
BRANCH   2   3
ATOM      3  C   UNL     1      -8.958 -25.485  28.731  1.00  0.00     0.000 C 
BRANCH   3   4
ATOM      4  C   UNL     1      -8.862 -26.941  28.237  1.00  0.00    -0.000 C 
BRANCH   4   5
ATOM      5  C   UNL     1      -9.988 -27.831  28.794  1.00  0.00    -0.000 C 
BRANCH   5   6
ATOM      6  C   UNL     1     -10.938 -28.341  27.700  1.00  0.00    -0.000 C 
BRANCH   6   7
ATOM      7  C   UNL     1     -12.235 -27.517  27.617  1.00  0.00    -0.000 C 
BRANCH   7   8
ATOM      8  C   UNL     1     -12.443 -26.867  26.237  1.00  0.00    -0.000 C 
BRANCH   8   9
ATOM      9  C   UNL     1     -11.243 -26.054  25.708  1.00  0.00    -0.000 C 
BRANCH   9  10
ATOM     10  C   UNL     1     -11.559 -24.566  25.446  1.00  0.00    -0.000 C 
BRANCH  10  11
ATOM     11  C   UNL     1     -10.566 -23.626  26.147  1.00  0.00    -0.003 C 
ATOM     12  C   UNL     1     -11.210 -22.279  26.466  1.00  0.00     0.004 C 
ENDBRANCH  10  11
ENDBRANCH   9  10
ENDBRANCH   8   9
ENDBRANCH   7   8
ENDBRANCH   6   7
ENDBRANCH   5   6
ENDBRANCH   4   5
ENDBRANCH   3   4
ENDBRANCH   2   3
ENDBRANCH   1   2
BRANCH   1  13
ATOM     13  C   UNL     1      -7.766 -25.371  31.705  1.00  0.00     0.000 C 
BRANCH  13  14
ATOM     14  C   UNL     1      -8.218 -26.691  32.361  1.00  0.00     0.000 C 
BRANCH  14  15
ATOM     15  C   UNL     1      -7.728 -27.970  31.663  1.00  0.00     0.000 C 
BRANCH  15  16
ATOM     16  C   UNL     1      -6.413 -27.821  30.871  1.00  0.00     0.000 C 
BRANCH  16  17
ATOM     17  C   UNL     1      -5.190 -28.470  31.556  1.00  0.00     0.000 C 
BRANCH  17  18
ATOM     18  C   UNL     1      -4.265 -27.435  32.222  1.00  0.00     0.000 C 
BRANCH  18  19
ATOM     19  C   UNL     1      -4.591 -27.245  33.720  1.00  0.00     0.000 C 
BRANCH  19  20
ATOM     20  C   UNL     1      -4.956 -25.797  34.089  1.00  0.00     0.006 C 
BRANCH  20  21
ATOM     21  C   UNL     1      -5.781 -25.702  35.377  1.00  0.00     0.053 C 
BRANCH  21  22
ATOM     22  C   UNL     1      -6.861 -24.675  35.231  1.00  0.00     0.041 C 
ATOM     23  O   UNL     1      -6.590 -23.528  34.786  1.00  0.00    -0.550 OA
ATOM     24  O   UNL     1      -8.174 -24.996  35.555  1.00  0.00    -0.550 OA
ENDBRANCH  21  22
ENDBRANCH  20  21
ENDBRANCH  19  20
ENDBRANCH  18  19
ENDBRANCH  17  18
ENDBRANCH  16  17
ENDBRANCH  15  16
ENDBRANCH  14  15
ENDBRANCH  13  14
ENDBRANCH   1  13
TORSDOF 20
ENDMDL
MODEL 5
REMARK VINA RESULT:    -4.835      2.986      7.726
REMARK INTER + INTRA:         -13.358
REMARK INTER:                 -10.426
REMARK INTRA:                  -2.932
REMARK UNBOUND:                -2.869
REMARK SMILES CCCCCCCCCCCCCCCCCCCCCC(=O)[O-]
REMARK SMILES IDX 12 1 11 2 10 3 9 4 8 5 7 6 6 7 5 8 4 9 3 10 2 11 1 12 13 13
REMARK SMILES IDX 14 14 15 15 16 16 17 17 18 18 19 19 20 20 21 21 22 22 23 23
REMARK SMILES IDX 24 24
REMARK H PARENT
REMARK Flexibility Score: inf
ROOT
ATOM      1  C   UNL     1      -9.613 -25.460  32.693  1.00  0.00     0.000 C 
ENDROOT
BRANCH   1   2
ATOM      2  C   UNL     1     -10.082 -25.982  31.325  1.00  0.00     0.000 C 
BRANCH   2   3
ATOM      3  C   UNL     1      -9.620 -25.091  30.156  1.00  0.00     0.000 C 
BRANCH   3   4
ATOM      4  C   UNL     1      -8.479 -25.690  29.313  1.00  0.00    -0.000 C 
BRANCH   4   5
ATOM      5  C   UNL     1      -8.655 -27.199  29.065  1.00  0.00    -0.000 C 
BRANCH   5   6
ATOM      6  C   UNL     1      -8.216 -27.624  27.655  1.00  0.00    -0.000 C 
BRANCH   6   7
ATOM      7  C   UNL     1      -9.398 -28.089  26.787  1.00  0.00    -0.000 C 
BRANCH   7   8
ATOM      8  C   UNL     1     -10.757 -27.933  27.494  1.00  0.00    -0.000 C 
BRANCH   8   9
ATOM      9  C   UNL     1     -11.672 -26.832  26.920  1.00  0.00    -0.000 C 
BRANCH   9  10
ATOM     10  C   UNL     1     -10.945 -25.828  25.999  1.00  0.00    -0.000 C 
BRANCH  10  11
ATOM     11  C   UNL     1     -10.707 -24.473  26.685  1.00  0.00    -0.003 C 
ATOM     12  C   UNL     1     -11.221 -23.321  25.826  1.00  0.00     0.004 C 
ENDBRANCH  10  11
ENDBRANCH   9  10
ENDBRANCH   8   9
ENDBRANCH   7   8
ENDBRANCH   6   7
ENDBRANCH   5   6
ENDBRANCH   4   5
ENDBRANCH   3   4
ENDBRANCH   2   3
ENDBRANCH   1   2
BRANCH   1  13
ATOM     13  C   UNL     1      -8.146 -25.830  32.996  1.00  0.00     0.000 C 
BRANCH  13  14
ATOM     14  C   UNL     1      -7.168 -24.643  32.901  1.00  0.00     0.000 C 
BRANCH  14  15
ATOM     15  C   UNL     1      -6.667 -24.100  34.250  1.00  0.00     0.000 C 
BRANCH  15  16
ATOM     16  C   UNL     1      -6.720 -25.102  35.421  1.00  0.00     0.000 C 
BRANCH  16  17
ATOM     17  C   UNL     1      -5.335 -25.460  36.005  1.00  0.00     0.000 C 
BRANCH  17  18
ATOM     18  C   UNL     1      -4.744 -26.740  35.387  1.00  0.00     0.000 C 
BRANCH  18  19
ATOM     19  C   UNL     1      -3.999 -26.454  34.064  1.00  0.00     0.000 C 
BRANCH  19  20
ATOM     20  C   UNL     1      -4.217 -27.537  32.992  1.00  0.00     0.006 C 
BRANCH  20  21
ATOM     21  C   UNL     1      -4.535 -26.951  31.612  1.00  0.00     0.053 C 
BRANCH  21  22
ATOM     22  C   UNL     1      -5.421 -27.879  30.841  1.00  0.00     0.041 C 
ATOM     23  O   UNL     1      -6.361 -28.486  31.420  1.00  0.00    -0.550 OA
ATOM     24  O   UNL     1      -5.230 -28.049  29.475  1.00  0.00    -0.550 OA
ENDBRANCH  21  22
ENDBRANCH  20  21
ENDBRANCH  19  20
ENDBRANCH  18  19
ENDBRANCH  17  18
ENDBRANCH  16  17
ENDBRANCH  15  16
ENDBRANCH  14  15
ENDBRANCH  13  14
ENDBRANCH   1  13
TORSDOF 20
ENDMDL
MODEL 6
REMARK VINA RESULT:    -4.793      3.790      8.220
REMARK INTER + INTRA:         -13.266
REMARK INTER:                 -10.669
REMARK INTRA:                  -2.597
REMARK UNBOUND:                -2.869
REMARK SMILES CCCCCCCCCCCCCCCCCCCCCC(=O)[O-]
REMARK SMILES IDX 12 1 11 2 10 3 9 4 8 5 7 6 6 7 5 8 4 9 3 10 2 11 1 12 13 13
REMARK SMILES IDX 14 14 15 15 16 16 17 17 18 18 19 19 20 20 21 21 22 22 23 23
REMARK SMILES IDX 24 24
REMARK H PARENT
REMARK Flexibility Score: inf
ROOT
ATOM      1  C   UNL     1      -7.388 -24.191  31.724  1.00  0.00     0.000 C 
ENDROOT
BRANCH   1   2
ATOM      2  C   UNL     1      -8.798 -24.806  31.713  1.00  0.00     0.000 C 
BRANCH   2   3
ATOM      3  C   UNL     1      -9.365 -24.970  30.291  1.00  0.00     0.000 C 
BRANCH   3   4
ATOM      4  C   UNL     1      -9.891 -26.384  29.977  1.00  0.00    -0.000 C 
BRANCH   4   5
ATOM      5  C   UNL     1      -9.073 -27.090  28.881  1.00  0.00    -0.000 C 
BRANCH   5   6
ATOM      6  C   UNL     1      -9.951 -27.630  27.741  1.00  0.00    -0.000 C 
BRANCH   6   7
ATOM      7  C   UNL     1     -11.309 -26.911  27.653  1.00  0.00    -0.000 C 
BRANCH   7   8
ATOM      8  C   UNL     1     -11.634 -26.422  26.230  1.00  0.00    -0.000 C 
BRANCH   8   9
ATOM      9  C   UNL     1     -10.851 -25.175  25.771  1.00  0.00    -0.000 C 
BRANCH   9  10
ATOM     10  C   UNL     1     -10.495 -24.200  26.915  1.00  0.00    -0.000 C 
BRANCH  10  11
ATOM     11  C   UNL     1     -11.066 -22.793  26.683  1.00  0.00    -0.003 C 
ATOM     12  C   UNL     1     -11.989 -22.765  25.468  1.00  0.00     0.004 C 
ENDBRANCH  10  11
ENDBRANCH   9  10
ENDBRANCH   8   9
ENDBRANCH   7   8
ENDBRANCH   6   7
ENDBRANCH   5   6
ENDBRANCH   4   5
ENDBRANCH   3   4
ENDBRANCH   2   3
ENDBRANCH   1   2
BRANCH   1  13
ATOM     13  C   UNL     1      -6.277 -25.261  31.782  1.00  0.00     0.000 C 
BRANCH  13  14
ATOM     14  C   UNL     1      -6.751 -26.627  32.318  1.00  0.00     0.000 C 
BRANCH  14  15
ATOM     15  C   UNL     1      -6.503 -27.819  31.378  1.00  0.00     0.000 C 
BRANCH  15  16
ATOM     16  C   UNL     1      -5.663 -27.502  30.125  1.00  0.00     0.000 C 
BRANCH  16  17
ATOM     17  C   UNL     1      -4.152 -27.773  30.294  1.00  0.00     0.000 C 
BRANCH  17  18
ATOM     18  C   UNL     1      -3.863 -28.915  31.285  1.00  0.00     0.000 C 
BRANCH  18  19
ATOM     19  C   UNL     1      -3.008 -28.442  32.482  1.00  0.00     0.000 C 
BRANCH  19  20
ATOM     20  C   UNL     1      -3.796 -28.353  33.800  1.00  0.00     0.006 C 
BRANCH  20  21
ATOM     21  C   UNL     1      -2.978 -27.738  34.941  1.00  0.00     0.053 C 
BRANCH  21  22
ATOM     22  C   UNL     1      -2.887 -26.252  34.776  1.00  0.00     0.041 C 
ATOM     23  O   UNL     1      -3.856 -25.607  34.295  1.00  0.00    -0.550 OA
ATOM     24  O   UNL     1      -1.744 -25.576  35.187  1.00  0.00    -0.550 OA
ENDBRANCH  21  22
ENDBRANCH  20  21
ENDBRANCH  19  20
ENDBRANCH  18  19
ENDBRANCH  17  18
ENDBRANCH  16  17
ENDBRANCH  15  16
ENDBRANCH  14  15
ENDBRANCH  13  14
ENDBRANCH   1  13
TORSDOF 20
ENDMDL
MODEL 7
REMARK VINA RESULT:    -4.779      2.239      7.416
REMARK INTER + INTRA:         -13.237
REMARK INTER:                 -10.569
REMARK INTRA:                  -2.668
REMARK UNBOUND:                -2.869
REMARK SMILES CCCCCCCCCCCCCCCCCCCCCC(=O)[O-]
REMARK SMILES IDX 12 1 11 2 10 3 9 4 8 5 7 6 6 7 5 8 4 9 3 10 2 11 1 12 13 13
REMARK SMILES IDX 14 14 15 15 16 16 17 17 18 18 19 19 20 20 21 21 22 22 23 23
REMARK SMILES IDX 24 24
REMARK H PARENT
REMARK Flexibility Score: inf
ROOT
ATOM      1  C   UNL     1      -4.853 -27.248  29.431  1.00  0.00     0.000 C 
ENDROOT
BRANCH   1   2
ATOM      2  C   UNL     1      -6.359 -27.380  29.712  1.00  0.00     0.000 C 
BRANCH   2   3
ATOM      3  C   UNL     1      -7.216 -27.254  28.438  1.00  0.00     0.000 C 
BRANCH   3   4
ATOM      4  C   UNL     1      -8.504 -26.429  28.619  1.00  0.00    -0.000 C 
BRANCH   4   5
ATOM      5  C   UNL     1      -9.608 -27.209  29.355  1.00  0.00    -0.000 C 
BRANCH   5   6
ATOM      6  C   UNL     1     -10.989 -26.548  29.225  1.00  0.00    -0.000 C 
BRANCH   6   7
ATOM      7  C   UNL     1     -11.923 -27.318  28.274  1.00  0.00    -0.000 C 
BRANCH   7   8
ATOM      8  C   UNL     1     -11.461 -27.261  26.807  1.00  0.00    -0.000 C 
BRANCH   8   9
ATOM      9  C   UNL     1     -11.874 -25.990  26.039  1.00  0.00    -0.000 C 
BRANCH   9  10
ATOM     10  C   UNL     1     -10.684 -25.152  25.523  1.00  0.00    -0.000 C 
BRANCH  10  11
ATOM     11  C   UNL     1     -10.384 -23.945  26.426  1.00  0.00    -0.003 C 
ATOM     12  C   UNL     1     -11.348 -22.794  26.148  1.00  0.00     0.004 C 
ENDBRANCH  10  11
ENDBRANCH   9  10
ENDBRANCH   8   9
ENDBRANCH   7   8
ENDBRANCH   6   7
ENDBRANCH   5   6
ENDBRANCH   4   5
ENDBRANCH   3   4
ENDBRANCH   2   3
ENDBRANCH   1   2
BRANCH   1  13
ATOM     13  C   UNL     1      -3.989 -27.624  30.654  1.00  0.00     0.000 C 
BRANCH  13  14
ATOM     14  C   UNL     1      -4.704 -28.537  31.669  1.00  0.00     0.000 C 
BRANCH  14  15
ATOM     15  C   UNL     1      -4.626 -28.073  33.133  1.00  0.00     0.000 C 
BRANCH  15  16
ATOM     16  C   UNL     1      -3.460 -27.117  33.456  1.00  0.00     0.000 C 
BRANCH  16  17
ATOM     17  C   UNL     1      -3.893 -25.810  34.157  1.00  0.00     0.000 C 
BRANCH  17  18
ATOM     18  C   UNL     1      -4.914 -25.006  33.332  1.00  0.00     0.000 C 
BRANCH  18  19
ATOM     19  C   UNL     1      -6.043 -24.425  34.213  1.00  0.00     0.000 C 
BRANCH  19  20
ATOM     20  C   UNL     1      -7.297 -25.316  34.266  1.00  0.00     0.006 C 
BRANCH  20  21
ATOM     21  C   UNL     1      -7.641 -25.938  32.908  1.00  0.00     0.053 C 
BRANCH  21  22
ATOM     22  C   UNL     1      -8.761 -25.187  32.258  1.00  0.00     0.041 C 
ATOM     23  O   UNL     1      -9.958 -25.491  32.508  1.00  0.00    -0.550 OA
ATOM     24  O   UNL     1      -8.483 -24.129  31.401  1.00  0.00    -0.550 OA
ENDBRANCH  21  22
ENDBRANCH  20  21
ENDBRANCH  19  20
ENDBRANCH  18  19
ENDBRANCH  17  18
ENDBRANCH  16  17
ENDBRANCH  15  16
ENDBRANCH  14  15
ENDBRANCH  13  14
ENDBRANCH   1  13
TORSDOF 20
ENDMDL
MODEL 8
REMARK VINA RESULT:    -4.768      2.051      3.954
REMARK INTER + INTRA:         -13.212
REMARK INTER:                 -10.274
REMARK INTRA:                  -2.938
REMARK UNBOUND:                -2.869
REMARK SMILES CCCCCCCCCCCCCCCCCCCCCC(=O)[O-]
REMARK SMILES IDX 12 1 11 2 10 3 9 4 8 5 7 6 6 7 5 8 4 9 3 10 2 11 1 12 13 13
REMARK SMILES IDX 14 14 15 15 16 16 17 17 18 18 19 19 20 20 21 21 22 22 23 23
REMARK SMILES IDX 24 24
REMARK H PARENT
REMARK Flexibility Score: inf
ROOT
ATOM      1  C   UNL     1      -8.022 -24.603  32.401  1.00  0.00     0.000 C 
ENDROOT
BRANCH   1   2
ATOM      2  C   UNL     1      -6.764 -24.412  33.263  1.00  0.00     0.000 C 
BRANCH   2   3
ATOM      3  C   UNL     1      -5.486 -24.928  32.574  1.00  0.00     0.000 C 
BRANCH   3   4
ATOM      4  C   UNL     1      -4.328 -25.243  33.540  1.00  0.00    -0.000 C 
BRANCH   4   5
ATOM      5  C   UNL     1      -4.725 -26.250  34.633  1.00  0.00    -0.000 C 
BRANCH   5   6
ATOM      6  C   UNL     1      -4.747 -27.700  34.124  1.00  0.00    -0.000 C 
BRANCH   6   7
ATOM      7  C   UNL     1      -3.335 -28.258  33.875  1.00  0.00    -0.000 C 
BRANCH   7   8
ATOM      8  C   UNL     1      -3.215 -29.000  32.531  1.00  0.00    -0.000 C 
BRANCH   8   9
ATOM      9  C   UNL     1      -4.342 -28.710  31.519  1.00  0.00    -0.000 C 
BRANCH   9  10
ATOM     10  C   UNL     1      -3.928 -27.765  30.371  1.00  0.00    -0.000 C 
BRANCH  10  11
ATOM     11  C   UNL     1      -5.140 -27.140  29.662  1.00  0.00    -0.003 C 
ATOM     12  C   UNL     1      -6.445 -27.528  30.354  1.00  0.00     0.004 C 
ENDBRANCH  10  11
ENDBRANCH   9  10
ENDBRANCH   8   9
ENDBRANCH   7   8
ENDBRANCH   6   7
ENDBRANCH   5   6
ENDBRANCH   4   5
ENDBRANCH   3   4
ENDBRANCH   2   3
ENDBRANCH   1   2
BRANCH   1  13
ATOM     13  C   UNL     1      -8.741 -25.938  32.692  1.00  0.00     0.000 C 
BRANCH  13  14
ATOM     14  C   UNL     1     -10.274 -25.814  32.795  1.00  0.00     0.000 C 
BRANCH  14  15
ATOM     15  C   UNL     1     -11.054 -26.327  31.572  1.00  0.00     0.000 C 
BRANCH  15  16
ATOM     16  C   UNL     1     -10.197 -26.632  30.328  1.00  0.00     0.000 C 
BRANCH  16  17
ATOM     17  C   UNL     1     -10.134 -25.474  29.308  1.00  0.00     0.000 C 
BRANCH  17  18
ATOM     18  C   UNL     1      -9.236 -25.797  28.100  1.00  0.00     0.000 C 
BRANCH  18  19
ATOM     19  C   UNL     1      -9.005 -27.317  27.938  1.00  0.00     0.000 C 
BRANCH  19  20
ATOM     20  C   UNL     1      -9.779 -27.932  26.759  1.00  0.00     0.006 C 
BRANCH  20  21
ATOM     21  C   UNL     1     -11.011 -28.725  27.207  1.00  0.00     0.053 C 
BRANCH  21  22
ATOM     22  C   UNL     1     -12.199 -27.821  27.325  1.00  0.00     0.041 C 
ATOM     23  O   UNL     1     -12.611 -27.180  26.322  1.00  0.00    -0.550 OA
ATOM     24  O   UNL     1     -12.873 -27.713  28.536  1.00  0.00    -0.550 OA
ENDBRANCH  21  22
ENDBRANCH  20  21
ENDBRANCH  19  20
ENDBRANCH  18  19
ENDBRANCH  17  18
ENDBRANCH  16  17
ENDBRANCH  15  16
ENDBRANCH  14  15
ENDBRANCH  13  14
ENDBRANCH   1  13
TORSDOF 20
ENDMDL
MODEL 9
REMARK VINA RESULT:    -4.759      1.663      3.899
REMARK INTER + INTRA:         -13.192
REMARK INTER:                 -10.438
REMARK INTRA:                  -2.754
REMARK UNBOUND:                -2.869
REMARK SMILES CCCCCCCCCCCCCCCCCCCCCC(=O)[O-]
REMARK SMILES IDX 12 1 11 2 10 3 9 4 8 5 7 6 6 7 5 8 4 9 3 10 2 11 1 12 13 13
REMARK SMILES IDX 14 14 15 15 16 16 17 17 18 18 19 19 20 20 21 21 22 22 23 23
REMARK SMILES IDX 24 24
REMARK H PARENT
REMARK Flexibility Score: inf
ROOT
ATOM      1  C   UNL     1      -5.919 -27.160  30.379  1.00  0.00     0.000 C 
ENDROOT
BRANCH   1   2
ATOM      2  C   UNL     1      -5.678 -28.154  31.526  1.00  0.00     0.000 C 
BRANCH   2   3
ATOM      3  C   UNL     1      -4.190 -28.511  31.703  1.00  0.00     0.000 C 
BRANCH   3   4
ATOM      4  C   UNL     1      -3.638 -28.245  33.116  1.00  0.00    -0.000 C 
BRANCH   4   5
ATOM      5  C   UNL     1      -4.699 -27.663  34.067  1.00  0.00    -0.000 C 
BRANCH   5   6
ATOM      6  C   UNL     1      -4.311 -26.281  34.615  1.00  0.00    -0.000 C 
BRANCH   6   7
ATOM      7  C   UNL     1      -4.523 -25.159  33.584  1.00  0.00    -0.000 C 
BRANCH   7   8
ATOM      8  C   UNL     1      -5.802 -24.343  33.844  1.00  0.00    -0.000 C 
BRANCH   8   9
ATOM      9  C   UNL     1      -6.966 -24.622  32.871  1.00  0.00    -0.000 C 
BRANCH   9  10
ATOM     10  C   UNL     1      -7.963 -25.688  33.374  1.00  0.00    -0.000 C 
BRANCH  10  11
ATOM     11  C   UNL     1      -9.240 -25.742  32.521  1.00  0.00    -0.003 C 
ATOM     12  C   UNL     1      -9.251 -24.633  31.472  1.00  0.00     0.004 C 
ENDBRANCH  10  11
ENDBRANCH   9  10
ENDBRANCH   8   9
ENDBRANCH   7   8
ENDBRANCH   6   7
ENDBRANCH   5   6
ENDBRANCH   4   5
ENDBRANCH   3   4
ENDBRANCH   2   3
ENDBRANCH   1   2
BRANCH   1  13
ATOM     13  C   UNL     1      -7.343 -27.266  29.794  1.00  0.00     0.000 C 
BRANCH  13  14
ATOM     14  C   UNL     1      -7.383 -27.367  28.256  1.00  0.00     0.000 C 
BRANCH  14  15
ATOM     15  C   UNL     1      -8.790 -27.471  27.644  1.00  0.00     0.000 C 
BRANCH  15  16
ATOM     16  C   UNL     1      -9.953 -27.269  28.636  1.00  0.00     0.000 C 
BRANCH  16  17
ATOM     17  C   UNL     1     -10.708 -25.934  28.455  1.00  0.00     0.000 C 
BRANCH  17  18
ATOM     18  C   UNL     1      -9.945 -24.937  27.564  1.00  0.00     0.000 C 
BRANCH  18  19
ATOM     19  C   UNL     1     -10.881 -24.214  26.569  1.00  0.00     0.000 C 
BRANCH  19  20
ATOM     20  C   UNL     1     -11.091 -24.985  25.254  1.00  0.00     0.006 C 
BRANCH  20  21
ATOM     21  C   UNL     1     -12.368 -25.833  25.260  1.00  0.00     0.053 C 
BRANCH  21  22
ATOM     22  C   UNL     1     -13.363 -25.285  24.285  1.00  0.00     0.041 C 
ATOM     23  O   UNL     1     -13.934 -26.051  23.463  1.00  0.00    -0.550 OA
ATOM     24  O   UNL     1     -13.686 -23.933  24.305  1.00  0.00    -0.550 OA
ENDBRANCH  21  22
ENDBRANCH  20  21
ENDBRANCH  19  20
ENDBRANCH  18  19
ENDBRANCH  17  18
ENDBRANCH  16  17
ENDBRANCH  15  16
ENDBRANCH  14  15
ENDBRANCH  13  14
ENDBRANCH   1  13
TORSDOF 20
ENDMDL
