MODEL 1
REMARK VINA RESULT:    -4.337      0.000      0.000
REMARK INTER + INTRA:          -5.281
REMARK INTER:                  -4.971
REMARK INTRA:                  -0.310
REMARK UNBOUND:                -0.310
REMARK SMILES COc1ccc(C(C)=O)c(O)c1
REMARK SMILES IDX 6 1 10 2 12 3 3 4 4 5 5 6 7 7 8 8 9 9 11 10 2 12 1 13
REMARK H PARENT 11 11
REMARK Flexibility Score: inf
ROOT
ATOM      1  C   UNL     1       1.023 -25.021 -46.342  1.00  0.00     0.059 A 
ATOM      2  C   UNL     1       0.970 -26.205 -47.115  1.00  0.00     0.130 A 
ATOM      3  C   UNL     1      -0.269 -26.723 -47.522  1.00  0.00     0.093 A 
ATOM      4  C   UNL     1      -1.464 -26.091 -47.172  1.00  0.00     0.122 A 
ATOM      5  C   UNL     1      -1.415 -24.916 -46.402  1.00  0.00     0.047 A 
ATOM      6  C   UNL     1      -0.187 -24.390 -45.993  1.00  0.00     0.019 A 
ENDROOT
BRANCH   1   7
ATOM      7  C   UNL     1       2.325 -24.442 -45.904  1.00  0.00     0.163 C 
ATOM      8  C   UNL     1       2.703 -24.356 -44.455  1.00  0.00     0.093 C 
ATOM      9  O   UNL     1       3.131 -23.979 -46.756  1.00  0.00    -0.294 OA
ENDBRANCH   1   7
BRANCH   2  10
ATOM     10  O   UNL     1       2.140 -26.875 -47.472  1.00  0.00    -0.507 OA
ATOM     11  H   UNL     1       2.226 -27.881 -47.387  1.00  0.00     0.293 HD
ENDBRANCH   2  10
BRANCH   4  12
ATOM     12  O   UNL     1      -2.671 -26.656 -47.607  1.00  0.00    -0.497 OA
ATOM     13  C   UNL     1      -3.865 -26.699 -46.833  1.00  0.00     0.278 C 
ENDBRANCH   4  12
TORSDOF 3
ENDMDL
MODEL 2
REMARK VINA RESULT:    -4.016      1.535      2.187
REMARK INTER + INTRA:          -4.912
REMARK INTER:                  -4.594
REMARK INTRA:                  -0.318
REMARK UNBOUND:                -0.310
REMARK SMILES COc1ccc(C(C)=O)c(O)c1
REMARK SMILES IDX 6 1 10 2 12 3 3 4 4 5 5 6 7 7 8 8 9 9 11 10 2 12 1 13
REMARK H PARENT 11 11
REMARK Flexibility Score: inf
ROOT
ATOM      1  C   UNL     1      -0.062 -25.485 -46.203  1.00  0.00     0.059 A 
ATOM      2  C   UNL     1      -1.051 -25.994 -47.077  1.00  0.00     0.130 A 
ATOM      3  C   UNL     1      -2.409 -25.881 -46.741  1.00  0.00     0.093 A 
ATOM      4  C   UNL     1      -2.808 -25.275 -45.548  1.00  0.00     0.122 A 
ATOM      5  C   UNL     1      -1.828 -24.771 -44.677  1.00  0.00     0.047 A 
ATOM      6  C   UNL     1      -0.473 -24.875 -45.002  1.00  0.00     0.019 A 
ENDROOT
BRANCH   1   7
ATOM      7  C   UNL     1       1.388 -25.581 -46.538  1.00  0.00     0.163 C 
ATOM      8  C   UNL     1       2.352 -24.483 -46.195  1.00  0.00     0.093 C 
ATOM      9  O   UNL     1       1.831 -26.590 -47.150  1.00  0.00    -0.294 OA
ENDBRANCH   1   7
BRANCH   2  10
ATOM     10  O   UNL     1      -0.694 -26.620 -48.270  1.00  0.00    -0.507 OA
ATOM     11  H   UNL     1       0.273 -26.817 -48.501  1.00  0.00     0.293 HD
ENDBRANCH   2  10
BRANCH   4  12
ATOM     12  O   UNL     1      -4.179 -25.192 -45.267  1.00  0.00    -0.497 OA
ATOM     13  C   UNL     1      -5.136 -26.184 -45.629  1.00  0.00     0.278 C 
ENDBRANCH   4  12
TORSDOF 3
ENDMDL
MODEL 3
REMARK VINA RESULT:    -4.001     14.836     16.473
REMARK INTER + INTRA:          -4.896
REMARK INTER:                  -4.587
REMARK INTRA:                  -0.309
REMARK UNBOUND:                -0.310
REMARK SMILES COc1ccc(C(C)=O)c(O)c1
REMARK SMILES IDX 6 1 10 2 12 3 3 4 4 5 5 6 7 7 8 8 9 9 11 10 2 12 1 13
REMARK H PARENT 11 11
REMARK Flexibility Score: inf
ROOT
ATOM      1  C   UNL     1      -0.313  -9.662 -40.998  1.00  0.00     0.059 A 
ATOM      2  C   UNL     1       0.029 -10.944 -40.508  1.00  0.00     0.130 A 
ATOM      3  C   UNL     1       0.899 -11.766 -41.241  1.00  0.00     0.093 A 
ATOM      4  C   UNL     1       1.436 -11.342 -42.458  1.00  0.00     0.122 A 
ATOM      5  C   UNL     1       1.096 -10.070 -42.949  1.00  0.00     0.047 A 
ATOM      6  C   UNL     1       0.233  -9.242 -42.227  1.00  0.00     0.019 A 
ENDROOT
BRANCH   1   7
ATOM      7  C   UNL     1      -1.227  -8.762 -40.237  1.00  0.00     0.163 C 
ATOM      8  C   UNL     1      -2.568  -8.360 -40.775  1.00  0.00     0.093 C 
ATOM      9  O   UNL     1      -0.870  -8.292 -39.122  1.00  0.00    -0.294 OA
ENDBRANCH   1   7
BRANCH   2  10
ATOM     10  O   UNL     1      -0.498 -11.410 -39.305  1.00  0.00    -0.507 OA
ATOM     11  H   UNL     1      -1.032 -12.270 -39.253  1.00  0.00     0.293 HD
ENDBRANCH   2  10
BRANCH   4  12
ATOM     12  O   UNL     1       2.298 -12.208 -43.145  1.00  0.00    -0.497 OA
ATOM     13  C   UNL     1       2.194 -12.516 -44.531  1.00  0.00     0.278 C 
ENDBRANCH   4  12
TORSDOF 3
ENDMDL
MODEL 4
REMARK VINA RESULT:    -3.983     16.688     18.183
REMARK INTER + INTRA:          -4.875
REMARK INTER:                  -4.548
REMARK INTRA:                  -0.327
REMARK UNBOUND:                -0.310
REMARK SMILES COc1ccc(C(C)=O)c(O)c1
REMARK SMILES IDX 6 1 10 2 12 3 3 4 4 5 5 6 7 7 8 8 9 9 11 10 2 12 1 13
REMARK H PARENT 11 11
REMARK Flexibility Score: inf
ROOT
ATOM      1  C   UNL     1      -1.017  -9.645 -37.347  1.00  0.00     0.059 A 
ATOM      2  C   UNL     1      -0.505  -8.672 -38.238  1.00  0.00     0.130 A 
ATOM      3  C   UNL     1      -0.644  -8.845 -39.623  1.00  0.00     0.093 A 
ATOM      4  C   UNL     1      -1.280  -9.973 -40.147  1.00  0.00     0.122 A 
ATOM      5  C   UNL     1      -1.787 -10.943 -39.266  1.00  0.00     0.047 A 
ATOM      6  C   UNL     1      -1.656 -10.779 -37.884  1.00  0.00     0.019 A 
ENDROOT
BRANCH   1   7
ATOM      7  C   UNL     1      -0.893  -9.482 -35.870  1.00  0.00     0.163 C 
ATOM      8  C   UNL     1      -0.172 -10.489 -35.023  1.00  0.00     0.093 C 
ATOM      9  O   UNL     1      -1.425  -8.494 -35.295  1.00  0.00    -0.294 OA
ENDBRANCH   1   7
BRANCH   2  10
ATOM     10  O   UNL     1       0.150  -7.539 -37.755  1.00  0.00    -0.507 OA
ATOM     11  H   UNL     1       0.330  -7.407 -36.767  1.00  0.00     0.293 HD
ENDBRANCH   2  10
BRANCH   4  12
ATOM     12  O   UNL     1      -1.389 -10.092 -41.540  1.00  0.00    -0.497 OA
ATOM     13  C   UNL     1      -1.149 -11.293 -42.267  1.00  0.00     0.278 C 
ENDBRANCH   4  12
TORSDOF 3
ENDMDL
MODEL 5
REMARK VINA RESULT:    -3.971     17.238     18.832
REMARK INTER + INTRA:          -4.861
REMARK INTER:                  -4.554
REMARK INTRA:                  -0.307
REMARK UNBOUND:                -0.310
REMARK SMILES COc1ccc(C(C)=O)c(O)c1
REMARK SMILES IDX 6 1 10 2 12 3 3 4 4 5 5 6 7 7 8 8 9 9 11 10 2 12 1 13
REMARK H PARENT 11 11
REMARK Flexibility Score: inf
ROOT
ATOM      1  C   UNL     1      -0.864  -9.555 -38.314  1.00  0.00     0.059 A 
ATOM      2  C   UNL     1      -0.378  -8.608 -37.382  1.00  0.00     0.130 A 
ATOM      3  C   UNL     1      -0.450  -8.876 -36.006  1.00  0.00     0.093 A 
ATOM      4  C   UNL     1      -1.000 -10.069 -35.533  1.00  0.00     0.122 A 
ATOM      5  C   UNL     1      -1.486 -11.011 -36.456  1.00  0.00     0.047 A 
ATOM      6  C   UNL     1      -1.418 -10.756 -37.827  1.00  0.00     0.019 A 
ENDROOT
BRANCH   1   7
ATOM      7  C   UNL     1      -0.792  -9.303 -39.782  1.00  0.00     0.163 C 
ATOM      8  C   UNL     1       0.134 -10.078 -40.672  1.00  0.00     0.093 C 
ATOM      9  O   UNL     1      -1.499  -8.398 -40.304  1.00  0.00    -0.294 OA
ENDBRANCH   1   7
BRANCH   2  10
ATOM     10  O   UNL     1       0.165  -7.399 -37.814  1.00  0.00    -0.507 OA
ATOM     11  H   UNL     1      -0.183  -6.507 -37.479  1.00  0.00     0.293 HD
ENDBRANCH   2  10
BRANCH   4  12
ATOM     12  O   UNL     1      -1.045 -10.280 -34.147  1.00  0.00    -0.497 OA
ATOM     13  C   UNL     1      -0.788 -11.530 -33.515  1.00  0.00     0.278 C 
ENDBRANCH   4  12
TORSDOF 3
ENDMDL
MODEL 6
REMARK VINA RESULT:    -3.946     14.701     16.333
REMARK INTER + INTRA:          -4.832
REMARK INTER:                  -4.496
REMARK INTRA:                  -0.336
REMARK UNBOUND:                -0.310
REMARK SMILES COc1ccc(C(C)=O)c(O)c1
REMARK SMILES IDX 6 1 10 2 12 3 3 4 4 5 5 6 7 7 8 8 9 9 11 10 2 12 1 13
REMARK H PARENT 11 11
REMARK Flexibility Score: inf
ROOT
ATOM      1  C   UNL     1      -3.257 -10.742 -42.545  1.00  0.00     0.059 A 
ATOM      2  C   UNL     1      -2.167 -11.607 -42.288  1.00  0.00     0.130 A 
ATOM      3  C   UNL     1      -0.867 -11.088 -42.187  1.00  0.00     0.093 A 
ATOM      4  C   UNL     1      -0.624  -9.721 -42.340  1.00  0.00     0.122 A 
ATOM      5  C   UNL     1      -1.703  -8.860 -42.598  1.00  0.00     0.047 A 
ATOM      6  C   UNL     1      -3.002  -9.365 -42.699  1.00  0.00     0.019 A 
ENDROOT
BRANCH   1   7
ATOM      7  C   UNL     1      -4.650 -11.263 -42.647  1.00  0.00     0.163 C 
ATOM      8  C   UNL     1      -5.480 -11.061 -43.881  1.00  0.00     0.093 C 
ATOM      9  O   UNL     1      -5.174 -11.868 -41.673  1.00  0.00    -0.294 OA
ENDBRANCH   1   7
BRANCH   2  10
ATOM     10  O   UNL     1      -2.366 -12.979 -42.144  1.00  0.00    -0.507 OA
ATOM     11  H   UNL     1      -2.982 -13.358 -41.433  1.00  0.00     0.293 HD
ENDBRANCH   2  10
BRANCH   4  12
ATOM     12  O   UNL     1       0.696  -9.262 -42.229  1.00  0.00    -0.497 OA
ATOM     13  C   UNL     1       1.804 -10.079 -41.863  1.00  0.00     0.278 C 
ENDBRANCH   4  12
TORSDOF 3
ENDMDL
MODEL 7
REMARK VINA RESULT:    -3.939     14.945     15.977
REMARK INTER + INTRA:          -4.825
REMARK INTER:                  -4.484
REMARK INTRA:                  -0.341
REMARK UNBOUND:                -0.310
REMARK SMILES COc1ccc(C(C)=O)c(O)c1
REMARK SMILES IDX 6 1 10 2 12 3 3 4 4 5 5 6 7 7 8 8 9 9 11 10 2 12 1 13
REMARK H PARENT 11 11
REMARK Flexibility Score: inf
ROOT
ATOM      1  C   UNL     1      -0.723  -9.811 -42.440  1.00  0.00     0.059 A 
ATOM      2  C   UNL     1      -1.219 -11.117 -42.217  1.00  0.00     0.130 A 
ATOM      3  C   UNL     1      -2.599 -11.363 -42.277  1.00  0.00     0.093 A 
ATOM      4  C   UNL     1      -3.503 -10.335 -42.552  1.00  0.00     0.122 A 
ATOM      5  C   UNL     1      -3.014  -9.036 -42.771  1.00  0.00     0.047 A 
ATOM      6  C   UNL     1      -1.642  -8.779 -42.716  1.00  0.00     0.019 A 
ENDROOT
BRANCH   1   7
ATOM      7  C   UNL     1       0.739  -9.521 -42.393  1.00  0.00     0.163 C 
ATOM      8  C   UNL     1       1.441  -8.817 -43.517  1.00  0.00     0.093 C 
ATOM      9  O   UNL     1       1.427  -9.894 -41.404  1.00  0.00    -0.294 OA
ENDBRANCH   1   7
BRANCH   2  10
ATOM     10  O   UNL     1      -0.351 -12.168 -41.925  1.00  0.00    -0.507 OA
ATOM     11  H   UNL     1      -0.649 -13.136 -41.973  1.00  0.00     0.293 HD
ENDBRANCH   2  10
BRANCH   4  12
ATOM     12  O   UNL     1      -4.870 -10.642 -42.598  1.00  0.00    -0.497 OA
ATOM     13  C   UNL     1      -5.426 -11.727 -43.335  1.00  0.00     0.278 C 
ENDBRANCH   4  12
TORSDOF 3
ENDMDL
MODEL 8
REMARK VINA RESULT:    -3.869     14.761     15.734
REMARK INTER + INTRA:          -4.744
REMARK INTER:                  -4.453
REMARK INTRA:                  -0.291
REMARK UNBOUND:                -0.310
REMARK SMILES COc1ccc(C(C)=O)c(O)c1
REMARK SMILES IDX 6 1 10 2 12 3 3 4 4 5 5 6 7 7 8 8 9 9 11 10 2 12 1 13
REMARK H PARENT 11 11
REMARK Flexibility Score: inf
ROOT
ATOM      1  C   UNL     1       1.324 -10.749 -41.847  1.00  0.00     0.059 A 
ATOM      2  C   UNL     1       0.792 -11.790 -41.050  1.00  0.00     0.130 A 
ATOM      3  C   UNL     1      -0.416 -11.600 -40.363  1.00  0.00     0.093 A 
ATOM      4  C   UNL     1      -1.109 -10.390 -40.446  1.00  0.00     0.122 A 
ATOM      5  C   UNL     1      -0.582  -9.353 -41.234  1.00  0.00     0.047 A 
ATOM      6  C   UNL     1       0.619  -9.532 -41.925  1.00  0.00     0.019 A 
ENDROOT
BRANCH   1   7
ATOM      7  C   UNL     1       2.601 -10.926 -42.598  1.00  0.00     0.163 C 
ATOM      8  C   UNL     1       2.622 -11.106 -44.087  1.00  0.00     0.093 C 
ATOM      9  O   UNL     1       3.700 -10.956 -41.980  1.00  0.00    -0.294 OA
ENDBRANCH   1   7
BRANCH   2  10
ATOM     10  O   UNL     1       1.461 -13.007 -40.929  1.00  0.00    -0.507 OA
ATOM     11  H   UNL     1       2.214 -13.267 -41.555  1.00  0.00     0.293 HD
ENDBRANCH   2  10
BRANCH   4  12
ATOM     12  O   UNL     1      -2.311 -10.259 -39.735  1.00  0.00    -0.497 OA
ATOM     13  C   UNL     1      -3.072 -11.353 -39.233  1.00  0.00     0.278 C 
ENDBRANCH   4  12
TORSDOF 3
ENDMDL
MODEL 9
REMARK VINA RESULT:    -3.862     14.898     17.632
REMARK INTER + INTRA:          -4.736
REMARK INTER:                  -4.402
REMARK INTRA:                  -0.334
REMARK UNBOUND:                -0.310
REMARK SMILES COc1ccc(C(C)=O)c(O)c1
REMARK SMILES IDX 6 1 10 2 12 3 3 4 4 5 5 6 7 7 8 8 9 9 11 10 2 12 1 13
REMARK H PARENT 11 11
REMARK Flexibility Score: inf
ROOT
ATOM      1  C   UNL     1       8.543 -10.880 -40.157  1.00  0.00     0.059 A 
ATOM      2  C   UNL     1       7.327 -11.391 -39.647  1.00  0.00     0.130 A 
ATOM      3  C   UNL     1       7.280 -12.686 -39.110  1.00  0.00     0.093 A 
ATOM      4  C   UNL     1       8.420 -13.492 -39.074  1.00  0.00     0.122 A 
ATOM      5  C   UNL     1       9.629 -12.989 -39.583  1.00  0.00     0.047 A 
ATOM      6  C   UNL     1       9.688 -11.699 -40.117  1.00  0.00     0.019 A 
ENDROOT
BRANCH   1   7
ATOM      7  C   UNL     1       8.626  -9.502 -40.724  1.00  0.00     0.163 C 
ATOM      8  C   UNL     1       9.554  -8.470 -40.156  1.00  0.00     0.093 C 
ATOM      9  O   UNL     1       7.884  -9.168 -41.687  1.00  0.00    -0.294 OA
ENDBRANCH   1   7
BRANCH   2  10
ATOM     10  O   UNL     1       6.163 -10.623 -39.679  1.00  0.00    -0.507 OA
ATOM     11  H   UNL     1       5.568 -10.589 -40.498  1.00  0.00     0.293 HD
ENDBRANCH   2  10
BRANCH   4  12
ATOM     12  O   UNL     1       8.311 -14.779 -38.527  1.00  0.00    -0.497 OA
ATOM     13  C   UNL     1       7.720 -15.889 -39.194  1.00  0.00     0.278 C 
ENDBRANCH   4  12
TORSDOF 3
ENDMDL
