MODEL 1
REMARK VINA RESULT:    -6.336      0.000      0.000
REMARK INTER + INTRA:          -8.124
REMARK INTER:                  -8.558
REMARK INTRA:                   0.434
REMARK UNBOUND:                 0.434
REMARK SMILES O=c1c(-c2ccc(O)cc2)coc2c([C@@H]3O[C@@H](CO)[C@H](O)[C@H](O)[C@H]3O)c(O)ccc12
REMARK SMILES IDX 3 1 11 2 12 3 13 4 30 5 2 6 1 7 29 8 28 9 26 10 14 11 4 12
REMARK SMILES IDX 5 13 6 14 7 15 10 16 9 17 8 18 15 20 24 21 16 22 22 23 17 24
REMARK SMILES IDX 20 25 25 26 23 28 18 30 19 31 21 33 27 35
REMARK H PARENT 8 19 25 27 23 29 19 32 21 34 27 36
REMARK Flexibility Score: inf
ROOT
ATOM      1  C   UNL     1     -39.936  76.405 -22.590  1.00  0.00     0.065 A 
ATOM      2  C   UNL     1     -38.546  76.305 -22.735  1.00  0.00     0.208 A 
ATOM      3  O   UNL     1     -37.996  76.122 -23.930  1.00  0.00    -0.463 OA
ATOM      4  C   UNL     1     -38.704  76.024 -25.054  1.00  0.00     0.147 A 
ATOM      5  C   UNL     1     -40.113  76.126 -24.999  1.00  0.00     0.066 A 
ATOM      6  C   UNL     1     -40.729  76.321 -23.749  1.00  0.00     0.200 A 
ATOM      7  O   UNL     1     -41.984  76.444 -23.670  1.00  0.00    -0.288 OA
ATOM      8  C   UNL     1     -40.859  76.038 -26.182  1.00  0.00     0.020 A 
ATOM      9  C   UNL     1     -40.217  75.876 -27.405  1.00  0.00     0.047 A 
ATOM     10  C   UNL     1     -38.824  75.790 -27.483  1.00  0.00     0.125 A 
ATOM     11  C   UNL     1     -38.042  75.822 -26.293  1.00  0.00     0.069 A 
ENDROOT
BRANCH   1  12
ATOM     12  C   UNL     1     -40.528  76.600 -21.243  1.00  0.00    -0.011 A 
ATOM     13  C   UNL     1     -39.702  76.877 -20.139  1.00  0.00     0.013 A 
ATOM     14  C   UNL     1     -40.256  77.053 -18.868  1.00  0.00     0.047 A 
ATOM     15  C   UNL     1     -41.638  76.948 -18.681  1.00  0.00     0.115 A 
ATOM     16  C   UNL     1     -41.916  76.489 -21.048  1.00  0.00     0.013 A 
ATOM     17  C   UNL     1     -42.467  76.663 -19.775  1.00  0.00     0.047 A 
BRANCH  15  18
ATOM     18  O   UNL     1     -42.176  77.125 -17.409  1.00  0.00    -0.508 OA
ATOM     19  H   UNL     1     -43.127  77.450 -17.277  1.00  0.00     0.293 HD
ENDBRANCH  15  18
ENDBRANCH   1  12
BRANCH  11  20
ATOM     20  C   UNL     1     -36.522  75.679 -26.316  1.00  0.00     0.188 C 
ATOM     21  C   UNL     1     -36.125  74.415 -27.119  1.00  0.00     0.179 C 
ATOM     22  O   UNL     1     -35.960  76.856 -26.882  1.00  0.00    -0.362 OA
ATOM     23  C   UNL     1     -34.596  74.303 -27.212  1.00  0.00     0.177 C 
ATOM     24  C   UNL     1     -34.538  76.829 -26.948  1.00  0.00     0.176 C 
ATOM     25  C   UNL     1     -34.009  75.620 -27.753  1.00  0.00     0.177 C 
BRANCH  21  26
ATOM     26  O   UNL     1     -36.674  73.255 -26.546  1.00  0.00    -0.387 OA
ATOM     27  H   UNL     1     -37.607  73.462 -26.279  1.00  0.00     0.211 HD
ENDBRANCH  21  26
BRANCH  23  28
ATOM     28  O   UNL     1     -34.256  73.231 -28.053  1.00  0.00    -0.387 OA
ATOM     29  H   UNL     1     -33.428  73.496 -28.533  1.00  0.00     0.211 HD
ENDBRANCH  23  28
BRANCH  24  30
ATOM     30  C   UNL     1     -33.869  76.984 -25.565  1.00  0.00     0.191 C 
BRANCH  30  31
ATOM     31  O   UNL     1     -33.117  75.842 -25.255  1.00  0.00    -0.394 OA
ATOM     32  H   UNL     1     -33.286  75.640 -24.297  1.00  0.00     0.210 HD
ENDBRANCH  30  31
ENDBRANCH  24  30
BRANCH  25  33
ATOM     33  O   UNL     1     -34.363  75.789 -29.104  1.00  0.00    -0.388 OA
ATOM     34  H   UNL     1     -35.285  75.438 -29.211  1.00  0.00     0.211 HD
ENDBRANCH  25  33
ENDBRANCH  11  20
BRANCH  10  35
ATOM     35  O   UNL     1     -38.272  75.686 -28.763  1.00  0.00    -0.507 OA
ATOM     36  H   UNL     1     -37.297  75.515 -28.962  1.00  0.00     0.293 HD
ENDBRANCH  10  35
TORSDOF 9
ENDMDL
MODEL 2
REMARK VINA RESULT:    -4.137      1.903      8.033
REMARK INTER + INTRA:          -5.154
REMARK INTER:                  -6.177
REMARK INTRA:                   1.023
REMARK UNBOUND:                 0.434
REMARK SMILES O=c1c(-c2ccc(O)cc2)coc2c([C@@H]3O[C@@H](CO)[C@H](O)[C@H](O)[C@H]3O)c(O)ccc12
REMARK SMILES IDX 3 1 11 2 12 3 13 4 30 5 2 6 1 7 29 8 28 9 26 10 14 11 4 12
REMARK SMILES IDX 5 13 6 14 7 15 10 16 9 17 8 18 15 20 24 21 16 22 22 23 17 24
REMARK SMILES IDX 20 25 25 26 23 28 18 30 19 31 21 33 27 35
REMARK H PARENT 8 19 25 27 23 29 19 32 21 34 27 36
REMARK Flexibility Score: inf
ROOT
ATOM      1  C   UNL     1     -36.621  75.674 -26.494  1.00  0.00     0.065 A 
ATOM      2  C   UNL     1     -37.005  76.138 -25.229  1.00  0.00     0.208 A 
ATOM      3  O   UNL     1     -38.275  76.101 -24.846  1.00  0.00    -0.463 OA
ATOM      4  C   UNL     1     -39.258  75.632 -25.613  1.00  0.00     0.147 A 
ATOM      5  C   UNL     1     -38.956  75.133 -26.901  1.00  0.00     0.066 A 
ATOM      6  C   UNL     1     -37.619  75.155 -27.339  1.00  0.00     0.200 A 
ATOM      7  O   UNL     1     -37.313  74.692 -28.473  1.00  0.00    -0.288 OA
ATOM      8  C   UNL     1     -39.986  74.624 -27.704  1.00  0.00     0.020 A 
ATOM      9  C   UNL     1     -41.292  74.588 -27.228  1.00  0.00     0.047 A 
ATOM     10  C   UNL     1     -41.610  75.061 -25.951  1.00  0.00     0.125 A 
ATOM     11  C   UNL     1     -40.594  75.633 -25.133  1.00  0.00     0.069 A 
ENDROOT
BRANCH   1  12
ATOM     12  C   UNL     1     -35.196  75.734 -26.904  1.00  0.00    -0.011 A 
ATOM     13  C   UNL     1     -34.370  74.603 -26.764  1.00  0.00     0.013 A 
ATOM     14  C   UNL     1     -33.026  74.658 -27.141  1.00  0.00     0.047 A 
ATOM     15  C   UNL     1     -32.487  75.841 -27.657  1.00  0.00     0.115 A 
ATOM     16  C   UNL     1     -34.646  76.921 -27.418  1.00  0.00     0.013 A 
ATOM     17  C   UNL     1     -33.301  76.973 -27.793  1.00  0.00     0.047 A 
BRANCH  15  18
ATOM     18  O   UNL     1     -31.145  75.881 -28.029  1.00  0.00    -0.508 OA
ATOM     19  H   UNL     1     -30.461  76.394 -27.486  1.00  0.00     0.293 HD
ENDBRANCH  15  18
ENDBRANCH   1  12
BRANCH  11  20
ATOM     20  C   UNL     1     -40.894  76.212 -23.752  1.00  0.00     0.188 C 
ATOM     21  C   UNL     1     -42.426  76.302 -23.542  1.00  0.00     0.179 C 
ATOM     22  O   UNL     1     -40.278  75.391 -22.768  1.00  0.00    -0.362 OA
ATOM     23  C   UNL     1     -42.739  76.813 -22.128  1.00  0.00     0.177 C 
ATOM     24  C   UNL     1     -40.494  75.847 -21.436  1.00  0.00     0.176 C 
ATOM     25  C   UNL     1     -41.995  75.955 -21.087  1.00  0.00     0.177 C 
BRANCH  21  26
ATOM     26  O   UNL     1     -43.025  77.125 -24.512  1.00  0.00    -0.387 OA
ATOM     27  H   UNL     1     -42.596  78.018 -24.458  1.00  0.00     0.211 HD
ENDBRANCH  21  26
BRANCH  23  28
ATOM     28  O   UNL     1     -44.125  76.762 -21.908  1.00  0.00    -0.387 OA
ATOM     29  H   UNL     1     -44.372  77.603 -21.441  1.00  0.00     0.211 HD
ENDBRANCH  23  28
BRANCH  24  30
ATOM     30  C   UNL     1     -39.693  77.124 -21.100  1.00  0.00     0.191 C 
BRANCH  30  31
ATOM     31  O   UNL     1     -39.056  76.990 -19.859  1.00  0.00    -0.394 OA
ATOM     32  H   UNL     1     -39.642  77.430 -19.188  1.00  0.00     0.210 HD
ENDBRANCH  30  31
ENDBRANCH  24  30
BRANCH  25  33
ATOM     33  O   UNL     1     -42.544  74.660 -21.048  1.00  0.00    -0.388 OA
ATOM     34  H   UNL     1     -43.473  74.746 -20.712  1.00  0.00     0.211 HD
ENDBRANCH  25  33
ENDBRANCH  11  20
BRANCH  10  35
ATOM     35  O   UNL     1     -42.940  74.927 -25.545  1.00  0.00    -0.507 OA
ATOM     36  H   UNL     1     -43.711  75.476 -25.896  1.00  0.00     0.293 HD
ENDBRANCH  10  35
TORSDOF 9
ENDMDL
