MODEL 1
REMARK VINA RESULT:    -4.128      0.000      0.000
REMARK INTER + INTRA:          -5.492
REMARK INTER:                  -5.335
REMARK INTRA:                  -0.157
REMARK UNBOUND:                -0.157
REMARK SMILES CCCCCCC(=O)[O-]
REMARK SMILES IDX 5 1 6 2 7 3 8 4 9 5 4 6 3 7 2 8 1 9
REMARK H PARENT
REMARK Flexibility Score: inf
ROOT
ATOM      1  C   UNL     1      22.530 -22.698  33.256  1.00  0.00     0.006 C 
ENDROOT
BRANCH   1   2
ATOM      2  C   UNL     1      24.017 -22.565  33.626  1.00  0.00     0.053 C 
BRANCH   2   3
ATOM      3  C   UNL     1      24.910 -23.196  32.601  1.00  0.00     0.041 C 
ATOM      4  O   UNL     1      25.644 -24.170  32.914  1.00  0.00    -0.550 OA
ATOM      5  O   UNL     1      24.954 -22.686  31.309  1.00  0.00    -0.550 OA
ENDBRANCH   2   3
ENDBRANCH   1   2
BRANCH   1   6
ATOM      6  C   UNL     1      21.852 -21.369  32.872  1.00  0.00     0.000 C 
BRANCH   6   7
ATOM      7  C   UNL     1      20.335 -21.386  33.111  1.00  0.00    -0.000 C 
BRANCH   7   8
ATOM      8  C   UNL     1      19.619 -20.434  32.145  1.00  0.00    -0.003 C 
ATOM      9  C   UNL     1      20.584 -19.877  31.103  1.00  0.00     0.004 C 
ENDBRANCH   7   8
ENDBRANCH   6   7
ENDBRANCH   1   6
TORSDOF 5
ENDMDL
MODEL 2
REMARK VINA RESULT:    -3.964     10.128     11.652
REMARK INTER + INTRA:          -5.280
REMARK INTER:                  -4.851
REMARK INTRA:                  -0.429
REMARK UNBOUND:                -0.157
REMARK SMILES CCCCCCC(=O)[O-]
REMARK SMILES IDX 5 1 6 2 7 3 8 4 9 5 4 6 3 7 2 8 1 9
REMARK H PARENT
REMARK Flexibility Score: inf
ROOT
ATOM      1  C   UNL     1      15.884 -12.990  36.323  1.00  0.00     0.006 C 
ENDROOT
BRANCH   1   2
ATOM      2  C   UNL     1      16.660 -14.125  35.634  1.00  0.00     0.053 C 
BRANCH   2   3
ATOM      3  C   UNL     1      17.401 -14.977  36.618  1.00  0.00     0.041 C 
ATOM      4  O   UNL     1      18.382 -14.507  37.252  1.00  0.00    -0.550 OA
ATOM      5  O   UNL     1      17.027 -16.302  36.810  1.00  0.00    -0.550 OA
ENDBRANCH   2   3
ENDBRANCH   1   2
BRANCH   1   6
ATOM      6  C   UNL     1      14.906 -13.464  37.415  1.00  0.00     0.000 C 
BRANCH   6   7
ATOM      7  C   UNL     1      15.194 -12.834  38.786  1.00  0.00    -0.000 C 
BRANCH   7   8
ATOM      8  C   UNL     1      15.863 -13.846  39.724  1.00  0.00    -0.003 C 
ATOM      9  C   UNL     1      15.079 -15.153  39.775  1.00  0.00     0.004 C 
ENDBRANCH   7   8
ENDBRANCH   6   7
ENDBRANCH   1   6
TORSDOF 5
ENDMDL
MODEL 3
REMARK VINA RESULT:    -3.921     10.431     11.811
REMARK INTER + INTRA:          -5.224
REMARK INTER:                  -4.951
REMARK INTRA:                  -0.273
REMARK UNBOUND:                -0.157
REMARK SMILES CCCCCCC(=O)[O-]
REMARK SMILES IDX 5 1 6 2 7 3 8 4 9 5 4 6 3 7 2 8 1 9
REMARK H PARENT
REMARK Flexibility Score: inf
ROOT
ATOM      1  C   UNL     1      16.444 -14.749  37.787  1.00  0.00     0.006 C 
ENDROOT
BRANCH   1   2
ATOM      2  C   UNL     1      17.726 -14.329  37.047  1.00  0.00     0.053 C 
BRANCH   2   3
ATOM      3  C   UNL     1      17.453 -13.943  35.626  1.00  0.00     0.041 C 
ATOM      4  O   UNL     1      16.354 -14.239  35.088  1.00  0.00    -0.550 OA
ATOM      5  O   UNL     1      18.427 -13.284  34.886  1.00  0.00    -0.550 OA
ENDBRANCH   2   3
ENDBRANCH   1   2
BRANCH   1   6
ATOM      6  C   UNL     1      16.131 -13.907  39.039  1.00  0.00     0.000 C 
BRANCH   6   7
ATOM      7  C   UNL     1      15.097 -12.804  38.770  1.00  0.00    -0.000 C 
BRANCH   7   8
ATOM      8  C   UNL     1      14.124 -13.224  37.662  1.00  0.00    -0.003 C 
ATOM      9  C   UNL     1      12.693 -12.817  38.001  1.00  0.00     0.004 C 
ENDBRANCH   7   8
ENDBRANCH   6   7
ENDBRANCH   1   6
TORSDOF 5
ENDMDL
MODEL 4
REMARK VINA RESULT:    -3.881      1.847      2.911
REMARK INTER + INTRA:          -5.173
REMARK INTER:                  -4.836
REMARK INTRA:                  -0.337
REMARK UNBOUND:                -0.157
REMARK SMILES CCCCCCC(=O)[O-]
REMARK SMILES IDX 5 1 6 2 7 3 8 4 9 5 4 6 3 7 2 8 1 9
REMARK H PARENT
REMARK Flexibility Score: inf
ROOT
ATOM      1  C   UNL     1      21.468 -21.381  33.250  1.00  0.00     0.006 C 
ENDROOT
BRANCH   1   2
ATOM      2  C   UNL     1      22.631 -21.344  32.245  1.00  0.00     0.053 C 
BRANCH   2   3
ATOM      3  C   UNL     1      23.802 -22.154  32.709  1.00  0.00     0.041 C 
ATOM      4  O   UNL     1      23.895 -22.499  33.916  1.00  0.00    -0.550 OA
ATOM      5  O   UNL     1      24.807 -22.500  31.814  1.00  0.00    -0.550 OA
ENDBRANCH   2   3
ENDBRANCH   1   2
BRANCH   1   6
ATOM      6  C   UNL     1      20.203 -22.087  32.729  1.00  0.00     0.000 C 
BRANCH   6   7
ATOM      7  C   UNL     1      19.800 -23.295  33.588  1.00  0.00    -0.000 C 
BRANCH   7   8
ATOM      8  C   UNL     1      20.135 -24.610  32.875  1.00  0.00    -0.003 C 
ATOM      9  C   UNL     1      21.523 -25.111  33.265  1.00  0.00     0.004 C 
ENDBRANCH   7   8
ENDBRANCH   6   7
ENDBRANCH   1   6
TORSDOF 5
ENDMDL
MODEL 5
REMARK VINA RESULT:    -3.869      9.866     11.358
REMARK INTER + INTRA:          -5.156
REMARK INTER:                  -4.728
REMARK INTRA:                  -0.429
REMARK UNBOUND:                -0.157
REMARK SMILES CCCCCCC(=O)[O-]
REMARK SMILES IDX 5 1 6 2 7 3 8 4 9 5 4 6 3 7 2 8 1 9
REMARK H PARENT
REMARK Flexibility Score: inf
ROOT
ATOM      1  C   UNL     1      17.097 -13.920  36.856  1.00  0.00     0.006 C 
ENDROOT
BRANCH   1   2
ATOM      2  C   UNL     1      16.911 -15.008  35.785  1.00  0.00     0.053 C 
BRANCH   2   3
ATOM      3  C   UNL     1      16.264 -16.239  36.341  1.00  0.00     0.041 C 
ATOM      4  O   UNL     1      15.012 -16.367  36.308  1.00  0.00    -0.550 OA
ATOM      5  O   UNL     1      17.043 -17.231  36.925  1.00  0.00    -0.550 OA
ENDBRANCH   2   3
ENDBRANCH   1   2
BRANCH   1   6
ATOM      6  C   UNL     1      15.914 -12.942  36.977  1.00  0.00     0.000 C 
BRANCH   6   7
ATOM      7  C   UNL     1      15.137 -13.108  38.291  1.00  0.00    -0.000 C 
BRANCH   7   8
ATOM      8  C   UNL     1      15.951 -13.914  39.310  1.00  0.00    -0.003 C 
ATOM      9  C   UNL     1      15.130 -15.063  39.887  1.00  0.00     0.004 C 
ENDBRANCH   7   8
ENDBRANCH   6   7
ENDBRANCH   1   6
TORSDOF 5
ENDMDL
MODEL 6
REMARK VINA RESULT:    -3.844      9.004      9.936
REMARK INTER + INTRA:          -5.124
REMARK INTER:                  -4.849
REMARK INTRA:                  -0.276
REMARK UNBOUND:                -0.157
REMARK SMILES CCCCCCC(=O)[O-]
REMARK SMILES IDX 5 1 6 2 7 3 8 4 9 5 4 6 3 7 2 8 1 9
REMARK H PARENT
REMARK Flexibility Score: inf
ROOT
ATOM      1  C   UNL     1      15.906 -15.072  35.781  1.00  0.00     0.006 C 
ENDROOT
BRANCH   1   2
ATOM      2  C   UNL     1      16.758 -16.352  35.815  1.00  0.00     0.053 C 
BRANCH   2   3
ATOM      3  C   UNL     1      16.601 -17.099  37.103  1.00  0.00     0.041 C 
ATOM      4  O   UNL     1      17.516 -17.862  37.510  1.00  0.00    -0.550 OA
ATOM      5  O   UNL     1      15.428 -16.976  37.839  1.00  0.00    -0.550 OA
ENDBRANCH   2   3
ENDBRANCH   1   2
BRANCH   1   6
ATOM      6  C   UNL     1      16.714 -13.770  35.936  1.00  0.00     0.000 C 
BRANCH   6   7
ATOM      7  C   UNL     1      18.224 -13.982  35.757  1.00  0.00    -0.000 C 
BRANCH   7   8
ATOM      8  C   UNL     1      18.777 -13.075  34.651  1.00  0.00    -0.003 C 
ATOM      9  C   UNL     1      19.039 -13.863  33.370  1.00  0.00     0.004 C 
ENDBRANCH   7   8
ENDBRANCH   6   7
ENDBRANCH   1   6
TORSDOF 5
ENDMDL
MODEL 7
REMARK VINA RESULT:    -3.797     10.233     11.277
REMARK INTER + INTRA:          -5.065
REMARK INTER:                  -4.656
REMARK INTRA:                  -0.409
REMARK UNBOUND:                -0.157
REMARK SMILES CCCCCCC(=O)[O-]
REMARK SMILES IDX 5 1 6 2 7 3 8 4 9 5 4 6 3 7 2 8 1 9
REMARK H PARENT
REMARK Flexibility Score: inf
ROOT
ATOM      1  C   UNL     1      15.824 -15.416  36.245  1.00  0.00     0.006 C 
ENDROOT
BRANCH   1   2
ATOM      2  C   UNL     1      16.359 -14.198  35.475  1.00  0.00     0.053 C 
BRANCH   2   3
ATOM      3  C   UNL     1      17.809 -13.947  35.757  1.00  0.00     0.041 C 
ATOM      4  O   UNL     1      18.306 -14.280  36.865  1.00  0.00    -0.550 OA
ATOM      5  O   UNL     1      18.603 -13.316  34.808  1.00  0.00    -0.550 OA
ENDBRANCH   2   3
ENDBRANCH   1   2
BRANCH   1   6
ATOM      6  C   UNL     1      14.840 -15.068  37.377  1.00  0.00     0.000 C 
BRANCH   6   7
ATOM      7  C   UNL     1      15.459 -15.233  38.773  1.00  0.00    -0.000 C 
BRANCH   7   8
ATOM      8  C   UNL     1      15.812 -13.870  39.380  1.00  0.00    -0.003 C 
ATOM      9  C   UNL     1      15.047 -12.744  38.691  1.00  0.00     0.004 C 
ENDBRANCH   7   8
ENDBRANCH   6   7
ENDBRANCH   1   6
TORSDOF 5
ENDMDL
MODEL 8
REMARK VINA RESULT:    -3.792      2.892      4.823
REMARK INTER + INTRA:          -5.057
REMARK INTER:                  -4.804
REMARK INTRA:                  -0.253
REMARK UNBOUND:                -0.157
REMARK SMILES CCCCCCC(=O)[O-]
REMARK SMILES IDX 5 1 6 2 7 3 8 4 9 5 4 6 3 7 2 8 1 9
REMARK H PARENT
REMARK Flexibility Score: inf
ROOT
ATOM      1  C   UNL     1      22.614 -22.129  33.276  1.00  0.00     0.006 C 
ENDROOT
BRANCH   1   2
ATOM      2  C   UNL     1      22.362 -21.032  32.229  1.00  0.00     0.053 C 
BRANCH   2   3
ATOM      3  C   UNL     1      20.910 -20.678  32.124  1.00  0.00     0.041 C 
ATOM      4  O   UNL     1      20.480 -20.058  31.116  1.00  0.00    -0.550 OA
ATOM      5  O   UNL     1      20.038 -21.004  33.155  1.00  0.00    -0.550 OA
ENDBRANCH   2   3
ENDBRANCH   1   2
BRANCH   1   6
ATOM      6  C   UNL     1      24.102 -22.443  33.518  1.00  0.00     0.000 C 
BRANCH   6   7
ATOM      7  C   UNL     1      24.587 -23.668  32.728  1.00  0.00    -0.000 C 
BRANCH   7   8
ATOM      8  C   UNL     1      25.516 -23.247  31.582  1.00  0.00    -0.003 C 
ATOM      9  C   UNL     1      24.764 -23.192  30.255  1.00  0.00     0.004 C 
ENDBRANCH   7   8
ENDBRANCH   6   7
ENDBRANCH   1   6
TORSDOF 5
ENDMDL
MODEL 9
REMARK VINA RESULT:    -3.665     10.661     12.232
REMARK INTER + INTRA:          -4.894
REMARK INTER:                  -4.540
REMARK INTRA:                  -0.354
REMARK UNBOUND:                -0.157
REMARK SMILES CCCCCCC(=O)[O-]
REMARK SMILES IDX 5 1 6 2 7 3 8 4 9 5 4 6 3 7 2 8 1 9
REMARK H PARENT
REMARK Flexibility Score: inf
ROOT
ATOM      1  C   UNL     1      15.752 -12.855  37.192  1.00  0.00     0.006 C 
ENDROOT
BRANCH   1   2
ATOM      2  C   UNL     1      14.560 -13.533  37.888  1.00  0.00     0.053 C 
BRANCH   2   3
ATOM      3  C   UNL     1      14.968 -14.232  39.149  1.00  0.00     0.041 C 
ATOM      4  O   UNL     1      14.249 -15.148  39.627  1.00  0.00    -0.550 OA
ATOM      5  O   UNL     1      16.128 -13.849  39.812  1.00  0.00    -0.550 OA
ENDBRANCH   2   3
ENDBRANCH   1   2
BRANCH   1   6
ATOM      6  C   UNL     1      16.180 -13.525  35.873  1.00  0.00     0.000 C 
BRANCH   6   7
ATOM      7  C   UNL     1      17.678 -13.861  35.836  1.00  0.00    -0.000 C 
BRANCH   7   8
ATOM      8  C   UNL     1      18.074 -14.735  37.032  1.00  0.00    -0.003 C 
ATOM      9  C   UNL     1      17.337 -16.071  37.006  1.00  0.00     0.004 C 
ENDBRANCH   7   8
ENDBRANCH   6   7
ENDBRANCH   1   6
TORSDOF 5
ENDMDL
