MODEL 1
REMARK VINA RESULT:    -3.754      0.000      0.000
REMARK INTER + INTRA:          -9.366
REMARK INTER:                  -7.045
REMARK INTRA:                  -2.321
REMARK UNBOUND:                -2.321
REMARK SMILES O=C([O-])CCCCCCCCCCCCCCC(=O)[O-]
REMARK SMILES IDX 10 1 9 2 8 3 7 4 6 5 5 6 4 7 2 8 1 9 3 10 11 11 12 12 13 13
REMARK SMILES IDX 14 14 15 15 16 16 17 17 18 18 19 19 20 20
REMARK H PARENT
REMARK Flexibility Score: inf
ROOT
ATOM      1  C   UNL     1     189.749 185.397 167.350  1.00  0.00     0.000 C 
ENDROOT
BRANCH   1   2
ATOM      2  C   UNL     1     188.736 185.473 166.199  1.00  0.00     0.000 C 
BRANCH   2   3
ATOM      3  C   UNL     1     187.285 185.285 166.676  1.00  0.00     0.000 C 
BRANCH   3   4
ATOM      4  C   UNL     1     187.196 184.945 168.172  1.00  0.00     0.000 C 
BRANCH   4   5
ATOM      5  C   UNL     1     185.875 185.404 168.806  1.00  0.00     0.000 C 
BRANCH   5   6
ATOM      6  C   UNL     1     185.530 186.839 168.379  1.00  0.00     0.006 C 
BRANCH   6   7
ATOM      7  C   UNL     1     184.783 187.608 169.477  1.00  0.00     0.053 C 
BRANCH   7   8
ATOM      8  C   UNL     1     183.455 188.109 168.998  1.00  0.00     0.041 C 
ATOM      9  O   UNL     1     182.711 188.769 169.771  1.00  0.00    -0.550 OA
ATOM     10  O   UNL     1     183.025 187.820 167.709  1.00  0.00    -0.550 OA
ENDBRANCH   7   8
ENDBRANCH   6   7
ENDBRANCH   5   6
ENDBRANCH   4   5
ENDBRANCH   3   4
ENDBRANCH   2   3
ENDBRANCH   1   2
BRANCH   1  11
ATOM     11  C   UNL     1     190.459 186.738 167.603  1.00  0.00     0.000 C 
BRANCH  11  12
ATOM     12  C   UNL     1     189.574 187.947 167.258  1.00  0.00     0.000 C 
BRANCH  12  13
ATOM     13  C   UNL     1     188.729 188.420 168.453  1.00  0.00     0.000 C 
BRANCH  13  14
ATOM     14  C   UNL     1     189.373 188.067 169.804  1.00  0.00     0.000 C 
BRANCH  14  15
ATOM     15  C   UNL     1     188.365 187.470 170.800  1.00  0.00     0.000 C 
BRANCH  15  16
ATOM     16  C   UNL     1     188.764 186.068 171.296  1.00  0.00     0.006 C 
BRANCH  16  17
ATOM     17  C   UNL     1     188.173 185.700 172.668  1.00  0.00     0.053 C 
BRANCH  17  18
ATOM     18  C   UNL     1     189.110 184.877 173.500  1.00  0.00     0.041 C 
ATOM     19  O   UNL     1     190.218 185.350 173.866  1.00  0.00    -0.550 OA
ATOM     20  O   UNL     1     188.771 183.575 173.846  1.00  0.00    -0.550 OA
ENDBRANCH  17  18
ENDBRANCH  16  17
ENDBRANCH  15  16
ENDBRANCH  14  15
ENDBRANCH  13  14
ENDBRANCH  12  13
ENDBRANCH  11  12
ENDBRANCH   1  11
TORSDOF 15
ENDMDL
MODEL 2
REMARK VINA RESULT:    -3.665      1.191      5.975
REMARK INTER + INTRA:          -9.199
REMARK INTER:                  -7.323
REMARK INTRA:                  -1.876
REMARK UNBOUND:                -2.321
REMARK SMILES O=C([O-])CCCCCCCCCCCCCCC(=O)[O-]
REMARK SMILES IDX 10 1 9 2 8 3 7 4 6 5 5 6 4 7 2 8 1 9 3 10 11 11 12 12 13 13
REMARK SMILES IDX 14 14 15 15 16 16 17 17 18 18 19 19 20 20
REMARK H PARENT
REMARK Flexibility Score: inf
ROOT
ATOM      1  C   UNL     1     189.498 188.406 168.543  1.00  0.00     0.000 C 
ENDROOT
BRANCH   1   2
ATOM      2  C   UNL     1     188.216 189.110 169.010  1.00  0.00     0.000 C 
BRANCH   2   3
ATOM      3  C   UNL     1     187.747 188.626 170.394  1.00  0.00     0.000 C 
BRANCH   3   4
ATOM      4  C   UNL     1     188.726 187.627 171.032  1.00  0.00     0.000 C 
BRANCH   4   5
ATOM      5  C   UNL     1     188.034 186.340 171.503  1.00  0.00     0.000 C 
BRANCH   5   6
ATOM      6  C   UNL     1     189.053 185.350 172.087  1.00  0.00     0.006 C 
BRANCH   6   7
ATOM      7  C   UNL     1     189.117 185.418 173.619  1.00  0.00     0.053 C 
BRANCH   7   8
ATOM      8  C   UNL     1     190.500 185.726 174.104  1.00  0.00     0.041 C 
ATOM      9  O   UNL     1     190.968 186.889 173.986  1.00  0.00    -0.550 OA
ATOM     10  O   UNL     1     191.284 184.721 174.657  1.00  0.00    -0.550 OA
ENDBRANCH   7   8
ENDBRANCH   6   7
ENDBRANCH   5   6
ENDBRANCH   4   5
ENDBRANCH   3   4
ENDBRANCH   2   3
ENDBRANCH   1   2
BRANCH   1  11
ATOM     11  C   UNL     1     189.697 188.490 167.020  1.00  0.00     0.000 C 
BRANCH  11  12
ATOM     12  C   UNL     1     189.715 187.107 166.351  1.00  0.00     0.000 C 
BRANCH  12  13
ATOM     13  C   UNL     1     188.324 186.450 166.317  1.00  0.00     0.000 C 
BRANCH  13  14
ATOM     14  C   UNL     1     188.180 185.326 167.355  1.00  0.00     0.000 C 
BRANCH  14  15
ATOM     15  C   UNL     1     186.715 184.919 167.584  1.00  0.00     0.000 C 
BRANCH  15  16
ATOM     16  C   UNL     1     186.037 185.715 168.715  1.00  0.00     0.006 C 
BRANCH  16  17
ATOM     17  C   UNL     1     185.271 186.958 168.230  1.00  0.00     0.053 C 
BRANCH  17  18
ATOM     18  C   UNL     1     184.355 187.519 169.276  1.00  0.00     0.041 C 
ATOM     19  O   UNL     1     183.461 188.347 168.960  1.00  0.00    -0.550 OA
ATOM     20  O   UNL     1     184.510 187.149 170.606  1.00  0.00    -0.550 OA
ENDBRANCH  17  18
ENDBRANCH  16  17
ENDBRANCH  15  16
ENDBRANCH  14  15
ENDBRANCH  13  14
ENDBRANCH  12  13
ENDBRANCH  11  12
ENDBRANCH   1  11
TORSDOF 15
ENDMDL
MODEL 3
REMARK VINA RESULT:    -3.660      1.519      2.153
REMARK INTER + INTRA:          -9.190
REMARK INTER:                  -6.853
REMARK INTRA:                  -2.337
REMARK UNBOUND:                -2.321
REMARK SMILES O=C([O-])CCCCCCCCCCCCCCC(=O)[O-]
REMARK SMILES IDX 10 1 9 2 8 3 7 4 6 5 5 6 4 7 2 8 1 9 3 10 11 11 12 12 13 13
REMARK SMILES IDX 14 14 15 15 16 16 17 17 18 18 19 19 20 20
REMARK H PARENT
REMARK Flexibility Score: inf
ROOT
ATOM      1  C   UNL     1     189.449 186.548 167.358  1.00  0.00     0.000 C 
ENDROOT
BRANCH   1   2
ATOM      2  C   UNL     1     187.973 186.384 166.966  1.00  0.00     0.000 C 
BRANCH   2   3
ATOM      3  C   UNL     1     187.347 185.105 167.548  1.00  0.00     0.000 C 
BRANCH   3   4
ATOM      4  C   UNL     1     186.249 185.403 168.581  1.00  0.00     0.000 C 
BRANCH   4   5
ATOM      5  C   UNL     1     185.517 186.723 168.303  1.00  0.00     0.000 C 
BRANCH   5   6
ATOM      6  C   UNL     1     184.849 187.261 169.577  1.00  0.00     0.006 C 
BRANCH   6   7
ATOM      7  C   UNL     1     183.557 188.033 169.276  1.00  0.00     0.053 C 
BRANCH   7   8
ATOM      8  C   UNL     1     182.548 187.876 170.371  1.00  0.00     0.041 C 
ATOM      9  O   UNL     1     181.624 188.721 170.507  1.00  0.00    -0.550 OA
ATOM     10  O   UNL     1     182.646 186.814 171.261  1.00  0.00    -0.550 OA
ENDBRANCH   7   8
ENDBRANCH   6   7
ENDBRANCH   5   6
ENDBRANCH   4   5
ENDBRANCH   3   4
ENDBRANCH   2   3
ENDBRANCH   1   2
BRANCH   1  11
ATOM     11  C   UNL     1     189.790 187.986 167.785  1.00  0.00     0.000 C 
BRANCH  11  12
ATOM     12  C   UNL     1     188.648 188.656 168.565  1.00  0.00     0.000 C 
BRANCH  12  13
ATOM     13  C   UNL     1     188.921 188.709 170.079  1.00  0.00     0.000 C 
BRANCH  13  14
ATOM     14  C   UNL     1     188.162 187.617 170.850  1.00  0.00     0.000 C 
BRANCH  14  15
ATOM     15  C   UNL     1     189.106 186.634 171.563  1.00  0.00     0.000 C 
BRANCH  15  16
ATOM     16  C   UNL     1     189.319 185.326 170.779  1.00  0.00     0.006 C 
BRANCH  16  17
ATOM     17  C   UNL     1     190.798 184.983 170.528  1.00  0.00     0.053 C 
BRANCH  17  18
ATOM     18  C   UNL     1     191.619 185.007 171.782  1.00  0.00     0.041 C 
ATOM     19  O   UNL     1     191.431 184.147 172.682  1.00  0.00    -0.550 OA
ATOM     20  O   UNL     1     192.573 186.000 171.969  1.00  0.00    -0.550 OA
ENDBRANCH  17  18
ENDBRANCH  16  17
ENDBRANCH  15  16
ENDBRANCH  14  15
ENDBRANCH  13  14
ENDBRANCH  12  13
ENDBRANCH  11  12
ENDBRANCH   1  11
TORSDOF 15
ENDMDL
MODEL 4
REMARK VINA RESULT:    -3.634      2.586      6.194
REMARK INTER + INTRA:          -9.141
REMARK INTER:                  -6.647
REMARK INTRA:                  -2.494
REMARK UNBOUND:                -2.321
REMARK SMILES O=C([O-])CCCCCCCCCCCCCCC(=O)[O-]
REMARK SMILES IDX 10 1 9 2 8 3 7 4 6 5 5 6 4 7 2 8 1 9 3 10 11 11 12 12 13 13
REMARK SMILES IDX 14 14 15 15 16 16 17 17 18 18 19 19 20 20
REMARK H PARENT
REMARK Flexibility Score: inf
ROOT
ATOM      1  C   UNL     1     190.296 188.743 170.074  1.00  0.00     0.000 C 
ENDROOT
BRANCH   1   2
ATOM      2  C   UNL     1     190.783 187.393 170.623  1.00  0.00     0.000 C 
BRANCH   2   3
ATOM      3  C   UNL     1     190.092 186.197 169.946  1.00  0.00     0.000 C 
BRANCH   3   4
ATOM      4  C   UNL     1     189.320 185.318 170.943  1.00  0.00     0.000 C 
BRANCH   4   5
ATOM      5  C   UNL     1     188.830 186.104 172.168  1.00  0.00     0.000 C 
BRANCH   5   6
ATOM      6  C   UNL     1     188.788 185.207 173.415  1.00  0.00     0.006 C 
BRANCH   6   7
ATOM      7  C   UNL     1     190.165 184.628 173.763  1.00  0.00     0.053 C 
BRANCH   7   8
ATOM      8  C   UNL     1     191.137 185.700 174.151  1.00  0.00     0.041 C 
ATOM      9  O   UNL     1     190.847 186.517 175.064  1.00  0.00    -0.550 OA
ATOM     10  O   UNL     1     192.348 185.817 173.481  1.00  0.00    -0.550 OA
ENDBRANCH   7   8
ENDBRANCH   6   7
ENDBRANCH   5   6
ENDBRANCH   4   5
ENDBRANCH   3   4
ENDBRANCH   2   3
ENDBRANCH   1   2
BRANCH   1  11
ATOM     11  C   UNL     1     189.330 188.583 168.888  1.00  0.00     0.000 C 
BRANCH  11  12
ATOM     12  C   UNL     1     188.004 189.329 169.103  1.00  0.00     0.000 C 
BRANCH  12  13
ATOM     13  C   UNL     1     187.134 188.683 170.196  1.00  0.00     0.000 C 
BRANCH  13  14
ATOM     14  C   UNL     1     185.916 187.946 169.617  1.00  0.00     0.000 C 
BRANCH  14  15
ATOM     15  C   UNL     1     185.923 186.444 169.947  1.00  0.00     0.000 C 
BRANCH  15  16
ATOM     16  C   UNL     1     186.246 185.560 168.728  1.00  0.00     0.006 C 
BRANCH  16  17
ATOM     17  C   UNL     1     186.427 186.347 167.418  1.00  0.00     0.053 C 
BRANCH  17  18
ATOM     18  C   UNL     1     187.735 186.057 166.745  1.00  0.00     0.041 C 
ATOM     19  O   UNL     1     188.405 185.041 167.067  1.00  0.00    -0.550 OA
ATOM     20  O   UNL     1     188.229 186.929 165.782  1.00  0.00    -0.550 OA
ENDBRANCH  17  18
ENDBRANCH  16  17
ENDBRANCH  15  16
ENDBRANCH  14  15
ENDBRANCH  13  14
ENDBRANCH  12  13
ENDBRANCH  11  12
ENDBRANCH   1  11
TORSDOF 15
ENDMDL
MODEL 5
REMARK VINA RESULT:    -3.628      1.680      7.017
REMARK INTER + INTRA:          -9.129
REMARK INTER:                  -7.479
REMARK INTRA:                  -1.650
REMARK UNBOUND:                -2.321
REMARK SMILES O=C([O-])CCCCCCCCCCCCCCC(=O)[O-]
REMARK SMILES IDX 10 1 9 2 8 3 7 4 6 5 5 6 4 7 2 8 1 9 3 10 11 11 12 12 13 13
REMARK SMILES IDX 14 14 15 15 16 16 17 17 18 18 19 19 20 20
REMARK H PARENT
REMARK Flexibility Score: inf
ROOT
ATOM      1  C   UNL     1     188.327 188.610 170.161  1.00  0.00     0.000 C 
ENDROOT
BRANCH   1   2
ATOM      2  C   UNL     1     189.180 187.561 170.890  1.00  0.00     0.000 C 
BRANCH   2   3
ATOM      3  C   UNL     1     188.325 186.514 171.625  1.00  0.00     0.000 C 
BRANCH   3   4
ATOM      4  C   UNL     1     189.164 185.352 172.181  1.00  0.00     0.000 C 
BRANCH   4   5
ATOM      5  C   UNL     1     189.219 185.343 173.715  1.00  0.00     0.000 C 
BRANCH   5   6
ATOM      6  C   UNL     1     190.478 186.061 174.225  1.00  0.00     0.006 C 
BRANCH   6   7
ATOM      7  C   UNL     1     191.751 185.235 173.995  1.00  0.00     0.053 C 
BRANCH   7   8
ATOM      8  C   UNL     1     191.896 184.144 175.010  1.00  0.00     0.041 C 
ATOM      9  O   UNL     1     191.461 182.988 174.763  1.00  0.00    -0.550 OA
ATOM     10  O   UNL     1     192.482 184.411 176.241  1.00  0.00    -0.550 OA
ENDBRANCH   7   8
ENDBRANCH   6   7
ENDBRANCH   5   6
ENDBRANCH   4   5
ENDBRANCH   3   4
ENDBRANCH   2   3
ENDBRANCH   1   2
BRANCH   1  11
ATOM     11  C   UNL     1     188.685 188.730 168.670  1.00  0.00     0.000 C 
BRANCH  11  12
ATOM     12  C   UNL     1     189.130 187.391 168.061  1.00  0.00     0.000 C 
BRANCH  12  13
ATOM     13  C   UNL     1     187.966 186.625 167.407  1.00  0.00     0.000 C 
BRANCH  13  14
ATOM     14  C   UNL     1     187.551 185.385 168.215  1.00  0.00     0.000 C 
BRANCH  14  15
ATOM     15  C   UNL     1     186.041 185.348 168.505  1.00  0.00     0.000 C 
BRANCH  15  16
ATOM     16  C   UNL     1     185.574 186.495 169.421  1.00  0.00     0.006 C 
BRANCH  16  17
ATOM     17  C   UNL     1     184.540 187.430 168.770  1.00  0.00     0.053 C 
BRANCH  17  18
ATOM     18  C   UNL     1     183.461 187.852 169.723  1.00  0.00     0.041 C 
ATOM     19  O   UNL     1     183.281 187.224 170.799  1.00  0.00    -0.550 OA
ATOM     20  O   UNL     1     182.634 188.923 169.405  1.00  0.00    -0.550 OA
ENDBRANCH  17  18
ENDBRANCH  16  17
ENDBRANCH  15  16
ENDBRANCH  14  15
ENDBRANCH  13  14
ENDBRANCH  12  13
ENDBRANCH  11  12
ENDBRANCH   1  11
TORSDOF 15
ENDMDL
MODEL 6
REMARK VINA RESULT:    -3.622      9.062     12.659
REMARK INTER + INTRA:          -9.119
REMARK INTER:                  -7.216
REMARK INTRA:                  -1.903
REMARK UNBOUND:                -2.321
REMARK SMILES O=C([O-])CCCCCCCCCCCCCCC(=O)[O-]
REMARK SMILES IDX 10 1 9 2 8 3 7 4 6 5 5 6 4 7 2 8 1 9 3 10 11 11 12 12 13 13
REMARK SMILES IDX 14 14 15 15 16 16 17 17 18 18 19 19 20 20
REMARK H PARENT
REMARK Flexibility Score: inf
ROOT
ATOM      1  C   UNL     1     182.608 194.536 174.783  1.00  0.00     0.000 C 
ENDROOT
BRANCH   1   2
ATOM      2  C   UNL     1     183.075 195.990 174.614  1.00  0.00     0.000 C 
BRANCH   2   3
ATOM      3  C   UNL     1     181.937 197.003 174.832  1.00  0.00     0.000 C 
BRANCH   3   4
ATOM      4  C   UNL     1     181.487 197.080 176.299  1.00  0.00     0.000 C 
BRANCH   4   5
ATOM      5  C   UNL     1     179.962 197.006 176.456  1.00  0.00     0.000 C 
BRANCH   5   6
ATOM      6  C   UNL     1     179.485 195.548 176.521  1.00  0.00     0.006 C 
BRANCH   6   7
ATOM      7  C   UNL     1     179.095 195.125 177.943  1.00  0.00     0.053 C 
BRANCH   7   8
ATOM      8  C   UNL     1     180.178 194.330 178.604  1.00  0.00     0.041 C 
ATOM      9  O   UNL     1     181.174 193.942 177.939  1.00  0.00    -0.550 OA
ATOM     10  O   UNL     1     180.072 193.990 179.947  1.00  0.00    -0.550 OA
ENDBRANCH   7   8
ENDBRANCH   6   7
ENDBRANCH   5   6
ENDBRANCH   4   5
ENDBRANCH   3   4
ENDBRANCH   2   3
ENDBRANCH   1   2
BRANCH   1  11
ATOM     11  C   UNL     1     181.949 193.976 173.510  1.00  0.00     0.000 C 
BRANCH  11  12
ATOM     12  C   UNL     1     180.460 193.651 173.712  1.00  0.00     0.000 C 
BRANCH  12  13
ATOM     13  C   UNL     1     179.537 194.627 172.963  1.00  0.00     0.000 C 
BRANCH  13  14
ATOM     14  C   UNL     1     180.051 194.957 171.552  1.00  0.00     0.000 C 
BRANCH  14  15
ATOM     15  C   UNL     1     179.127 194.419 170.447  1.00  0.00     0.000 C 
BRANCH  15  16
ATOM     16  C   UNL     1     179.721 193.211 169.699  1.00  0.00     0.006 C 
BRANCH  16  17
ATOM     17  C   UNL     1     179.793 191.928 170.545  1.00  0.00     0.053 C 
BRANCH  17  18
ATOM     18  C   UNL     1     181.148 191.285 170.508  1.00  0.00     0.041 C 
ATOM     19  O   UNL     1     182.182 191.968 170.731  1.00  0.00    -0.550 OA
ATOM     20  O   UNL     1     181.269 189.937 170.197  1.00  0.00    -0.550 OA
ENDBRANCH  17  18
ENDBRANCH  16  17
ENDBRANCH  15  16
ENDBRANCH  14  15
ENDBRANCH  13  14
ENDBRANCH  12  13
ENDBRANCH  11  12
ENDBRANCH   1  11
TORSDOF 15
ENDMDL
MODEL 7
REMARK VINA RESULT:    -3.574      2.827      5.726
REMARK INTER + INTRA:          -9.028
REMARK INTER:                  -6.425
REMARK INTRA:                  -2.602
REMARK UNBOUND:                -2.321
REMARK SMILES O=C([O-])CCCCCCCCCCCCCCC(=O)[O-]
REMARK SMILES IDX 10 1 9 2 8 3 7 4 6 5 5 6 4 7 2 8 1 9 3 10 11 11 12 12 13 13
REMARK SMILES IDX 14 14 15 15 16 16 17 17 18 18 19 19 20 20
REMARK H PARENT
REMARK Flexibility Score: inf
ROOT
ATOM      1  C   UNL     1     186.263 185.509 168.223  1.00  0.00     0.000 C 
ENDROOT
BRANCH   1   2
ATOM      2  C   UNL     1     187.480 185.656 167.297  1.00  0.00     0.000 C 
BRANCH   2   3
ATOM      3  C   UNL     1     188.770 185.100 167.926  1.00  0.00     0.000 C 
BRANCH   3   4
ATOM      4  C   UNL     1     188.704 185.049 169.461  1.00  0.00     0.000 C 
BRANCH   4   5
ATOM      5  C   UNL     1     190.088 184.889 170.107  1.00  0.00     0.000 C 
BRANCH   5   6
ATOM      6  C   UNL     1     190.267 185.872 171.273  1.00  0.00     0.006 C 
BRANCH   6   7
ATOM      7  C   UNL     1     188.973 186.066 172.076  1.00  0.00     0.053 C 
BRANCH   7   8
ATOM      8  C   UNL     1     189.050 185.410 173.420  1.00  0.00     0.041 C 
ATOM      9  O   UNL     1     188.144 184.619 173.792  1.00  0.00    -0.550 OA
ATOM     10  O   UNL     1     190.107 185.699 174.276  1.00  0.00    -0.550 OA
ENDBRANCH   7   8
ENDBRANCH   6   7
ENDBRANCH   5   6
ENDBRANCH   4   5
ENDBRANCH   3   4
ENDBRANCH   2   3
ENDBRANCH   1   2
BRANCH   1  11
ATOM     11  C   UNL     1     185.448 186.809 168.338  1.00  0.00     0.000 C 
BRANCH  11  12
ATOM     12  C   UNL     1     185.152 187.192 169.797  1.00  0.00     0.000 C 
BRANCH  12  13
ATOM     13  C   UNL     1     186.371 187.808 170.505  1.00  0.00     0.000 C 
BRANCH  13  14
ATOM     14  C   UNL     1     187.055 188.894 169.658  1.00  0.00     0.000 C 
BRANCH  14  15
ATOM     15  C   UNL     1     188.589 188.808 169.717  1.00  0.00     0.000 C 
BRANCH  15  16
ATOM     16  C   UNL     1     189.243 188.731 168.325  1.00  0.00     0.006 C 
BRANCH  16  17
ATOM     17  C   UNL     1     190.704 188.248 168.348  1.00  0.00     0.053 C 
BRANCH  17  18
ATOM     18  C   UNL     1     191.317 188.191 166.980  1.00  0.00     0.041 C 
ATOM     19  O   UNL     1     190.669 187.715 166.012  1.00  0.00    -0.550 OA
ATOM     20  O   UNL     1     192.618 188.637 166.783  1.00  0.00    -0.550 OA
ENDBRANCH  17  18
ENDBRANCH  16  17
ENDBRANCH  15  16
ENDBRANCH  14  15
ENDBRANCH  13  14
ENDBRANCH  12  13
ENDBRANCH  11  12
ENDBRANCH   1  11
TORSDOF 15
ENDMDL
MODEL 8
REMARK VINA RESULT:    -3.561      9.050     12.024
REMARK INTER + INTRA:          -9.005
REMARK INTER:                  -7.082
REMARK INTRA:                  -1.923
REMARK UNBOUND:                -2.321
REMARK SMILES O=C([O-])CCCCCCCCCCCCCCC(=O)[O-]
REMARK SMILES IDX 10 1 9 2 8 3 7 4 6 5 5 6 4 7 2 8 1 9 3 10 11 11 12 12 13 13
REMARK SMILES IDX 14 14 15 15 16 16 17 17 18 18 19 19 20 20
REMARK H PARENT
REMARK Flexibility Score: inf
ROOT
ATOM      1  C   UNL     1     180.661 193.686 174.420  1.00  0.00     0.000 C 
ENDROOT
BRANCH   1   2
ATOM      2  C   UNL     1     179.389 193.955 173.601  1.00  0.00     0.000 C 
BRANCH   2   3
ATOM      3  C   UNL     1     179.344 195.385 173.035  1.00  0.00     0.000 C 
BRANCH   3   4
ATOM      4  C   UNL     1     179.226 195.410 171.503  1.00  0.00     0.000 C 
BRANCH   4   5
ATOM      5  C   UNL     1     179.125 194.005 170.894  1.00  0.00     0.000 C 
BRANCH   5   6
ATOM      6  C   UNL     1     180.399 193.650 170.114  1.00  0.00     0.006 C 
BRANCH   6   7
ATOM      7  C   UNL     1     180.188 192.465 169.163  1.00  0.00     0.053 C 
BRANCH   7   8
ATOM      8  C   UNL     1     181.162 191.358 169.430  1.00  0.00     0.041 C 
ATOM      9  O   UNL     1     181.885 191.386 170.461  1.00  0.00    -0.550 OA
ATOM     10  O   UNL     1     181.294 190.313 168.524  1.00  0.00    -0.550 OA
ENDBRANCH   7   8
ENDBRANCH   6   7
ENDBRANCH   5   6
ENDBRANCH   4   5
ENDBRANCH   3   4
ENDBRANCH   2   3
ENDBRANCH   1   2
BRANCH   1  11
ATOM     11  C   UNL     1     181.928 194.228 173.737  1.00  0.00     0.000 C 
BRANCH  11  12
ATOM     12  C   UNL     1     182.784 195.088 174.681  1.00  0.00     0.000 C 
BRANCH  12  13
ATOM     13  C   UNL     1     182.424 196.582 174.606  1.00  0.00     0.000 C 
BRANCH  13  14
ATOM     14  C   UNL     1     181.920 197.132 175.950  1.00  0.00     0.000 C 
BRANCH  14  15
ATOM     15  C   UNL     1     180.388 197.069 176.075  1.00  0.00     0.000 C 
BRANCH  15  16
ATOM     16  C   UNL     1     179.914 196.653 177.480  1.00  0.00     0.006 C 
BRANCH  16  17
ATOM     17  C   UNL     1     179.509 195.173 177.589  1.00  0.00     0.053 C 
BRANCH  17  18
ATOM     18  C   UNL     1     180.503 194.354 178.355  1.00  0.00     0.041 C 
ATOM     19  O   UNL     1     181.481 193.825 177.765  1.00  0.00    -0.550 OA
ATOM     20  O   UNL     1     180.332 194.151 179.719  1.00  0.00    -0.550 OA
ENDBRANCH  17  18
ENDBRANCH  16  17
ENDBRANCH  15  16
ENDBRANCH  14  15
ENDBRANCH  13  14
ENDBRANCH  12  13
ENDBRANCH  11  12
ENDBRANCH   1  11
TORSDOF 15
ENDMDL
MODEL 9
REMARK VINA RESULT:    -3.558      1.826      6.720
REMARK INTER + INTRA:          -8.998
REMARK INTER:                  -7.310
REMARK INTRA:                  -1.688
REMARK UNBOUND:                -2.321
REMARK SMILES O=C([O-])CCCCCCCCCCCCCCC(=O)[O-]
REMARK SMILES IDX 10 1 9 2 8 3 7 4 6 5 5 6 4 7 2 8 1 9 3 10 11 11 12 12 13 13
REMARK SMILES IDX 14 14 15 15 16 16 17 17 18 18 19 19 20 20
REMARK H PARENT
REMARK Flexibility Score: inf
ROOT
ATOM      1  C   UNL     1     188.283 188.655 169.124  1.00  0.00     0.000 C 
ENDROOT
BRANCH   1   2
ATOM      2  C   UNL     1     188.216 187.400 168.240  1.00  0.00     0.000 C 
BRANCH   2   3
ATOM      3  C   UNL     1     189.431 186.476 168.436  1.00  0.00     0.000 C 
BRANCH   3   4
ATOM      4  C   UNL     1     189.034 185.075 168.926  1.00  0.00     0.000 C 
BRANCH   4   5
ATOM      5  C   UNL     1     189.402 184.835 170.397  1.00  0.00     0.000 C 
BRANCH   5   6
ATOM      6  C   UNL     1     190.252 185.991 170.946  1.00  0.00     0.006 C 
BRANCH   6   7
ATOM      7  C   UNL     1     189.691 186.552 172.260  1.00  0.00     0.053 C 
BRANCH   7   8
ATOM      8  C   UNL     1     189.235 185.461 173.179  1.00  0.00     0.041 C 
ATOM      9  O   UNL     1     188.021 185.370 173.501  1.00  0.00    -0.550 OA
ATOM     10  O   UNL     1     190.156 184.564 173.707  1.00  0.00    -0.550 OA
ENDBRANCH   7   8
ENDBRANCH   6   7
ENDBRANCH   5   6
ENDBRANCH   4   5
ENDBRANCH   3   4
ENDBRANCH   2   3
ENDBRANCH   1   2
BRANCH   1  11
ATOM     11  C   UNL     1     187.112 188.739 170.119  1.00  0.00     0.000 C 
BRANCH  11  12
ATOM     12  C   UNL     1     186.592 187.355 170.536  1.00  0.00     0.000 C 
BRANCH  12  13
ATOM     13  C   UNL     1     185.071 187.216 170.353  1.00  0.00     0.000 C 
BRANCH  13  14
ATOM     14  C   UNL     1     184.616 187.577 168.929  1.00  0.00     0.000 C 
BRANCH  14  15
ATOM     15  C   UNL     1     183.171 188.102 168.888  1.00  0.00     0.000 C 
BRANCH  15  16
ATOM     16  C   UNL     1     182.458 188.016 170.250  1.00  0.00     0.006 C 
BRANCH  16  17
ATOM     17  C   UNL     1     181.189 188.881 170.345  1.00  0.00     0.053 C 
BRANCH  17  18
ATOM     18  C   UNL     1     181.378 190.253 169.771  1.00  0.00     0.041 C 
ATOM     19  O   UNL     1     181.914 191.161 170.459  1.00  0.00    -0.550 OA
ATOM     20  O   UNL     1     180.932 190.536 168.486  1.00  0.00    -0.550 OA
ENDBRANCH  17  18
ENDBRANCH  16  17
ENDBRANCH  15  16
ENDBRANCH  14  15
ENDBRANCH  13  14
ENDBRANCH  12  13
ENDBRANCH  11  12
ENDBRANCH   1  11
TORSDOF 15
ENDMDL
