MODEL 1
REMARK VINA RESULT:    -4.406      0.000      0.000
REMARK INTER + INTRA:          -5.015
REMARK INTER:                  -4.921
REMARK INTRA:                  -0.094
REMARK UNBOUND:                -0.094
REMARK SMILES CCc1ccc(O)cc1O
REMARK SMILES IDX 3 1 9 2 8 3 6 4 5 5 4 6 2 7 1 8 10 9 7 11
REMARK H PARENT 10 10 7 12
REMARK Flexibility Score: inf
ROOT
ATOM      1  C   UNL     1    -108.707 -14.754  54.041  1.00  0.00    -0.006 A 
ATOM      2  C   UNL     1    -108.310 -14.972  52.698  1.00  0.00     0.122 A 
ATOM      3  C   UNL     1    -107.292 -14.190  52.139  1.00  0.00     0.092 A 
ATOM      4  C   UNL     1    -106.673 -13.183  52.889  1.00  0.00     0.119 A 
ATOM      5  C   UNL     1    -107.074 -12.954  54.206  1.00  0.00     0.047 A 
ATOM      6  C   UNL     1    -108.086 -13.729  54.777  1.00  0.00     0.011 A 
ENDROOT
BRANCH   1   7
ATOM      7  C   UNL     1    -109.805 -15.555  54.697  1.00  0.00     0.036 C 
ATOM      8  C   UNL     1    -110.992 -14.665  55.056  1.00  0.00     0.009 C 
ENDBRANCH   1   7
BRANCH   2   9
ATOM      9  O   UNL     1    -108.904 -15.946  51.891  1.00  0.00    -0.508 OA
ATOM     10  H   UNL     1    -108.452 -16.814  51.638  1.00  0.00     0.293 HD
ENDBRANCH   2   9
BRANCH   4  11
ATOM     11  O   UNL     1    -105.660 -12.404  52.333  1.00  0.00    -0.508 OA
ATOM     12  H   UNL     1    -104.685 -12.560  52.561  1.00  0.00     0.293 HD
ENDBRANCH   4  11
TORSDOF 3
ENDMDL
MODEL 2
REMARK VINA RESULT:    -4.290      1.636      2.939
REMARK INTER + INTRA:          -4.886
REMARK INTER:                  -4.800
REMARK INTRA:                  -0.085
REMARK UNBOUND:                -0.094
REMARK SMILES CCc1ccc(O)cc1O
REMARK SMILES IDX 3 1 9 2 8 3 6 4 5 5 4 6 2 7 1 8 10 9 7 11
REMARK H PARENT 10 10 7 12
REMARK Flexibility Score: inf
ROOT
ATOM      1  C   UNL     1    -108.127 -15.368  52.313  1.00  0.00    -0.006 A 
ATOM      2  C   UNL     1    -108.757 -14.976  53.520  1.00  0.00     0.122 A 
ATOM      3  C   UNL     1    -108.263 -13.880  54.238  1.00  0.00     0.092 A 
ATOM      4  C   UNL     1    -107.141 -13.177  53.784  1.00  0.00     0.119 A 
ATOM      5  C   UNL     1    -106.507 -13.572  52.605  1.00  0.00     0.047 A 
ATOM      6  C   UNL     1    -106.991 -14.661  51.877  1.00  0.00     0.011 A 
ENDROOT
BRANCH   1   7
ATOM      7  C   UNL     1    -108.605 -16.546  51.500  1.00  0.00     0.036 C 
ATOM      8  C   UNL     1    -107.451 -17.186  50.733  1.00  0.00     0.009 C 
ENDBRANCH   1   7
BRANCH   2   9
ATOM      9  O   UNL     1    -109.867 -15.650  54.038  1.00  0.00    -0.508 OA
ATOM     10  H   UNL     1    -110.442 -15.288  54.785  1.00  0.00     0.293 HD
ENDBRANCH   2   9
BRANCH   4  11
ATOM     11  O   UNL     1    -106.647 -12.087  54.498  1.00  0.00    -0.508 OA
ATOM     12  H   UNL     1    -105.929 -11.484  54.115  1.00  0.00     0.293 HD
ENDBRANCH   4  11
TORSDOF 3
ENDMDL
MODEL 3
REMARK VINA RESULT:    -4.278      1.874      2.616
REMARK INTER + INTRA:          -4.872
REMARK INTER:                  -4.782
REMARK INTRA:                  -0.090
REMARK UNBOUND:                -0.094
REMARK SMILES CCc1ccc(O)cc1O
REMARK SMILES IDX 3 1 9 2 8 3 6 4 5 5 4 6 2 7 1 8 10 9 7 11
REMARK H PARENT 10 10 7 12
REMARK Flexibility Score: inf
ROOT
ATOM      1  C   UNL     1    -109.256 -15.553  53.375  1.00  0.00    -0.006 A 
ATOM      2  C   UNL     1    -109.180 -14.804  54.575  1.00  0.00     0.122 A 
ATOM      3  C   UNL     1    -108.237 -13.776  54.694  1.00  0.00     0.092 A 
ATOM      4  C   UNL     1    -107.356 -13.491  53.643  1.00  0.00     0.119 A 
ATOM      5  C   UNL     1    -107.416 -14.240  52.467  1.00  0.00     0.047 A 
ATOM      6  C   UNL     1    -108.354 -15.265  52.334  1.00  0.00     0.011 A 
ENDROOT
BRANCH   1   7
ATOM      7  C   UNL     1    -110.242 -16.681  53.190  1.00  0.00     0.036 C 
ATOM      8  C   UNL     1    -109.530 -17.970  52.791  1.00  0.00     0.009 C 
ENDBRANCH   1   7
BRANCH   2   9
ATOM      9  O   UNL     1    -110.015 -15.053  55.668  1.00  0.00    -0.508 OA
ATOM     10  H   UNL     1    -110.901 -14.590  55.811  1.00  0.00     0.293 HD
ENDBRANCH   2   9
BRANCH   4  11
ATOM     11  O   UNL     1    -106.417 -12.469  53.760  1.00  0.00    -0.508 OA
ATOM     12  H   UNL     1    -106.507 -11.604  53.239  1.00  0.00     0.293 HD
ENDBRANCH   4  11
TORSDOF 3
ENDMDL
MODEL 4
REMARK VINA RESULT:    -3.921      1.331      2.997
REMARK INTER + INTRA:          -4.474
REMARK INTER:                  -4.388
REMARK INTRA:                  -0.085
REMARK UNBOUND:                -0.094
REMARK SMILES CCc1ccc(O)cc1O
REMARK SMILES IDX 3 1 9 2 8 3 6 4 5 5 4 6 2 7 1 8 10 9 7 11
REMARK H PARENT 10 10 7 12
REMARK Flexibility Score: inf
ROOT
ATOM      1  C   UNL     1    -108.293 -13.810  53.786  1.00  0.00    -0.006 A 
ATOM      2  C   UNL     1    -107.154 -13.677  52.953  1.00  0.00     0.122 A 
ATOM      3  C   UNL     1    -106.916 -14.621  51.947  1.00  0.00     0.092 A 
ATOM      4  C   UNL     1    -107.783 -15.705  51.765  1.00  0.00     0.119 A 
ATOM      5  C   UNL     1    -108.896 -15.848  52.596  1.00  0.00     0.047 A 
ATOM      6  C   UNL     1    -109.147 -14.912  53.601  1.00  0.00     0.011 A 
ENDROOT
BRANCH   1   7
ATOM      7  C   UNL     1    -108.598 -12.832  54.895  1.00  0.00     0.036 C 
ATOM      8  C   UNL     1    -110.080 -12.467  54.909  1.00  0.00     0.009 C 
ENDBRANCH   1   7
BRANCH   2   9
ATOM      9  O   UNL     1    -106.239 -12.630  53.097  1.00  0.00    -0.508 OA
ATOM     10  H   UNL     1    -105.244 -12.769  53.201  1.00  0.00     0.293 HD
ENDBRANCH   2   9
BRANCH   4  11
ATOM     11  O   UNL     1    -107.546 -16.646  50.765  1.00  0.00    -0.508 OA
ATOM     12  H   UNL     1    -107.977 -16.567  49.851  1.00  0.00     0.293 HD
ENDBRANCH   4  11
TORSDOF 3
ENDMDL
MODEL 5
REMARK VINA RESULT:    -3.903      2.103      4.358
REMARK INTER + INTRA:          -4.454
REMARK INTER:                  -4.367
REMARK INTRA:                  -0.087
REMARK UNBOUND:                -0.094
REMARK SMILES CCc1ccc(O)cc1O
REMARK SMILES IDX 3 1 9 2 8 3 6 4 5 5 4 6 2 7 1 8 10 9 7 11
REMARK H PARENT 10 10 7 12
REMARK Flexibility Score: inf
ROOT
ATOM      1  C   UNL     1    -108.201 -13.638  53.941  1.00  0.00    -0.006 A 
ATOM      2  C   UNL     1    -109.317 -12.995  54.533  1.00  0.00     0.122 A 
ATOM      3  C   UNL     1    -110.598 -13.537  54.368  1.00  0.00     0.092 A 
ATOM      4  C   UNL     1    -110.789 -14.699  53.611  1.00  0.00     0.119 A 
ATOM      5  C   UNL     1    -109.693 -15.324  53.012  1.00  0.00     0.047 A 
ATOM      6  C   UNL     1    -108.410 -14.796  53.171  1.00  0.00     0.011 A 
ENDROOT
BRANCH   1   7
ATOM      7  C   UNL     1    -106.797 -13.097  54.072  1.00  0.00     0.036 C 
ATOM      8  C   UNL     1    -106.085 -13.094  52.723  1.00  0.00     0.009 C 
ENDBRANCH   1   7
BRANCH   2   9
ATOM      9  O   UNL     1    -109.195 -11.821  55.281  1.00  0.00    -0.508 OA
ATOM     10  H   UNL     1    -108.466 -11.138  55.134  1.00  0.00     0.293 HD
ENDBRANCH   2   9
BRANCH   4  11
ATOM     11  O   UNL     1    -112.063 -15.239  53.446  1.00  0.00    -0.508 OA
ATOM     12  H   UNL     1    -112.583 -15.116  52.585  1.00  0.00     0.293 HD
ENDBRANCH   4  11
TORSDOF 3
ENDMDL
MODEL 6
REMARK VINA RESULT:    -3.888     13.225     14.809
REMARK INTER + INTRA:          -4.437
REMARK INTER:                  -4.352
REMARK INTRA:                  -0.085
REMARK UNBOUND:                -0.094
REMARK SMILES CCc1ccc(O)cc1O
REMARK SMILES IDX 3 1 9 2 8 3 6 4 5 5 4 6 2 7 1 8 10 9 7 11
REMARK H PARENT 10 10 7 12
REMARK Flexibility Score: inf
ROOT
ATOM      1  C   UNL     1    -102.300  -3.139  47.234  1.00  0.00    -0.006 A 
ATOM      2  C   UNL     1    -101.885  -2.739  48.529  1.00  0.00     0.122 A 
ATOM      3  C   UNL     1    -100.705  -2.002  48.684  1.00  0.00     0.092 A 
ATOM      4  C   UNL     1     -99.922  -1.668  47.572  1.00  0.00     0.119 A 
ATOM      5  C   UNL     1    -100.319  -2.076  46.297  1.00  0.00     0.047 A 
ATOM      6  C   UNL     1    -101.495  -2.809  46.129  1.00  0.00     0.011 A 
ENDROOT
BRANCH   1   7
ATOM      7  C   UNL     1    -103.556  -3.945  47.004  1.00  0.00     0.036 C 
ATOM      8  C   UNL     1    -103.492  -4.686  45.671  1.00  0.00     0.009 C 
ENDBRANCH   1   7
BRANCH   2   9
ATOM      9  O   UNL     1    -102.611  -3.060  49.680  1.00  0.00    -0.508 OA
ATOM     10  H   UNL     1    -103.620  -3.068  49.720  1.00  0.00     0.293 HD
ENDBRANCH   2   9
BRANCH   4  11
ATOM     11  O   UNL     1     -98.747  -0.935  47.725  1.00  0.00    -0.508 OA
ATOM     12  H   UNL     1     -98.741   0.076  47.655  1.00  0.00     0.293 HD
ENDBRANCH   4  11
TORSDOF 3
ENDMDL
MODEL 7
REMARK VINA RESULT:    -3.874      1.788      3.697
REMARK INTER + INTRA:          -4.421
REMARK INTER:                  -4.336
REMARK INTRA:                  -0.085
REMARK UNBOUND:                -0.094
REMARK SMILES CCc1ccc(O)cc1O
REMARK SMILES IDX 3 1 9 2 8 3 6 4 5 5 4 6 2 7 1 8 10 9 7 11
REMARK H PARENT 10 10 7 12
REMARK Flexibility Score: inf
ROOT
ATOM      1  C   UNL     1    -107.789 -14.394  52.913  1.00  0.00    -0.006 A 
ATOM      2  C   UNL     1    -108.726 -15.435  52.698  1.00  0.00     0.122 A 
ATOM      3  C   UNL     1    -109.720 -15.683  53.653  1.00  0.00     0.092 A 
ATOM      4  C   UNL     1    -109.787 -14.922  54.827  1.00  0.00     0.119 A 
ATOM      5  C   UNL     1    -108.854 -13.908  55.049  1.00  0.00     0.047 A 
ATOM      6  C   UNL     1    -107.860 -13.648  54.104  1.00  0.00     0.011 A 
ENDROOT
BRANCH   1   7
ATOM      7  C   UNL     1    -106.688 -14.085  51.928  1.00  0.00     0.036 C 
ATOM      8  C   UNL     1    -105.938 -12.817  52.326  1.00  0.00     0.009 C 
ENDBRANCH   1   7
BRANCH   2   9
ATOM      9  O   UNL     1    -108.698 -16.243  51.558  1.00  0.00    -0.508 OA
ATOM     10  H   UNL     1    -109.441 -16.880  51.307  1.00  0.00     0.293 HD
ENDBRANCH   2   9
BRANCH   4  11
ATOM     11  O   UNL     1    -110.775 -15.169  55.778  1.00  0.00    -0.508 OA
ATOM     12  H   UNL     1    -111.524 -15.830  55.605  1.00  0.00     0.293 HD
ENDBRANCH   4  11
TORSDOF 3
ENDMDL
MODEL 8
REMARK VINA RESULT:    -3.802     13.195     14.816
REMARK INTER + INTRA:          -4.341
REMARK INTER:                  -4.257
REMARK INTRA:                  -0.084
REMARK UNBOUND:                -0.094
REMARK SMILES CCc1ccc(O)cc1O
REMARK SMILES IDX 3 1 9 2 8 3 6 4 5 5 4 6 2 7 1 8 10 9 7 11
REMARK H PARENT 10 10 7 12
REMARK Flexibility Score: inf
ROOT
ATOM      1  C   UNL     1    -101.434  -3.087  46.319  1.00  0.00    -0.006 A 
ATOM      2  C   UNL     1    -100.786  -2.672  47.509  1.00  0.00     0.122 A 
ATOM      3  C   UNL     1    -101.480  -2.704  48.725  1.00  0.00     0.092 A 
ATOM      4  C   UNL     1    -102.814  -3.127  48.775  1.00  0.00     0.119 A 
ATOM      5  C   UNL     1    -103.460  -3.519  47.601  1.00  0.00     0.047 A 
ATOM      6  C   UNL     1    -102.779  -3.495  46.382  1.00  0.00     0.011 A 
ENDROOT
BRANCH   1   7
ATOM      7  C   UNL     1    -100.744  -3.064  44.977  1.00  0.00     0.036 C 
ATOM      8  C   UNL     1    -101.424  -4.016  43.997  1.00  0.00     0.009 C 
ENDBRANCH   1   7
BRANCH   2   9
ATOM      9  O   UNL     1     -99.464  -2.219  47.523  1.00  0.00    -0.508 OA
ATOM     10  H   UNL     1     -98.671  -2.803  47.301  1.00  0.00     0.293 HD
ENDBRANCH   2   9
BRANCH   4  11
ATOM     11  O   UNL     1    -103.505  -3.158  49.984  1.00  0.00    -0.508 OA
ATOM     12  H   UNL     1    -103.314  -3.864  50.685  1.00  0.00     0.293 HD
ENDBRANCH   4  11
TORSDOF 3
ENDMDL
MODEL 9
REMARK VINA RESULT:    -3.769     13.206     14.817
REMARK INTER + INTRA:          -4.304
REMARK INTER:                  -4.218
REMARK INTRA:                  -0.085
REMARK UNBOUND:                -0.094
REMARK SMILES CCc1ccc(O)cc1O
REMARK SMILES IDX 3 1 9 2 8 3 6 4 5 5 4 6 2 7 1 8 10 9 7 11
REMARK H PARENT 10 10 7 12
REMARK Flexibility Score: inf
ROOT
ATOM      1  C   UNL     1    -101.269  -2.508  47.720  1.00  0.00    -0.006 A 
ATOM      2  C   UNL     1    -102.483  -2.967  48.288  1.00  0.00     0.122 A 
ATOM      3  C   UNL     1    -103.396  -3.675  47.497  1.00  0.00     0.092 A 
ATOM      4  C   UNL     1    -103.128  -3.921  46.145  1.00  0.00     0.119 A 
ATOM      5  C   UNL     1    -101.940  -3.454  45.578  1.00  0.00     0.047 A 
ATOM      6  C   UNL     1    -101.020  -2.750  46.357  1.00  0.00     0.011 A 
ENDROOT
BRANCH   1   7
ATOM      7  C   UNL     1    -100.250  -1.729  48.517  1.00  0.00     0.036 C 
ATOM      8  C   UNL     1     -99.322  -0.942  47.597  1.00  0.00     0.009 C 
ENDBRANCH   1   7
BRANCH   2   9
ATOM      9  O   UNL     1    -102.819  -2.735  49.625  1.00  0.00    -0.508 OA
ATOM     10  H   UNL     1    -103.107  -3.464  50.263  1.00  0.00     0.293 HD
ENDBRANCH   2   9
BRANCH   4  11
ATOM     11  O   UNL     1    -104.036  -4.625  45.357  1.00  0.00    -0.508 OA
ATOM     12  H   UNL     1    -104.676  -4.148  44.732  1.00  0.00     0.293 HD
ENDBRANCH   4  11
TORSDOF 3
ENDMDL
