MODEL 1
REMARK VINA RESULT:    -3.153      0.000      0.000
REMARK INTER + INTRA:          -5.387
REMARK INTER:                  -4.444
REMARK INTRA:                  -0.944
REMARK UNBOUND:                -0.944
REMARK SMILES CCCCCCCCC(=O)[O-]
REMARK SMILES IDX 6 1 7 2 8 3 9 4 10 5 11 6 5 7 4 8 3 9 2 10 1 11
REMARK H PARENT
REMARK Flexibility Score: inf
ROOT
ATOM      1  C   UNL     1      -4.769  -2.187  37.627  1.00  0.00     0.000 C 
ENDROOT
BRANCH   1   2
ATOM      2  C   UNL     1      -5.700  -2.646  36.495  1.00  0.00     0.006 C 
BRANCH   2   3
ATOM      3  C   UNL     1      -4.972  -3.590  35.534  1.00  0.00     0.053 C 
BRANCH   3   4
ATOM      4  C   UNL     1      -4.697  -2.903  34.233  1.00  0.00     0.041 C 
ATOM      5  O   UNL     1      -5.120  -1.734  34.032  1.00  0.00    -0.550 OA
ATOM      6  O   UNL     1      -3.931  -3.534  33.262  1.00  0.00    -0.550 OA
ENDBRANCH   3   4
ENDBRANCH   2   3
ENDBRANCH   1   2
BRANCH   1   7
ATOM      7  C   UNL     1      -4.178  -0.787  37.388  1.00  0.00     0.000 C 
BRANCH   7   8
ATOM      8  C   UNL     1      -2.652  -0.750  37.197  1.00  0.00    -0.000 C 
BRANCH   8   9
ATOM      9  C   UNL     1      -2.238  -0.501  35.736  1.00  0.00    -0.000 C 
BRANCH   9  10
ATOM     10  C   UNL     1      -1.361  -1.629  35.172  1.00  0.00    -0.003 C 
ATOM     11  C   UNL     1      -1.371  -2.879  36.051  1.00  0.00     0.004 C 
ENDBRANCH   9  10
ENDBRANCH   8   9
ENDBRANCH   7   8
ENDBRANCH   1   7
TORSDOF 7
ENDMDL
MODEL 2
REMARK VINA RESULT:    -3.073      1.368      2.090
REMARK INTER + INTRA:          -5.274
REMARK INTER:                  -4.640
REMARK INTRA:                  -0.634
REMARK UNBOUND:                -0.944
REMARK SMILES CCCCCCCCC(=O)[O-]
REMARK SMILES IDX 6 1 7 2 8 3 9 4 10 5 11 6 5 7 4 8 3 9 2 10 1 11
REMARK H PARENT
REMARK Flexibility Score: inf
ROOT
ATOM      1  C   UNL     1      -5.773  -2.400  36.790  1.00  0.00     0.000 C 
ENDROOT
BRANCH   1   2
ATOM      2  C   UNL     1      -5.425  -3.407  35.683  1.00  0.00     0.006 C 
BRANCH   2   3
ATOM      3  C   UNL     1      -3.910  -3.494  35.477  1.00  0.00     0.053 C 
BRANCH   3   4
ATOM      4  C   UNL     1      -3.544  -3.054  34.094  1.00  0.00     0.041 C 
ATOM      5  O   UNL     1      -3.953  -3.700  33.094  1.00  0.00    -0.550 OA
ATOM      6  O   UNL     1      -2.793  -1.900  33.908  1.00  0.00    -0.550 OA
ENDBRANCH   3   4
ENDBRANCH   2   3
ENDBRANCH   1   2
BRANCH   1   7
ATOM      7  C   UNL     1      -4.752  -2.396  37.941  1.00  0.00     0.000 C 
BRANCH   7   8
ATOM      8  C   UNL     1      -4.707  -1.096  38.764  1.00  0.00    -0.000 C 
BRANCH   8   9
ATOM      9  C   UNL     1      -3.360  -0.361  38.647  1.00  0.00    -0.000 C 
BRANCH   9  10
ATOM     10  C   UNL     1      -2.812  -0.362  37.212  1.00  0.00    -0.003 C 
ATOM     11  C   UNL     1      -1.468  -1.079  37.095  1.00  0.00     0.004 C 
ENDBRANCH   9  10
ENDBRANCH   8   9
ENDBRANCH   7   8
ENDBRANCH   1   7
TORSDOF 7
ENDMDL
MODEL 3
REMARK VINA RESULT:    -3.054      1.955      3.521
REMARK INTER + INTRA:          -5.248
REMARK INTER:                  -4.434
REMARK INTRA:                  -0.814
REMARK UNBOUND:                -0.944
REMARK SMILES CCCCCCCCC(=O)[O-]
REMARK SMILES IDX 6 1 7 2 8 3 9 4 10 5 11 6 5 7 4 8 3 9 2 10 1 11
REMARK H PARENT
REMARK Flexibility Score: inf
ROOT
ATOM      1  C   UNL     1      -5.196  -2.682  35.015  1.00  0.00     0.000 C 
ENDROOT
BRANCH   1   2
ATOM      2  C   UNL     1      -3.895  -3.429  34.686  1.00  0.00     0.006 C 
BRANCH   2   3
ATOM      3  C   UNL     1      -3.009  -3.560  35.928  1.00  0.00     0.053 C 
BRANCH   3   4
ATOM      4  C   UNL     1      -1.774  -2.729  35.779  1.00  0.00     0.041 C 
ATOM      5  O   UNL     1      -0.728  -3.027  36.414  1.00  0.00    -0.550 OA
ATOM      6  O   UNL     1      -1.762  -1.653  34.902  1.00  0.00    -0.550 OA
ENDBRANCH   3   4
ENDBRANCH   2   3
ENDBRANCH   1   2
BRANCH   1   7
ATOM      7  C   UNL     1      -5.678  -2.919  36.457  1.00  0.00     0.000 C 
BRANCH   7   8
ATOM      8  C   UNL     1      -5.982  -1.640  37.258  1.00  0.00    -0.000 C 
BRANCH   8   9
ATOM      9  C   UNL     1      -5.077  -1.478  38.492  1.00  0.00    -0.000 C 
BRANCH   9  10
ATOM     10  C   UNL     1      -3.778  -0.722  38.174  1.00  0.00    -0.003 C 
ATOM     11  C   UNL     1      -3.946   0.285  37.036  1.00  0.00     0.004 C 
ENDBRANCH   9  10
ENDBRANCH   8   9
ENDBRANCH   7   8
ENDBRANCH   1   7
TORSDOF 7
ENDMDL
MODEL 4
REMARK VINA RESULT:    -3.042      2.508      4.158
REMARK INTER + INTRA:          -5.231
REMARK INTER:                  -4.524
REMARK INTRA:                  -0.707
REMARK UNBOUND:                -0.944
REMARK SMILES CCCCCCCCC(=O)[O-]
REMARK SMILES IDX 6 1 7 2 8 3 9 4 10 5 11 6 5 7 4 8 3 9 2 10 1 11
REMARK H PARENT
REMARK Flexibility Score: inf
ROOT
ATOM      1  C   UNL     1      -3.842  -3.258  33.988  1.00  0.00     0.000 C 
ENDROOT
BRANCH   1   2
ATOM      2  C   UNL     1      -2.697  -2.406  34.556  1.00  0.00     0.006 C 
BRANCH   2   3
ATOM      3  C   UNL     1      -2.216  -2.959  35.901  1.00  0.00     0.053 C 
BRANCH   3   4
ATOM      4  C   UNL     1      -1.072  -2.148  36.422  1.00  0.00     0.041 C 
ATOM      5  O   UNL     1      -1.287  -1.148  37.156  1.00  0.00    -0.550 OA
ATOM      6  O   UNL     1       0.234  -2.524  36.137  1.00  0.00    -0.550 OA
ENDBRANCH   3   4
ENDBRANCH   2   3
ENDBRANCH   1   2
BRANCH   1   7
ATOM      7  C   UNL     1      -5.208  -2.921  34.610  1.00  0.00     0.000 C 
BRANCH   7   8
ATOM      8  C   UNL     1      -5.521  -1.417  34.712  1.00  0.00    -0.000 C 
BRANCH   8   9
ATOM      9  C   UNL     1      -5.870  -0.976  36.144  1.00  0.00    -0.000 C 
BRANCH   9  10
ATOM     10  C   UNL     1      -5.787  -2.132  37.153  1.00  0.00    -0.003 C 
ATOM     11  C   UNL     1      -4.864  -1.822  38.330  1.00  0.00     0.004 C 
ENDBRANCH   9  10
ENDBRANCH   8   9
ENDBRANCH   7   8
ENDBRANCH   1   7
TORSDOF 7
ENDMDL
MODEL 5
REMARK VINA RESULT:    -3.035      2.822      4.733
REMARK INTER + INTRA:          -5.221
REMARK INTER:                  -4.658
REMARK INTRA:                  -0.563
REMARK UNBOUND:                -0.944
REMARK SMILES CCCCCCCCC(=O)[O-]
REMARK SMILES IDX 6 1 7 2 8 3 9 4 10 5 11 6 5 7 4 8 3 9 2 10 1 11
REMARK H PARENT
REMARK Flexibility Score: inf
ROOT
ATOM      1  C   UNL     1      -2.427  -2.136  34.689  1.00  0.00     0.000 C 
ENDROOT
BRANCH   1   2
ATOM      2  C   UNL     1      -1.759  -2.900  35.842  1.00  0.00     0.006 C 
BRANCH   2   3
ATOM      3  C   UNL     1      -0.781  -2.000  36.603  1.00  0.00     0.053 C 
BRANCH   3   4
ATOM      4  C   UNL     1       0.523  -1.912  35.874  1.00  0.00     0.041 C 
ATOM      5  O   UNL     1       0.897  -0.819  35.374  1.00  0.00    -0.550 OA
ATOM      6  O   UNL     1       1.349  -3.025  35.790  1.00  0.00    -0.550 OA
ENDBRANCH   3   4
ENDBRANCH   2   3
ENDBRANCH   1   2
BRANCH   1   7
ATOM      7  C   UNL     1      -3.534  -2.945  33.993  1.00  0.00     0.000 C 
BRANCH   7   8
ATOM      8  C   UNL     1      -4.966  -2.613  34.449  1.00  0.00    -0.000 C 
BRANCH   8   9
ATOM      9  C   UNL     1      -5.358  -3.328  35.754  1.00  0.00    -0.000 C 
BRANCH   9  10
ATOM     10  C   UNL     1      -5.886  -2.357  36.821  1.00  0.00    -0.003 C 
ATOM     11  C   UNL     1      -4.861  -2.076  37.920  1.00  0.00     0.004 C 
ENDBRANCH   9  10
ENDBRANCH   8   9
ENDBRANCH   7   8
ENDBRANCH   1   7
TORSDOF 7
ENDMDL
MODEL 6
REMARK VINA RESULT:    -2.979      1.267      3.360
REMARK INTER + INTRA:          -5.142
REMARK INTER:                  -4.412
REMARK INTRA:                  -0.731
REMARK UNBOUND:                -0.944
REMARK SMILES CCCCCCCCC(=O)[O-]
REMARK SMILES IDX 6 1 7 2 8 3 9 4 10 5 11 6 5 7 4 8 3 9 2 10 1 11
REMARK H PARENT
REMARK Flexibility Score: inf
ROOT
ATOM      1  C   UNL     1      -1.917  -1.482  36.798  1.00  0.00     0.000 C 
ENDROOT
BRANCH   1   2
ATOM      2  C   UNL     1      -1.763  -2.255  35.479  1.00  0.00     0.006 C 
BRANCH   2   3
ATOM      3  C   UNL     1      -2.984  -2.052  34.578  1.00  0.00     0.053 C 
BRANCH   3   4
ATOM      4  C   UNL     1      -3.662  -3.359  34.313  1.00  0.00     0.041 C 
ATOM      5  O   UNL     1      -4.141  -3.605  33.175  1.00  0.00    -0.550 OA
ATOM      6  O   UNL     1      -3.721  -4.326  35.308  1.00  0.00    -0.550 OA
ENDBRANCH   3   4
ENDBRANCH   2   3
ENDBRANCH   1   2
BRANCH   1   7
ATOM      7  C   UNL     1      -3.120  -0.523  36.795  1.00  0.00     0.000 C 
BRANCH   7   8
ATOM      8  C   UNL     1      -4.123  -0.737  37.943  1.00  0.00    -0.000 C 
BRANCH   8   9
ATOM      9  C   UNL     1      -4.789  -2.123  37.903  1.00  0.00    -0.000 C 
BRANCH   9  10
ATOM     10  C   UNL     1      -6.034  -2.152  37.004  1.00  0.00    -0.003 C 
ATOM     11  C   UNL     1      -6.933  -0.932  37.202  1.00  0.00     0.004 C 
ENDBRANCH   9  10
ENDBRANCH   8   9
ENDBRANCH   7   8
ENDBRANCH   1   7
TORSDOF 7
ENDMDL
MODEL 7
REMARK VINA RESULT:    -2.961      2.005      3.855
REMARK INTER + INTRA:          -5.116
REMARK INTER:                  -4.313
REMARK INTRA:                  -0.803
REMARK UNBOUND:                -0.944
REMARK SMILES CCCCCCCCC(=O)[O-]
REMARK SMILES IDX 6 1 7 2 8 3 9 4 10 5 11 6 5 7 4 8 3 9 2 10 1 11
REMARK H PARENT
REMARK Flexibility Score: inf
ROOT
ATOM      1  C   UNL     1      -3.844  -0.550  37.465  1.00  0.00     0.000 C 
ENDROOT
BRANCH   1   2
ATOM      2  C   UNL     1      -2.333  -0.829  37.479  1.00  0.00     0.006 C 
BRANCH   2   3
ATOM      3  C   UNL     1      -1.852  -1.313  36.108  1.00  0.00     0.053 C 
BRANCH   3   4
ATOM      4  C   UNL     1      -1.292  -2.697  36.208  1.00  0.00     0.041 C 
ATOM      5  O   UNL     1      -2.055  -3.696  36.136  1.00  0.00    -0.550 OA
ATOM      6  O   UNL     1       0.078  -2.885  36.333  1.00  0.00    -0.550 OA
ENDBRANCH   3   4
ENDBRANCH   2   3
ENDBRANCH   1   2
BRANCH   1   7
ATOM      7  C   UNL     1      -4.685  -1.773  37.872  1.00  0.00     0.000 C 
BRANCH   7   8
ATOM      8  C   UNL     1      -5.828  -2.126  36.904  1.00  0.00    -0.000 C 
BRANCH   8   9
ATOM      9  C   UNL     1      -5.433  -3.205  35.882  1.00  0.00    -0.000 C 
BRANCH   9  10
ATOM     10  C   UNL     1      -5.026  -2.610  34.525  1.00  0.00    -0.003 C 
ATOM     11  C   UNL     1      -5.635  -1.230  34.280  1.00  0.00     0.004 C 
ENDBRANCH   9  10
ENDBRANCH   8   9
ENDBRANCH   7   8
ENDBRANCH   1   7
TORSDOF 7
ENDMDL
MODEL 8
REMARK VINA RESULT:    -2.940      1.744      2.812
REMARK INTER + INTRA:          -5.087
REMARK INTER:                  -4.223
REMARK INTRA:                  -0.864
REMARK UNBOUND:                -0.944
REMARK SMILES CCCCCCCCC(=O)[O-]
REMARK SMILES IDX 6 1 7 2 8 3 9 4 10 5 11 6 5 7 4 8 3 9 2 10 1 11
REMARK H PARENT
REMARK Flexibility Score: inf
ROOT
ATOM      1  C   UNL     1      -5.367  -3.433  35.801  1.00  0.00     0.000 C 
ENDROOT
BRANCH   1   2
ATOM      2  C   UNL     1      -5.303  -2.541  37.050  1.00  0.00     0.006 C 
BRANCH   2   3
ATOM      3  C   UNL     1      -6.246  -1.342  36.917  1.00  0.00     0.053 C 
BRANCH   3   4
ATOM      4  C   UNL     1      -5.743  -0.395  35.873  1.00  0.00     0.041 C 
ATOM      5  O   UNL     1      -4.759   0.352  36.115  1.00  0.00    -0.550 OA
ATOM      6  O   UNL     1      -6.332  -0.372  34.615  1.00  0.00    -0.550 OA
ENDBRANCH   3   4
ENDBRANCH   2   3
ENDBRANCH   1   2
BRANCH   1   7
ATOM      7  C   UNL     1      -3.979  -3.770  35.230  1.00  0.00     0.000 C 
BRANCH   7   8
ATOM      8  C   UNL     1      -3.515  -2.865  34.075  1.00  0.00    -0.000 C 
BRANCH   8   9
ATOM      9  C   UNL     1      -2.451  -1.841  34.508  1.00  0.00    -0.000 C 
BRANCH   9  10
ATOM     10  C   UNL     1      -1.666  -2.297  35.747  1.00  0.00    -0.003 C 
ATOM     11  C   UNL     1      -1.708  -1.272  36.881  1.00  0.00     0.004 C 
ENDBRANCH   9  10
ENDBRANCH   8   9
ENDBRANCH   7   8
ENDBRANCH   1   7
TORSDOF 7
ENDMDL
MODEL 9
REMARK VINA RESULT:    -2.855      2.145      3.388
REMARK INTER + INTRA:          -4.966
REMARK INTER:                  -4.096
REMARK INTRA:                  -0.871
REMARK UNBOUND:                -0.944
REMARK SMILES CCCCCCCCC(=O)[O-]
REMARK SMILES IDX 6 1 7 2 8 3 9 4 10 5 11 6 5 7 4 8 3 9 2 10 1 11
REMARK H PARENT
REMARK Flexibility Score: inf
ROOT
ATOM      1  C   UNL     1      -5.368  -3.386  35.631  1.00  0.00     0.000 C 
ENDROOT
BRANCH   1   2
ATOM      2  C   UNL     1      -3.888  -3.635  35.301  1.00  0.00     0.006 C 
BRANCH   2   3
ATOM      3  C   UNL     1      -3.473  -2.876  34.038  1.00  0.00     0.053 C 
BRANCH   3   4
ATOM      4  C   UNL     1      -2.461  -1.824  34.368  1.00  0.00     0.041 C 
ATOM      5  O   UNL     1      -2.314  -0.826  33.614  1.00  0.00    -0.550 OA
ATOM      6  O   UNL     1      -1.713  -1.921  35.534  1.00  0.00    -0.550 OA
ENDBRANCH   3   4
ENDBRANCH   2   3
ENDBRANCH   1   2
BRANCH   1   7
ATOM      7  C   UNL     1      -5.566  -2.528  36.893  1.00  0.00     0.000 C 
BRANCH   7   8
ATOM      8  C   UNL     1      -6.138  -1.122  36.638  1.00  0.00    -0.000 C 
BRANCH   8   9
ATOM      9  C   UNL     1      -5.062  -0.106  36.217  1.00  0.00    -0.000 C 
BRANCH   9  10
ATOM     10  C   UNL     1      -5.428   0.638  34.924  1.00  0.00    -0.003 C 
ATOM     11  C   UNL     1      -6.135  -0.259  33.908  1.00  0.00     0.004 C 
ENDBRANCH   9  10
ENDBRANCH   8   9
ENDBRANCH   7   8
ENDBRANCH   1   7
TORSDOF 7
ENDMDL
