MODEL 1
REMARK VINA RESULT:    -3.656      0.000      0.000
REMARK INTER + INTRA:          -6.824
REMARK INTER:                  -5.580
REMARK INTRA:                  -1.243
REMARK UNBOUND:                -1.243
REMARK SMILES CCCCCCCCCCC(=O)[O-]
REMARK SMILES IDX 7 1 8 2 9 3 10 4 11 5 12 6 13 7 6 8 5 9 4 10 3 11 2 12 1 13
REMARK H PARENT
REMARK Flexibility Score: inf
ROOT
ATOM      1  C   UNL     1     -12.349   2.927  16.769  1.00  0.00     0.000 C 
ENDROOT
BRANCH   1   2
ATOM      2  C   UNL     1     -11.277   3.734  16.017  1.00  0.00     0.000 C 
BRANCH   2   3
ATOM      3  C   UNL     1     -10.060   2.880  15.628  1.00  0.00     0.006 C 
BRANCH   3   4
ATOM      4  C   UNL     1     -10.310   1.376  15.808  1.00  0.00     0.053 C 
BRANCH   4   5
ATOM      5  C   UNL     1     -10.344   0.689  14.479  1.00  0.00     0.041 C 
ATOM      6  O   UNL     1      -9.270   0.395  13.891  1.00  0.00    -0.550 OA
ATOM      7  O   UNL     1     -11.560   0.329  13.913  1.00  0.00    -0.550 OA
ENDBRANCH   4   5
ENDBRANCH   3   4
ENDBRANCH   2   3
ENDBRANCH   1   2
BRANCH   1   8
ATOM      8  C   UNL     1     -12.728   3.561  18.117  1.00  0.00     0.000 C 
BRANCH   8   9
ATOM      9  C   UNL     1     -11.505   3.863  18.997  1.00  0.00    -0.000 C 
BRANCH   9  10
ATOM     10  C   UNL     1     -10.888   2.569  19.543  1.00  0.00    -0.000 C 
BRANCH  10  11
ATOM     11  C   UNL     1      -9.374   2.532  19.294  1.00  0.00    -0.000 C 
BRANCH  11  12
ATOM     12  C   UNL     1      -8.807   3.904  18.896  1.00  0.00    -0.003 C 
ATOM     13  C   UNL     1      -7.279   3.942  18.919  1.00  0.00     0.004 C 
ENDBRANCH  11  12
ENDBRANCH  10  11
ENDBRANCH   9  10
ENDBRANCH   8   9
ENDBRANCH   1   8
TORSDOF 9
ENDMDL
MODEL 2
REMARK VINA RESULT:    -3.602      1.653      2.369
REMARK INTER + INTRA:          -6.741
REMARK INTER:                  -5.606
REMARK INTRA:                  -1.135
REMARK UNBOUND:                -1.243
REMARK SMILES CCCCCCCCCCC(=O)[O-]
REMARK SMILES IDX 7 1 8 2 9 3 10 4 11 5 12 6 13 7 6 8 5 9 4 10 3 11 2 12 1 13
REMARK H PARENT
REMARK Flexibility Score: inf
ROOT
ATOM      1  C   UNL     1     -10.556   4.161  16.960  1.00  0.00     0.000 C 
ENDROOT
BRANCH   1   2
ATOM      2  C   UNL     1      -9.864   3.231  15.947  1.00  0.00     0.000 C 
BRANCH   2   3
ATOM      3  C   UNL     1     -10.220   1.752  16.167  1.00  0.00     0.006 C 
BRANCH   3   4
ATOM      4  C   UNL     1     -10.437   0.993  14.851  1.00  0.00     0.053 C 
BRANCH   4   5
ATOM      5  C   UNL     1     -11.878   0.623  14.693  1.00  0.00     0.041 C 
ATOM      6  O   UNL     1     -12.722   0.979  15.557  1.00  0.00    -0.550 OA
ATOM      7  O   UNL     1     -12.298  -0.071  13.565  1.00  0.00    -0.550 OA
ENDBRANCH   4   5
ENDBRANCH   3   4
ENDBRANCH   2   3
ENDBRANCH   1   2
BRANCH   1   8
ATOM      8  C   UNL     1     -12.071   4.269  16.722  1.00  0.00     0.000 C 
BRANCH   8   9
ATOM      9  C   UNL     1     -12.897   3.650  17.859  1.00  0.00    -0.000 C 
BRANCH   9  10
ATOM     10  C   UNL     1     -12.375   4.104  19.228  1.00  0.00    -0.000 C 
BRANCH  10  11
ATOM     11  C   UNL     1     -12.336   2.932  20.219  1.00  0.00    -0.000 C 
BRANCH  11  12
ATOM     12  C   UNL     1     -11.469   1.765  19.721  1.00  0.00    -0.003 C 
ATOM     13  C   UNL     1      -9.975   2.006  19.932  1.00  0.00     0.004 C 
ENDBRANCH  11  12
ENDBRANCH  10  11
ENDBRANCH   9  10
ENDBRANCH   8   9
ENDBRANCH   1   8
TORSDOF 9
ENDMDL
MODEL 3
REMARK VINA RESULT:    -3.578      1.086      2.082
REMARK INTER + INTRA:          -6.704
REMARK INTER:                  -5.396
REMARK INTRA:                  -1.309
REMARK UNBOUND:                -1.243
REMARK SMILES CCCCCCCCCCC(=O)[O-]
REMARK SMILES IDX 7 1 8 2 9 3 10 4 11 5 12 6 13 7 6 8 5 9 4 10 3 11 2 12 1 13
REMARK H PARENT
REMARK Flexibility Score: inf
ROOT
ATOM      1  C   UNL     1     -11.454   4.043  16.451  1.00  0.00     0.000 C 
ENDROOT
BRANCH   1   2
ATOM      2  C   UNL     1     -12.539   2.974  16.670  1.00  0.00     0.000 C 
BRANCH   2   3
ATOM      3  C   UNL     1     -12.223   1.656  15.945  1.00  0.00     0.006 C 
BRANCH   3   4
ATOM      4  C   UNL     1     -10.786   1.604  15.410  1.00  0.00     0.053 C 
BRANCH   4   5
ATOM      5  C   UNL     1     -10.668   0.575  14.330  1.00  0.00     0.041 C 
ATOM      6  O   UNL     1      -9.533   0.186  13.947  1.00  0.00    -0.550 OA
ATOM      7  O   UNL     1     -11.812   0.010  13.780  1.00  0.00    -0.550 OA
ENDBRANCH   4   5
ENDBRANCH   3   4
ENDBRANCH   2   3
ENDBRANCH   1   2
BRANCH   1   8
ATOM      8  C   UNL     1     -11.260   4.947  17.679  1.00  0.00     0.000 C 
BRANCH   8   9
ATOM      9  C   UNL     1      -9.785   5.085  18.087  1.00  0.00    -0.000 C 
BRANCH   9  10
ATOM     10  C   UNL     1      -9.027   3.770  17.863  1.00  0.00    -0.000 C 
BRANCH  10  11
ATOM     11  C   UNL     1      -8.996   2.927  19.146  1.00  0.00    -0.000 C 
BRANCH  11  12
ATOM     12  C   UNL     1      -9.796   1.622  19.015  1.00  0.00    -0.003 C 
ATOM     13  C   UNL     1     -11.071   1.622  19.858  1.00  0.00     0.004 C 
ENDBRANCH  11  12
ENDBRANCH  10  11
ENDBRANCH   9  10
ENDBRANCH   8   9
ENDBRANCH   1   8
TORSDOF 9
ENDMDL
MODEL 4
REMARK VINA RESULT:    -3.524      2.091      2.769
REMARK INTER + INTRA:          -6.622
REMARK INTER:                  -6.114
REMARK INTRA:                  -0.508
REMARK UNBOUND:                -1.243
REMARK SMILES CCCCCCCCCCC(=O)[O-]
REMARK SMILES IDX 7 1 8 2 9 3 10 4 11 5 12 6 13 7 6 8 5 9 4 10 3 11 2 12 1 13
REMARK H PARENT
REMARK Flexibility Score: inf
ROOT
ATOM      1  C   UNL     1     -12.001   3.309  18.016  1.00  0.00     0.000 C 
ENDROOT
BRANCH   1   2
ATOM      2  C   UNL     1     -12.557   2.958  16.624  1.00  0.00     0.000 C 
BRANCH   2   3
ATOM      3  C   UNL     1     -11.722   1.883  15.910  1.00  0.00     0.006 C 
BRANCH   3   4
ATOM      4  C   UNL     1     -12.579   0.732  15.366  1.00  0.00     0.053 C 
BRANCH   4   5
ATOM      5  C   UNL     1     -11.958   0.157  14.131  1.00  0.00     0.041 C 
ATOM      6  O   UNL     1     -10.787   0.482  13.802  1.00  0.00    -0.550 OA
ATOM      7  O   UNL     1     -12.655  -0.774  13.372  1.00  0.00    -0.550 OA
ENDBRANCH   4   5
ENDBRANCH   3   4
ENDBRANCH   2   3
ENDBRANCH   1   2
BRANCH   1   8
ATOM      8  C   UNL     1     -11.207   2.151  18.643  1.00  0.00     0.000 C 
BRANCH   8   9
ATOM      9  C   UNL     1     -11.661   1.826  20.074  1.00  0.00    -0.000 C 
BRANCH   9  10
ATOM     10  C   UNL     1     -10.475   1.384  20.940  1.00  0.00    -0.000 C 
BRANCH  10  11
ATOM     11  C   UNL     1     -10.609  -0.091  21.346  1.00  0.00    -0.000 C 
BRANCH  11  12
ATOM     12  C   UNL     1      -9.331  -0.898  21.068  1.00  0.00    -0.003 C 
ATOM     13  C   UNL     1      -8.740  -0.615  19.687  1.00  0.00     0.004 C 
ENDBRANCH  11  12
ENDBRANCH  10  11
ENDBRANCH   9  10
ENDBRANCH   8   9
ENDBRANCH   1   8
TORSDOF 9
ENDMDL
MODEL 5
REMARK VINA RESULT:    -3.519      3.337      5.302
REMARK INTER + INTRA:          -6.614
REMARK INTER:                  -5.450
REMARK INTRA:                  -1.164
REMARK UNBOUND:                -1.243
REMARK SMILES CCCCCCCCCCC(=O)[O-]
REMARK SMILES IDX 7 1 8 2 9 3 10 4 11 5 12 6 13 7 6 8 5 9 4 10 3 11 2 12 1 13
REMARK H PARENT
REMARK Flexibility Score: inf
ROOT
ATOM      1  C   UNL     1      -9.183   2.634  19.205  1.00  0.00     0.000 C 
ENDROOT
BRANCH   1   2
ATOM      2  C   UNL     1     -10.061   2.281  20.419  1.00  0.00     0.000 C 
BRANCH   2   3
ATOM      3  C   UNL     1     -10.923   1.031  20.179  1.00  0.00     0.006 C 
BRANCH   3   4
ATOM      4  C   UNL     1     -10.745  -0.030  21.274  1.00  0.00     0.053 C 
BRANCH   4   5
ATOM      5  C   UNL     1      -9.377  -0.631  21.202  1.00  0.00     0.041 C 
ATOM      6  O   UNL     1      -8.749  -0.906  22.259  1.00  0.00    -0.550 OA
ATOM      7  O   UNL     1      -8.814  -0.934  19.969  1.00  0.00    -0.550 OA
ENDBRANCH   4   5
ENDBRANCH   3   4
ENDBRANCH   2   3
ENDBRANCH   1   2
BRANCH   1   8
ATOM      8  C   UNL     1      -9.567   1.837  17.948  1.00  0.00     0.000 C 
BRANCH   8   9
ATOM      9  C   UNL     1      -9.608   2.707  16.682  1.00  0.00    -0.000 C 
BRANCH   9  10
ATOM     10  C   UNL     1     -10.845   2.385  15.834  1.00  0.00    -0.000 C 
BRANCH  10  11
ATOM     11  C   UNL     1     -12.083   2.185  16.720  1.00  0.00    -0.000 C 
BRANCH  11  12
ATOM     12  C   UNL     1     -12.845   3.495  16.975  1.00  0.00    -0.003 C 
ATOM     13  C   UNL     1     -12.956   3.835  18.461  1.00  0.00     0.004 C 
ENDBRANCH  11  12
ENDBRANCH  10  11
ENDBRANCH   9  10
ENDBRANCH   8   9
ENDBRANCH   1   8
TORSDOF 9
ENDMDL
MODEL 6
REMARK VINA RESULT:    -3.488      3.215      4.854
REMARK INTER + INTRA:          -6.567
REMARK INTER:                  -5.789
REMARK INTRA:                  -0.778
REMARK UNBOUND:                -1.243
REMARK SMILES CCCCCCCCCCC(=O)[O-]
REMARK SMILES IDX 7 1 8 2 9 3 10 4 11 5 12 6 13 7 6 8 5 9 4 10 3 11 2 12 1 13
REMARK H PARENT
REMARK Flexibility Score: inf
ROOT
ATOM      1  C   UNL     1     -12.433   3.403  18.917  1.00  0.00     0.000 C 
ENDROOT
BRANCH   1   2
ATOM      2  C   UNL     1     -11.687   2.059  18.996  1.00  0.00     0.000 C 
BRANCH   2   3
ATOM      3  C   UNL     1     -10.491   2.105  19.960  1.00  0.00     0.006 C 
BRANCH   3   4
ATOM      4  C   UNL     1      -9.496   0.959  19.726  1.00  0.00     0.053 C 
BRANCH   4   5
ATOM      5  C   UNL     1      -9.624  -0.071  20.803  1.00  0.00     0.041 C 
ATOM      6  O   UNL     1      -8.860  -1.073  20.815  1.00  0.00    -0.550 OA
ATOM      7  O   UNL     1     -10.553   0.099  21.822  1.00  0.00    -0.550 OA
ENDBRANCH   4   5
ENDBRANCH   3   4
ENDBRANCH   2   3
ENDBRANCH   1   2
BRANCH   1   8
ATOM      8  C   UNL     1     -12.937   3.715  17.499  1.00  0.00     0.000 C 
BRANCH   8   9
ATOM      9  C   UNL     1     -12.292   2.822  16.429  1.00  0.00    -0.000 C 
BRANCH   9  10
ATOM     10  C   UNL     1     -11.017   3.467  15.871  1.00  0.00    -0.000 C 
BRANCH  10  11
ATOM     11  C   UNL     1      -9.876   2.443  15.779  1.00  0.00    -0.000 C 
BRANCH  11  12
ATOM     12  C   UNL     1     -10.365   1.052  15.347  1.00  0.00    -0.003 C 
ATOM     13  C   UNL     1      -9.604   0.507  14.138  1.00  0.00     0.004 C 
ENDBRANCH  11  12
ENDBRANCH  10  11
ENDBRANCH   9  10
ENDBRANCH   8   9
ENDBRANCH   1   8
TORSDOF 9
ENDMDL
MODEL 7
REMARK VINA RESULT:    -3.481      0.871      1.448
REMARK INTER + INTRA:          -6.556
REMARK INTER:                  -5.423
REMARK INTRA:                  -1.133
REMARK UNBOUND:                -1.243
REMARK SMILES CCCCCCCCCCC(=O)[O-]
REMARK SMILES IDX 7 1 8 2 9 3 10 4 11 5 12 6 13 7 6 8 5 9 4 10 3 11 2 12 1 13
REMARK H PARENT
REMARK Flexibility Score: inf
ROOT
ATOM      1  C   UNL     1     -12.519   3.212  16.726  1.00  0.00     0.000 C 
ENDROOT
BRANCH   1   2
ATOM      2  C   UNL     1     -11.271   3.838  16.080  1.00  0.00     0.000 C 
BRANCH   2   3
ATOM      3  C   UNL     1     -10.248   2.784  15.628  1.00  0.00     0.006 C 
BRANCH   3   4
ATOM      4  C   UNL     1     -10.791   1.351  15.728  1.00  0.00     0.053 C 
BRANCH   4   5
ATOM      5  C   UNL     1     -10.649   0.647  14.415  1.00  0.00     0.041 C 
ATOM      6  O   UNL     1      -9.510   0.314  13.995  1.00  0.00    -0.550 OA
ATOM      7  O   UNL     1     -11.779   0.313  13.680  1.00  0.00    -0.550 OA
ENDBRANCH   4   5
ENDBRANCH   3   4
ENDBRANCH   2   3
ENDBRANCH   1   2
BRANCH   1   8
ATOM      8  C   UNL     1     -12.667   3.587  18.209  1.00  0.00     0.000 C 
BRANCH   8   9
ATOM      9  C   UNL     1     -11.510   4.460  18.720  1.00  0.00    -0.000 C 
BRANCH   9  10
ATOM     10  C   UNL     1     -10.775   3.776  19.879  1.00  0.00    -0.000 C 
BRANCH  10  11
ATOM     11  C   UNL     1      -9.443   3.174  19.408  1.00  0.00    -0.000 C 
BRANCH  11  12
ATOM     12  C   UNL     1      -9.540   1.665  19.138  1.00  0.00    -0.003 C 
ATOM     13  C   UNL     1      -9.895   0.861  20.388  1.00  0.00     0.004 C 
ENDBRANCH  11  12
ENDBRANCH  10  11
ENDBRANCH   9  10
ENDBRANCH   8   9
ENDBRANCH   1   8
TORSDOF 9
ENDMDL
MODEL 8
REMARK VINA RESULT:    -3.458      1.193      2.827
REMARK INTER + INTRA:          -6.521
REMARK INTER:                  -5.258
REMARK INTRA:                  -1.263
REMARK UNBOUND:                -1.243
REMARK SMILES CCCCCCCCCCC(=O)[O-]
REMARK SMILES IDX 7 1 8 2 9 3 10 4 11 5 12 6 13 7 6 8 5 9 4 10 3 11 2 12 1 13
REMARK H PARENT
REMARK Flexibility Score: inf
ROOT
ATOM      1  C   UNL     1      -9.315   3.880  17.315  1.00  0.00     0.000 C 
ENDROOT
BRANCH   1   2
ATOM      2  C   UNL     1      -9.860   3.196  16.049  1.00  0.00     0.000 C 
BRANCH   2   3
ATOM      3  C   UNL     1     -10.367   1.770  16.321  1.00  0.00     0.006 C 
BRANCH   3   4
ATOM      4  C   UNL     1     -11.743   1.501  15.698  1.00  0.00     0.053 C 
BRANCH   4   5
ATOM      5  C   UNL     1     -11.612   0.593  14.516  1.00  0.00     0.041 C 
ATOM      6  O   UNL     1     -12.620  -0.018  14.072  1.00  0.00    -0.550 OA
ATOM      7  O   UNL     1     -10.388   0.460  13.874  1.00  0.00    -0.550 OA
ENDBRANCH   4   5
ENDBRANCH   3   4
ENDBRANCH   2   3
ENDBRANCH   1   2
BRANCH   1   8
ATOM      8  C   UNL     1      -8.700   2.881  18.308  1.00  0.00     0.000 C 
BRANCH   8   9
ATOM      9  C   UNL     1      -9.376   2.920  19.687  1.00  0.00    -0.000 C 
BRANCH   9  10
ATOM     10  C   UNL     1     -10.165   1.631  19.948  1.00  0.00    -0.000 C 
BRANCH  10  11
ATOM     11  C   UNL     1     -11.677   1.892  19.907  1.00  0.00    -0.000 C 
BRANCH  11  12
ATOM     12  C   UNL     1     -12.016   3.387  19.790  1.00  0.00    -0.003 C 
ATOM     13  C   UNL     1     -12.849   3.709  18.550  1.00  0.00     0.004 C 
ENDBRANCH  11  12
ENDBRANCH  10  11
ENDBRANCH   9  10
ENDBRANCH   8   9
ENDBRANCH   1   8
TORSDOF 9
ENDMDL
MODEL 9
REMARK VINA RESULT:    -3.414      2.557      3.541
REMARK INTER + INTRA:          -6.454
REMARK INTER:                  -5.514
REMARK INTRA:                  -0.940
REMARK UNBOUND:                -1.243
REMARK SMILES CCCCCCCCCCC(=O)[O-]
REMARK SMILES IDX 7 1 8 2 9 3 10 4 11 5 12 6 13 7 6 8 5 9 4 10 3 11 2 12 1 13
REMARK H PARENT
REMARK Flexibility Score: inf
ROOT
ATOM      1  C   UNL     1     -10.154   2.408  19.443  1.00  0.00     0.000 C 
ENDROOT
BRANCH   1   2
ATOM      2  C   UNL     1      -9.393   1.805  18.249  1.00  0.00     0.000 C 
BRANCH   2   3
ATOM      3  C   UNL     1      -9.785   2.453  16.912  1.00  0.00     0.006 C 
BRANCH   3   4
ATOM      4  C   UNL     1     -10.375   1.445  15.916  1.00  0.00     0.053 C 
BRANCH   4   5
ATOM      5  C   UNL     1     -11.855   1.632  15.800  1.00  0.00     0.041 C 
ATOM      6  O   UNL     1     -12.574   0.713  15.326  1.00  0.00    -0.550 OA
ATOM      7  O   UNL     1     -12.447   2.801  16.262  1.00  0.00    -0.550 OA
ENDBRANCH   4   5
ENDBRANCH   3   4
ENDBRANCH   2   3
ENDBRANCH   1   2
BRANCH   1   8
ATOM      8  C   UNL     1     -11.551   1.794  19.623  1.00  0.00     0.000 C 
BRANCH   8   9
ATOM      9  C   UNL     1     -11.945   1.635  21.099  1.00  0.00    -0.000 C 
BRANCH   9  10
ATOM     10  C   UNL     1     -11.596   0.233  21.614  1.00  0.00    -0.000 C 
BRANCH  10  11
ATOM     11  C   UNL     1     -10.482   0.296  22.669  1.00  0.00    -0.000 C 
BRANCH  11  12
ATOM     12  C   UNL     1      -9.172  -0.344  22.184  1.00  0.00    -0.003 C 
ATOM     13  C   UNL     1      -9.326  -1.066  20.846  1.00  0.00     0.004 C 
ENDBRANCH  11  12
ENDBRANCH  10  11
ENDBRANCH   9  10
ENDBRANCH   8   9
ENDBRANCH   1   8
TORSDOF 9
ENDMDL
