MODEL 1
REMARK VINA RESULT:    -4.544      0.000      0.000
REMARK INTER + INTRA:          -8.481
REMARK INTER:                  -6.934
REMARK INTRA:                  -1.547
REMARK UNBOUND:                -1.547
REMARK SMILES OC[C@@H]1O[C@@H](O[C@]2(CO)O[C@H](CO)[C@@H](O)[C@@H]2O)[C@H](O)[C@@H](O)[C@@H]1O
REMARK SMILES IDX 6 1 5 2 3 3 22 4 4 5 20 6 18 7 2 8 1 9 23 11 21 13 19 15
REMARK SMILES IDX 7 17 16 18 10 19 14 20 11 21 8 22 9 23 17 25 15 27 12 29
REMARK SMILES IDX 13 30
REMARK H PARENT 1 10 23 12 21 14 19 16 9 24 17 26 15 28 13 31
REMARK Flexibility Score: inf
ROOT
ATOM      1  O   UNL     1       7.262  12.963  17.972  1.00  0.00    -0.313 OA
ENDROOT
BRANCH   1   2
ATOM      2  C   UNL     1       6.145  12.110  17.758  1.00  0.00     0.285 C 
ATOM      3  C   UNL     1       7.117  10.468  16.392  1.00  0.00     0.178 C 
ATOM      4  C   UNL     1       5.949  10.361  15.369  1.00  0.00     0.177 C 
ATOM      5  O   UNL     1       6.603  10.763  17.678  1.00  0.00    -0.341 OA
ATOM      6  C   UNL     1       4.816  11.357  15.720  1.00  0.00     0.179 C 
ATOM      7  C   UNL     1       5.378  12.571  16.481  1.00  0.00     0.202 C 
BRANCH   3   8
ATOM      8  C   UNL     1       7.972   9.193  16.477  1.00  0.00     0.191 C 
BRANCH   8   9
ATOM      9  O   UNL     1       7.255   8.149  17.083  1.00  0.00    -0.394 OA
ATOM     10  H   UNL     1       6.293   8.336  16.924  1.00  0.00     0.210 HD
ENDBRANCH   8   9
ENDBRANCH   3   8
BRANCH   4  11
ATOM     11  O   UNL     1       5.407   9.063  15.350  1.00  0.00    -0.387 OA
ATOM     12  H   UNL     1       5.408   8.755  14.406  1.00  0.00     0.211 HD
ENDBRANCH   4  11
BRANCH   6  13
ATOM     13  O   UNL     1       4.171  11.791  14.551  1.00  0.00    -0.387 OA
ATOM     14  H   UNL     1       4.852  12.272  14.012  1.00  0.00     0.211 HD
ENDBRANCH   6  13
BRANCH   7  15
ATOM     15  O   UNL     1       4.358  13.486  16.801  1.00  0.00    -0.385 OA
ATOM     16  H   UNL     1       3.910  13.749  15.956  1.00  0.00     0.211 HD
ENDBRANCH   7  15
ENDBRANCH   1   2
BRANCH   1  17
ATOM     17  C   UNL     1       7.142  13.805  19.116  1.00  0.00     0.224 C 
ATOM     18  C   UNL     1       7.779  15.165  18.788  1.00  0.00     0.208 C 
ATOM     19  O   UNL     1       5.782  14.047  19.431  1.00  0.00    -0.337 OA
ATOM     20  C   UNL     1       6.955  16.148  19.588  1.00  0.00     0.180 C 
ATOM     21  C   UNL     1       5.646  15.388  19.847  1.00  0.00     0.179 C 
BRANCH  17  22
ATOM     22  C   UNL     1       7.844  13.146  20.333  1.00  0.00     0.225 C 
BRANCH  22  23
ATOM     23  O   UNL     1       9.094  13.740  20.568  1.00  0.00    -0.391 OA
ATOM     24  H   UNL     1       9.439  14.053  19.691  1.00  0.00     0.210 HD
ENDBRANCH  22  23
ENDBRANCH  17  22
BRANCH  18  25
ATOM     25  O   UNL     1       7.647  15.443  17.415  1.00  0.00    -0.385 OA
ATOM     26  H   UNL     1       6.757  15.864  17.292  1.00  0.00     0.211 HD
ENDBRANCH  18  25
BRANCH  20  27
ATOM     27  O   UNL     1       7.606  16.437  20.798  1.00  0.00    -0.387 OA
ATOM     28  H   UNL     1       7.041  16.056  21.521  1.00  0.00     0.211 HD
ENDBRANCH  20  27
BRANCH  21  29
ATOM     29  C   UNL     1       4.447  16.022  19.127  1.00  0.00     0.191 C 
BRANCH  29  30
ATOM     30  O   UNL     1       3.346  15.153  19.124  1.00  0.00    -0.394 OA
ATOM     31  H   UNL     1       3.385  14.630  19.967  1.00  0.00     0.210 HD
ENDBRANCH  29  30
ENDBRANCH  21  29
ENDBRANCH   1  17
TORSDOF 13
ENDMDL
MODEL 2
REMARK VINA RESULT:    -4.408     18.532     21.291
REMARK INTER + INTRA:          -8.274
REMARK INTER:                  -7.336
REMARK INTRA:                  -0.938
REMARK UNBOUND:                -1.547
REMARK SMILES OC[C@@H]1O[C@@H](O[C@]2(CO)O[C@H](CO)[C@@H](O)[C@@H]2O)[C@H](O)[C@@H](O)[C@@H]1O
REMARK SMILES IDX 6 1 5 2 3 3 22 4 4 5 20 6 18 7 2 8 1 9 23 11 21 13 19 15
REMARK SMILES IDX 7 17 16 18 10 19 14 20 11 21 8 22 9 23 17 25 15 27 12 29
REMARK SMILES IDX 13 30
REMARK H PARENT 1 10 23 12 21 14 19 16 9 24 17 26 15 28 13 31
REMARK Flexibility Score: inf
ROOT
ATOM      1  O   UNL     1      -8.972  16.969   5.135  1.00  0.00    -0.313 OA
ENDROOT
BRANCH   1   2
ATOM      2  C   UNL     1      -9.734  17.860   4.331  1.00  0.00     0.285 C 
ATOM      3  C   UNL     1      -8.023  18.903   3.109  1.00  0.00     0.178 C 
ATOM      4  C   UNL     1      -8.569  20.356   3.228  1.00  0.00     0.177 C 
ATOM      5  O   UNL     1      -9.103  17.988   3.061  1.00  0.00    -0.341 OA
ATOM      6  C   UNL     1      -9.867  20.390   4.073  1.00  0.00     0.179 C 
ATOM      7  C   UNL     1      -9.893  19.222   5.075  1.00  0.00     0.202 C 
BRANCH   3   8
ATOM      8  C   UNL     1      -7.129  18.687   1.878  1.00  0.00     0.191 C 
BRANCH   8   9
ATOM      9  O   UNL     1      -5.837  18.295   2.260  1.00  0.00    -0.394 OA
ATOM     10  H   UNL     1      -5.398  17.932   1.446  1.00  0.00     0.210 HD
ENDBRANCH   8   9
ENDBRANCH   3   8
BRANCH   4  11
ATOM     11  O   UNL     1      -8.851  20.899   1.961  1.00  0.00    -0.387 OA
ATOM     12  H   UNL     1      -9.184  20.159   1.388  1.00  0.00     0.211 HD
ENDBRANCH   4  11
BRANCH   6  13
ATOM     13  O   UNL     1      -9.964  21.607   4.766  1.00  0.00    -0.387 OA
ATOM     14  H   UNL     1     -10.908  21.692   5.063  1.00  0.00     0.211 HD
ENDBRANCH   6  13
BRANCH   7  15
ATOM     15  O   UNL     1     -11.065  19.246   5.852  1.00  0.00    -0.385 OA
ATOM     16  H   UNL     1     -11.631  19.992   5.525  1.00  0.00     0.211 HD
ENDBRANCH   7  15
ENDBRANCH   1   2
BRANCH   1  17
ATOM     17  C   UNL     1      -9.688  15.816   5.568  1.00  0.00     0.224 C 
ATOM     18  C   UNL     1      -8.721  14.621   5.587  1.00  0.00     0.208 C 
ATOM     19  O   UNL     1     -10.173  15.981   6.889  1.00  0.00    -0.337 OA
ATOM     20  C   UNL     1      -9.229  13.768   6.726  1.00  0.00     0.180 C 
ATOM     21  C   UNL     1     -10.046  14.754   7.573  1.00  0.00     0.179 C 
BRANCH  17  22
ATOM     22  C   UNL     1     -10.881  15.545   4.612  1.00  0.00     0.225 C 
BRANCH  22  23
ATOM     23  O   UNL     1     -10.617  14.439   3.788  1.00  0.00    -0.391 OA
ATOM     24  H   UNL     1      -9.752  14.613   3.332  1.00  0.00     0.210 HD
ENDBRANCH  22  23
ENDBRANCH  17  22
BRANCH  18  25
ATOM     25  O   UNL     1      -7.414  15.061   5.870  1.00  0.00    -0.385 OA
ATOM     26  H   UNL     1      -7.077  14.495   6.612  1.00  0.00     0.211 HD
ENDBRANCH  18  25
BRANCH  20  27
ATOM     27  O   UNL     1     -10.054  12.748   6.224  1.00  0.00    -0.387 OA
ATOM     28  H   UNL     1     -10.963  13.138   6.136  1.00  0.00     0.211 HD
ENDBRANCH  20  27
BRANCH  21  29
ATOM     29  C   UNL     1      -9.416  15.006   8.951  1.00  0.00     0.191 C 
BRANCH  29  30
ATOM     30  O   UNL     1      -9.639  16.326   9.372  1.00  0.00    -0.394 OA
ATOM     31  H   UNL     1      -8.755  16.777   9.394  1.00  0.00     0.210 HD
ENDBRANCH  29  30
ENDBRANCH  21  29
ENDBRANCH   1  17
TORSDOF 13
ENDMDL
MODEL 3
REMARK VINA RESULT:    -4.397      1.370      2.445
REMARK INTER + INTRA:          -8.258
REMARK INTER:                  -7.298
REMARK INTRA:                  -0.961
REMARK UNBOUND:                -1.547
REMARK SMILES OC[C@@H]1O[C@@H](O[C@]2(CO)O[C@H](CO)[C@@H](O)[C@@H]2O)[C@H](O)[C@@H](O)[C@@H]1O
REMARK SMILES IDX 6 1 5 2 3 3 22 4 4 5 20 6 18 7 2 8 1 9 23 11 21 13 19 15
REMARK SMILES IDX 7 17 16 18 10 19 14 20 11 21 8 22 9 23 17 25 15 27 12 29
REMARK SMILES IDX 13 30
REMARK H PARENT 1 10 23 12 21 14 19 16 9 24 17 26 15 28 13 31
REMARK Flexibility Score: inf
ROOT
ATOM      1  O   UNL     1       6.235  13.892  17.560  1.00  0.00    -0.313 OA
ENDROOT
BRANCH   1   2
ATOM      2  C   UNL     1       5.300  12.852  17.304  1.00  0.00     0.285 C 
ATOM      3  C   UNL     1       6.749  11.126  16.649  1.00  0.00     0.178 C 
ATOM      4  C   UNL     1       5.909  10.627  15.437  1.00  0.00     0.177 C 
ATOM      5  O   UNL     1       5.887  11.606  17.665  1.00  0.00    -0.341 OA
ATOM      6  C   UNL     1       4.635  11.490  15.257  1.00  0.00     0.179 C 
ATOM      7  C   UNL     1       4.859  12.909  15.808  1.00  0.00     0.202 C 
BRANCH   3   8
ATOM      8  C   UNL     1       7.665  10.043  17.242  1.00  0.00     0.191 C 
BRANCH   8   9
ATOM      9  O   UNL     1       8.585   9.587  16.285  1.00  0.00    -0.394 OA
ATOM     10  H   UNL     1       9.457   9.496  16.751  1.00  0.00     0.210 HD
ENDBRANCH   8   9
ENDBRANCH   3   8
BRANCH   4  11
ATOM     11  O   UNL     1       5.515   9.287  15.608  1.00  0.00    -0.387 OA
ATOM     12  H   UNL     1       6.194   8.718  15.160  1.00  0.00     0.211 HD
ENDBRANCH   4  11
BRANCH   6  13
ATOM     13  O   UNL     1       4.285  11.562  13.900  1.00  0.00    -0.387 OA
ATOM     14  H   UNL     1       3.814  12.427  13.772  1.00  0.00     0.211 HD
ENDBRANCH   6  13
BRANCH   7  15
ATOM     15  O   UNL     1       3.711  13.705  15.645  1.00  0.00    -0.385 OA
ATOM     16  H   UNL     1       3.686  14.012  14.702  1.00  0.00     0.211 HD
ENDBRANCH   7  15
ENDBRANCH   1   2
BRANCH   1  17
ATOM     17  C   UNL     1       6.087  14.508  18.836  1.00  0.00     0.224 C 
ATOM     18  C   UNL     1       7.003  13.784  19.835  1.00  0.00     0.208 C 
ATOM     19  O   UNL     1       6.499  15.863  18.799  1.00  0.00    -0.337 OA
ATOM     20  C   UNL     1       7.413  14.873  20.799  1.00  0.00     0.180 C 
ATOM     21  C   UNL     1       7.172  16.164  20.003  1.00  0.00     0.179 C 
BRANCH  17  22
ATOM     22  C   UNL     1       4.605  14.432  19.290  1.00  0.00     0.225 C 
BRANCH  22  23
ATOM     23  O   UNL     1       4.008  15.702  19.256  1.00  0.00    -0.391 OA
ATOM     24  H   UNL     1       3.870  15.935  18.300  1.00  0.00     0.210 HD
ENDBRANCH  22  23
ENDBRANCH  17  22
BRANCH  18  25
ATOM     25  O   UNL     1       8.140  13.283  19.175  1.00  0.00    -0.385 OA
ATOM     26  H   UNL     1       8.760  14.048  19.052  1.00  0.00     0.211 HD
ENDBRANCH  18  25
BRANCH  20  27
ATOM     27  O   UNL     1       6.590  14.835  21.936  1.00  0.00    -0.387 OA
ATOM     28  H   UNL     1       6.960  14.129  22.529  1.00  0.00     0.211 HD
ENDBRANCH  20  27
BRANCH  21  29
ATOM     29  C   UNL     1       8.476  16.907  19.681  1.00  0.00     0.191 C 
BRANCH  29  30
ATOM     30  O   UNL     1       8.252  17.940  18.759  1.00  0.00    -0.394 OA
ATOM     31  H   UNL     1       8.918  18.651  18.951  1.00  0.00     0.210 HD
ENDBRANCH  29  30
ENDBRANCH  21  29
ENDBRANCH   1  17
TORSDOF 13
ENDMDL
MODEL 4
REMARK VINA RESULT:    -4.189     18.765     21.400
REMARK INTER + INTRA:          -7.939
REMARK INTER:                  -6.481
REMARK INTRA:                  -1.458
REMARK UNBOUND:                -1.547
REMARK SMILES OC[C@@H]1O[C@@H](O[C@]2(CO)O[C@H](CO)[C@@H](O)[C@@H]2O)[C@H](O)[C@@H](O)[C@@H]1O
REMARK SMILES IDX 6 1 5 2 3 3 22 4 4 5 20 6 18 7 2 8 1 9 23 11 21 13 19 15
REMARK SMILES IDX 7 17 16 18 10 19 14 20 11 21 8 22 9 23 17 25 15 27 12 29
REMARK SMILES IDX 13 30
REMARK H PARENT 1 10 23 12 21 14 19 16 9 24 17 26 15 28 13 31
REMARK Flexibility Score: inf
ROOT
ATOM      1  O   UNL     1      -9.582  18.288   5.991  1.00  0.00    -0.313 OA
ENDROOT
BRANCH   1   2
ATOM      2  C   UNL     1     -10.243  17.062   6.279  1.00  0.00     0.285 C 
ATOM      3  C   UNL     1     -10.254  17.123   8.625  1.00  0.00     0.178 C 
ATOM      4  C   UNL     1      -9.846  15.639   8.852  1.00  0.00     0.177 C 
ATOM      5  O   UNL     1     -11.037  17.231   7.450  1.00  0.00    -0.341 OA
ATOM      6  C   UNL     1      -9.614  14.918   7.501  1.00  0.00     0.179 C 
ATOM      7  C   UNL     1      -9.186  15.923   6.417  1.00  0.00     0.202 C 
BRANCH   3   8
ATOM      8  C   UNL     1     -11.036  17.727   9.803  1.00  0.00     0.191 C 
BRANCH   8   9
ATOM      9  O   UNL     1     -10.511  18.978  10.164  1.00  0.00    -0.394 OA
ATOM     10  H   UNL     1     -11.262  19.626  10.112  1.00  0.00     0.210 HD
ENDBRANCH   8   9
ENDBRANCH   3   8
BRANCH   4  11
ATOM     11  O   UNL     1     -10.841  14.940   9.561  1.00  0.00    -0.387 OA
ATOM     12  H   UNL     1     -10.604  14.983  10.524  1.00  0.00     0.211 HD
ENDBRANCH   4  11
BRANCH   6  13
ATOM     13  O   UNL     1      -8.627  13.929   7.641  1.00  0.00    -0.387 OA
ATOM     14  H   UNL     1      -7.851  14.221   7.094  1.00  0.00     0.211 HD
ENDBRANCH   6  13
BRANCH   7  15
ATOM     15  O   UNL     1      -8.967  15.280   5.185  1.00  0.00    -0.385 OA
ATOM     16  H   UNL     1      -8.164  14.705   5.282  1.00  0.00     0.211 HD
ENDBRANCH   7  15
ENDBRANCH   1   2
BRANCH   1  17
ATOM     17  C   UNL     1      -9.943  18.865   4.740  1.00  0.00     0.224 C 
ATOM     18  C   UNL     1      -8.673  19.013   3.887  1.00  0.00     0.208 C 
ATOM     19  O   UNL     1     -10.829  18.022   4.025  1.00  0.00    -0.337 OA
ATOM     20  C   UNL     1      -9.168  18.824   2.472  1.00  0.00     0.180 C 
ATOM     21  C   UNL     1     -10.494  18.071   2.655  1.00  0.00     0.179 C 
BRANCH  17  22
ATOM     22  C   UNL     1     -10.617  20.245   4.969  1.00  0.00     0.225 C 
BRANCH  22  23
ATOM     23  O   UNL     1      -9.783  21.285   4.531  1.00  0.00    -0.391 OA
ATOM     24  H   UNL     1      -8.992  20.865   4.102  1.00  0.00     0.210 HD
ENDBRANCH  22  23
ENDBRANCH  17  22
BRANCH  18  25
ATOM     25  O   UNL     1      -7.754  17.997   4.208  1.00  0.00    -0.385 OA
ATOM     26  H   UNL     1      -7.872  17.797   5.173  1.00  0.00     0.211 HD
ENDBRANCH  18  25
BRANCH  20  27
ATOM     27  O   UNL     1      -9.390  20.075   1.876  1.00  0.00    -0.387 OA
ATOM     28  H   UNL     1      -9.966  20.589   2.501  1.00  0.00     0.211 HD
ENDBRANCH  20  27
BRANCH  21  29
ATOM     29  C   UNL     1     -10.439  16.642   2.097  1.00  0.00     0.191 C 
BRANCH  29  30
ATOM     30  O   UNL     1     -10.861  15.709   3.057  1.00  0.00    -0.394 OA
ATOM     31  H   UNL     1     -10.708  14.807   2.673  1.00  0.00     0.210 HD
ENDBRANCH  29  30
ENDBRANCH  21  29
ENDBRANCH   1  17
TORSDOF 13
ENDMDL
MODEL 5
REMARK VINA RESULT:    -4.149      1.540      2.445
REMARK INTER + INTRA:          -7.879
REMARK INTER:                  -7.030
REMARK INTRA:                  -0.850
REMARK UNBOUND:                -1.547
REMARK SMILES OC[C@@H]1O[C@@H](O[C@]2(CO)O[C@H](CO)[C@@H](O)[C@@H]2O)[C@H](O)[C@@H](O)[C@@H]1O
REMARK SMILES IDX 6 1 5 2 3 3 22 4 4 5 20 6 18 7 2 8 1 9 23 11 21 13 19 15
REMARK SMILES IDX 7 17 16 18 10 19 14 20 11 21 8 22 9 23 17 25 15 27 12 29
REMARK SMILES IDX 13 30
REMARK H PARENT 1 10 23 12 21 14 19 16 9 24 17 26 15 28 13 31
REMARK Flexibility Score: inf
ROOT
ATOM      1  O   UNL     1       6.342  13.087  17.430  1.00  0.00    -0.313 OA
ENDROOT
BRANCH   1   2
ATOM      2  C   UNL     1       5.829  11.764  17.518  1.00  0.00     0.285 C 
ATOM      3  C   UNL     1       7.801  10.522  17.241  1.00  0.00     0.178 C 
ATOM      4  C   UNL     1       7.217   9.462  16.261  1.00  0.00     0.177 C 
ATOM      5  O   UNL     1       6.799  10.936  18.152  1.00  0.00    -0.341 OA
ATOM      6  C   UNL     1       5.730   9.761  15.949  1.00  0.00     0.179 C 
ATOM      7  C   UNL     1       5.437  11.265  16.093  1.00  0.00     0.202 C 
BRANCH   3   8
ATOM      8  C   UNL     1       9.017  10.015  18.032  1.00  0.00     0.191 C 
BRANCH   8   9
ATOM      9  O   UNL     1       8.789  10.106  19.414  1.00  0.00    -0.394 OA
ATOM     10  H   UNL     1       8.008  10.707  19.534  1.00  0.00     0.210 HD
ENDBRANCH   8   9
ENDBRANCH   3   8
BRANCH   4  11
ATOM     11  O   UNL     1       7.304   8.166  16.803  1.00  0.00    -0.387 OA
ATOM     12  H   UNL     1       6.390   7.779  16.793  1.00  0.00     0.211 HD
ENDBRANCH   4  11
BRANCH   6  13
ATOM     13  O   UNL     1       5.414   9.343  14.646  1.00  0.00    -0.387 OA
ATOM     14  H   UNL     1       5.620  10.105  14.044  1.00  0.00     0.211 HD
ENDBRANCH   6  13
BRANCH   7  15
ATOM     15  O   UNL     1       4.090  11.549  15.806  1.00  0.00    -0.385 OA
ATOM     16  H   UNL     1       3.753  12.164  16.509  1.00  0.00     0.211 HD
ENDBRANCH   7  15
ENDBRANCH   1   2
BRANCH   1  17
ATOM     17  C   UNL     1       5.907  13.952  18.475  1.00  0.00     0.224 C 
ATOM     18  C   UNL     1       4.807  14.871  17.920  1.00  0.00     0.208 C 
ATOM     19  O   UNL     1       5.337  13.217  19.542  1.00  0.00    -0.337 OA
ATOM     20  C   UNL     1       3.906  15.108  19.109  1.00  0.00     0.180 C 
ATOM     21  C   UNL     1       4.226  13.930  20.040  1.00  0.00     0.179 C 
BRANCH  17  22
ATOM     22  C   UNL     1       7.106  14.785  19.005  1.00  0.00     0.225 C 
BRANCH  22  23
ATOM     23  O   UNL     1       7.067  16.092  18.495  1.00  0.00    -0.391 OA
ATOM     24  H   UNL     1       7.943  16.513  18.701  1.00  0.00     0.210 HD
ENDBRANCH  22  23
ENDBRANCH  17  22
BRANCH  18  25
ATOM     25  O   UNL     1       4.090  14.209  16.906  1.00  0.00    -0.385 OA
ATOM     26  H   UNL     1       4.532  13.331  16.769  1.00  0.00     0.211 HD
ENDBRANCH  18  25
BRANCH  20  27
ATOM     27  O   UNL     1       4.239  16.326  19.722  1.00  0.00    -0.387 OA
ATOM     28  H   UNL     1       5.219  16.444  19.604  1.00  0.00     0.211 HD
ENDBRANCH  20  27
BRANCH  21  29
ATOM     29  C   UNL     1       3.039  12.969  20.201  1.00  0.00     0.191 C 
BRANCH  29  30
ATOM     30  O   UNL     1       1.823  13.668  20.209  1.00  0.00    -0.394 OA
ATOM     31  H   UNL     1       1.975  14.521  19.724  1.00  0.00     0.210 HD
ENDBRANCH  29  30
ENDBRANCH  21  29
ENDBRANCH   1  17
TORSDOF 13
ENDMDL
MODEL 6
REMARK VINA RESULT:    -4.107     18.108     20.847
REMARK INTER + INTRA:          -7.815
REMARK INTER:                  -6.233
REMARK INTRA:                  -1.582
REMARK UNBOUND:                -1.547
REMARK SMILES OC[C@@H]1O[C@@H](O[C@]2(CO)O[C@H](CO)[C@@H](O)[C@@H]2O)[C@H](O)[C@@H](O)[C@@H]1O
REMARK SMILES IDX 6 1 5 2 3 3 22 4 4 5 20 6 18 7 2 8 1 9 23 11 21 13 19 15
REMARK SMILES IDX 7 17 16 18 10 19 14 20 11 21 8 22 9 23 17 25 15 27 12 29
REMARK SMILES IDX 13 30
REMARK H PARENT 1 10 23 12 21 14 19 16 9 24 17 26 15 28 13 31
REMARK Flexibility Score: inf
ROOT
ATOM      1  O   UNL     1      -8.633  16.979   3.849  1.00  0.00    -0.313 OA
ENDROOT
BRANCH   1   2
ATOM      2  C   UNL     1      -8.745  16.743   5.246  1.00  0.00     0.285 C 
ATOM      3  C   UNL     1      -7.065  15.131   5.543  1.00  0.00     0.178 C 
ATOM      4  C   UNL     1      -7.878  14.184   6.473  1.00  0.00     0.177 C 
ATOM      5  O   UNL     1      -7.449  16.474   5.773  1.00  0.00    -0.341 OA
ATOM      6  C   UNL     1      -9.313  14.725   6.693  1.00  0.00     0.179 C 
ATOM      7  C   UNL     1      -9.758  15.583   5.496  1.00  0.00     0.202 C 
BRANCH   3   8
ATOM      8  C   UNL     1      -5.544  15.007   5.728  1.00  0.00     0.191 C 
BRANCH   8   9
ATOM      9  O   UNL     1      -4.883  16.124   5.194  1.00  0.00    -0.394 OA
ATOM     10  H   UNL     1      -5.588  16.764   4.914  1.00  0.00     0.210 HD
ENDBRANCH   8   9
ENDBRANCH   3   8
BRANCH   4  11
ATOM     11  O   UNL     1      -7.259  14.049   7.729  1.00  0.00    -0.387 OA
ATOM     12  H   UNL     1      -6.278  14.044   7.577  1.00  0.00     0.211 HD
ENDBRANCH   4  11
BRANCH   6  13
ATOM     13  O   UNL     1     -10.212  13.662   6.870  1.00  0.00    -0.387 OA
ATOM     14  H   UNL     1      -9.776  13.020   7.491  1.00  0.00     0.211 HD
ENDBRANCH   6  13
BRANCH   7  15
ATOM     15  O   UNL     1     -11.062  16.076   5.681  1.00  0.00    -0.385 OA
ATOM     16  H   UNL     1     -11.037  16.726   6.431  1.00  0.00     0.211 HD
ENDBRANCH   7  15
ENDBRANCH   1   2
BRANCH   1  17
ATOM     17  C   UNL     1      -8.761  18.348   3.477  1.00  0.00     0.224 C 
ATOM     18  C   UNL     1      -9.938  18.478   2.496  1.00  0.00     0.208 C 
ATOM     19  O   UNL     1      -9.064  19.156   4.600  1.00  0.00    -0.337 OA
ATOM     20  C   UNL     1     -10.500  19.849   2.791  1.00  0.00     0.180 C 
ATOM     21  C   UNL     1      -9.989  20.147   4.209  1.00  0.00     0.179 C 
BRANCH  17  22
ATOM     22  C   UNL     1      -7.443  18.845   2.825  1.00  0.00     0.225 C 
BRANCH  22  23
ATOM     23  O   UNL     1      -6.381  17.979   3.129  1.00  0.00    -0.391 OA
ATOM     24  H   UNL     1      -6.675  17.060   2.896  1.00  0.00     0.210 HD
ENDBRANCH  22  23
ENDBRANCH  17  22
BRANCH  18  25
ATOM     25  O   UNL     1     -10.909  17.498   2.774  1.00  0.00    -0.385 OA
ATOM     26  H   UNL     1     -11.593  17.561   2.057  1.00  0.00     0.211 HD
ENDBRANCH  18  25
BRANCH  20  27
ATOM     27  O   UNL     1      -9.984  20.780   1.876  1.00  0.00    -0.387 OA
ATOM     28  H   UNL     1     -10.565  21.584   1.933  1.00  0.00     0.211 HD
ENDBRANCH  20  27
BRANCH  21  29
ATOM     29  C   UNL     1     -11.125  20.213   5.240  1.00  0.00     0.191 C 
BRANCH  29  30
ATOM     30  O   UNL     1     -11.024  19.166   6.168  1.00  0.00    -0.394 OA
ATOM     31  H   UNL     1     -10.681  18.374   5.677  1.00  0.00     0.210 HD
ENDBRANCH  29  30
ENDBRANCH  21  29
ENDBRANCH   1  17
TORSDOF 13
ENDMDL
MODEL 7
REMARK VINA RESULT:    -3.863      1.952      3.691
REMARK INTER + INTRA:          -7.442
REMARK INTER:                  -6.313
REMARK INTRA:                  -1.130
REMARK UNBOUND:                -1.547
REMARK SMILES OC[C@@H]1O[C@@H](O[C@]2(CO)O[C@H](CO)[C@@H](O)[C@@H]2O)[C@H](O)[C@@H](O)[C@@H]1O
REMARK SMILES IDX 6 1 5 2 3 3 22 4 4 5 20 6 18 7 2 8 1 9 23 11 21 13 19 15
REMARK SMILES IDX 7 17 16 18 10 19 14 20 11 21 8 22 9 23 17 25 15 27 12 29
REMARK SMILES IDX 13 30
REMARK H PARENT 1 10 23 12 21 14 19 16 9 24 17 26 15 28 13 31
REMARK Flexibility Score: inf
ROOT
ATOM      1  O   UNL     1       7.513  12.652  18.366  1.00  0.00    -0.313 OA
ENDROOT
BRANCH   1   2
ATOM      2  C   UNL     1       6.890  11.383  18.210  1.00  0.00     0.285 C 
ATOM      3  C   UNL     1       8.091  10.121  19.783  1.00  0.00     0.178 C 
ATOM      4  C   UNL     1       8.292   8.859  18.895  1.00  0.00     0.177 C 
ATOM      5  O   UNL     1       6.851  10.731  19.476  1.00  0.00    -0.341 OA
ATOM      6  C   UNL     1       7.671   9.068  17.492  1.00  0.00     0.179 C 
ATOM      7  C   UNL     1       7.651  10.562  17.124  1.00  0.00     0.202 C 
BRANCH   3   8
ATOM      8  C   UNL     1       8.141   9.821  21.289  1.00  0.00     0.191 C 
BRANCH   8   9
ATOM      9  O   UNL     1       6.883   9.414  21.761  1.00  0.00    -0.394 OA
ATOM     10  H   UNL     1       6.482  10.201  22.214  1.00  0.00     0.210 HD
ENDBRANCH   8   9
ENDBRANCH   3   8
BRANCH   4  11
ATOM     11  O   UNL     1       7.696   7.726  19.479  1.00  0.00    -0.387 OA
ATOM     12  H   UNL     1       8.035   6.929  18.994  1.00  0.00     0.211 HD
ENDBRANCH   4  11
BRANCH   6  13
ATOM     13  O   UNL     1       8.400   8.355  16.526  1.00  0.00    -0.387 OA
ATOM     14  H   UNL     1       8.649   9.006  15.819  1.00  0.00     0.211 HD
ENDBRANCH   6  13
BRANCH   7  15
ATOM     15  O   UNL     1       7.094  10.764  15.848  1.00  0.00    -0.385 OA
ATOM     16  H   UNL     1       7.835  10.761  15.189  1.00  0.00     0.211 HD
ENDBRANCH   7  15
ENDBRANCH   1   2
BRANCH   1  17
ATOM     17  C   UNL     1       6.601  13.745  18.424  1.00  0.00     0.224 C 
ATOM     18  C   UNL     1       6.148  13.923  19.883  1.00  0.00     0.208 C 
ATOM     19  O   UNL     1       7.227  14.954  18.032  1.00  0.00    -0.337 OA
ATOM     20  C   UNL     1       5.923  15.412  20.008  1.00  0.00     0.180 C 
ATOM     21  C   UNL     1       6.754  15.997  18.856  1.00  0.00     0.179 C 
BRANCH  17  22
ATOM     22  C   UNL     1       5.386  13.470  17.499  1.00  0.00     0.225 C 
BRANCH  22  23
ATOM     23  O   UNL     1       4.232  13.215  18.256  1.00  0.00    -0.391 OA
ATOM     24  H   UNL     1       4.422  13.504  19.187  1.00  0.00     0.210 HD
ENDBRANCH  22  23
ENDBRANCH  17  22
BRANCH  18  25
ATOM     25  O   UNL     1       7.173  13.523  20.760  1.00  0.00    -0.385 OA
ATOM     26  H   UNL     1       6.736  13.036  21.507  1.00  0.00     0.211 HD
ENDBRANCH  18  25
BRANCH  20  27
ATOM     27  O   UNL     1       4.561  15.703  19.831  1.00  0.00    -0.387 OA
ATOM     28  H   UNL     1       4.065  14.865  20.025  1.00  0.00     0.211 HD
ENDBRANCH  20  27
BRANCH  21  29
ATOM     29  C   UNL     1       7.944  16.829  19.353  1.00  0.00     0.191 C 
BRANCH  29  30
ATOM     30  O   UNL     1       8.157  17.945  18.531  1.00  0.00    -0.394 OA
ATOM     31  H   UNL     1       9.011  17.792  18.047  1.00  0.00     0.210 HD
ENDBRANCH  29  30
ENDBRANCH  21  29
ENDBRANCH   1  17
TORSDOF 13
ENDMDL
MODEL 8
REMARK VINA RESULT:    -3.825      2.578      3.963
REMARK INTER + INTRA:          -7.384
REMARK INTER:                  -6.217
REMARK INTRA:                  -1.168
REMARK UNBOUND:                -1.547
REMARK SMILES OC[C@@H]1O[C@@H](O[C@]2(CO)O[C@H](CO)[C@@H](O)[C@@H]2O)[C@H](O)[C@@H](O)[C@@H]1O
REMARK SMILES IDX 6 1 5 2 3 3 22 4 4 5 20 6 18 7 2 8 1 9 23 11 21 13 19 15
REMARK SMILES IDX 7 17 16 18 10 19 14 20 11 21 8 22 9 23 17 25 15 27 12 29
REMARK SMILES IDX 13 30
REMARK H PARENT 1 10 23 12 21 14 19 16 9 24 17 26 15 28 13 31
REMARK Flexibility Score: inf
ROOT
ATOM      1  O   UNL     1       6.233  11.497  18.960  1.00  0.00    -0.313 OA
ENDROOT
BRANCH   1   2
ATOM      2  C   UNL     1       7.348  10.952  19.655  1.00  0.00     0.285 C 
ATOM      3  C   UNL     1       7.623   8.928  18.499  1.00  0.00     0.178 C 
ATOM      4  C   UNL     1       7.854   8.029  19.749  1.00  0.00     0.177 C 
ATOM      5  O   UNL     1       8.151  10.220  18.734  1.00  0.00    -0.341 OA
ATOM      6  C   UNL     1       7.754   8.861  21.051  1.00  0.00     0.179 C 
ATOM      7  C   UNL     1       6.840  10.082  20.847  1.00  0.00     0.202 C 
BRANCH   3   8
ATOM      8  C   UNL     1       8.249   8.358  17.215  1.00  0.00     0.191 C 
BRANCH   8   9
ATOM      9  O   UNL     1       7.697   7.106  16.902  1.00  0.00    -0.394 OA
ATOM     10  H   UNL     1       7.626   6.606  17.757  1.00  0.00     0.210 HD
ENDBRANCH   8   9
ENDBRANCH   3   8
BRANCH   4  11
ATOM     11  O   UNL     1       9.121   7.418  19.709  1.00  0.00    -0.387 OA
ATOM     12  H   UNL     1       9.473   7.525  18.787  1.00  0.00     0.211 HD
ENDBRANCH   4  11
BRANCH   6  13
ATOM     13  O   UNL     1       7.254   8.069  22.096  1.00  0.00    -0.387 OA
ATOM     14  H   UNL     1       6.311   7.856  21.867  1.00  0.00     0.211 HD
ENDBRANCH   6  13
BRANCH   7  15
ATOM     15  O   UNL     1       6.737  10.843  22.025  1.00  0.00    -0.385 OA
ATOM     16  H   UNL     1       7.455  10.546  22.642  1.00  0.00     0.211 HD
ENDBRANCH   7  15
ENDBRANCH   1   2
BRANCH   1  17
ATOM     17  C   UNL     1       5.882  12.817  19.365  1.00  0.00     0.224 C 
ATOM     18  C   UNL     1       5.273  13.550  18.159  1.00  0.00     0.208 C 
ATOM     19  O   UNL     1       4.895  12.794  20.381  1.00  0.00    -0.337 OA
ATOM     20  C   UNL     1       4.262  14.485  18.782  1.00  0.00     0.180 C 
ATOM     21  C   UNL     1       3.988  13.851  20.154  1.00  0.00     0.179 C 
BRANCH  17  22
ATOM     22  C   UNL     1       7.140  13.562  19.886  1.00  0.00     0.225 C 
BRANCH  22  23
ATOM     23  O   UNL     1       7.628  14.452  18.917  1.00  0.00    -0.391 OA
ATOM     24  H   UNL     1       7.673  15.350  19.339  1.00  0.00     0.210 HD
ENDBRANCH  22  23
ENDBRANCH  17  22
BRANCH  18  25
ATOM     25  O   UNL     1       4.617  12.634  17.317  1.00  0.00    -0.385 OA
ATOM     26  H   UNL     1       4.009  13.163  16.737  1.00  0.00     0.211 HD
ENDBRANCH  18  25
BRANCH  20  27
ATOM     27  O   UNL     1       4.826  15.762  18.933  1.00  0.00    -0.387 OA
ATOM     28  H   UNL     1       5.500  15.689  19.659  1.00  0.00     0.211 HD
ENDBRANCH  20  27
BRANCH  21  29
ATOM     29  C   UNL     1       2.552  13.320  20.278  1.00  0.00     0.191 C 
BRANCH  29  30
ATOM     30  O   UNL     1       1.625  14.260  19.805  1.00  0.00    -0.394 OA
ATOM     31  H   UNL     1       2.130  15.091  19.603  1.00  0.00     0.210 HD
ENDBRANCH  29  30
ENDBRANCH  21  29
ENDBRANCH   1  17
TORSDOF 13
ENDMDL
