MODEL 1
REMARK VINA RESULT:    -4.115      0.000      0.000
REMARK INTER + INTRA:          -2.501
REMARK INTER:                  -5.078
REMARK INTRA:                   2.576
REMARK UNBOUND:                 2.576
REMARK SMILES C=C1CC[C@@H]2[C@@H]([C@@H]3[C@@H](C)CC[C@@H]13)C2(C)C
REMARK SMILES IDX 3 1 2 2 1 3 12 4 9 5 8 6 10 7 7 8 11 9 4 11 5 12 6 13 13 14
REMARK SMILES IDX 14 16 15 17
REMARK H PARENT
REMARK Flexibility Score: 80.00
ROOT
ATOM      1  C   UNL     1      31.542   7.891  32.747  1.00  0.00     0.031 C 
ENDROOT
BRANCH   1   2
ATOM      2  C   UNL     1      31.534   9.421  32.806  1.00  0.00    -0.074 C 
ATOM      3  C   UNL     1      30.823  10.051  33.755  1.00  0.00     0.008 C 
BRANCH   2   4
ATOM      4  C   UNL     1      32.149  10.173  31.629  1.00  0.00     0.018 C 
ATOM      5  C   UNL     1      30.973  12.217  28.696  1.00  0.00     0.008 C 
ATOM      6  C   UNL     1      31.883  11.320  29.543  1.00  0.00    -0.010 C 
ATOM      7  C   UNL     1      32.862  12.140  30.427  1.00  0.00     0.004 C 
ATOM      8  C   UNL     1      31.108  10.483  30.554  1.00  0.00     0.003 CG0
ATOM      9  C   UNL     1      32.839  11.514  31.839  1.00  0.00     0.008 C 
ATOM     10  G   UNL     1      30.221   9.277  30.129  1.00  0.00     0.000 G0
ENDBRANCH   2   4
ENDBRANCH   1   2
BRANCH   1  11
ATOM     11  C   UNL     1      30.643   7.302  31.624  1.00  0.00     0.009 C 
BRANCH  11  12
ATOM     12  C   UNL     1      30.998   7.942  30.266  1.00  0.00    -0.001 C 
ATOM     13  C   UNL     1      30.193   9.270  30.137  1.00  0.00     0.002 CG0
ATOM     14  C   UNL     1      30.122   8.185  29.053  1.00  0.00    -0.029 C 
ATOM     15  G   UNL     1      31.125  10.457  30.521  1.00  0.00     0.000 G0
ATOM     16  C   UNL     1      28.820   7.377  28.981  1.00  0.00     0.011 C 
ATOM     17  C   UNL     1      30.832   8.467  27.723  1.00  0.00     0.011 C 
ENDBRANCH  11  12
ENDBRANCH   1  11
TORSDOF 0
ENDMDL
MODEL 2
REMARK VINA RESULT:    -3.941      0.877      4.090
REMARK INTER + INTRA:          -2.287
REMARK INTER:                  -5.102
REMARK INTRA:                   2.816
REMARK UNBOUND:                 2.576
REMARK SMILES C=C1CC[C@@H]2[C@@H]([C@@H]3[C@@H](C)CC[C@@H]13)C2(C)C
REMARK SMILES IDX 3 1 2 2 1 3 12 4 9 5 8 6 10 7 7 8 11 9 4 11 5 12 6 13 13 14
REMARK SMILES IDX 14 16 15 17
REMARK H PARENT
REMARK Flexibility Score: 80.00
ROOT
ATOM      1  C   UNL     1      32.542  12.200  30.653  1.00  0.00     0.031 C 
ENDROOT
BRANCH   1   2
ATOM      2  C   UNL     1      31.588  11.643  29.593  1.00  0.00    -0.074 C 
ATOM      3  C   UNL     1      30.573  12.399  29.142  1.00  0.00     0.008 C 
BRANCH   2   4
ATOM      4  C   UNL     1      31.691  10.157  29.265  1.00  0.00     0.018 C 
ATOM      5  C   UNL     1      29.717   7.013  29.886  1.00  0.00     0.008 C 
ATOM      6  C   UNL     1      30.923   7.911  29.588  1.00  0.00    -0.010 C 
ATOM      7  C   UNL     1      31.125   8.140  28.066  1.00  0.00     0.004 C 
ATOM      8  C   UNL     1      30.758   9.321  30.142  1.00  0.00     0.003 CG0
ATOM      9  C   UNL     1      31.393   9.648  27.861  1.00  0.00     0.008 C 
ATOM     10  G   UNL     1      30.833   9.631  31.665  1.00  0.00     0.000 G0
ENDBRANCH   2   4
ENDBRANCH   1   2
BRANCH   1  11
ATOM     11  C   UNL     1      32.310  11.615  32.075  1.00  0.00     0.009 C 
BRANCH  11  12
ATOM     12  C   UNL     1      32.280  10.074  32.019  1.00  0.00    -0.001 C 
ATOM     13  C   UNL     1      30.828   9.636  31.661  1.00  0.00     0.002 CG0
ATOM     14  C   UNL     1      31.542   9.089  32.905  1.00  0.00    -0.029 C 
ATOM     15  G   UNL     1      30.763   9.323  30.138  1.00  0.00     0.000 G0
ATOM     16  C   UNL     1      31.059   9.621  34.260  1.00  0.00     0.011 C 
ATOM     17  C   UNL     1      32.010   7.629  32.866  1.00  0.00     0.011 C 
ENDBRANCH  11  12
ENDBRANCH   1  11
TORSDOF 0
ENDMDL
MODEL 3
REMARK VINA RESULT:    -3.799      1.223      3.642
REMARK INTER + INTRA:          -2.111
REMARK INTER:                  -4.778
REMARK INTRA:                   2.667
REMARK UNBOUND:                 2.576
REMARK SMILES C=C1CC[C@@H]2[C@@H]([C@@H]3[C@@H](C)CC[C@@H]13)C2(C)C
REMARK SMILES IDX 3 1 2 2 1 3 12 4 9 5 8 6 10 7 7 8 11 9 4 11 5 12 6 13 13 14
REMARK SMILES IDX 14 16 15 17
REMARK H PARENT
REMARK Flexibility Score: 80.00
ROOT
ATOM      1  C   UNL     1      31.347  11.775  32.230  1.00  0.00     0.031 C 
ENDROOT
BRANCH   1   2
ATOM      2  C   UNL     1      31.675  10.280  32.203  1.00  0.00    -0.074 C 
ATOM      3  C   UNL     1      32.830   9.838  32.729  1.00  0.00     0.008 C 
BRANCH   2   4
ATOM      4  C   UNL     1      30.777   9.377  31.363  1.00  0.00     0.018 C 
ATOM      5  C   UNL     1      30.968   7.483  28.116  1.00  0.00     0.008 C 
ATOM      6  C   UNL     1      30.349   8.220  29.310  1.00  0.00    -0.010 C 
ATOM      7  C   UNL     1      30.013   7.263  30.485  1.00  0.00     0.004 C 
ATOM      8  C   UNL     1      31.303   9.231  29.936  1.00  0.00     0.003 CG0
ATOM      9  C   UNL     1      30.511   7.937  31.782  1.00  0.00     0.008 C 
ATOM     10  G   UNL     1      31.678  10.568  29.232  1.00  0.00     0.000 G0
ENDBRANCH   2   4
ENDBRANCH   1   2
BRANCH   1  11
ATOM     11  C   UNL     1      31.515  12.477  30.853  1.00  0.00     0.009 C 
BRANCH  11  12
ATOM     12  C   UNL     1      30.739  11.710  29.764  1.00  0.00    -0.001 C 
ATOM     13  C   UNL     1      31.668  10.585  29.216  1.00  0.00     0.002 CG0
ATOM     14  C   UNL     1      31.010  11.604  28.276  1.00  0.00    -0.029 C 
ATOM     15  G   UNL     1      31.289   9.244  29.909  1.00  0.00     0.000 G0
ATOM     16  C   UNL     1      31.932  12.673  27.675  1.00  0.00     0.011 C 
ATOM     17  C   UNL     1      29.861  11.109  27.389  1.00  0.00     0.011 C 
ENDBRANCH  11  12
ENDBRANCH   1  11
TORSDOF 0
ENDMDL
MODEL 4
REMARK VINA RESULT:    -3.684      1.323      2.756
REMARK INTER + INTRA:          -1.969
REMARK INTER:                  -4.680
REMARK INTRA:                   2.710
REMARK UNBOUND:                 2.576
REMARK SMILES C=C1CC[C@@H]2[C@@H]([C@@H]3[C@@H](C)CC[C@@H]13)C2(C)C
REMARK SMILES IDX 3 1 2 2 1 3 12 4 9 5 8 6 10 7 7 8 11 9 4 11 5 12 6 13 13 14
REMARK SMILES IDX 14 16 15 17
REMARK H PARENT
REMARK Flexibility Score: 80.00
ROOT
ATOM      1  C   UNL     1      32.964  10.580  32.418  1.00  0.00     0.031 C 
ENDROOT
BRANCH   1   2
ATOM      2  C   UNL     1      32.371  11.441  31.300  1.00  0.00    -0.074 C 
ATOM      3  C   UNL     1      32.053  12.724  31.539  1.00  0.00     0.008 C 
BRANCH   2   4
ATOM      4  C   UNL     1      31.945  10.733  30.018  1.00  0.00     0.018 C 
ATOM      5  C   UNL     1      28.745   9.756  28.294  1.00  0.00     0.008 C 
ATOM      6  C   UNL     1      30.227   9.728  28.684  1.00  0.00    -0.010 C 
ATOM      7  C   UNL     1      31.096  10.624  27.761  1.00  0.00     0.004 C 
ATOM      8  C   UNL     1      30.480  10.299  30.075  1.00  0.00     0.003 CG0
ATOM      9  C   UNL     1      32.044  11.436  28.671  1.00  0.00     0.008 C 
ATOM     10  G   UNL     1      30.067   9.543  31.372  1.00  0.00     0.000 G0
ENDBRANCH   2   4
ENDBRANCH   1   2
BRANCH   1  11
ATOM     11  C   UNL     1      31.959   9.558  33.022  1.00  0.00     0.009 C 
BRANCH  11  12
ATOM     12  C   UNL     1      31.298   8.733  31.899  1.00  0.00    -0.001 C 
ATOM     13  C   UNL     1      30.061   9.528  31.384  1.00  0.00     0.002 CG0
ATOM     14  C   UNL     1      29.933   8.074  31.858  1.00  0.00    -0.029 C 
ATOM     15  G   UNL     1      30.461  10.286  30.084  1.00  0.00     0.000 G0
ATOM     16  C   UNL     1      29.243   7.855  33.210  1.00  0.00     0.011 C 
ATOM     17  C   UNL     1      29.708   6.999  30.787  1.00  0.00     0.011 C 
ENDBRANCH  11  12
ENDBRANCH   1  11
TORSDOF 0
ENDMDL
MODEL 5
REMARK VINA RESULT:    -3.647      1.328      2.333
REMARK INTER + INTRA:          -1.923
REMARK INTER:                  -4.630
REMARK INTRA:                   2.707
REMARK UNBOUND:                 2.576
REMARK SMILES C=C1CC[C@@H]2[C@@H]([C@@H]3[C@@H](C)CC[C@@H]13)C2(C)C
REMARK SMILES IDX 3 1 2 2 1 3 12 4 9 5 8 6 10 7 7 8 11 9 4 11 5 12 6 13 13 14
REMARK SMILES IDX 14 16 15 17
REMARK H PARENT
REMARK Flexibility Score: 80.00
ROOT
ATOM      1  C   UNL     1      29.622   6.794  30.762  1.00  0.00     0.031 C 
ENDROOT
BRANCH   1   2
ATOM      2  C   UNL     1      30.144   7.555  31.983  1.00  0.00    -0.074 C 
ATOM      3  C   UNL     1      29.430   7.568  33.120  1.00  0.00     0.008 C 
BRANCH   2   4
ATOM      4  C   UNL     1      31.348   8.470  31.780  1.00  0.00     0.018 C 
ATOM      5  C   UNL     1      32.055  12.162  31.593  1.00  0.00     0.008 C 
ATOM      6  C   UNL     1      32.238  10.656  31.370  1.00  0.00    -0.010 C 
ATOM      7  C   UNL     1      33.080   9.992  32.493  1.00  0.00     0.004 C 
ATOM      8  C   UNL     1      30.920   9.891  31.415  1.00  0.00     0.003 CG0
ATOM      9  C   UNL     1      32.355   8.690  32.901  1.00  0.00     0.008 C 
ATOM     10  G   UNL     1      29.863   9.988  30.276  1.00  0.00     0.000 G0
ENDBRANCH   2   4
ENDBRANCH   1   2
BRANCH   1  11
ATOM     11  C   UNL     1      29.043   7.715  29.650  1.00  0.00     0.009 C 
BRANCH  11  12
ATOM     12  C   UNL     1      30.062   8.813  29.284  1.00  0.00    -0.001 C 
ATOM     13  C   UNL     1      29.860  10.003  30.270  1.00  0.00     0.002 CG0
ATOM     14  C   UNL     1      29.825  10.212  28.750  1.00  0.00    -0.029 C 
ATOM     15  G   UNL     1      30.930   9.904  31.396  1.00  0.00     0.000 G0
ATOM     16  C   UNL     1      28.448  10.479  28.129  1.00  0.00     0.011 C 
ATOM     17  C   UNL     1      31.020  10.927  28.107  1.00  0.00     0.011 C 
ENDBRANCH  11  12
ENDBRANCH   1  11
TORSDOF 0
ENDMDL
MODEL 6
REMARK VINA RESULT:    -3.489      2.637      5.272
REMARK INTER + INTRA:          -1.728
REMARK INTER:                  -4.473
REMARK INTRA:                   2.745
REMARK UNBOUND:                 2.576
REMARK SMILES C=C1CC[C@@H]2[C@@H]([C@@H]3[C@@H](C)CC[C@@H]13)C2(C)C
REMARK SMILES IDX 3 1 2 2 1 3 12 4 9 5 8 6 10 7 7 8 11 9 4 11 5 12 6 13 13 14
REMARK SMILES IDX 14 16 15 17
REMARK H PARENT
REMARK Flexibility Score: 80.00
ROOT
ATOM      1  C   UNL     1      30.746   7.085  32.668  1.00  0.00     0.031 C 
ENDROOT
BRANCH   1   2
ATOM      2  C   UNL     1      30.027   7.242  34.010  1.00  0.00    -0.074 C 
ATOM      3  C   UNL     1      28.704   7.025  34.090  1.00  0.00     0.008 C 
BRANCH   2   4
ATOM      4  C   UNL     1      30.809   7.873  35.158  1.00  0.00     0.018 C 
ATOM      5  C   UNL     1      30.889  11.141  37.023  1.00  0.00     0.008 C 
ATOM      6  C   UNL     1      31.380   9.805  36.454  1.00  0.00    -0.010 C 
ATOM      7  C   UNL     1      31.132   8.622  37.429  1.00  0.00     0.004 C 
ATOM      8  C   UNL     1      30.629   9.391  35.194  1.00  0.00     0.003 CG0
ATOM      9  C   UNL     1      30.545   7.460  36.599  1.00  0.00     0.008 C 
ATOM     10  G   UNL     1      30.833  10.111  33.829  1.00  0.00     0.000 G0
ENDBRANCH   2   4
ENDBRANCH   1   2
BRANCH   1  11
ATOM     11  C   UNL     1      31.122   8.437  31.997  1.00  0.00     0.009 C 
BRANCH  11  12
ATOM     12  C   UNL     1      31.887   9.332  32.992  1.00  0.00    -0.001 C 
ATOM     13  C   UNL     1      30.838  10.122  33.831  1.00  0.00     0.002 CG0
ATOM     14  C   UNL     1      31.961  10.844  33.074  1.00  0.00    -0.029 C 
ATOM     15  G   UNL     1      30.647   9.401  35.197  1.00  0.00     0.000 G0
ATOM     16  C   UNL     1      31.549  11.614  31.813  1.00  0.00     0.011 C 
ATOM     17  C   UNL     1      33.102  11.445  33.905  1.00  0.00     0.011 C 
ENDBRANCH  11  12
ENDBRANCH   1  11
TORSDOF 0
ENDMDL
MODEL 7
REMARK VINA RESULT:    -3.447      2.321      5.376
REMARK INTER + INTRA:          -1.676
REMARK INTER:                  -4.387
REMARK INTRA:                   2.711
REMARK UNBOUND:                 2.576
REMARK SMILES C=C1CC[C@@H]2[C@@H]([C@@H]3[C@@H](C)CC[C@@H]13)C2(C)C
REMARK SMILES IDX 3 1 2 2 1 3 12 4 9 5 8 6 10 7 7 8 11 9 4 11 5 12 6 13 13 14
REMARK SMILES IDX 14 16 15 17
REMARK H PARENT
REMARK Flexibility Score: 80.00
ROOT
ATOM      1  C   UNL     1      31.941  12.552  26.878  1.00  0.00     0.031 C 
ENDROOT
BRANCH   1   2
ATOM      2  C   UNL     1      30.597  12.272  26.201  1.00  0.00    -0.074 C 
ATOM      3  C   UNL     1      29.741  13.280  25.967  1.00  0.00     0.008 C 
BRANCH   2   4
ATOM      4  C   UNL     1      30.186  10.812  26.033  1.00  0.00     0.018 C 
ATOM      5  C   UNL     1      27.704   8.417  27.540  1.00  0.00     0.008 C 
ATOM      6  C   UNL     1      28.964   8.906  26.816  1.00  0.00    -0.010 C 
ATOM      7  C   UNL     1      28.756   9.019  25.282  1.00  0.00     0.004 C 
ATOM      8  C   UNL     1      29.366  10.319  27.225  1.00  0.00     0.003 CG0
ATOM      9  C   UNL     1      29.353  10.372  24.836  1.00  0.00     0.008 C 
ATOM     10  G   UNL     1      29.975  10.638  28.621  1.00  0.00     0.000 G0
ENDBRANCH   2   4
ENDBRANCH   1   2
BRANCH   1  11
ATOM     11  C   UNL     1      31.992  12.124  28.372  1.00  0.00     0.009 C 
BRANCH  11  12
ATOM     12  C   UNL     1      31.528  10.661  28.523  1.00  0.00    -0.001 C 
ATOM     13  C   UNL     1      29.973  10.659  28.626  1.00  0.00     0.002 CG0
ATOM     14  C   UNL     1      30.843   9.980  29.692  1.00  0.00    -0.029 C 
ATOM     15  G   UNL     1      29.382  10.313  27.228  1.00  0.00     0.000 G0
ATOM     16  C   UNL     1      30.942  10.691  31.047  1.00  0.00     0.011 C 
ATOM     17  C   UNL     1      30.863   8.447  29.717  1.00  0.00     0.011 C 
ENDBRANCH  11  12
ENDBRANCH   1  11
TORSDOF 0
ENDMDL
MODEL 8
REMARK VINA RESULT:    -3.446      2.240      4.923
REMARK INTER + INTRA:          -1.676
REMARK INTER:                  -4.415
REMARK INTRA:                   2.739
REMARK UNBOUND:                 2.576
REMARK SMILES C=C1CC[C@@H]2[C@@H]([C@@H]3[C@@H](C)CC[C@@H]13)C2(C)C
REMARK SMILES IDX 3 1 2 2 1 3 12 4 9 5 8 6 10 7 7 8 11 9 4 11 5 12 6 13 13 14
REMARK SMILES IDX 14 16 15 17
REMARK H PARENT
REMARK Flexibility Score: 80.00
ROOT
ATOM      1  C   UNL     1      29.756   8.258  25.484  1.00  0.00     0.031 C 
ENDROOT
BRANCH   1   2
ATOM      2  C   UNL     1      29.366   8.210  26.964  1.00  0.00    -0.074 C 
ATOM      3  C   UNL     1      28.091   7.972  27.313  1.00  0.00     0.008 C 
BRANCH   2   4
ATOM      4  C   UNL     1      30.405   8.671  27.981  1.00  0.00     0.018 C 
ATOM      5  C   UNL     1      30.983  11.621  30.245  1.00  0.00     0.008 C 
ATOM      6  C   UNL     1      31.301  10.393  29.385  1.00  0.00    -0.010 C 
ATOM      7  C   UNL     1      31.259   9.074  30.202  1.00  0.00     0.004 C 
ATOM      8  C   UNL     1      30.271  10.163  28.285  1.00  0.00     0.003 CG0
ATOM      9  C   UNL     1      30.471   8.041  29.366  1.00  0.00     0.008 C 
ATOM     10  G   UNL     1      30.171  11.084  27.034  1.00  0.00     0.000 G0
ENDBRANCH   2   4
ENDBRANCH   1   2
BRANCH   1  11
ATOM     11  C   UNL     1      29.987   9.698  24.944  1.00  0.00     0.009 C 
BRANCH  11  12
ATOM     12  C   UNL     1      30.968  10.459  25.859  1.00  0.00    -0.001 C 
ATOM     13  C   UNL     1      30.147  11.080  27.030  1.00  0.00     0.002 CG0
ATOM     14  C   UNL     1      31.062  11.944  26.152  1.00  0.00    -0.029 C 
ATOM     15  G   UNL     1      30.281  10.157  28.276  1.00  0.00     0.000 G0
ATOM     16  C   UNL     1      30.368  12.880  25.154  1.00  0.00     0.011 C 
ATOM     17  C   UNL     1      32.368  12.451  26.776  1.00  0.00     0.011 C 
ENDBRANCH  11  12
ENDBRANCH   1  11
TORSDOF 0
ENDMDL
MODEL 9
REMARK VINA RESULT:    -3.409      2.477      4.772
REMARK INTER + INTRA:          -1.629
REMARK INTER:                  -4.359
REMARK INTRA:                   2.730
REMARK UNBOUND:                 2.576
REMARK SMILES C=C1CC[C@@H]2[C@@H]([C@@H]3[C@@H](C)CC[C@@H]13)C2(C)C
REMARK SMILES IDX 3 1 2 2 1 3 12 4 9 5 8 6 10 7 7 8 11 9 4 11 5 12 6 13 13 14
REMARK SMILES IDX 14 16 15 17
REMARK H PARENT
REMARK Flexibility Score: 80.00
ROOT
ATOM      1  C   UNL     1      31.493  12.019  28.840  1.00  0.00     0.031 C 
ENDROOT
BRANCH   1   2
ATOM      2  C   UNL     1      30.784  12.316  27.516  1.00  0.00    -0.074 C 
ATOM      3  C   UNL     1      29.756  13.180  27.487  1.00  0.00     0.008 C 
BRANCH   2   4
ATOM      4  C   UNL     1      31.127  11.433  26.320  1.00  0.00     0.018 C 
ATOM      5  C   UNL     1      29.497   8.709  24.299  1.00  0.00     0.008 C 
ATOM      6  C   UNL     1      30.611   9.560  24.919  1.00  0.00    -0.010 C 
ATOM      7  C   UNL     1      31.020  10.750  24.008  1.00  0.00     0.004 C 
ATOM      8  C   UNL     1      30.181  10.237  26.215  1.00  0.00     0.003 CG0
ATOM      9  C   UNL     1      31.122  12.001  24.907  1.00  0.00     0.008 C 
ATOM     10  G   UNL     1      29.975   9.443  27.538  1.00  0.00     0.000 G0
ENDBRANCH   2   4
ENDBRANCH   1   2
BRANCH   1  11
ATOM     11  C   UNL     1      31.133  10.633  29.446  1.00  0.00     0.009 C 
BRANCH  11  12
ATOM     12  C   UNL     1      31.308   9.526  28.387  1.00  0.00    -0.001 C 
ATOM     13  C   UNL     1      29.993   9.444  27.555  1.00  0.00     0.002 CG0
ATOM     14  C   UNL     1      30.581   8.203  28.241  1.00  0.00    -0.029 C 
ATOM     15  G   UNL     1      30.193  10.232  26.228  1.00  0.00     0.000 G0
ATOM     16  C   UNL     1      29.840   7.694  29.483  1.00  0.00     0.011 C 
ATOM     17  C   UNL     1      31.232   7.143  27.345  1.00  0.00     0.011 C 
ENDBRANCH  11  12
ENDBRANCH   1  11
TORSDOF 0
ENDMDL
