MODEL 1
REMARK VINA RESULT:    -4.767      0.000      0.000
REMARK INTER + INTRA:         -16.893
REMARK INTER:                 -12.571
REMARK INTRA:                  -4.323
REMARK UNBOUND:                -4.323
REMARK SMILES CCCCCCCCCCCCCCCCCCCCCCCCCCCCCC(=O)[O-]
REMARK SMILES IDX 16 1 17 2 18 3 19 4 20 5 21 6 22 7 23 8 24 9 25 10 26 11
REMARK SMILES IDX 27 12 28 13 29 14 30 15 31 16 32 17 15 18 14 19 13 20 12 21
REMARK SMILES IDX 11 22 10 23 9 24 8 25 7 26 6 27 5 28 4 29 3 30 2 31 1 32
REMARK H PARENT
REMARK Flexibility Score: inf
ROOT
ATOM      1  C   UNL     1     -21.897  -2.297  29.695  1.00  0.00     0.000 C 
ENDROOT
BRANCH   1   2
ATOM      2  C   UNL     1     -23.176  -1.692  29.097  1.00  0.00     0.000 C 
BRANCH   2   3
ATOM      3  C   UNL     1     -23.216  -0.158  29.218  1.00  0.00     0.000 C 
BRANCH   3   4
ATOM      4  C   UNL     1     -23.582   0.538  27.896  1.00  0.00     0.000 C 
BRANCH   4   5
ATOM      5  C   UNL     1     -23.451  -0.343  26.640  1.00  0.00     0.000 C 
BRANCH   5   6
ATOM      6  C   UNL     1     -22.384   0.162  25.660  1.00  0.00     0.000 C 
BRANCH   6   7
ATOM      7  C   UNL     1     -20.972  -0.033  26.233  1.00  0.00     0.000 C 
BRANCH   7   8
ATOM      8  C   UNL     1     -20.215   1.292  26.438  1.00  0.00     0.000 C 
BRANCH   8   9
ATOM      9  C   UNL     1     -19.081   1.240  27.478  1.00  0.00     0.000 C 
BRANCH   9  10
ATOM     10  C   UNL     1     -19.509   0.587  28.800  1.00  0.00     0.000 C 
BRANCH  10  11
ATOM     11  C   UNL     1     -18.892  -0.813  28.942  1.00  0.00     0.000 C 
BRANCH  11  12
ATOM     12  C   UNL     1     -17.781  -0.871  30.001  1.00  0.00     0.000 C 
BRANCH  12  13
ATOM     13  C   UNL     1     -17.888  -2.106  30.909  1.00  0.00     0.006 C 
BRANCH  13  14
ATOM     14  C   UNL     1     -16.720  -2.163  31.900  1.00  0.00     0.053 C 
BRANCH  14  15
ATOM     15  C   UNL     1     -17.139  -2.813  33.183  1.00  0.00     0.041 C 
ATOM     16  O   UNL     1     -16.272  -3.272  33.973  1.00  0.00    -0.550 OA
ATOM     17  O   UNL     1     -18.488  -2.908  33.510  1.00  0.00    -0.550 OA
ENDBRANCH  14  15
ENDBRANCH  13  14
ENDBRANCH  12  13
ENDBRANCH  11  12
ENDBRANCH  10  11
ENDBRANCH   9  10
ENDBRANCH   8   9
ENDBRANCH   7   8
ENDBRANCH   6   7
ENDBRANCH   5   6
ENDBRANCH   4   5
ENDBRANCH   3   4
ENDBRANCH   2   3
ENDBRANCH   1   2
BRANCH   1  18
ATOM     18  C   UNL     1     -22.117  -3.716  30.252  1.00  0.00     0.000 C 
BRANCH  18  19
ATOM     19  C   UNL     1     -20.832  -4.330  30.830  1.00  0.00     0.000 C 
BRANCH  19  20
ATOM     20  C   UNL     1     -19.963  -5.002  29.757  1.00  0.00     0.000 C 
BRANCH  20  21
ATOM     21  C   UNL     1     -20.105  -6.531  29.809  1.00  0.00     0.000 C 
BRANCH  21  22
ATOM     22  C   UNL     1     -19.966  -7.190  28.426  1.00  0.00     0.000 C 
BRANCH  22  23
ATOM     23  C   UNL     1     -21.303  -7.730  27.889  1.00  0.00     0.000 C 
BRANCH  23  24
ATOM     24  C   UNL     1     -22.232  -6.620  27.361  1.00  0.00    -0.000 C 
BRANCH  24  25
ATOM     25  C   UNL     1     -23.468  -6.326  28.230  1.00  0.00    -0.000 C 
BRANCH  25  26
ATOM     26  C   UNL     1     -23.768  -7.443  29.244  1.00  0.00    -0.000 C 
BRANCH  26  27
ATOM     27  C   UNL     1     -23.875  -6.932  30.692  1.00  0.00    -0.000 C 
BRANCH  27  28
ATOM     28  C   UNL     1     -22.902  -7.581  31.697  1.00  0.00    -0.000 C 
BRANCH  28  29
ATOM     29  C   UNL     1     -22.561  -6.718  32.927  1.00  0.00    -0.000 C 
BRANCH  29  30
ATOM     30  C   UNL     1     -21.147  -6.987  33.468  1.00  0.00    -0.000 C 
BRANCH  30  31
ATOM     31  C   UNL     1     -21.148  -7.359  34.958  1.00  0.00    -0.003 C 
ATOM     32  C   UNL     1     -19.956  -6.774  35.714  1.00  0.00     0.004 C 
ENDBRANCH  30  31
ENDBRANCH  29  30
ENDBRANCH  28  29
ENDBRANCH  27  28
ENDBRANCH  26  27
ENDBRANCH  25  26
ENDBRANCH  24  25
ENDBRANCH  23  24
ENDBRANCH  22  23
ENDBRANCH  21  22
ENDBRANCH  20  21
ENDBRANCH  19  20
ENDBRANCH  18  19
ENDBRANCH   1  18
TORSDOF 28
ENDMDL
MODEL 2
REMARK VINA RESULT:    -4.704      2.281      4.946
REMARK INTER + INTRA:         -16.727
REMARK INTER:                 -12.054
REMARK INTRA:                  -4.673
REMARK UNBOUND:                -4.323
REMARK SMILES CCCCCCCCCCCCCCCCCCCCCCCCCCCCCC(=O)[O-]
REMARK SMILES IDX 16 1 17 2 18 3 19 4 20 5 21 6 22 7 23 8 24 9 25 10 26 11
REMARK SMILES IDX 27 12 28 13 29 14 30 15 31 16 32 17 15 18 14 19 13 20 12 21
REMARK SMILES IDX 11 22 10 23 9 24 8 25 7 26 6 27 5 28 4 29 3 30 2 31 1 32
REMARK H PARENT
REMARK Flexibility Score: inf
ROOT
ATOM      1  C   UNL     1     -21.929   0.444  26.034  1.00  0.00     0.000 C 
ENDROOT
BRANCH   1   2
ATOM      2  C   UNL     1     -20.533   1.085  26.022  1.00  0.00     0.000 C 
BRANCH   2   3
ATOM      3  C   UNL     1     -19.435   0.114  26.492  1.00  0.00     0.000 C 
BRANCH   3   4
ATOM      4  C   UNL     1     -18.445   0.761  27.477  1.00  0.00     0.000 C 
BRANCH   4   5
ATOM      5  C   UNL     1     -18.375   0.091  28.861  1.00  0.00     0.000 C 
BRANCH   5   6
ATOM      6  C   UNL     1     -19.726   0.079  29.591  1.00  0.00     0.000 C 
BRANCH   6   7
ATOM      7  C   UNL     1     -20.072  -1.333  30.087  1.00  0.00     0.000 C 
BRANCH   7   8
ATOM      8  C   UNL     1     -19.183  -2.425  29.466  1.00  0.00     0.000 C 
BRANCH   8   9
ATOM      9  C   UNL     1     -18.591  -3.431  30.470  1.00  0.00     0.000 C 
BRANCH   9  10
ATOM     10  C   UNL     1     -18.570  -2.899  31.911  1.00  0.00     0.000 C 
BRANCH  10  11
ATOM     11  C   UNL     1     -17.138  -2.546  32.341  1.00  0.00     0.000 C 
BRANCH  11  12
ATOM     12  C   UNL     1     -16.801  -1.062  32.131  1.00  0.00     0.000 C 
BRANCH  12  13
ATOM     13  C   UNL     1     -15.728  -0.842  31.053  1.00  0.00     0.006 C 
BRANCH  13  14
ATOM     14  C   UNL     1     -14.452  -0.250  31.660  1.00  0.00     0.053 C 
BRANCH  14  15
ATOM     15  C   UNL     1     -13.600   0.383  30.602  1.00  0.00     0.041 C 
ATOM     16  O   UNL     1     -13.962   1.461  30.060  1.00  0.00    -0.550 OA
ATOM     17  O   UNL     1     -12.405  -0.214  30.217  1.00  0.00    -0.550 OA
ENDBRANCH  14  15
ENDBRANCH  13  14
ENDBRANCH  12  13
ENDBRANCH  11  12
ENDBRANCH  10  11
ENDBRANCH   9  10
ENDBRANCH   8   9
ENDBRANCH   7   8
ENDBRANCH   6   7
ENDBRANCH   5   6
ENDBRANCH   4   5
ENDBRANCH   3   4
ENDBRANCH   2   3
ENDBRANCH   1   2
BRANCH   1  18
ATOM     18  C   UNL     1     -22.588   0.486  27.426  1.00  0.00     0.000 C 
BRANCH  18  19
ATOM     19  C   UNL     1     -23.969  -0.190  27.447  1.00  0.00     0.000 C 
BRANCH  19  20
ATOM     20  C   UNL     1     -24.008  -1.427  28.356  1.00  0.00     0.000 C 
BRANCH  20  21
ATOM     21  C   UNL     1     -24.103  -2.718  27.528  1.00  0.00     0.000 C 
BRANCH  21  22
ATOM     22  C   UNL     1     -23.520  -3.939  28.259  1.00  0.00     0.000 C 
BRANCH  22  23
ATOM     23  C   UNL     1     -22.894  -3.577  29.616  1.00  0.00     0.000 C 
BRANCH  23  24
ATOM     24  C   UNL     1     -23.531  -4.338  30.794  1.00  0.00    -0.000 C 
BRANCH  24  25
ATOM     25  C   UNL     1     -23.433  -3.640  32.163  1.00  0.00    -0.000 C 
BRANCH  25  26
ATOM     26  C   UNL     1     -22.622  -4.447  33.191  1.00  0.00    -0.000 C 
BRANCH  26  27
ATOM     27  C   UNL     1     -21.404  -5.158  32.575  1.00  0.00    -0.000 C 
BRANCH  27  28
ATOM     28  C   UNL     1     -21.494  -6.697  32.518  1.00  0.00    -0.000 C 
BRANCH  28  29
ATOM     29  C   UNL     1     -21.502  -7.298  31.100  1.00  0.00    -0.000 C 
BRANCH  29  30
ATOM     30  C   UNL     1     -20.265  -6.897  30.278  1.00  0.00    -0.000 C 
BRANCH  30  31
ATOM     31  C   UNL     1     -20.636  -6.264  28.929  1.00  0.00    -0.003 C 
ATOM     32  C   UNL     1     -21.545  -7.159  28.086  1.00  0.00     0.004 C 
ENDBRANCH  30  31
ENDBRANCH  29  30
ENDBRANCH  28  29
ENDBRANCH  27  28
ENDBRANCH  26  27
ENDBRANCH  25  26
ENDBRANCH  24  25
ENDBRANCH  23  24
ENDBRANCH  22  23
ENDBRANCH  21  22
ENDBRANCH  20  21
ENDBRANCH  19  20
ENDBRANCH  18  19
ENDBRANCH   1  18
TORSDOF 28
ENDMDL
MODEL 3
REMARK VINA RESULT:    -4.443      2.257      4.469
REMARK INTER + INTRA:         -16.039
REMARK INTER:                 -12.170
REMARK INTRA:                  -3.870
REMARK UNBOUND:                -4.323
REMARK SMILES CCCCCCCCCCCCCCCCCCCCCCCCCCCCCC(=O)[O-]
REMARK SMILES IDX 16 1 17 2 18 3 19 4 20 5 21 6 22 7 23 8 24 9 25 10 26 11
REMARK SMILES IDX 27 12 28 13 29 14 30 15 31 16 32 17 15 18 14 19 13 20 12 21
REMARK SMILES IDX 11 22 10 23 9 24 8 25 7 26 6 27 5 28 4 29 3 30 2 31 1 32
REMARK H PARENT
REMARK Flexibility Score: inf
ROOT
ATOM      1  C   UNL     1     -22.014   0.516  26.528  1.00  0.00     0.000 C 
ENDROOT
BRANCH   1   2
ATOM      2  C   UNL     1     -20.656  -0.012  26.041  1.00  0.00     0.000 C 
BRANCH   2   3
ATOM      3  C   UNL     1     -19.485   0.486  26.907  1.00  0.00     0.000 C 
BRANCH   3   4
ATOM      4  C   UNL     1     -19.936   1.406  28.054  1.00  0.00     0.000 C 
BRANCH   4   5
ATOM      5  C   UNL     1     -20.308   0.681  29.361  1.00  0.00     0.000 C 
BRANCH   5   6
ATOM      6  C   UNL     1     -19.386  -0.507  29.671  1.00  0.00     0.000 C 
BRANCH   6   7
ATOM      7  C   UNL     1     -20.199  -1.791  29.899  1.00  0.00     0.000 C 
BRANCH   7   8
ATOM      8  C   UNL     1     -19.319  -3.045  30.045  1.00  0.00     0.000 C 
BRANCH   8   9
ATOM      9  C   UNL     1     -17.825  -2.831  29.739  1.00  0.00     0.000 C 
BRANCH   9  10
ATOM     10  C   UNL     1     -16.914  -3.175  30.926  1.00  0.00     0.000 C 
BRANCH  10  11
ATOM     11  C   UNL     1     -17.351  -2.416  32.188  1.00  0.00     0.000 C 
BRANCH  11  12
ATOM     12  C   UNL     1     -16.840  -0.967  32.220  1.00  0.00     0.000 C 
BRANCH  12  13
ATOM     13  C   UNL     1     -15.875  -0.650  31.067  1.00  0.00     0.006 C 
BRANCH  13  14
ATOM     14  C   UNL     1     -14.452  -0.423  31.587  1.00  0.00     0.053 C 
BRANCH  14  15
ATOM     15  C   UNL     1     -13.637   0.348  30.594  1.00  0.00     0.041 C 
ATOM     16  O   UNL     1     -14.082   1.419  30.105  1.00  0.00    -0.550 OA
ATOM     17  O   UNL     1     -12.382  -0.115  30.211  1.00  0.00    -0.550 OA
ENDBRANCH  14  15
ENDBRANCH  13  14
ENDBRANCH  12  13
ENDBRANCH  11  12
ENDBRANCH  10  11
ENDBRANCH   9  10
ENDBRANCH   8   9
ENDBRANCH   7   8
ENDBRANCH   6   7
ENDBRANCH   5   6
ENDBRANCH   4   5
ENDBRANCH   3   4
ENDBRANCH   2   3
ENDBRANCH   1   2
BRANCH   1  18
ATOM     18  C   UNL     1     -23.202  -0.239  25.903  1.00  0.00     0.000 C 
BRANCH  18  19
ATOM     19  C   UNL     1     -24.112  -0.886  26.959  1.00  0.00     0.000 C 
BRANCH  19  20
ATOM     20  C   UNL     1     -23.402  -1.095  28.304  1.00  0.00     0.000 C 
BRANCH  20  21
ATOM     21  C   UNL     1     -24.091  -2.196  29.126  1.00  0.00     0.000 C 
BRANCH  21  22
ATOM     22  C   UNL     1     -23.330  -3.532  29.089  1.00  0.00     0.000 C 
BRANCH  22  23
ATOM     23  C   UNL     1     -23.948  -4.541  28.107  1.00  0.00     0.000 C 
BRANCH  23  24
ATOM     24  C   UNL     1     -23.935  -5.986  28.641  1.00  0.00    -0.000 C 
BRANCH  24  25
ATOM     25  C   UNL     1     -23.343  -7.038  27.686  1.00  0.00    -0.000 C 
BRANCH  25  26
ATOM     26  C   UNL     1     -21.912  -6.700  27.233  1.00  0.00    -0.000 C 
BRANCH  26  27
ATOM     27  C   UNL     1     -20.835  -7.489  27.998  1.00  0.00    -0.000 C 
BRANCH  27  28
ATOM     28  C   UNL     1     -20.297  -6.810  29.275  1.00  0.00    -0.000 C 
BRANCH  28  29
ATOM     29  C   UNL     1     -20.371  -7.668  30.551  1.00  0.00    -0.000 C 
BRANCH  29  30
ATOM     30  C   UNL     1     -21.384  -7.125  31.574  1.00  0.00    -0.000 C 
BRANCH  30  31
ATOM     31  C   UNL     1     -21.546  -5.601  31.487  1.00  0.00    -0.003 C 
ATOM     32  C   UNL     1     -21.249  -4.898  32.812  1.00  0.00     0.004 C 
ENDBRANCH  30  31
ENDBRANCH  29  30
ENDBRANCH  28  29
ENDBRANCH  27  28
ENDBRANCH  26  27
ENDBRANCH  25  26
ENDBRANCH  24  25
ENDBRANCH  23  24
ENDBRANCH  22  23
ENDBRANCH  21  22
ENDBRANCH  20  21
ENDBRANCH  19  20
ENDBRANCH  18  19
ENDBRANCH   1  18
TORSDOF 28
ENDMDL
MODEL 4
REMARK VINA RESULT:    -4.406      2.199      7.034
REMARK INTER + INTRA:         -15.941
REMARK INTER:                 -12.629
REMARK INTRA:                  -3.312
REMARK UNBOUND:                -4.323
REMARK SMILES CCCCCCCCCCCCCCCCCCCCCCCCCCCCCC(=O)[O-]
REMARK SMILES IDX 16 1 17 2 18 3 19 4 20 5 21 6 22 7 23 8 24 9 25 10 26 11
REMARK SMILES IDX 27 12 28 13 29 14 30 15 31 16 32 17 15 18 14 19 13 20 12 21
REMARK SMILES IDX 11 22 10 23 9 24 8 25 7 26 6 27 5 28 4 29 3 30 2 31 1 32
REMARK H PARENT
REMARK Flexibility Score: inf
ROOT
ATOM      1  C   UNL     1     -21.524  -0.044  25.992  1.00  0.00     0.000 C 
ENDROOT
BRANCH   1   2
ATOM      2  C   UNL     1     -22.813   0.499  25.357  1.00  0.00     0.000 C 
BRANCH   2   3
ATOM      3  C   UNL     1     -24.081  -0.057  26.030  1.00  0.00     0.000 C 
BRANCH   3   4
ATOM      4  C   UNL     1     -23.969  -0.119  27.563  1.00  0.00     0.000 C 
BRANCH   4   5
ATOM      5  C   UNL     1     -24.125  -1.526  28.169  1.00  0.00     0.000 C 
BRANCH   5   6
ATOM      6  C   UNL     1     -23.803  -2.648  27.172  1.00  0.00     0.000 C 
BRANCH   6   7
ATOM      7  C   UNL     1     -23.539  -3.974  27.901  1.00  0.00     0.000 C 
BRANCH   7   8
ATOM      8  C   UNL     1     -23.929  -5.209  27.068  1.00  0.00     0.000 C 
BRANCH   8   9
ATOM      9  C   UNL     1     -23.204  -6.511  27.456  1.00  0.00     0.000 C 
BRANCH   9  10
ATOM     10  C   UNL     1     -21.746  -6.282  27.881  1.00  0.00     0.000 C 
BRANCH  10  11
ATOM     11  C   UNL     1     -21.507  -6.794  29.310  1.00  0.00     0.000 C 
BRANCH  11  12
ATOM     12  C   UNL     1     -22.564  -6.295  30.307  1.00  0.00     0.000 C 
BRANCH  12  13
ATOM     13  C   UNL     1     -21.950  -5.785  31.620  1.00  0.00     0.006 C 
BRANCH  13  14
ATOM     14  C   UNL     1     -21.232  -6.914  32.366  1.00  0.00     0.053 C 
BRANCH  14  15
ATOM     15  C   UNL     1     -21.433  -6.789  33.846  1.00  0.00     0.041 C 
ATOM     16  O   UNL     1     -20.495  -7.071  34.638  1.00  0.00    -0.550 OA
ATOM     17  O   UNL     1     -22.654  -6.357  34.351  1.00  0.00    -0.550 OA
ENDBRANCH  14  15
ENDBRANCH  13  14
ENDBRANCH  12  13
ENDBRANCH  11  12
ENDBRANCH  10  11
ENDBRANCH   9  10
ENDBRANCH   8   9
ENDBRANCH   7   8
ENDBRANCH   6   7
ENDBRANCH   5   6
ENDBRANCH   4   5
ENDBRANCH   3   4
ENDBRANCH   2   3
ENDBRANCH   1   2
BRANCH   1  18
ATOM     18  C   UNL     1     -20.385   0.992  25.999  1.00  0.00     0.000 C 
BRANCH  18  19
ATOM     19  C   UNL     1     -19.447   0.832  27.206  1.00  0.00     0.000 C 
BRANCH  19  20
ATOM     20  C   UNL     1     -20.024   1.446  28.489  1.00  0.00     0.000 C 
BRANCH  20  21
ATOM     21  C   UNL     1     -19.965   0.446  29.655  1.00  0.00     0.000 C 
BRANCH  21  22
ATOM     22  C   UNL     1     -21.154  -0.529  29.664  1.00  0.00     0.000 C 
BRANCH  22  23
ATOM     23  C   UNL     1     -20.716  -2.001  29.580  1.00  0.00     0.000 C 
BRANCH  23  24
ATOM     24  C   UNL     1     -19.189  -2.169  29.478  1.00  0.00    -0.000 C 
BRANCH  24  25
ATOM     25  C   UNL     1     -18.587  -3.282  30.356  1.00  0.00    -0.000 C 
BRANCH  25  26
ATOM     26  C   UNL     1     -17.203  -2.917  30.921  1.00  0.00    -0.000 C 
BRANCH  26  27
ATOM     27  C   UNL     1     -17.279  -2.139  32.247  1.00  0.00    -0.000 C 
BRANCH  27  28
ATOM     28  C   UNL     1     -16.247  -1.004  32.409  1.00  0.00    -0.000 C 
BRANCH  28  29
ATOM     29  C   UNL     1     -15.454  -0.656  31.135  1.00  0.00    -0.000 C 
BRANCH  29  30
ATOM     30  C   UNL     1     -14.148   0.099  31.436  1.00  0.00    -0.000 C 
BRANCH  30  31
ATOM     31  C   UNL     1     -13.386   0.488  30.161  1.00  0.00    -0.003 C 
ATOM     32  C   UNL     1     -14.012   1.682  29.440  1.00  0.00     0.004 C 
ENDBRANCH  30  31
ENDBRANCH  29  30
ENDBRANCH  28  29
ENDBRANCH  27  28
ENDBRANCH  26  27
ENDBRANCH  25  26
ENDBRANCH  24  25
ENDBRANCH  23  24
ENDBRANCH  22  23
ENDBRANCH  21  22
ENDBRANCH  20  21
ENDBRANCH  19  20
ENDBRANCH  18  19
ENDBRANCH   1  18
TORSDOF 28
ENDMDL
MODEL 5
REMARK VINA RESULT:    -4.305      2.455      8.073
REMARK INTER + INTRA:         -15.674
REMARK INTER:                 -12.212
REMARK INTRA:                  -3.463
REMARK UNBOUND:                -4.323
REMARK SMILES CCCCCCCCCCCCCCCCCCCCCCCCCCCCCC(=O)[O-]
REMARK SMILES IDX 16 1 17 2 18 3 19 4 20 5 21 6 22 7 23 8 24 9 25 10 26 11
REMARK SMILES IDX 27 12 28 13 29 14 30 15 31 16 32 17 15 18 14 19 13 20 12 21
REMARK SMILES IDX 11 22 10 23 9 24 8 25 7 26 6 27 5 28 4 29 3 30 2 31 1 32
REMARK H PARENT
REMARK Flexibility Score: inf
ROOT
ATOM      1  C   UNL     1     -14.166  -0.243  31.628  1.00  0.00     0.000 C 
ENDROOT
BRANCH   1   2
ATOM      2  C   UNL     1     -15.597  -0.621  31.214  1.00  0.00     0.000 C 
BRANCH   2   3
ATOM      3  C   UNL     1     -16.281  -1.547  32.235  1.00  0.00     0.000 C 
BRANCH   3   4
ATOM      4  C   UNL     1     -17.766  -1.796  31.917  1.00  0.00     0.000 C 
BRANCH   4   5
ATOM      5  C   UNL     1     -18.312  -1.009  30.712  1.00  0.00     0.000 C 
BRANCH   5   6
ATOM      6  C   UNL     1     -19.084  -1.891  29.719  1.00  0.00     0.000 C 
BRANCH   6   7
ATOM      7  C   UNL     1     -18.935  -3.378  30.072  1.00  0.00     0.000 C 
BRANCH   7   8
ATOM      8  C   UNL     1     -20.201  -4.200  29.768  1.00  0.00     0.000 C 
BRANCH   8   9
ATOM      9  C   UNL     1     -19.965  -5.708  29.565  1.00  0.00     0.000 C 
BRANCH   9  10
ATOM     10  C   UNL     1     -21.015  -6.363  28.655  1.00  0.00     0.000 C 
BRANCH  10  11
ATOM     11  C   UNL     1     -21.925  -7.302  29.462  1.00  0.00     0.000 C 
BRANCH  11  12
ATOM     12  C   UNL     1     -21.255  -7.831  30.739  1.00  0.00     0.000 C 
BRANCH  12  13
ATOM     13  C   UNL     1     -22.111  -7.609  31.996  1.00  0.00     0.006 C 
BRANCH  13  14
ATOM     14  C   UNL     1     -21.482  -6.551  32.909  1.00  0.00     0.053 C 
BRANCH  14  15
ATOM     15  C   UNL     1     -21.443  -7.027  34.330  1.00  0.00     0.041 C 
ATOM     16  O   UNL     1     -22.509  -7.352  34.917  1.00  0.00    -0.550 OA
ATOM     17  O   UNL     1     -20.230  -7.114  35.005  1.00  0.00    -0.550 OA
ENDBRANCH  14  15
ENDBRANCH  13  14
ENDBRANCH  12  13
ENDBRANCH  11  12
ENDBRANCH  10  11
ENDBRANCH   9  10
ENDBRANCH   8   9
ENDBRANCH   7   8
ENDBRANCH   6   7
ENDBRANCH   5   6
ENDBRANCH   4   5
ENDBRANCH   3   4
ENDBRANCH   2   3
ENDBRANCH   1   2
BRANCH   1  18
ATOM     18  C   UNL     1     -13.379   0.432  30.490  1.00  0.00     0.000 C 
BRANCH  18  19
ATOM     19  C   UNL     1     -14.001   1.768  30.052  1.00  0.00     0.000 C 
BRANCH  19  20
ATOM     20  C   UNL     1     -14.496   1.741  28.598  1.00  0.00     0.000 C 
BRANCH  20  21
ATOM     21  C   UNL     1     -15.302   3.007  28.267  1.00  0.00     0.000 C 
BRANCH  21  22
ATOM     22  C   UNL     1     -16.594   2.706  27.489  1.00  0.00     0.000 C 
BRANCH  22  23
ATOM     23  C   UNL     1     -17.195   1.335  27.844  1.00  0.00     0.000 C 
BRANCH  23  24
ATOM     24  C   UNL     1     -18.734   1.321  27.791  1.00  0.00    -0.000 C 
BRANCH  24  25
ATOM     25  C   UNL     1     -19.350   0.369  26.749  1.00  0.00    -0.000 C 
BRANCH  25  26
ATOM     26  C   UNL     1     -20.670   0.898  26.161  1.00  0.00    -0.000 C 
BRANCH  26  27
ATOM     27  C   UNL     1     -21.657  -0.223  25.790  1.00  0.00    -0.000 C 
BRANCH  27  28
ATOM     28  C   UNL     1     -23.150   0.121  25.974  1.00  0.00    -0.000 C 
BRANCH  28  29
ATOM     29  C   UNL     1     -23.777  -0.380  27.289  1.00  0.00    -0.000 C 
BRANCH  29  30
ATOM     30  C   UNL     1     -23.003  -1.558  27.905  1.00  0.00    -0.000 C 
BRANCH  30  31
ATOM     31  C   UNL     1     -22.732  -1.364  29.404  1.00  0.00    -0.003 C 
ATOM     32  C   UNL     1     -22.172   0.021  29.729  1.00  0.00     0.004 C 
ENDBRANCH  30  31
ENDBRANCH  29  30
ENDBRANCH  28  29
ENDBRANCH  27  28
ENDBRANCH  26  27
ENDBRANCH  25  26
ENDBRANCH  24  25
ENDBRANCH  23  24
ENDBRANCH  22  23
ENDBRANCH  21  22
ENDBRANCH  20  21
ENDBRANCH  19  20
ENDBRANCH  18  19
ENDBRANCH   1  18
TORSDOF 28
ENDMDL
MODEL 6
REMARK VINA RESULT:    -4.196      2.217      5.503
REMARK INTER + INTRA:         -15.387
REMARK INTER:                 -10.070
REMARK INTRA:                  -5.317
REMARK UNBOUND:                -4.323
REMARK SMILES CCCCCCCCCCCCCCCCCCCCCCCCCCCCCC(=O)[O-]
REMARK SMILES IDX 16 1 17 2 18 3 19 4 20 5 21 6 22 7 23 8 24 9 25 10 26 11
REMARK SMILES IDX 27 12 28 13 29 14 30 15 31 16 32 17 15 18 14 19 13 20 12 21
REMARK SMILES IDX 11 22 10 23 9 24 8 25 7 26 6 27 5 28 4 29 3 30 2 31 1 32
REMARK H PARENT
REMARK Flexibility Score: inf
ROOT
ATOM      1  C   UNL     1     -16.970  -1.381  31.832  1.00  0.00     0.000 C 
ENDROOT
BRANCH   1   2
ATOM      2  C   UNL     1     -17.945  -1.159  30.665  1.00  0.00     0.000 C 
BRANCH   2   3
ATOM      3  C   UNL     1     -17.865  -2.276  29.609  1.00  0.00     0.000 C 
BRANCH   3   4
ATOM      4  C   UNL     1     -19.016  -3.291  29.722  1.00  0.00     0.000 C 
BRANCH   4   5
ATOM      5  C   UNL     1     -20.312  -2.735  30.340  1.00  0.00     0.000 C 
BRANCH   5   6
ATOM      6  C   UNL     1     -21.565  -3.508  29.903  1.00  0.00     0.000 C 
BRANCH   6   7
ATOM      7  C   UNL     1     -22.841  -2.831  30.428  1.00  0.00     0.000 C 
BRANCH   7   8
ATOM      8  C   UNL     1     -23.925  -2.668  29.347  1.00  0.00     0.000 C 
BRANCH   8   9
ATOM      9  C   UNL     1     -23.405  -2.668  27.898  1.00  0.00     0.000 C 
BRANCH   9  10
ATOM     10  C   UNL     1     -23.817  -1.416  27.111  1.00  0.00     0.000 C 
BRANCH  10  11
ATOM     11  C   UNL     1     -22.583  -0.595  26.706  1.00  0.00     0.000 C 
BRANCH  11  12
ATOM     12  C   UNL     1     -22.265   0.534  27.698  1.00  0.00     0.000 C 
BRANCH  12  13
ATOM     13  C   UNL     1     -21.122   0.175  28.661  1.00  0.00     0.006 C 
BRANCH  13  14
ATOM     14  C   UNL     1     -20.023   1.242  28.631  1.00  0.00     0.053 C 
BRANCH  14  15
ATOM     15  C   UNL     1     -18.925   0.851  27.690  1.00  0.00     0.041 C 
ATOM     16  O   UNL     1     -19.020  -0.204  27.009  1.00  0.00    -0.550 OA
ATOM     17  O   UNL     1     -17.796   1.654  27.560  1.00  0.00    -0.550 OA
ENDBRANCH  14  15
ENDBRANCH  13  14
ENDBRANCH  12  13
ENDBRANCH  11  12
ENDBRANCH  10  11
ENDBRANCH   9  10
ENDBRANCH   8   9
ENDBRANCH   7   8
ENDBRANCH   6   7
ENDBRANCH   5   6
ENDBRANCH   4   5
ENDBRANCH   3   4
ENDBRANCH   2   3
ENDBRANCH   1   2
BRANCH   1  18
ATOM     18  C   UNL     1     -17.689  -1.770  33.137  1.00  0.00     0.000 C 
BRANCH  18  19
ATOM     19  C   UNL     1     -17.957  -3.280  33.237  1.00  0.00     0.000 C 
BRANCH  19  20
ATOM     20  C   UNL     1     -19.076  -3.618  34.233  1.00  0.00     0.000 C 
BRANCH  20  21
ATOM     21  C   UNL     1     -20.164  -4.477  33.570  1.00  0.00     0.000 C 
BRANCH  21  22
ATOM     22  C   UNL     1     -20.319  -5.858  34.230  1.00  0.00     0.000 C 
BRANCH  22  23
ATOM     23  C   UNL     1     -21.745  -6.421  34.102  1.00  0.00     0.000 C 
BRANCH  23  24
ATOM     24  C   UNL     1     -21.793  -7.776  33.372  1.00  0.00    -0.000 C 
BRANCH  24  25
ATOM     25  C   UNL     1     -22.591  -7.789  32.055  1.00  0.00    -0.000 C 
BRANCH  25  26
ATOM     26  C   UNL     1     -23.032  -6.384  31.608  1.00  0.00    -0.000 C 
BRANCH  26  27
ATOM     27  C   UNL     1     -24.114  -6.411  30.514  1.00  0.00    -0.000 C 
BRANCH  27  28
ATOM     28  C   UNL     1     -23.780  -7.265  29.273  1.00  0.00    -0.000 C 
BRANCH  28  29
ATOM     29  C   UNL     1     -23.535  -6.466  27.978  1.00  0.00    -0.000 C 
BRANCH  29  30
ATOM     30  C   UNL     1     -22.040  -6.289  27.664  1.00  0.00    -0.000 C 
BRANCH  30  31
ATOM     31  C   UNL     1     -21.167  -7.356  28.340  1.00  0.00    -0.003 C 
ATOM     32  C   UNL     1     -20.051  -6.753  29.194  1.00  0.00     0.004 C 
ENDBRANCH  30  31
ENDBRANCH  29  30
ENDBRANCH  28  29
ENDBRANCH  27  28
ENDBRANCH  26  27
ENDBRANCH  25  26
ENDBRANCH  24  25
ENDBRANCH  23  24
ENDBRANCH  22  23
ENDBRANCH  21  22
ENDBRANCH  20  21
ENDBRANCH  19  20
ENDBRANCH  18  19
ENDBRANCH   1  18
TORSDOF 28
ENDMDL
MODEL 7
REMARK VINA RESULT:    -4.122      2.342      7.962
REMARK INTER + INTRA:         -15.191
REMARK INTER:                 -11.173
REMARK INTRA:                  -4.018
REMARK UNBOUND:                -4.323
REMARK SMILES CCCCCCCCCCCCCCCCCCCCCCCCCCCCCC(=O)[O-]
REMARK SMILES IDX 16 1 17 2 18 3 19 4 20 5 21 6 22 7 23 8 24 9 25 10 26 11
REMARK SMILES IDX 27 12 28 13 29 14 30 15 31 16 32 17 15 18 14 19 13 20 12 21
REMARK SMILES IDX 11 22 10 23 9 24 8 25 7 26 6 27 5 28 4 29 3 30 2 31 1 32
REMARK H PARENT
REMARK Flexibility Score: inf
ROOT
ATOM      1  C   UNL     1     -16.656  -1.603  31.910  1.00  0.00     0.000 C 
ENDROOT
BRANCH   1   2
ATOM      2  C   UNL     1     -16.922  -2.934  31.190  1.00  0.00     0.000 C 
BRANCH   2   3
ATOM      3  C   UNL     1     -18.105  -2.848  30.209  1.00  0.00     0.000 C 
BRANCH   3   4
ATOM      4  C   UNL     1     -19.384  -3.508  30.753  1.00  0.00     0.000 C 
BRANCH   4   5
ATOM      5  C   UNL     1     -20.239  -4.234  29.698  1.00  0.00     0.000 C 
BRANCH   5   6
ATOM      6  C   UNL     1     -19.986  -5.748  29.659  1.00  0.00     0.000 C 
BRANCH   6   7
ATOM      7  C   UNL     1     -21.063  -6.465  28.830  1.00  0.00     0.000 C 
BRANCH   7   8
ATOM      8  C   UNL     1     -22.187  -7.066  29.693  1.00  0.00     0.000 C 
BRANCH   8   9
ATOM      9  C   UNL     1     -23.354  -6.110  30.000  1.00  0.00     0.000 C 
BRANCH   9  10
ATOM     10  C   UNL     1     -23.667  -6.007  31.500  1.00  0.00     0.000 C 
BRANCH  10  11
ATOM     11  C   UNL     1     -23.265  -4.629  32.048  1.00  0.00     0.000 C 
BRANCH  11  12
ATOM     12  C   UNL     1     -22.334  -4.720  33.267  1.00  0.00     0.000 C 
BRANCH  12  13
ATOM     13  C   UNL     1     -21.294  -5.845  33.140  1.00  0.00     0.006 C 
BRANCH  13  14
ATOM     14  C   UNL     1     -21.288  -6.731  34.390  1.00  0.00     0.053 C 
BRANCH  14  15
ATOM     15  C   UNL     1     -20.126  -6.396  35.275  1.00  0.00     0.041 C 
ATOM     16  O   UNL     1     -19.841  -7.138  36.252  1.00  0.00    -0.550 OA
ATOM     17  O   UNL     1     -19.356  -5.267  35.020  1.00  0.00    -0.550 OA
ENDBRANCH  14  15
ENDBRANCH  13  14
ENDBRANCH  12  13
ENDBRANCH  11  12
ENDBRANCH  10  11
ENDBRANCH   9  10
ENDBRANCH   8   9
ENDBRANCH   7   8
ENDBRANCH   6   7
ENDBRANCH   5   6
ENDBRANCH   4   5
ENDBRANCH   3   4
ENDBRANCH   2   3
ENDBRANCH   1   2
BRANCH   1  18
ATOM     18  C   UNL     1     -15.895  -0.594  31.028  1.00  0.00     0.000 C 
BRANCH  18  19
ATOM     19  C   UNL     1     -14.497  -0.268  31.575  1.00  0.00     0.000 C 
BRANCH  19  20
ATOM     20  C   UNL     1     -13.573   0.344  30.512  1.00  0.00     0.000 C 
BRANCH  20  21
ATOM     21  C   UNL     1     -14.061   1.741  30.096  1.00  0.00     0.000 C 
BRANCH  21  22
ATOM     22  C   UNL     1     -14.358   1.845  28.590  1.00  0.00     0.000 C 
BRANCH  22  23
ATOM     23  C   UNL     1     -15.323   2.995  28.254  1.00  0.00     0.000 C 
BRANCH  23  24
ATOM     24  C   UNL     1     -16.570   2.527  27.480  1.00  0.00    -0.000 C 
BRANCH  24  25
ATOM     25  C   UNL     1     -17.212   1.223  27.989  1.00  0.00    -0.000 C 
BRANCH  25  26
ATOM     26  C   UNL     1     -18.291   0.676  27.039  1.00  0.00    -0.000 C 
BRANCH  26  27
ATOM     27  C   UNL     1     -19.413  -0.080  27.773  1.00  0.00    -0.000 C 
BRANCH  27  28
ATOM     28  C   UNL     1     -19.589   0.277  29.263  1.00  0.00    -0.000 C 
BRANCH  28  29
ATOM     29  C   UNL     1     -21.031   0.172  29.794  1.00  0.00    -0.000 C 
BRANCH  29  30
ATOM     30  C   UNL     1     -21.952  -0.624  28.855  1.00  0.00    -0.000 C 
BRANCH  30  31
ATOM     31  C   UNL     1     -22.672  -1.775  29.574  1.00  0.00    -0.003 C 
ATOM     32  C   UNL     1     -23.739  -1.284  30.553  1.00  0.00     0.004 C 
ENDBRANCH  30  31
ENDBRANCH  29  30
ENDBRANCH  28  29
ENDBRANCH  27  28
ENDBRANCH  26  27
ENDBRANCH  25  26
ENDBRANCH  24  25
ENDBRANCH  23  24
ENDBRANCH  22  23
ENDBRANCH  21  22
ENDBRANCH  20  21
ENDBRANCH  19  20
ENDBRANCH  18  19
ENDBRANCH   1  18
TORSDOF 28
ENDMDL
MODEL 8
REMARK VINA RESULT:    -4.093      3.075      5.786
REMARK INTER + INTRA:         -15.115
REMARK INTER:                 -12.270
REMARK INTRA:                  -2.844
REMARK UNBOUND:                -4.323
REMARK SMILES CCCCCCCCCCCCCCCCCCCCCCCCCCCCCC(=O)[O-]
REMARK SMILES IDX 16 1 17 2 18 3 19 4 20 5 21 6 22 7 23 8 24 9 25 10 26 11
REMARK SMILES IDX 27 12 28 13 29 14 30 15 31 16 32 17 15 18 14 19 13 20 12 21
REMARK SMILES IDX 11 22 10 23 9 24 8 25 7 26 6 27 5 28 4 29 3 30 2 31 1 32
REMARK H PARENT
REMARK Flexibility Score: inf
ROOT
ATOM      1  C   UNL     1     -15.987  -0.648  31.123  1.00  0.00     0.000 C 
ENDROOT
BRANCH   1   2
ATOM      2  C   UNL     1     -14.588  -0.301  31.653  1.00  0.00     0.000 C 
BRANCH   2   3
ATOM      3  C   UNL     1     -13.663   0.253  30.555  1.00  0.00     0.000 C 
BRANCH   3   4
ATOM      4  C   UNL     1     -13.950   1.727  30.216  1.00  0.00     0.000 C 
BRANCH   4   5
ATOM      5  C   UNL     1     -14.203   2.012  28.724  1.00  0.00     0.000 C 
BRANCH   5   6
ATOM      6  C   UNL     1     -15.411   2.928  28.485  1.00  0.00     0.000 C 
BRANCH   6   7
ATOM      7  C   UNL     1     -16.229   2.456  27.273  1.00  0.00     0.000 C 
BRANCH   7   8
ATOM      8  C   UNL     1     -17.721   2.251  27.596  1.00  0.00     0.000 C 
BRANCH   8   9
ATOM      9  C   UNL     1     -18.255   0.832  27.325  1.00  0.00     0.000 C 
BRANCH   9  10
ATOM     10  C   UNL     1     -18.463   0.014  28.608  1.00  0.00     0.000 C 
BRANCH  10  11
ATOM     11  C   UNL     1     -19.773   0.413  29.303  1.00  0.00     0.000 C 
BRANCH  11  12
ATOM     12  C   UNL     1     -20.926   0.646  28.315  1.00  0.00     0.000 C 
BRANCH  12  13
ATOM     13  C   UNL     1     -22.272   0.116  28.835  1.00  0.00     0.006 C 
BRANCH  13  14
ATOM     14  C   UNL     1     -23.415   0.496  27.887  1.00  0.00     0.053 C 
BRANCH  14  15
ATOM     15  C   UNL     1     -23.326  -0.276  26.606  1.00  0.00     0.041 C 
ATOM     16  O   UNL     1     -22.893   0.279  25.562  1.00  0.00    -0.550 OA
ATOM     17  O   UNL     1     -23.717  -1.610  26.566  1.00  0.00    -0.550 OA
ENDBRANCH  14  15
ENDBRANCH  13  14
ENDBRANCH  12  13
ENDBRANCH  11  12
ENDBRANCH  10  11
ENDBRANCH   9  10
ENDBRANCH   8   9
ENDBRANCH   7   8
ENDBRANCH   6   7
ENDBRANCH   5   6
ENDBRANCH   4   5
ENDBRANCH   3   4
ENDBRANCH   2   3
ENDBRANCH   1   2
BRANCH   1  18
ATOM     18  C   UNL     1     -16.972  -1.016  32.249  1.00  0.00     0.000 C 
BRANCH  18  19
ATOM     19  C   UNL     1     -17.770  -2.294  31.942  1.00  0.00     0.000 C 
BRANCH  19  20
ATOM     20  C   UNL     1     -17.410  -2.903  30.580  1.00  0.00     0.000 C 
BRANCH  20  21
ATOM     21  C   UNL     1     -18.620  -3.618  29.958  1.00  0.00     0.000 C 
BRANCH  21  22
ATOM     22  C   UNL     1     -19.959  -2.964  30.338  1.00  0.00     0.000 C 
BRANCH  22  23
ATOM     23  C   UNL     1     -20.964  -3.969  30.927  1.00  0.00     0.000 C 
BRANCH  23  24
ATOM     24  C   UNL     1     -21.922  -4.551  29.870  1.00  0.00    -0.000 C 
BRANCH  24  25
ATOM     25  C   UNL     1     -23.025  -5.475  30.417  1.00  0.00    -0.000 C 
BRANCH  25  26
ATOM     26  C   UNL     1     -22.768  -6.961  30.115  1.00  0.00    -0.000 C 
BRANCH  26  27
ATOM     27  C   UNL     1     -21.409  -7.457  30.640  1.00  0.00    -0.000 C 
BRANCH  27  28
ATOM     28  C   UNL     1     -21.392  -7.906  32.116  1.00  0.00    -0.000 C 
BRANCH  28  29
ATOM     29  C   UNL     1     -22.533  -7.339  32.983  1.00  0.00    -0.000 C 
BRANCH  29  30
ATOM     30  C   UNL     1     -22.027  -6.714  34.294  1.00  0.00    -0.000 C 
BRANCH  30  31
ATOM     31  C   UNL     1     -20.509  -6.870  34.472  1.00  0.00    -0.003 C 
ATOM     32  C   UNL     1     -20.083  -6.860  35.941  1.00  0.00     0.004 C 
ENDBRANCH  30  31
ENDBRANCH  29  30
ENDBRANCH  28  29
ENDBRANCH  27  28
ENDBRANCH  26  27
ENDBRANCH  25  26
ENDBRANCH  24  25
ENDBRANCH  23  24
ENDBRANCH  22  23
ENDBRANCH  21  22
ENDBRANCH  20  21
ENDBRANCH  19  20
ENDBRANCH  18  19
ENDBRANCH   1  18
TORSDOF 28
ENDMDL
MODEL 9
REMARK VINA RESULT:    -4.088      2.580      5.122
REMARK INTER + INTRA:         -15.102
REMARK INTER:                 -11.115
REMARK INTRA:                  -3.987
REMARK UNBOUND:                -4.323
REMARK SMILES CCCCCCCCCCCCCCCCCCCCCCCCCCCCCC(=O)[O-]
REMARK SMILES IDX 16 1 17 2 18 3 19 4 20 5 21 6 22 7 23 8 24 9 25 10 26 11
REMARK SMILES IDX 27 12 28 13 29 14 30 15 31 16 32 17 15 18 14 19 13 20 12 21
REMARK SMILES IDX 11 22 10 23 9 24 8 25 7 26 6 27 5 28 4 29 3 30 2 31 1 32
REMARK H PARENT
REMARK Flexibility Score: inf
ROOT
ATOM      1  C   UNL     1     -17.737  -1.371  30.196  1.00  0.00     0.000 C 
ENDROOT
BRANCH   1   2
ATOM      2  C   UNL     1     -19.244  -1.432  29.904  1.00  0.00     0.000 C 
BRANCH   2   3
ATOM      3  C   UNL     1     -19.939  -0.073  30.102  1.00  0.00     0.000 C 
BRANCH   3   4
ATOM      4  C   UNL     1     -21.425  -0.095  29.704  1.00  0.00     0.000 C 
BRANCH   4   5
ATOM      5  C   UNL     1     -21.900  -1.402  29.043  1.00  0.00     0.000 C 
BRANCH   5   6
ATOM      6  C   UNL     1     -23.370  -1.353  28.603  1.00  0.00     0.000 C 
BRANCH   6   7
ATOM      7  C   UNL     1     -23.493  -1.471  27.076  1.00  0.00     0.000 C 
BRANCH   7   8
ATOM      8  C   UNL     1     -23.071  -0.189  26.336  1.00  0.00     0.000 C 
BRANCH   8   9
ATOM      9  C   UNL     1     -21.695  -0.257  25.649  1.00  0.00     0.000 C 
BRANCH   9  10
ATOM     10  C   UNL     1     -20.812   0.963  25.951  1.00  0.00     0.000 C 
BRANCH  10  11
ATOM     11  C   UNL     1     -19.495   0.532  26.613  1.00  0.00     0.000 C 
BRANCH  11  12
ATOM     12  C   UNL     1     -18.855   1.648  27.453  1.00  0.00     0.000 C 
BRANCH  12  13
ATOM     13  C   UNL     1     -17.376   1.379  27.773  1.00  0.00     0.006 C 
BRANCH  13  14
ATOM     14  C   UNL     1     -16.481   2.483  27.201  1.00  0.00     0.053 C 
BRANCH  14  15
ATOM     15  C   UNL     1     -15.496   2.957  28.226  1.00  0.00     0.041 C 
ATOM     16  O   UNL     1     -14.746   2.133  28.812  1.00  0.00    -0.550 OA
ATOM     17  O   UNL     1     -15.404   4.311  28.531  1.00  0.00    -0.550 OA
ENDBRANCH  14  15
ENDBRANCH  13  14
ENDBRANCH  12  13
ENDBRANCH  11  12
ENDBRANCH  10  11
ENDBRANCH   9  10
ENDBRANCH   8   9
ENDBRANCH   7   8
ENDBRANCH   6   7
ENDBRANCH   5   6
ENDBRANCH   4   5
ENDBRANCH   3   4
ENDBRANCH   2   3
ENDBRANCH   1   2
BRANCH   1  18
ATOM     18  C   UNL     1     -17.266  -2.511  31.119  1.00  0.00     0.000 C 
BRANCH  18  19
ATOM     19  C   UNL     1     -17.085  -2.055  32.575  1.00  0.00     0.000 C 
BRANCH  19  20
ATOM     20  C   UNL     1     -17.291  -3.196  33.583  1.00  0.00     0.000 C 
BRANCH  20  21
ATOM     21  C   UNL     1     -18.705  -3.153  34.183  1.00  0.00     0.000 C 
BRANCH  21  22
ATOM     22  C   UNL     1     -19.531  -4.407  33.853  1.00  0.00     0.000 C 
BRANCH  22  23
ATOM     23  C   UNL     1     -19.659  -5.366  35.050  1.00  0.00     0.000 C 
BRANCH  23  24
ATOM     24  C   UNL     1     -20.400  -6.670  34.699  1.00  0.00    -0.000 C 
BRANCH  24  25
ATOM     25  C   UNL     1     -21.307  -6.601  33.457  1.00  0.00    -0.000 C 
BRANCH  25  26
ATOM     26  C   UNL     1     -22.616  -5.835  33.713  1.00  0.00    -0.000 C 
BRANCH  26  27
ATOM     27  C   UNL     1     -23.219  -5.226  32.435  1.00  0.00    -0.000 C 
BRANCH  27  28
ATOM     28  C   UNL     1     -22.307  -4.239  31.677  1.00  0.00    -0.000 C 
BRANCH  28  29
ATOM     29  C   UNL     1     -21.850  -4.711  30.283  1.00  0.00    -0.000 C 
BRANCH  29  30
ATOM     30  C   UNL     1     -20.330  -4.926  30.198  1.00  0.00    -0.000 C 
BRANCH  30  31
ATOM     31  C   UNL     1     -19.958  -6.185  29.401  1.00  0.00    -0.003 C 
ATOM     32  C   UNL     1     -20.698  -7.432  29.885  1.00  0.00     0.004 C 
ENDBRANCH  30  31
ENDBRANCH  29  30
ENDBRANCH  28  29
ENDBRANCH  27  28
ENDBRANCH  26  27
ENDBRANCH  25  26
ENDBRANCH  24  25
ENDBRANCH  23  24
ENDBRANCH  22  23
ENDBRANCH  21  22
ENDBRANCH  20  21
ENDBRANCH  19  20
ENDBRANCH  18  19
ENDBRANCH   1  18
TORSDOF 28
ENDMDL
