MODEL 1
REMARK VINA RESULT:    -4.025      0.000      0.000
REMARK INTER + INTRA:          -5.413
REMARK INTER:                  -5.201
REMARK INTRA:                  -0.212
REMARK UNBOUND:                -0.212
REMARK SMILES C=CC(=O)CCCCC
REMARK SMILES IDX 6 1 7 2 8 3 9 4 5 5 3 6 4 7 2 8 1 9
REMARK H PARENT
REMARK Flexibility Score: inf
ROOT
ATOM      1  C   UNL     1      12.389 -29.331  22.931  1.00  0.00     0.008 C 
ENDROOT
BRANCH   1   2
ATOM      2  C   UNL     1      11.166 -28.404  23.000  1.00  0.00     0.000 C 
BRANCH   2   3
ATOM      3  C   UNL     1      11.370 -27.224  23.961  1.00  0.00    -0.003 C 
ATOM      4  C   UNL     1      12.638 -27.404  24.791  1.00  0.00     0.004 C 
ENDBRANCH   2   3
ENDBRANCH   1   2
BRANCH   1   5
ATOM      5  C   UNL     1      12.229 -30.448  21.885  1.00  0.00     0.080 C 
BRANCH   5   6
ATOM      6  C   UNL     1      13.346 -31.465  21.933  1.00  0.00     0.155 C 
ATOM      7  O   UNL     1      13.605 -32.168  20.918  1.00  0.00    -0.295 OA
BRANCH   6   8
ATOM      8  C   UNL     1      14.175 -31.656  23.140  1.00  0.00     0.039 C 
ATOM      9  C   UNL     1      13.866 -32.504  24.121  1.00  0.00     0.012 C 
ENDBRANCH   6   8
ENDBRANCH   5   6
ENDBRANCH   1   5
TORSDOF 5
ENDMDL
MODEL 2
REMARK VINA RESULT:    -4.010      1.409      1.847
REMARK INTER + INTRA:          -5.394
REMARK INTER:                  -4.898
REMARK INTRA:                  -0.496
REMARK UNBOUND:                -0.212
REMARK SMILES C=CC(=O)CCCCC
REMARK SMILES IDX 6 1 7 2 8 3 9 4 5 5 3 6 4 7 2 8 1 9
REMARK H PARENT
REMARK Flexibility Score: inf
ROOT
ATOM      1  C   UNL     1      11.260 -29.993  21.793  1.00  0.00     0.008 C 
ENDROOT
BRANCH   1   2
ATOM      2  C   UNL     1      10.907 -28.740  22.611  1.00  0.00     0.000 C 
BRANCH   2   3
ATOM      3  C   UNL     1      11.867 -28.511  23.787  1.00  0.00    -0.003 C 
ATOM      4  C   UNL     1      12.482 -27.116  23.731  1.00  0.00     0.004 C 
ENDBRANCH   2   3
ENDBRANCH   1   2
BRANCH   1   5
ATOM      5  C   UNL     1      12.458 -30.763  22.375  1.00  0.00     0.080 C 
BRANCH   5   6
ATOM      6  C   UNL     1      13.517 -31.074  21.342  1.00  0.00     0.155 C 
ATOM      7  O   UNL     1      13.305 -31.953  20.463  1.00  0.00    -0.295 OA
BRANCH   6   8
ATOM      8  C   UNL     1      14.809 -30.358  21.310  1.00  0.00     0.039 C 
ATOM      9  C   UNL     1      15.006 -29.165  21.872  1.00  0.00     0.012 C 
ENDBRANCH   6   8
ENDBRANCH   5   6
ENDBRANCH   1   5
TORSDOF 5
ENDMDL
MODEL 3
REMARK VINA RESULT:    -3.956      0.888      1.247
REMARK INTER + INTRA:          -5.324
REMARK INTER:                  -4.979
REMARK INTRA:                  -0.345
REMARK UNBOUND:                -0.212
REMARK SMILES C=CC(=O)CCCCC
REMARK SMILES IDX 6 1 7 2 8 3 9 4 5 5 3 6 4 7 2 8 1 9
REMARK H PARENT
REMARK Flexibility Score: inf
ROOT
ATOM      1  C   UNL     1      12.023 -30.566  22.144  1.00  0.00     0.008 C 
ENDROOT
BRANCH   1   2
ATOM      2  C   UNL     1      12.242 -29.123  22.627  1.00  0.00     0.000 C 
BRANCH   2   3
ATOM      3  C   UNL     1      12.799 -29.055  24.056  1.00  0.00    -0.003 C 
ATOM      4  C   UNL     1      12.560 -27.681  24.675  1.00  0.00     0.004 C 
ENDBRANCH   2   3
ENDBRANCH   1   2
BRANCH   1   5
ATOM      5  C   UNL     1      13.082 -31.016  21.122  1.00  0.00     0.080 C 
BRANCH   5   6
ATOM      6  C   UNL     1      13.973 -32.120  21.645  1.00  0.00     0.155 C 
ATOM      7  O   UNL     1      14.213 -33.131  20.930  1.00  0.00    -0.295 OA
BRANCH   6   8
ATOM      8  C   UNL     1      14.600 -32.049  22.980  1.00  0.00     0.039 C 
ATOM      9  C   UNL     1      14.204 -32.781  24.022  1.00  0.00     0.012 C 
ENDBRANCH   6   8
ENDBRANCH   5   6
ENDBRANCH   1   5
TORSDOF 5
ENDMDL
MODEL 4
REMARK VINA RESULT:    -3.927      1.287      2.360
REMARK INTER + INTRA:          -5.286
REMARK INTER:                  -4.774
REMARK INTRA:                  -0.513
REMARK UNBOUND:                -0.212
REMARK SMILES C=CC(=O)CCCCC
REMARK SMILES IDX 6 1 7 2 8 3 9 4 5 5 3 6 4 7 2 8 1 9
REMARK H PARENT
REMARK Flexibility Score: inf
ROOT
ATOM      1  C   UNL     1      14.493 -29.318  22.367  1.00  0.00     0.008 C 
ENDROOT
BRANCH   1   2
ATOM      2  C   UNL     1      13.791 -28.170  23.109  1.00  0.00     0.000 C 
BRANCH   2   3
ATOM      3  C   UNL     1      12.738 -28.668  24.110  1.00  0.00    -0.003 C 
ATOM      4  C   UNL     1      11.497 -27.780  24.089  1.00  0.00     0.004 C 
ENDBRANCH   2   3
ENDBRANCH   1   2
BRANCH   1   5
ATOM      5  C   UNL     1      13.956 -30.702  22.772  1.00  0.00     0.080 C 
BRANCH   5   6
ATOM      6  C   UNL     1      13.428 -31.496  21.599  1.00  0.00     0.155 C 
ATOM      7  O   UNL     1      13.988 -32.575  21.261  1.00  0.00    -0.295 OA
BRANCH   6   8
ATOM      8  C   UNL     1      12.246 -31.057  20.830  1.00  0.00     0.039 C 
ATOM      9  C   UNL     1      11.158 -30.526  21.388  1.00  0.00     0.012 C 
ENDBRANCH   6   8
ENDBRANCH   5   6
ENDBRANCH   1   5
TORSDOF 5
ENDMDL
MODEL 5
REMARK VINA RESULT:    -3.909      1.221      2.103
REMARK INTER + INTRA:          -5.264
REMARK INTER:                  -4.817
REMARK INTRA:                  -0.447
REMARK UNBOUND:                -0.212
REMARK SMILES C=CC(=O)CCCCC
REMARK SMILES IDX 6 1 7 2 8 3 9 4 5 5 3 6 4 7 2 8 1 9
REMARK H PARENT
REMARK Flexibility Score: inf
ROOT
ATOM      1  C   UNL     1      12.880 -31.178  20.927  1.00  0.00     0.008 C 
ENDROOT
BRANCH   1   2
ATOM      2  C   UNL     1      11.933 -30.424  21.874  1.00  0.00     0.000 C 
BRANCH   2   3
ATOM      3  C   UNL     1      12.683 -29.572  22.908  1.00  0.00    -0.003 C 
ATOM      4  C   UNL     1      11.813 -28.423  23.409  1.00  0.00     0.004 C 
ENDBRANCH   2   3
ENDBRANCH   1   2
BRANCH   1   5
ATOM      5  C   UNL     1      14.301 -31.322  21.501  1.00  0.00     0.080 C 
BRANCH   5   6
ATOM      6  C   UNL     1      14.586 -32.712  22.023  1.00  0.00     0.155 C 
ATOM      7  O   UNL     1      14.690 -33.680  21.221  1.00  0.00    -0.295 OA
BRANCH   6   8
ATOM      8  C   UNL     1      14.772 -32.980  23.464  1.00  0.00     0.039 C 
ATOM      9  C   UNL     1      13.827 -32.774  24.381  1.00  0.00     0.012 C 
ENDBRANCH   6   8
ENDBRANCH   5   6
ENDBRANCH   1   5
TORSDOF 5
ENDMDL
MODEL 6
REMARK VINA RESULT:    -3.889      2.148      4.583
REMARK INTER + INTRA:          -5.237
REMARK INTER:                  -4.998
REMARK INTRA:                  -0.239
REMARK UNBOUND:                -0.212
REMARK SMILES C=CC(=O)CCCCC
REMARK SMILES IDX 6 1 7 2 8 3 9 4 5 5 3 6 4 7 2 8 1 9
REMARK H PARENT
REMARK Flexibility Score: inf
ROOT
ATOM      1  C   UNL     1      14.390 -29.379  22.586  1.00  0.00     0.008 C 
ENDROOT
BRANCH   1   2
ATOM      2  C   UNL     1      14.605 -30.248  21.337  1.00  0.00     0.000 C 
BRANCH   2   3
ATOM      3  C   UNL     1      13.493 -31.289  21.141  1.00  0.00    -0.003 C 
ATOM      4  C   UNL     1      14.074 -32.654  20.785  1.00  0.00     0.004 C 
ENDBRANCH   2   3
ENDBRANCH   1   2
BRANCH   1   5
ATOM      5  C   UNL     1      13.146 -29.794  23.391  1.00  0.00     0.080 C 
BRANCH   5   6
ATOM      6  C   UNL     1      12.114 -28.694  23.489  1.00  0.00     0.155 C 
ATOM      7  O   UNL     1      11.181 -28.625  22.642  1.00  0.00    -0.295 OA
BRANCH   6   8
ATOM      8  C   UNL     1      12.146 -27.689  24.571  1.00  0.00     0.039 C 
ATOM      9  C   UNL     1      13.104 -26.770  24.697  1.00  0.00     0.012 C 
ENDBRANCH   6   8
ENDBRANCH   5   6
ENDBRANCH   1   5
TORSDOF 5
ENDMDL
MODEL 7
REMARK VINA RESULT:    -3.795      1.518      4.697
REMARK INTER + INTRA:          -5.116
REMARK INTER:                  -4.887
REMARK INTRA:                  -0.229
REMARK UNBOUND:                -0.212
REMARK SMILES C=CC(=O)CCCCC
REMARK SMILES IDX 6 1 7 2 8 3 9 4 5 5 3 6 4 7 2 8 1 9
REMARK H PARENT
REMARK Flexibility Score: inf
ROOT
ATOM      1  C   UNL     1      13.612 -31.627  23.621  1.00  0.00     0.008 C 
ENDROOT
BRANCH   1   2
ATOM      2  C   UNL     1      14.999 -32.182  23.258  1.00  0.00     0.000 C 
BRANCH   2   3
ATOM      3  C   UNL     1      14.937 -33.266  22.173  1.00  0.00    -0.003 C 
ATOM      4  C   UNL     1      14.227 -32.754  20.923  1.00  0.00     0.004 C 
ENDBRANCH   2   3
ENDBRANCH   1   2
BRANCH   1   5
ATOM      5  C   UNL     1      13.567 -30.089  23.607  1.00  0.00     0.080 C 
BRANCH   5   6
ATOM      6  C   UNL     1      12.354 -29.541  22.890  1.00  0.00     0.155 C 
ATOM      7  O   UNL     1      11.813 -30.206  21.964  1.00  0.00    -0.295 OA
BRANCH   6   8
ATOM      8  C   UNL     1      11.755 -28.241  23.252  1.00  0.00     0.039 C 
ATOM      9  C   UNL     1      12.014 -27.601  24.393  1.00  0.00     0.012 C 
ENDBRANCH   6   8
ENDBRANCH   5   6
ENDBRANCH   1   5
TORSDOF 5
ENDMDL
MODEL 8
REMARK VINA RESULT:    -3.781      1.988      2.598
REMARK INTER + INTRA:          -5.098
REMARK INTER:                  -4.987
REMARK INTRA:                  -0.111
REMARK UNBOUND:                -0.212
REMARK SMILES C=CC(=O)CCCCC
REMARK SMILES IDX 6 1 7 2 8 3 9 4 5 5 3 6 4 7 2 8 1 9
REMARK H PARENT
REMARK Flexibility Score: inf
ROOT
ATOM      1  C   UNL     1      12.692 -30.754  22.143  1.00  0.00     0.008 C 
ENDROOT
BRANCH   1   2
ATOM      2  C   UNL     1      13.505 -29.631  22.807  1.00  0.00     0.000 C 
BRANCH   2   3
ATOM      3  C   UNL     1      12.721 -28.907  23.912  1.00  0.00    -0.003 C 
ATOM      4  C   UNL     1      11.419 -28.324  23.371  1.00  0.00     0.004 C 
ENDBRANCH   2   3
ENDBRANCH   1   2
BRANCH   1   5
ATOM      5  C   UNL     1      13.402 -31.355  20.918  1.00  0.00     0.080 C 
BRANCH   5   6
ATOM      6  C   UNL     1      14.177 -32.611  21.243  1.00  0.00     0.155 C 
ATOM      7  O   UNL     1      14.458 -32.888  22.441  1.00  0.00    -0.295 OA
BRANCH   6   8
ATOM      8  C   UNL     1      14.607 -33.556  20.192  1.00  0.00     0.039 C 
ATOM      9  C   UNL     1      15.312 -34.661  20.436  1.00  0.00     0.012 C 
ENDBRANCH   6   8
ENDBRANCH   5   6
ENDBRANCH   1   5
TORSDOF 5
ENDMDL
MODEL 9
REMARK VINA RESULT:    -3.685     10.198     11.061
REMARK INTER + INTRA:          -4.974
REMARK INTER:                  -4.637
REMARK INTRA:                  -0.338
REMARK UNBOUND:                -0.212
REMARK SMILES C=CC(=O)CCCCC
REMARK SMILES IDX 6 1 7 2 8 3 9 4 5 5 3 6 4 7 2 8 1 9
REMARK H PARENT
REMARK Flexibility Score: inf
ROOT
ATOM      1  C   UNL     1      20.464 -25.379  20.228  1.00  0.00     0.008 C 
ENDROOT
BRANCH   1   2
ATOM      2  C   UNL     1      20.012 -26.801  20.598  1.00  0.00     0.000 C 
BRANCH   2   3
ATOM      3  C   UNL     1      21.183 -27.788  20.696  1.00  0.00    -0.003 C 
ATOM      4  C   UNL     1      20.687 -29.206  20.966  1.00  0.00     0.004 C 
ENDBRANCH   2   3
ENDBRANCH   1   2
BRANCH   1   5
ATOM      5  C   UNL     1      21.863 -25.349  19.589  1.00  0.00     0.080 C 
BRANCH   5   6
ATOM      6  C   UNL     1      22.829 -24.451  20.328  1.00  0.00     0.155 C 
ATOM      7  O   UNL     1      23.686 -23.782  19.689  1.00  0.00    -0.295 OA
BRANCH   6   8
ATOM      8  C   UNL     1      22.793 -24.310  21.798  1.00  0.00     0.039 C 
ATOM      9  C   UNL     1      22.627 -23.145  22.424  1.00  0.00     0.012 C 
ENDBRANCH   6   8
ENDBRANCH   5   6
ENDBRANCH   1   5
TORSDOF 5
ENDMDL
