MODEL 1
REMARK VINA RESULT:    -3.084      0.000      0.000
REMARK INTER + INTRA:          -3.902
REMARK INTER:                  -3.806
REMARK INTRA:                  -0.096
REMARK UNBOUND:                -0.096
REMARK SMILES CCCCCC(=O)[O-]
REMARK SMILES IDX 4 1 5 2 6 3 7 4 8 5 3 6 2 7 1 8
REMARK H PARENT
REMARK Flexibility Score: inf
ROOT
ATOM      1  C   UNL     1      62.071  33.524  60.418  1.00  0.00     0.006 C 
ENDROOT
BRANCH   1   2
ATOM      2  C   UNL     1      62.560  32.117  60.787  1.00  0.00     0.053 C 
BRANCH   2   3
ATOM      3  C   UNL     1      61.406  31.169  60.872  1.00  0.00     0.041 C 
ATOM      4  O   UNL     1      60.656  30.995  59.877  1.00  0.00    -0.550 OA
ATOM      5  O   UNL     1      61.130  30.515  62.065  1.00  0.00    -0.550 OA
ENDBRANCH   2   3
ENDBRANCH   1   2
BRANCH   1   6
ATOM      6  C   UNL     1      63.001  34.630  60.941  1.00  0.00     0.000 C 
BRANCH   6   7
ATOM      7  C   UNL     1      64.413  34.114  61.256  1.00  0.00    -0.003 C 
ATOM      8  C   UNL     1      65.240  35.180  61.969  1.00  0.00     0.004 C 
ENDBRANCH   6   7
ENDBRANCH   1   6
TORSDOF 4
ENDMDL
MODEL 2
REMARK VINA RESULT:    -3.071     12.905     13.933
REMARK INTER + INTRA:          -3.885
REMARK INTER:                  -3.754
REMARK INTRA:                  -0.131
REMARK UNBOUND:                -0.096
REMARK SMILES CCCCCC(=O)[O-]
REMARK SMILES IDX 4 1 5 2 6 3 7 4 8 5 3 6 2 7 1 8
REMARK H PARENT
REMARK Flexibility Score: inf
ROOT
ATOM      1  C   UNL     1      57.187  28.103  50.742  1.00  0.00     0.006 C 
ENDROOT
BRANCH   1   2
ATOM      2  C   UNL     1      58.424  27.204  50.604  1.00  0.00     0.053 C 
BRANCH   2   3
ATOM      3  C   UNL     1      59.422  27.828  49.681  1.00  0.00     0.041 C 
ATOM      4  O   UNL     1      59.184  28.947  49.155  1.00  0.00    -0.550 OA
ATOM      5  O   UNL     1      60.593  27.153  49.364  1.00  0.00    -0.550 OA
ENDBRANCH   2   3
ENDBRANCH   1   2
BRANCH   1   6
ATOM      6  C   UNL     1      55.871  27.314  50.655  1.00  0.00     0.000 C 
BRANCH   6   7
ATOM      7  C   UNL     1      56.093  25.829  50.335  1.00  0.00    -0.003 C 
ATOM      8  C   UNL     1      54.917  25.256  49.548  1.00  0.00     0.004 C 
ENDBRANCH   6   7
ENDBRANCH   1   6
TORSDOF 4
ENDMDL
MODEL 3
REMARK VINA RESULT:    -3.001     12.014     13.925
REMARK INTER + INTRA:          -3.798
REMARK INTER:                  -3.699
REMARK INTRA:                  -0.099
REMARK UNBOUND:                -0.096
REMARK SMILES CCCCCC(=O)[O-]
REMARK SMILES IDX 4 1 5 2 6 3 7 4 8 5 3 6 2 7 1 8
REMARK H PARENT
REMARK Flexibility Score: inf
ROOT
ATOM      1  C   UNL     1      55.896  28.191  50.868  1.00  0.00     0.006 C 
ENDROOT
BRANCH   1   2
ATOM      2  C   UNL     1      57.284  27.545  50.761  1.00  0.00     0.053 C 
BRANCH   2   3
ATOM      3  C   UNL     1      58.344  28.597  50.668  1.00  0.00     0.041 C 
ATOM      4  O   UNL     1      58.956  28.786  49.585  1.00  0.00    -0.550 OA
ATOM      5  O   UNL     1      58.688  29.338  51.792  1.00  0.00    -0.550 OA
ENDBRANCH   2   3
ENDBRANCH   1   2
BRANCH   1   6
ATOM      6  C   UNL     1      54.778  27.284  50.330  1.00  0.00     0.000 C 
BRANCH   6   7
ATOM      7  C   UNL     1      55.278  25.873  49.985  1.00  0.00    -0.003 C 
ATOM      8  C   UNL     1      54.175  25.045  49.332  1.00  0.00     0.004 C 
ENDBRANCH   6   7
ENDBRANCH   1   6
TORSDOF 4
ENDMDL
MODEL 4
REMARK VINA RESULT:    -2.986     13.383     14.597
REMARK INTER + INTRA:          -3.781
REMARK INTER:                  -3.676
REMARK INTRA:                  -0.105
REMARK UNBOUND:                -0.096
REMARK SMILES CCCCCC(=O)[O-]
REMARK SMILES IDX 4 1 5 2 6 3 7 4 8 5 3 6 2 7 1 8
REMARK H PARENT
REMARK Flexibility Score: inf
ROOT
ATOM      1  C   UNL     1      54.776  27.260  50.329  1.00  0.00     0.006 C 
ENDROOT
BRANCH   1   2
ATOM      2  C   UNL     1      55.217  25.857  49.892  1.00  0.00     0.053 C 
BRANCH   2   3
ATOM      3  C   UNL     1      54.026  25.015  49.560  1.00  0.00     0.041 C 
ATOM      4  O   UNL     1      53.112  25.473  48.827  1.00  0.00    -0.550 OA
ATOM      5  O   UNL     1      53.902  23.742  50.101  1.00  0.00    -0.550 OA
ENDBRANCH   2   3
ENDBRANCH   1   2
BRANCH   1   6
ATOM      6  C   UNL     1      55.922  28.074  50.950  1.00  0.00     0.000 C 
BRANCH   6   7
ATOM      7  C   UNL     1      57.298  27.435  50.709  1.00  0.00    -0.003 C 
ATOM      8  C   UNL     1      58.333  28.489  50.326  1.00  0.00     0.004 C 
ENDBRANCH   6   7
ENDBRANCH   1   6
TORSDOF 4
ENDMDL
MODEL 5
REMARK VINA RESULT:    -2.963     12.862     13.556
REMARK INTER + INTRA:          -3.753
REMARK INTER:                  -3.681
REMARK INTRA:                  -0.072
REMARK UNBOUND:                -0.096
REMARK SMILES CCCCCC(=O)[O-]
REMARK SMILES IDX 4 1 5 2 6 3 7 4 8 5 3 6 2 7 1 8
REMARK H PARENT
REMARK Flexibility Score: inf
ROOT
ATOM      1  C   UNL     1      57.386  27.362  50.651  1.00  0.00     0.006 C 
ENDROOT
BRANCH   1   2
ATOM      2  C   UNL     1      55.899  27.709  50.809  1.00  0.00     0.053 C 
BRANCH   2   3
ATOM      3  C   UNL     1      55.051  26.698  50.104  1.00  0.00     0.041 C 
ATOM      4  O   UNL     1      53.846  26.953  49.844  1.00  0.00    -0.550 OA
ATOM      5  O   UNL     1      55.578  25.455  49.778  1.00  0.00    -0.550 OA
ENDBRANCH   2   3
ENDBRANCH   1   2
BRANCH   1   6
ATOM      6  C   UNL     1      58.283  28.609  50.610  1.00  0.00     0.000 C 
BRANCH   6   7
ATOM      7  C   UNL     1      59.360  28.526  49.518  1.00  0.00    -0.003 C 
ATOM      8  C   UNL     1      60.083  27.183  49.562  1.00  0.00     0.004 C 
ENDBRANCH   6   7
ENDBRANCH   1   6
TORSDOF 4
ENDMDL
MODEL 6
REMARK VINA RESULT:    -2.952      2.843      4.415
REMARK INTER + INTRA:          -3.738
REMARK INTER:                  -3.675
REMARK INTRA:                  -0.063
REMARK UNBOUND:                -0.096
REMARK SMILES CCCCCC(=O)[O-]
REMARK SMILES IDX 4 1 5 2 6 3 7 4 8 5 3 6 2 7 1 8
REMARK H PARENT
REMARK Flexibility Score: inf
ROOT
ATOM      1  C   UNL     1      62.626  32.352  60.708  1.00  0.00     0.006 C 
ENDROOT
BRANCH   1   2
ATOM      2  C   UNL     1      62.360  33.841  60.449  1.00  0.00     0.053 C 
BRANCH   2   3
ATOM      3  C   UNL     1      63.374  34.683  61.157  1.00  0.00     0.041 C 
ATOM      4  O   UNL     1      63.105  35.872  61.467  1.00  0.00    -0.550 OA
ATOM      5  O   UNL     1      64.635  34.167  61.432  1.00  0.00    -0.550 OA
ENDBRANCH   2   3
ENDBRANCH   1   2
BRANCH   1   6
ATOM      6  C   UNL     1      61.359  31.492  60.568  1.00  0.00     0.000 C 
BRANCH   6   7
ATOM      7  C   UNL     1      61.173  30.519  61.741  1.00  0.00    -0.003 C 
ATOM      8  C   UNL     1      62.349  29.551  61.842  1.00  0.00     0.004 C 
ENDBRANCH   6   7
ENDBRANCH   1   6
TORSDOF 4
ENDMDL
MODEL 7
REMARK VINA RESULT:    -2.933      2.020      2.709
REMARK INTER + INTRA:          -3.715
REMARK INTER:                  -3.659
REMARK INTRA:                  -0.056
REMARK UNBOUND:                -0.096
REMARK SMILES CCCCCC(=O)[O-]
REMARK SMILES IDX 4 1 5 2 6 3 7 4 8 5 3 6 2 7 1 8
REMARK H PARENT
REMARK Flexibility Score: inf
ROOT
ATOM      1  C   UNL     1      61.333  31.279  60.649  1.00  0.00     0.006 C 
ENDROOT
BRANCH   1   2
ATOM      2  C   UNL     1      61.432  30.381  61.891  1.00  0.00     0.053 C 
BRANCH   2   3
ATOM      3  C   UNL     1      62.402  29.267  61.652  1.00  0.00     0.041 C 
ATOM      4  O   UNL     1      61.984  28.109  61.391  1.00  0.00    -0.550 OA
ATOM      5  O   UNL     1      63.767  29.498  61.764  1.00  0.00    -0.550 OA
ENDBRANCH   2   3
ENDBRANCH   1   2
BRANCH   1   6
ATOM      6  C   UNL     1      62.357  32.424  60.665  1.00  0.00     0.000 C 
BRANCH   6   7
ATOM      7  C   UNL     1      61.724  33.787  60.348  1.00  0.00    -0.003 C 
ATOM      8  C   UNL     1      62.553  34.926  60.933  1.00  0.00     0.004 C 
ENDBRANCH   6   7
ENDBRANCH   1   6
TORSDOF 4
ENDMDL
MODEL 8
REMARK VINA RESULT:    -2.924     12.241     13.407
REMARK INTER + INTRA:          -3.704
REMARK INTER:                  -3.560
REMARK INTRA:                  -0.144
REMARK UNBOUND:                -0.096
REMARK SMILES CCCCCC(=O)[O-]
REMARK SMILES IDX 4 1 5 2 6 3 7 4 8 5 3 6 2 7 1 8
REMARK H PARENT
REMARK Flexibility Score: inf
ROOT
ATOM      1  C   UNL     1      58.484  28.401  50.961  1.00  0.00     0.006 C 
ENDROOT
BRANCH   1   2
ATOM      2  C   UNL     1      59.255  28.354  49.634  1.00  0.00     0.053 C 
BRANCH   2   3
ATOM      3  C   UNL     1      60.174  27.174  49.606  1.00  0.00     0.041 C 
ATOM      4  O   UNL     1      59.704  26.006  49.599  1.00  0.00    -0.550 OA
ATOM      5  O   UNL     1      61.550  27.363  49.637  1.00  0.00    -0.550 OA
ENDBRANCH   2   3
ENDBRANCH   1   2
BRANCH   1   6
ATOM      6  C   UNL     1      56.961  28.349  50.761  1.00  0.00     0.000 C 
BRANCH   6   7
ATOM      7  C   UNL     1      56.437  26.916  50.588  1.00  0.00    -0.003 C 
ATOM      8  C   UNL     1      54.939  26.911  50.298  1.00  0.00     0.004 C 
ENDBRANCH   6   7
ENDBRANCH   1   6
TORSDOF 4
ENDMDL
MODEL 9
REMARK VINA RESULT:    -2.838      1.887      2.484
REMARK INTER + INTRA:          -3.598
REMARK INTER:                  -3.446
REMARK INTRA:                  -0.152
REMARK UNBOUND:                -0.096
REMARK SMILES CCCCCC(=O)[O-]
REMARK SMILES IDX 4 1 5 2 6 3 7 4 8 5 3 6 2 7 1 8
REMARK H PARENT
REMARK Flexibility Score: inf
ROOT
ATOM      1  C   UNL     1      61.499  31.236  60.358  1.00  0.00     0.006 C 
ENDROOT
BRANCH   1   2
ATOM      2  C   UNL     1      61.503  30.487  61.698  1.00  0.00     0.053 C 
BRANCH   2   3
ATOM      3  C   UNL     1      62.583  29.453  61.713  1.00  0.00     0.041 C 
ATOM      4  O   UNL     1      63.792  29.800  61.738  1.00  0.00    -0.550 OA
ATOM      5  O   UNL     1      62.255  28.104  61.652  1.00  0.00    -0.550 OA
ENDBRANCH   2   3
ENDBRANCH   1   2
BRANCH   1   6
ATOM      6  C   UNL     1      61.800  32.735  60.517  1.00  0.00     0.000 C 
BRANCH   6   7
ATOM      7  C   UNL     1      63.302  33.045  60.453  1.00  0.00    -0.003 C 
ATOM      8  C   UNL     1      63.621  34.362  61.155  1.00  0.00     0.004 C 
ENDBRANCH   6   7
ENDBRANCH   1   6
TORSDOF 4
ENDMDL
