MODEL 1
REMARK VINA RESULT:    -6.764      0.000      0.000
REMARK INTER + INTRA:          -7.749
REMARK INTER:                  -7.555
REMARK INTRA:                  -0.194
REMARK UNBOUND:                -0.194
REMARK SMILES CC(C)c1ccc(C=O)cc1
REMARK SMILES IDX 4 1 5 2 6 3 7 4 10 5 11 6 2 7 1 8 3 9 8 10 9 11
REMARK H PARENT
REMARK Flexibility Score: inf
ROOT
ATOM      1  C   UNL     1     -12.425   2.466  -9.416  1.00  0.00    -0.045 A 
ATOM      2  C   UNL     1     -11.424   1.495  -9.598  1.00  0.00     0.005 A 
ATOM      3  C   UNL     1     -11.738   0.244 -10.137  1.00  0.00     0.012 A 
ATOM      4  C   UNL     1     -13.060  -0.060 -10.504  1.00  0.00     0.014 A 
ATOM      5  C   UNL     1     -14.060   0.904 -10.322  1.00  0.00     0.012 A 
ATOM      6  C   UNL     1     -13.748   2.156  -9.784  1.00  0.00     0.005 A 
ENDROOT
BRANCH   1   7
ATOM      7  C   UNL     1     -12.071   3.820  -8.830  1.00  0.00     0.013 C 
ATOM      8  C   UNL     1     -13.181   4.328  -7.902  1.00  0.00     0.012 C 
ATOM      9  C   UNL     1     -10.722   3.771  -8.102  1.00  0.00     0.012 C 
ENDBRANCH   1   7
BRANCH   4  10
ATOM     10  C   UNL     1     -13.410  -1.375 -11.073  1.00  0.00     0.260 C 
ATOM     11  O   UNL     1     -12.698  -2.391 -10.851  1.00  0.00    -0.298 OA
ENDBRANCH   4  10
TORSDOF 2
ENDMDL
MODEL 2
REMARK VINA RESULT:    -6.471      2.285      4.714
REMARK INTER + INTRA:          -7.421
REMARK INTER:                  -7.228
REMARK INTRA:                  -0.193
REMARK UNBOUND:                -0.194
REMARK SMILES CC(C)c1ccc(C=O)cc1
REMARK SMILES IDX 4 1 5 2 6 3 7 4 10 5 11 6 2 7 1 8 3 9 8 10 9 11
REMARK H PARENT
REMARK Flexibility Score: inf
ROOT
ATOM      1  C   UNL     1     -13.300   0.293 -10.342  1.00  0.00    -0.045 A 
ATOM      2  C   UNL     1     -11.912   0.357 -10.125  1.00  0.00     0.005 A 
ATOM      3  C   UNL     1     -11.335   1.492  -9.549  1.00  0.00     0.012 A 
ATOM      4  C   UNL     1     -12.135   2.586  -9.180  1.00  0.00     0.014 A 
ATOM      5  C   UNL     1     -13.519   2.527  -9.396  1.00  0.00     0.012 A 
ATOM      6  C   UNL     1     -14.097   1.392  -9.971  1.00  0.00     0.005 A 
ENDROOT
BRANCH   1   7
ATOM      7  C   UNL     1     -13.914  -0.946 -10.968  1.00  0.00     0.013 C 
ATOM      8  C   UNL     1     -12.872  -2.061 -11.123  1.00  0.00     0.012 C 
ATOM      9  C   UNL     1     -15.125  -1.430 -10.162  1.00  0.00     0.012 C 
ENDBRANCH   1   7
BRANCH   4  10
ATOM     10  C   UNL     1     -11.545   3.792  -8.572  1.00  0.00     0.260 C 
ATOM     11  O   UNL     1     -10.390   3.768  -8.067  1.00  0.00    -0.298 OA
ENDBRANCH   4  10
TORSDOF 2
ENDMDL
MODEL 3
REMARK VINA RESULT:    -6.444      2.339      4.926
REMARK INTER + INTRA:          -7.391
REMARK INTER:                  -7.200
REMARK INTRA:                  -0.191
REMARK UNBOUND:                -0.194
REMARK SMILES CC(C)c1ccc(C=O)cc1
REMARK SMILES IDX 4 1 5 2 6 3 7 4 10 5 11 6 2 7 1 8 3 9 8 10 9 11
REMARK H PARENT
REMARK Flexibility Score: inf
ROOT
ATOM      1  C   UNL     1     -13.332   0.418 -10.289  1.00  0.00    -0.045 A 
ATOM      2  C   UNL     1     -14.140   1.532 -10.004  1.00  0.00     0.005 A 
ATOM      3  C   UNL     1     -13.585   2.692  -9.456  1.00  0.00     0.012 A 
ATOM      4  C   UNL     1     -12.209   2.759  -9.181  1.00  0.00     0.014 A 
ATOM      5  C   UNL     1     -11.399   1.650  -9.462  1.00  0.00     0.012 A 
ATOM      6  C   UNL     1     -11.953   0.490 -10.011  1.00  0.00     0.005 A 
ENDROOT
BRANCH   1   7
ATOM      7  C   UNL     1     -13.947  -0.834 -10.884  1.00  0.00     0.013 C 
ATOM      8  C   UNL     1     -12.884  -1.913 -11.122  1.00  0.00     0.012 C 
ATOM      9  C   UNL     1     -15.084  -1.364 -10.002  1.00  0.00     0.012 C 
ENDBRANCH   1   7
BRANCH   4  10
ATOM     10  C   UNL     1     -11.605   3.973  -8.602  1.00  0.00     0.260 C 
ATOM     11  O   UNL     1     -10.648   3.898  -7.786  1.00  0.00    -0.298 OA
ENDBRANCH   4  10
TORSDOF 2
ENDMDL
MODEL 4
REMARK VINA RESULT:    -6.150      2.521      4.744
REMARK INTER + INTRA:          -7.063
REMARK INTER:                  -6.872
REMARK INTRA:                  -0.191
REMARK UNBOUND:                -0.194
REMARK SMILES CC(C)c1ccc(C=O)cc1
REMARK SMILES IDX 4 1 5 2 6 3 7 4 10 5 11 6 2 7 1 8 3 9 8 10 9 11
REMARK H PARENT
REMARK Flexibility Score: inf
ROOT
ATOM      1  C   UNL     1     -12.085   0.132 -10.085  1.00  0.00    -0.045 A 
ATOM      2  C   UNL     1     -10.997   0.760  -9.454  1.00  0.00     0.005 A 
ATOM      3  C   UNL     1     -11.117   2.060  -8.956  1.00  0.00     0.012 A 
ATOM      4  C   UNL     1     -12.329   2.758  -9.080  1.00  0.00     0.014 A 
ATOM      5  C   UNL     1     -13.417   2.137  -9.709  1.00  0.00     0.012 A 
ATOM      6  C   UNL     1     -13.298   0.837 -10.207  1.00  0.00     0.005 A 
ENDROOT
BRANCH   1   7
ATOM      7  C   UNL     1     -11.942  -1.280 -10.621  1.00  0.00     0.013 C 
ATOM      8  C   UNL     1     -10.921  -2.080  -9.803  1.00  0.00     0.012 C 
ATOM      9  C   UNL     1     -13.297  -1.995 -10.664  1.00  0.00     0.012 C 
ENDBRANCH   1   7
BRANCH   4  10
ATOM     10  C   UNL     1     -12.475   4.131  -8.562  1.00  0.00     0.260 C 
ATOM     11  O   UNL     1     -12.615   4.350  -7.329  1.00  0.00    -0.298 OA
ENDBRANCH   4  10
TORSDOF 2
ENDMDL
MODEL 5
REMARK VINA RESULT:    -5.871      1.811      2.662
REMARK INTER + INTRA:          -6.752
REMARK INTER:                  -6.561
REMARK INTRA:                  -0.190
REMARK UNBOUND:                -0.194
REMARK SMILES CC(C)c1ccc(C=O)cc1
REMARK SMILES IDX 4 1 5 2 6 3 7 4 10 5 11 6 2 7 1 8 3 9 8 10 9 11
REMARK H PARENT
REMARK Flexibility Score: inf
ROOT
ATOM      1  C   UNL     1     -12.699   0.872  -9.969  1.00  0.00    -0.045 A 
ATOM      2  C   UNL     1     -11.392   0.925  -9.453  1.00  0.00     0.005 A 
ATOM      3  C   UNL     1     -10.570  -0.206  -9.483  1.00  0.00     0.012 A 
ATOM      4  C   UNL     1     -11.040  -1.411 -10.030  1.00  0.00     0.014 A 
ATOM      5  C   UNL     1     -12.342  -1.468 -10.545  1.00  0.00     0.012 A 
ATOM      6  C   UNL     1     -13.165  -0.339 -10.515  1.00  0.00     0.005 A 
ENDROOT
BRANCH   1   7
ATOM      7  C   UNL     1     -13.581   2.106  -9.930  1.00  0.00     0.013 C 
ATOM      8  C   UNL     1     -14.897   1.821  -9.198  1.00  0.00     0.012 C 
ATOM      9  C   UNL     1     -12.843   3.293  -9.299  1.00  0.00     0.012 C 
ENDBRANCH   1   7
BRANCH   4  10
ATOM     10  C   UNL     1     -10.188  -2.613 -10.070  1.00  0.00     0.260 C 
ATOM     11  O   UNL     1      -9.314  -2.822  -9.185  1.00  0.00    -0.298 OA
ENDBRANCH   4  10
TORSDOF 2
ENDMDL
MODEL 6
REMARK VINA RESULT:    -5.133      2.676      4.364
REMARK INTER + INTRA:          -5.927
REMARK INTER:                  -5.736
REMARK INTRA:                  -0.191
REMARK UNBOUND:                -0.194
REMARK SMILES CC(C)c1ccc(C=O)cc1
REMARK SMILES IDX 4 1 5 2 6 3 7 4 10 5 11 6 2 7 1 8 3 9 8 10 9 11
REMARK H PARENT
REMARK Flexibility Score: inf
ROOT
ATOM      1  C   UNL     1     -12.612  -0.913 -10.441  1.00  0.00    -0.045 A 
ATOM      2  C   UNL     1     -12.653  -2.316 -10.357  1.00  0.00     0.005 A 
ATOM      3  C   UNL     1     -11.494  -3.046 -10.077  1.00  0.00     0.012 A 
ATOM      4  C   UNL     1     -10.271  -2.385  -9.877  1.00  0.00     0.014 A 
ATOM      5  C   UNL     1     -10.225  -0.987  -9.961  1.00  0.00     0.012 A 
ATOM      6  C   UNL     1     -11.383  -0.256 -10.241  1.00  0.00     0.005 A 
ENDROOT
BRANCH   1   7
ATOM      7  C   UNL     1     -13.877  -0.133 -10.746  1.00  0.00     0.013 C 
ATOM      8  C   UNL     1     -15.124  -0.910 -10.306  1.00  0.00     0.012 C 
ATOM      9  C   UNL     1     -13.838   1.258 -10.102  1.00  0.00     0.012 C 
ENDBRANCH   1   7
BRANCH   4  10
ATOM     10  C   UNL     1      -9.038  -3.138  -9.581  1.00  0.00     0.260 C 
ATOM     11  O   UNL     1      -8.901  -3.762  -8.495  1.00  0.00    -0.298 OA
ENDBRANCH   4  10
TORSDOF 2
ENDMDL
MODEL 7
REMARK VINA RESULT:    -4.488     14.985     17.022
REMARK INTER + INTRA:          -5.206
REMARK INTER:                  -5.020
REMARK INTRA:                  -0.186
REMARK UNBOUND:                -0.194
REMARK SMILES CC(C)c1ccc(C=O)cc1
REMARK SMILES IDX 4 1 5 2 6 3 7 4 10 5 11 6 2 7 1 8 3 9 8 10 9 11
REMARK H PARENT
REMARK Flexibility Score: inf
ROOT
ATOM      1  C   UNL     1     -13.182   5.886   5.546  1.00  0.00    -0.045 A 
ATOM      2  C   UNL     1     -12.399   7.008   5.867  1.00  0.00     0.005 A 
ATOM      3  C   UNL     1     -11.410   6.927   6.852  1.00  0.00     0.012 A 
ATOM      4  C   UNL     1     -11.186   5.720   7.535  1.00  0.00     0.014 A 
ATOM      5  C   UNL     1     -11.966   4.599   7.219  1.00  0.00     0.012 A 
ATOM      6  C   UNL     1     -12.954   4.679   6.234  1.00  0.00     0.005 A 
ENDROOT
BRANCH   1   7
ATOM      7  C   UNL     1     -14.253   5.988   4.476  1.00  0.00     0.013 C 
ATOM      8  C   UNL     1     -15.119   7.237   4.678  1.00  0.00     0.012 C 
ATOM      9  C   UNL     1     -13.635   5.966   3.073  1.00  0.00     0.012 C 
ENDBRANCH   1   7
BRANCH   4  10
ATOM     10  C   UNL     1     -10.148   5.615   8.576  1.00  0.00     0.260 C 
ATOM     11  O   UNL     1      -9.886   4.511   9.125  1.00  0.00    -0.298 OA
ENDBRANCH   4  10
TORSDOF 2
ENDMDL
MODEL 8
REMARK VINA RESULT:    -4.381     15.059     16.814
REMARK INTER + INTRA:          -5.087
REMARK INTER:                  -4.897
REMARK INTRA:                  -0.191
REMARK UNBOUND:                -0.194
REMARK SMILES CC(C)c1ccc(C=O)cc1
REMARK SMILES IDX 4 1 5 2 6 3 7 4 10 5 11 6 2 7 1 8 3 9 8 10 9 11
REMARK H PARENT
REMARK Flexibility Score: inf
ROOT
ATOM      1  C   UNL     1     -12.012   5.574   7.021  1.00  0.00    -0.045 A 
ATOM      2  C   UNL     1     -11.771   6.943   6.813  1.00  0.00     0.005 A 
ATOM      3  C   UNL     1     -12.417   7.630   5.782  1.00  0.00     0.012 A 
ATOM      4  C   UNL     1     -13.317   6.960   4.937  1.00  0.00     0.014 A 
ATOM      5  C   UNL     1     -13.560   5.594   5.139  1.00  0.00     0.012 A 
ATOM      6  C   UNL     1     -12.914   4.906   6.171  1.00  0.00     0.005 A 
ENDROOT
BRANCH   1   7
ATOM      7  C   UNL     1     -11.304   4.840   8.144  1.00  0.00     0.013 C 
ATOM      8  C   UNL     1     -10.656   3.546   7.637  1.00  0.00     0.012 C 
ATOM      9  C   UNL     1     -10.272   5.743   8.830  1.00  0.00     0.012 C 
ENDBRANCH   1   7
BRANCH   4  10
ATOM     10  C   UNL     1     -14.007   7.668   3.843  1.00  0.00     0.260 C 
ATOM     11  O   UNL     1     -14.007   7.210   2.669  1.00  0.00    -0.298 OA
ENDBRANCH   4  10
TORSDOF 2
ENDMDL
MODEL 9
REMARK VINA RESULT:    -4.197     14.995     17.028
REMARK INTER + INTRA:          -4.882
REMARK INTER:                  -4.696
REMARK INTRA:                  -0.186
REMARK UNBOUND:                -0.194
REMARK SMILES CC(C)c1ccc(C=O)cc1
REMARK SMILES IDX 4 1 5 2 6 3 7 4 10 5 11 6 2 7 1 8 3 9 8 10 9 11
REMARK H PARENT
REMARK Flexibility Score: inf
ROOT
ATOM      1  C   UNL     1     -13.064   6.224   5.567  1.00  0.00    -0.045 A 
ATOM      2  C   UNL     1     -13.114   4.953   6.168  1.00  0.00     0.005 A 
ATOM      3  C   UNL     1     -12.224   4.616   7.192  1.00  0.00     0.012 A 
ATOM      4  C   UNL     1     -11.267   5.544   7.635  1.00  0.00     0.014 A 
ATOM      5  C   UNL     1     -11.214   6.811   7.038  1.00  0.00     0.012 A 
ATOM      6  C   UNL     1     -12.102   7.149   6.014  1.00  0.00     0.005 A 
ENDROOT
BRANCH   1   7
ATOM      7  C   UNL     1     -14.035   6.577   4.456  1.00  0.00     0.013 C 
ATOM      8  C   UNL     1     -14.161   8.096   4.294  1.00  0.00     0.012 C 
ATOM      9  C   UNL     1     -13.629   5.912   3.136  1.00  0.00     0.012 C 
ENDBRANCH   1   7
BRANCH   4  10
ATOM     10  C   UNL     1     -10.321   5.206   8.714  1.00  0.00     0.260 C 
ATOM     11  O   UNL     1     -10.198   4.021   9.125  1.00  0.00    -0.298 OA
ENDBRANCH   4  10
TORSDOF 2
ENDMDL
