MODEL 1
REMARK VINA RESULT:     2.437      0.000      0.000
REMARK INTER + INTRA:           2.651
REMARK INTER:                   2.651
REMARK INTRA:                   0.000
REMARK UNBOUND:                 0.000
REMARK SMILES Cc1cc(O)c2c(c1)C(=O)c1cc(O)cc(O)c1C2=O
REMARK SMILES IDX 1 1 2 2 8 3 7 4 6 5 4 6 3 7 19 8 20 9 18 10 11 11 9 12 10 13
REMARK SMILES IDX 12 14 13 15 15 16 16 17 5 18 17 20 14 22
REMARK H PARENT 5 19 17 21 14 23
REMARK Flexibility Score: inf
ROOT
ATOM      1  C   UNL     1     -12.271  35.175  -1.119  1.00  0.00     0.044 C 
ATOM      2  C   UNL     1     -10.814  35.401  -0.841  1.00  0.00    -0.047 A 
ATOM      3  C   UNL     1     -10.075  34.443  -0.138  1.00  0.00     0.016 A 
ATOM      4  C   UNL     1      -8.715  34.655   0.149  1.00  0.00     0.038 A 
ATOM      5  C   UNL     1      -8.083  35.847  -0.275  1.00  0.00     0.076 A 
ATOM      6  C   UNL     1      -8.866  36.856  -0.899  1.00  0.00     0.127 A 
ATOM      7  C   UNL     1     -10.209  36.609  -1.198  1.00  0.00     0.050 A 
ATOM      8  C   UNL     1      -6.609  35.971  -0.095  1.00  0.00     0.201 C 
ATOM      9  O   UNL     1      -5.951  36.782  -0.799  1.00  0.00    -0.288 OA
ATOM     10  C   UNL     1      -5.891  35.056   0.833  1.00  0.00     0.076 A 
ATOM     11  C   UNL     1      -6.551  33.902   1.307  1.00  0.00     0.041 A 
ATOM     12  C   UNL     1      -7.951  33.635   0.906  1.00  0.00     0.194 C 
ATOM     13  O   UNL     1      -8.499  32.545   1.225  1.00  0.00    -0.289 OA
ATOM     14  C   UNL     1      -5.872  33.009   2.154  1.00  0.00     0.059 A 
ATOM     15  C   UNL     1      -4.551  33.259   2.537  1.00  0.00     0.120 A 
ATOM     16  C   UNL     1      -3.900  34.403   2.077  1.00  0.00     0.093 A 
ATOM     17  C   UNL     1      -4.557  35.304   1.230  1.00  0.00     0.131 A 
ENDROOT
BRANCH   6  18
ATOM     18  O   UNL     1      -8.367  38.125  -1.206  1.00  0.00    -0.507 OA
ATOM     19  H   UNL     1      -8.267  38.867  -0.528  1.00  0.00     0.293 HD
ENDBRANCH   6  18
BRANCH  17  20
ATOM     20  O   UNL     1      -3.885  36.447   0.796  1.00  0.00    -0.507 OA
ATOM     21  H   UNL     1      -3.351  37.027   1.433  1.00  0.00     0.293 HD
ENDBRANCH  17  20
BRANCH  15  22
ATOM     22  O   UNL     1      -3.877  32.375   3.378  1.00  0.00    -0.508 OA
ATOM     23  H   UNL     1      -3.896  31.375   3.222  1.00  0.00     0.293 HD
ENDBRANCH  15  22
TORSDOF 3
ENDMDL
MODEL 2
REMARK VINA RESULT:     2.662      1.492      5.233
REMARK INTER + INTRA:           2.896
REMARK INTER:                   2.896
REMARK INTRA:                   0.000
REMARK UNBOUND:                 0.000
REMARK SMILES Cc1cc(O)c2c(c1)C(=O)c1cc(O)cc(O)c1C2=O
REMARK SMILES IDX 1 1 2 2 8 3 7 4 6 5 4 6 3 7 19 8 20 9 18 10 11 11 9 12 10 13
REMARK SMILES IDX 12 14 13 15 15 16 16 17 5 18 17 20 14 22
REMARK H PARENT 5 19 17 21 14 23
REMARK Flexibility Score: inf
ROOT
ATOM      1  C   UNL     1      -6.875  29.735   2.248  1.00  0.00     0.044 C 
ATOM      2  C   UNL     1      -6.657  31.187   1.939  1.00  0.00    -0.047 A 
ATOM      3  C   UNL     1      -7.665  31.931   1.316  1.00  0.00     0.016 A 
ATOM      4  C   UNL     1      -7.463  33.286   0.999  1.00  0.00     0.038 A 
ATOM      5  C   UNL     1      -6.232  33.907   1.310  1.00  0.00     0.076 A 
ATOM      6  C   UNL     1      -5.181  33.117   1.850  1.00  0.00     0.127 A 
ATOM      7  C   UNL     1      -5.415  31.780   2.182  1.00  0.00     0.050 A 
ATOM      8  C   UNL     1      -6.108  35.378   1.105  1.00  0.00     0.201 C 
ATOM      9  O   UNL     1      -5.230  36.032   1.729  1.00  0.00    -0.288 OA
ATOM     10  C   UNL     1      -7.093  36.099   0.256  1.00  0.00     0.076 A 
ATOM     11  C   UNL     1      -8.292  35.449  -0.108  1.00  0.00     0.041 A 
ATOM     12  C   UNL     1      -8.538  34.057   0.328  1.00  0.00     0.194 C 
ATOM     13  O   UNL     1      -9.659  33.519   0.111  1.00  0.00    -0.289 OA
ATOM     14  C   UNL     1      -9.249  36.132  -0.880  1.00  0.00     0.059 A 
ATOM     15  C   UNL     1      -9.018  37.447  -1.296  1.00  0.00     0.120 A 
ATOM     16  C   UNL     1      -7.831  38.088  -0.945  1.00  0.00     0.093 A 
ATOM     17  C   UNL     1      -6.865  37.427  -0.175  1.00  0.00     0.131 A 
ENDROOT
BRANCH   6  18
ATOM     18  O   UNL     1      -3.884  33.603   2.038  1.00  0.00    -0.507 OA
ATOM     19  H   UNL     1      -3.182  33.129   2.588  1.00  0.00     0.293 HD
ENDBRANCH   6  18
BRANCH  17  20
ATOM     20  O   UNL     1      -5.681  38.089   0.150  1.00  0.00    -0.507 OA
ATOM     21  H   UNL     1      -5.058  38.449  -0.563  1.00  0.00     0.293 HD
ENDBRANCH  17  20
BRANCH  15  22
ATOM     22  O   UNL     1      -9.965  38.125  -2.062  1.00  0.00    -0.508 OA
ATOM     23  H   UNL     1     -10.265  37.777  -2.964  1.00  0.00     0.293 HD
ENDBRANCH  15  22
TORSDOF 3
ENDMDL
MODEL 3
REMARK VINA RESULT:     3.981      1.589      2.508
REMARK INTER + INTRA:           4.330
REMARK INTER:                   4.330
REMARK INTRA:                   0.000
REMARK UNBOUND:                 0.000
REMARK SMILES Cc1cc(O)c2c(c1)C(=O)c1cc(O)cc(O)c1C2=O
REMARK SMILES IDX 1 1 2 2 8 3 7 4 6 5 4 6 3 7 19 8 20 9 18 10 11 11 9 12 10 13
REMARK SMILES IDX 12 14 13 15 15 16 16 17 5 18 17 20 14 22
REMARK H PARENT 5 19 17 21 14 23
REMARK Flexibility Score: inf
ROOT
ATOM      1  C   UNL     1     -10.057  38.125  -1.568  1.00  0.00     0.044 C 
ATOM      2  C   UNL     1      -8.956  37.357  -0.898  1.00  0.00    -0.047 A 
ATOM      3  C   UNL     1      -9.092  35.983  -0.674  1.00  0.00     0.016 A 
ATOM      4  C   UNL     1      -8.077  35.258  -0.026  1.00  0.00     0.038 A 
ATOM      5  C   UNL     1      -6.905  35.920   0.407  1.00  0.00     0.076 A 
ATOM      6  C   UNL     1      -6.820  37.332   0.265  1.00  0.00     0.127 A 
ATOM      7  C   UNL     1      -7.830  38.025  -0.408  1.00  0.00     0.050 A 
ATOM      8  C   UNL     1      -5.786  35.098   0.947  1.00  0.00     0.201 C 
ATOM      9  O   UNL     1      -4.611  35.555   0.953  1.00  0.00    -0.288 OA
ATOM     10  C   UNL     1      -6.028  33.694   1.372  1.00  0.00     0.076 A 
ATOM     11  C   UNL     1      -7.230  33.060   0.994  1.00  0.00     0.041 A 
ATOM     12  C   UNL     1      -8.244  33.805   0.215  1.00  0.00     0.194 C 
ATOM     13  O   UNL     1      -9.261  33.204  -0.231  1.00  0.00    -0.289 OA
ATOM     14  C   UNL     1      -7.457  31.720   1.358  1.00  0.00     0.059 A 
ATOM     15  C   UNL     1      -6.503  31.014   2.096  1.00  0.00     0.120 A 
ATOM     16  C   UNL     1      -5.317  31.641   2.478  1.00  0.00     0.093 A 
ATOM     17  C   UNL     1      -5.071  32.974   2.125  1.00  0.00     0.131 A 
ENDROOT
BRANCH   6  18
ATOM     18  O   UNL     1      -5.777  38.089   0.805  1.00  0.00    -0.507 OA
ATOM     19  H   UNL     1      -4.905  37.694   1.125  1.00  0.00     0.293 HD
ENDBRANCH   6  18
BRANCH  17  20
ATOM     20  O   UNL     1      -3.882  33.580   2.532  1.00  0.00    -0.507 OA
ATOM     21  H   UNL     1      -3.860  34.263   3.280  1.00  0.00     0.293 HD
ENDBRANCH  17  20
BRANCH  15  22
ATOM     22  O   UNL     1      -6.726  29.687   2.458  1.00  0.00    -0.508 OA
ATOM     23  H   UNL     1      -7.488  29.425   3.071  1.00  0.00     0.293 HD
ENDBRANCH  15  22
TORSDOF 3
ENDMDL
