MODEL 1
REMARK VINA RESULT:    -3.763      0.000      0.000
REMARK INTER + INTRA:          -6.050
REMARK INTER:                  -5.303
REMARK INTRA:                  -0.747
REMARK UNBOUND:                -0.747
REMARK SMILES CCCCCCCCC(=O)[O-]
REMARK SMILES IDX 6 1 7 2 8 3 9 4 10 5 11 6 5 7 4 8 3 9 2 10 1 11
REMARK H PARENT
REMARK Flexibility Score: inf
ROOT
ATOM      1  C   UNL     1      -9.301  -3.735 -15.280  1.00  0.00     0.000 C 
ENDROOT
BRANCH   1   2
ATOM      2  C   UNL     1     -10.371  -3.726 -16.382  1.00  0.00     0.006 C 
BRANCH   2   3
ATOM      3  C   UNL     1     -11.389  -4.849 -16.166  1.00  0.00     0.053 C 
BRANCH   3   4
ATOM      4  C   UNL     1     -12.482  -4.397 -15.250  1.00  0.00     0.041 C 
ATOM      5  O   UNL     1     -12.475  -4.740 -14.038  1.00  0.00    -0.550 OA
ATOM      6  O   UNL     1     -13.481  -3.554 -15.722  1.00  0.00    -0.550 OA
ENDBRANCH   3   4
ENDBRANCH   2   3
ENDBRANCH   1   2
BRANCH   1   7
ATOM      7  C   UNL     1      -8.113  -4.651 -15.614  1.00  0.00     0.000 C 
BRANCH   7   8
ATOM      8  C   UNL     1      -7.657  -5.493 -14.413  1.00  0.00    -0.000 C 
BRANCH   8   9
ATOM      9  C   UNL     1      -8.856  -6.147 -13.715  1.00  0.00    -0.000 C 
BRANCH   9  10
ATOM     10  C   UNL     1      -9.277  -7.433 -14.436  1.00  0.00    -0.003 C 
ATOM     11  C   UNL     1     -10.705  -7.827 -14.072  1.00  0.00     0.004 C 
ENDBRANCH   9  10
ENDBRANCH   8   9
ENDBRANCH   7   8
ENDBRANCH   1   7
TORSDOF 7
ENDMDL
MODEL 2
REMARK VINA RESULT:    -3.637      7.291      8.531
REMARK INTER + INTRA:          -5.873
REMARK INTER:                  -5.719
REMARK INTRA:                  -0.154
REMARK UNBOUND:                -0.747
REMARK SMILES CCCCCCCCC(=O)[O-]
REMARK SMILES IDX 6 1 7 2 8 3 9 4 10 5 11 6 5 7 4 8 3 9 2 10 1 11
REMARK H PARENT
REMARK Flexibility Score: inf
ROOT
ATOM      1  C   UNL     1      -3.628  -2.590 -16.697  1.00  0.00     0.000 C 
ENDROOT
BRANCH   1   2
ATOM      2  C   UNL     1      -3.312  -1.436 -17.661  1.00  0.00     0.006 C 
BRANCH   2   3
ATOM      3  C   UNL     1      -2.886  -1.970 -19.031  1.00  0.00     0.053 C 
BRANCH   3   4
ATOM      4  C   UNL     1      -1.425  -1.737 -19.254  1.00  0.00     0.041 C 
ATOM      5  O   UNL     1      -0.838  -2.281 -20.226  1.00  0.00    -0.550 OA
ATOM      6  O   UNL     1      -0.723  -0.877 -18.418  1.00  0.00    -0.550 OA
ENDBRANCH   3   4
ENDBRANCH   2   3
ENDBRANCH   1   2
BRANCH   1   7
ATOM      7  C   UNL     1      -4.422  -2.130 -15.463  1.00  0.00     0.000 C 
BRANCH   7   8
ATOM      8  C   UNL     1      -5.532  -3.116 -15.071  1.00  0.00    -0.000 C 
BRANCH   8   9
ATOM      9  C   UNL     1      -6.136  -2.750 -13.710  1.00  0.00    -0.000 C 
BRANCH   9  10
ATOM     10  C   UNL     1      -7.667  -2.736 -13.774  1.00  0.00    -0.003 C 
ATOM     11  C   UNL     1      -8.261  -1.966 -12.597  1.00  0.00     0.004 C 
ENDBRANCH   9  10
ENDBRANCH   8   9
ENDBRANCH   7   8
ENDBRANCH   1   7
TORSDOF 7
ENDMDL
MODEL 3
REMARK VINA RESULT:    -3.625      6.604      7.973
REMARK INTER + INTRA:          -5.855
REMARK INTER:                  -5.511
REMARK INTRA:                  -0.344
REMARK UNBOUND:                -0.747
REMARK SMILES CCCCCCCCC(=O)[O-]
REMARK SMILES IDX 6 1 7 2 8 3 9 4 10 5 11 6 5 7 4 8 3 9 2 10 1 11
REMARK H PARENT
REMARK Flexibility Score: inf
ROOT
ATOM      1  C   UNL     1      -6.965  -0.570 -10.879  1.00  0.00     0.000 C 
ENDROOT
BRANCH   1   2
ATOM      2  C   UNL     1      -7.254  -1.989 -11.390  1.00  0.00     0.006 C 
BRANCH   2   3
ATOM      3  C   UNL     1      -8.301  -1.966 -12.507  1.00  0.00     0.053 C 
BRANCH   3   4
ATOM      4  C   UNL     1      -7.850  -2.797 -13.666  1.00  0.00     0.041 C 
ATOM      5  O   UNL     1      -8.681  -3.486 -14.314  1.00  0.00    -0.550 OA
ATOM      6  O   UNL     1      -6.519  -2.771 -14.064  1.00  0.00    -0.550 OA
ENDBRANCH   3   4
ENDBRANCH   2   3
ENDBRANCH   1   2
BRANCH   1   7
ATOM      7  C   UNL     1      -6.585  -0.541  -9.390  1.00  0.00     0.000 C 
BRANCH   7   8
ATOM      8  C   UNL     1      -7.223   0.635  -8.638  1.00  0.00    -0.000 C 
BRANCH   8   9
ATOM      9  C   UNL     1      -6.436   1.930  -8.874  1.00  0.00    -0.000 C 
BRANCH   9  10
ATOM     10  C   UNL     1      -7.282   2.955  -9.638  1.00  0.00    -0.003 C 
ATOM     11  C   UNL     1      -6.828   3.071 -11.091  1.00  0.00     0.004 C 
ENDBRANCH   9  10
ENDBRANCH   8   9
ENDBRANCH   7   8
ENDBRANCH   1   7
TORSDOF 7
ENDMDL
MODEL 4
REMARK VINA RESULT:    -3.621      3.117      4.514
REMARK INTER + INTRA:          -5.850
REMARK INTER:                  -5.430
REMARK INTRA:                  -0.419
REMARK UNBOUND:                -0.747
REMARK SMILES CCCCCCCCC(=O)[O-]
REMARK SMILES IDX 6 1 7 2 8 3 9 4 10 5 11 6 5 7 4 8 3 9 2 10 1 11
REMARK H PARENT
REMARK Flexibility Score: inf
ROOT
ATOM      1  C   UNL     1      -9.303  -3.633 -14.946  1.00  0.00     0.000 C 
ENDROOT
BRANCH   1   2
ATOM      2  C   UNL     1      -7.792  -3.908 -14.932  1.00  0.00     0.006 C 
BRANCH   2   3
ATOM      3  C   UNL     1      -7.042  -2.805 -14.180  1.00  0.00     0.053 C 
BRANCH   3   4
ATOM      4  C   UNL     1      -7.521  -2.714 -12.766  1.00  0.00     0.041 C 
ATOM      5  O   UNL     1      -7.271  -3.640 -11.951  1.00  0.00    -0.550 OA
ATOM      6  O   UNL     1      -8.201  -1.581 -12.334  1.00  0.00    -0.550 OA
ENDBRANCH   3   4
ENDBRANCH   2   3
ENDBRANCH   1   2
BRANCH   1   7
ATOM      7  C   UNL     1      -9.951  -3.952 -16.302  1.00  0.00     0.000 C 
BRANCH   7   8
ATOM      8  C   UNL     1     -11.247  -4.763 -16.164  1.00  0.00    -0.000 C 
BRANCH   8   9
ATOM      9  C   UNL     1     -11.543  -5.079 -14.693  1.00  0.00    -0.000 C 
BRANCH   9  10
ATOM     10  C   UNL     1     -12.897  -4.499 -14.268  1.00  0.00    -0.003 C 
ATOM     11  C   UNL     1     -13.532  -3.695 -15.400  1.00  0.00     0.004 C 
ENDBRANCH   9  10
ENDBRANCH   8   9
ENDBRANCH   7   8
ENDBRANCH   1   7
TORSDOF 7
ENDMDL
MODEL 5
REMARK VINA RESULT:    -3.615      2.621      3.761
REMARK INTER + INTRA:          -5.841
REMARK INTER:                  -5.550
REMARK INTRA:                  -0.291
REMARK UNBOUND:                -0.747
REMARK SMILES CCCCCCCCC(=O)[O-]
REMARK SMILES IDX 6 1 7 2 8 3 9 4 10 5 11 6 5 7 4 8 3 9 2 10 1 11
REMARK H PARENT
REMARK Flexibility Score: inf
ROOT
ATOM      1  C   UNL     1      -8.791  -4.231 -15.691  1.00  0.00     0.000 C 
ENDROOT
BRANCH   1   2
ATOM      2  C   UNL     1     -10.196  -3.695 -16.005  1.00  0.00     0.006 C 
BRANCH   2   3
ATOM      3  C   UNL     1     -11.206  -4.841 -16.116  1.00  0.00     0.053 C 
BRANCH   3   4
ATOM      4  C   UNL     1     -11.910  -5.047 -14.813  1.00  0.00     0.041 C 
ATOM      5  O   UNL     1     -12.913  -4.346 -14.517  1.00  0.00    -0.550 OA
ATOM      6  O   UNL     1     -11.490  -6.050 -13.946  1.00  0.00    -0.550 OA
ENDBRANCH   3   4
ENDBRANCH   2   3
ENDBRANCH   1   2
BRANCH   1   7
ATOM      7  C   UNL     1      -8.416  -4.075 -14.209  1.00  0.00     0.000 C 
BRANCH   7   8
ATOM      8  C   UNL     1      -7.653  -2.773 -13.923  1.00  0.00    -0.000 C 
BRANCH   8   9
ATOM      9  C   UNL     1      -8.245  -2.045 -12.711  1.00  0.00    -0.000 C 
BRANCH   9  10
ATOM     10  C   UNL     1      -7.366  -2.239 -11.470  1.00  0.00    -0.003 C 
ATOM     11  C   UNL     1      -6.989  -0.898 -10.846  1.00  0.00     0.004 C 
ENDBRANCH   9  10
ENDBRANCH   8   9
ENDBRANCH   7   8
ENDBRANCH   1   7
TORSDOF 7
ENDMDL
MODEL 6
REMARK VINA RESULT:    -3.611      2.759      4.362
REMARK INTER + INTRA:          -5.835
REMARK INTER:                  -5.566
REMARK INTRA:                  -0.269
REMARK UNBOUND:                -0.747
REMARK SMILES CCCCCCCCC(=O)[O-]
REMARK SMILES IDX 6 1 7 2 8 3 9 4 10 5 11 6 5 7 4 8 3 9 2 10 1 11
REMARK H PARENT
REMARK Flexibility Score: inf
ROOT
ATOM      1  C   UNL     1      -8.690  -3.542 -14.307  1.00  0.00     0.000 C 
ENDROOT
BRANCH   1   2
ATOM      2  C   UNL     1      -8.851  -4.187 -15.691  1.00  0.00     0.006 C 
BRANCH   2   3
ATOM      3  C   UNL     1     -10.170  -3.761 -16.343  1.00  0.00     0.053 C 
BRANCH   3   4
ATOM      4  C   UNL     1     -11.308  -4.566 -15.799  1.00  0.00     0.041 C 
ATOM      5  O   UNL     1     -12.460  -4.064 -15.722  1.00  0.00    -0.550 OA
ATOM      6  O   UNL     1     -11.106  -5.889 -15.423  1.00  0.00    -0.550 OA
ENDBRANCH   3   4
ENDBRANCH   2   3
ENDBRANCH   1   2
BRANCH   1   7
ATOM      7  C   UNL     1      -7.368  -2.771 -14.162  1.00  0.00     0.000 C 
BRANCH   7   8
ATOM      8  C   UNL     1      -6.190  -3.480 -14.847  1.00  0.00    -0.000 C 
BRANCH   8   9
ATOM      9  C   UNL     1      -4.975  -2.550 -14.950  1.00  0.00    -0.000 C 
BRANCH   9  10
ATOM     10  C   UNL     1      -4.074  -2.953 -16.123  1.00  0.00    -0.003 C 
ATOM     11  C   UNL     1      -3.748  -1.751 -17.006  1.00  0.00     0.004 C 
ENDBRANCH   9  10
ENDBRANCH   8   9
ENDBRANCH   7   8
ENDBRANCH   1   7
TORSDOF 7
ENDMDL
MODEL 7
REMARK VINA RESULT:    -3.588      4.311      5.590
REMARK INTER + INTRA:          -5.803
REMARK INTER:                  -5.521
REMARK INTRA:                  -0.283
REMARK UNBOUND:                -0.747
REMARK SMILES CCCCCCCCC(=O)[O-]
REMARK SMILES IDX 6 1 7 2 8 3 9 4 10 5 11 6 5 7 4 8 3 9 2 10 1 11
REMARK H PARENT
REMARK Flexibility Score: inf
ROOT
ATOM      1  C   UNL     1      -7.757  -2.721 -13.864  1.00  0.00     0.000 C 
ENDROOT
BRANCH   1   2
ATOM      2  C   UNL     1      -8.170  -1.979 -12.584  1.00  0.00     0.006 C 
BRANCH   2   3
ATOM      3  C   UNL     1      -7.394  -2.504 -11.372  1.00  0.00     0.053 C 
BRANCH   3   4
ATOM      4  C   UNL     1      -6.788  -1.372 -10.605  1.00  0.00     0.041 C 
ATOM      5  O   UNL     1      -7.085  -0.182 -10.891  1.00  0.00    -0.550 OA
ATOM      6  O   UNL     1      -5.934  -1.632  -9.540  1.00  0.00    -0.550 OA
ENDBRANCH   3   4
ENDBRANCH   2   3
ENDBRANCH   1   2
BRANCH   1   7
ATOM      7  C   UNL     1      -8.723  -3.860 -14.226  1.00  0.00     0.000 C 
BRANCH   7   8
ATOM      8  C   UNL     1      -9.162  -3.819 -15.697  1.00  0.00    -0.000 C 
BRANCH   8   9
ATOM      9  C   UNL     1     -10.690  -3.864 -15.815  1.00  0.00    -0.000 C 
BRANCH   9  10
ATOM     10  C   UNL     1     -11.300  -4.753 -14.725  1.00  0.00    -0.003 C 
ATOM     11  C   UNL     1     -12.793  -4.483 -14.565  1.00  0.00     0.004 C 
ENDBRANCH   9  10
ENDBRANCH   8   9
ENDBRANCH   7   8
ENDBRANCH   1   7
TORSDOF 7
ENDMDL
MODEL 8
REMARK VINA RESULT:    -3.582      1.726      3.166
REMARK INTER + INTRA:          -5.795
REMARK INTER:                  -5.209
REMARK INTRA:                  -0.586
REMARK UNBOUND:                -0.747
REMARK SMILES CCCCCCCCC(=O)[O-]
REMARK SMILES IDX 6 1 7 2 8 3 9 4 10 5 11 6 5 7 4 8 3 9 2 10 1 11
REMARK H PARENT
REMARK Flexibility Score: inf
ROOT
ATOM      1  C   UNL     1      -9.209  -6.085 -14.047  1.00  0.00     0.000 C 
ENDROOT
BRANCH   1   2
ATOM      2  C   UNL     1     -10.635  -6.505 -14.434  1.00  0.00     0.006 C 
BRANCH   2   3
ATOM      3  C   UNL     1     -11.623  -5.357 -14.208  1.00  0.00     0.053 C 
BRANCH   3   4
ATOM      4  C   UNL     1     -12.015  -4.737 -15.511  1.00  0.00     0.041 C 
ATOM      5  O   UNL     1     -11.373  -5.008 -16.560  1.00  0.00    -0.550 OA
ATOM      6  O   UNL     1     -13.122  -3.899 -15.578  1.00  0.00    -0.550 OA
ENDBRANCH   3   4
ENDBRANCH   2   3
ENDBRANCH   1   2
BRANCH   1   7
ATOM      7  C   UNL     1      -8.267  -6.001 -15.259  1.00  0.00     0.000 C 
BRANCH   7   8
ATOM      8  C   UNL     1      -7.569  -4.638 -15.374  1.00  0.00    -0.000 C 
BRANCH   8   9
ATOM      9  C   UNL     1      -8.411  -3.534 -14.723  1.00  0.00    -0.000 C 
BRANCH   9  10
ATOM     10  C   UNL     1      -7.526  -2.566 -13.927  1.00  0.00    -0.003 C 
ATOM     11  C   UNL     1      -8.191  -2.166 -12.613  1.00  0.00     0.004 C 
ENDBRANCH   9  10
ENDBRANCH   8   9
ENDBRANCH   7   8
ENDBRANCH   1   7
TORSDOF 7
ENDMDL
MODEL 9
REMARK VINA RESULT:    -3.557      6.884      7.869
REMARK INTER + INTRA:          -5.760
REMARK INTER:                  -5.556
REMARK INTRA:                  -0.203
REMARK UNBOUND:                -0.747
REMARK SMILES CCCCCCCCC(=O)[O-]
REMARK SMILES IDX 6 1 7 2 8 3 9 4 10 5 11 6 5 7 4 8 3 9 2 10 1 11
REMARK H PARENT
REMARK Flexibility Score: inf
ROOT
ATOM      1  C   UNL     1      -6.962  -0.560 -10.873  1.00  0.00     0.000 C 
ENDROOT
BRANCH   1   2
ATOM      2  C   UNL     1      -6.559  -0.493  -9.392  1.00  0.00     0.006 C 
BRANCH   2   3
ATOM      3  C   UNL     1      -7.320   0.622  -8.669  1.00  0.00     0.053 C 
BRANCH   3   4
ATOM      4  C   UNL     1      -6.546   1.901  -8.714  1.00  0.00     0.041 C 
ATOM      5  O   UNL     1      -6.874   2.812  -9.518  1.00  0.00    -0.550 OA
ATOM      6  O   UNL     1      -5.492   2.107  -7.832  1.00  0.00    -0.550 OA
ENDBRANCH   3   4
ENDBRANCH   2   3
ENDBRANCH   1   2
BRANCH   1   7
ATOM      7  C   UNL     1      -7.372  -1.975 -11.312  1.00  0.00     0.000 C 
BRANCH   7   8
ATOM      8  C   UNL     1      -8.212  -1.977 -12.598  1.00  0.00    -0.000 C 
BRANCH   8   9
ATOM      9  C   UNL     1      -7.485  -2.716 -13.727  1.00  0.00    -0.000 C 
BRANCH   9  10
ATOM     10  C   UNL     1      -8.478  -3.469 -14.620  1.00  0.00    -0.003 C 
ATOM     11  C   UNL     1      -8.608  -4.928 -14.190  1.00  0.00     0.004 C 
ENDBRANCH   9  10
ENDBRANCH   8   9
ENDBRANCH   7   8
ENDBRANCH   1   7
TORSDOF 7
ENDMDL
