MODEL 1
REMARK VINA RESULT:    -5.002      0.000      0.000
REMARK INTER + INTRA:          -6.261
REMARK INTER:                  -6.025
REMARK INTRA:                  -0.236
REMARK UNBOUND:                -0.236
REMARK SMILES C=CCc1ccc(O)c(OC)c1
REMARK SMILES IDX 9 1 7 2 6 3 5 4 4 5 12 6 10 7 11 8 8 9 3 11 2 12 1 13
REMARK H PARENT 8 10
REMARK Flexibility Score: inf
ROOT
ATOM      1  C   UNL     1       3.938  28.231  56.933  1.00  0.00     0.160 A 
ATOM      2  C   UNL     1       4.087  28.428  55.547  1.00  0.00     0.157 A 
ATOM      3  C   UNL     1       2.958  28.562  54.733  1.00  0.00     0.050 A 
ATOM      4  C   UNL     1       1.677  28.501  55.284  1.00  0.00     0.008 A 
ATOM      5  C   UNL     1       1.510  28.295  56.661  1.00  0.00    -0.040 A 
ATOM      6  C   UNL     1       2.642  28.169  57.482  1.00  0.00     0.054 A 
ENDROOT
BRANCH   1   7
ATOM      7  O   UNL     1       5.089  28.104  57.727  1.00  0.00    -0.493 OA
ATOM      8  C   UNL     1       5.312  27.057  58.665  1.00  0.00     0.278 C 
ENDBRANCH   1   7
BRANCH   2   9
ATOM      9  O   UNL     1       5.351  28.495  54.961  1.00  0.00    -0.504 OA
ATOM     10  H   UNL     1       6.203  28.435  55.505  1.00  0.00     0.293 HD
ENDBRANCH   2   9
BRANCH   5  11
ATOM     11  C   UNL     1       0.130  28.256  57.263  1.00  0.00     0.062 C 
BRANCH  11  12
ATOM     12  C   UNL     1      -0.669  29.457  56.842  1.00  0.00    -0.030 C 
ATOM     13  C   UNL     1      -1.107  30.355  57.730  1.00  0.00     0.004 C 
ENDBRANCH  11  12
ENDBRANCH   5  11
TORSDOF 4
ENDMDL
MODEL 2
REMARK VINA RESULT:    -5.002      1.206      2.701
REMARK INTER + INTRA:          -6.261
REMARK INTER:                  -6.038
REMARK INTRA:                  -0.222
REMARK UNBOUND:                -0.236
REMARK SMILES C=CCc1ccc(O)c(OC)c1
REMARK SMILES IDX 9 1 7 2 6 3 5 4 4 5 12 6 10 7 11 8 8 9 3 11 2 12 1 13
REMARK H PARENT 8 10
REMARK Flexibility Score: inf
ROOT
ATOM      1  C   UNL     1       3.466  28.244  54.913  1.00  0.00     0.160 A 
ATOM      2  C   UNL     1       4.001  27.904  56.170  1.00  0.00     0.157 A 
ATOM      3  C   UNL     1       3.212  28.012  57.319  1.00  0.00     0.050 A 
ATOM      4  C   UNL     1       1.893  28.460  57.233  1.00  0.00     0.008 A 
ATOM      5  C   UNL     1       1.348  28.813  55.991  1.00  0.00    -0.040 A 
ATOM      6  C   UNL     1       2.133  28.696  54.833  1.00  0.00     0.054 A 
ENDROOT
BRANCH   1   7
ATOM      7  O   UNL     1       4.278  28.121  53.774  1.00  0.00    -0.493 OA
ATOM      8  C   UNL     1       4.236  28.996  52.653  1.00  0.00     0.278 C 
ENDBRANCH   1   7
BRANCH   2   9
ATOM      9  O   UNL     1       5.315  27.453  56.295  1.00  0.00    -0.504 OA
ATOM     10  H   UNL     1       6.040  27.712  55.637  1.00  0.00     0.293 HD
ENDBRANCH   2   9
BRANCH   5  11
ATOM     11  C   UNL     1      -0.084  29.269  55.890  1.00  0.00     0.062 C 
BRANCH  11  12
ATOM     12  C   UNL     1      -0.737  29.277  57.244  1.00  0.00    -0.030 C 
ATOM     13  C   UNL     1      -1.177  30.407  57.805  1.00  0.00     0.004 C 
ENDBRANCH  11  12
ENDBRANCH   5  11
TORSDOF 4
ENDMDL
MODEL 3
REMARK VINA RESULT:    -4.753      2.582      4.674
REMARK INTER + INTRA:          -5.961
REMARK INTER:                  -5.732
REMARK INTRA:                  -0.228
REMARK UNBOUND:                -0.236
REMARK SMILES C=CCc1ccc(O)c(OC)c1
REMARK SMILES IDX 9 1 7 2 6 3 5 4 4 5 12 6 10 7 11 8 8 9 3 11 2 12 1 13
REMARK H PARENT 8 10
REMARK Flexibility Score: inf
ROOT
ATOM      1  C   UNL     1       0.386  29.130  56.468  1.00  0.00     0.160 A 
ATOM      2  C   UNL     1       0.827  29.375  55.154  1.00  0.00     0.157 A 
ATOM      3  C   UNL     1       2.123  29.016  54.771  1.00  0.00     0.050 A 
ATOM      4  C   UNL     1       2.990  28.416  55.686  1.00  0.00     0.008 A 
ATOM      5  C   UNL     1       2.571  28.174  57.001  1.00  0.00    -0.040 A 
ATOM      6  C   UNL     1       1.267  28.524  57.386  1.00  0.00     0.054 A 
ENDROOT
BRANCH   1   7
ATOM      7  O   UNL     1      -0.923  29.495  56.823  1.00  0.00    -0.493 OA
ATOM      8  C   UNL     1      -1.252  30.395  57.876  1.00  0.00     0.278 C 
ENDBRANCH   1   7
BRANCH   2   9
ATOM      9  O   UNL     1      -0.012  29.972  54.212  1.00  0.00    -0.504 OA
ATOM     10  H   UNL     1       0.020  29.729  53.229  1.00  0.00     0.293 HD
ENDBRANCH   2   9
BRANCH   5  11
ATOM     11  C   UNL     1       3.494  27.501  57.982  1.00  0.00     0.062 C 
BRANCH  11  12
ATOM     12  C   UNL     1       4.894  27.437  57.439  1.00  0.00    -0.030 C 
ATOM     13  C   UNL     1       5.960  27.621  58.223  1.00  0.00     0.004 C 
ENDBRANCH  11  12
ENDBRANCH   5  11
TORSDOF 4
ENDMDL
MODEL 4
REMARK VINA RESULT:    -4.714      1.946      4.334
REMARK INTER + INTRA:          -5.914
REMARK INTER:                  -5.732
REMARK INTRA:                  -0.183
REMARK UNBOUND:                -0.236
REMARK SMILES C=CCc1ccc(O)c(OC)c1
REMARK SMILES IDX 9 1 7 2 6 3 5 4 4 5 12 6 10 7 11 8 8 9 3 11 2 12 1 13
REMARK H PARENT 8 10
REMARK Flexibility Score: inf
ROOT
ATOM      1  C   UNL     1       2.535  28.942  54.965  1.00  0.00     0.160 A 
ATOM      2  C   UNL     1       1.227  29.394  55.218  1.00  0.00     0.157 A 
ATOM      3  C   UNL     1       0.637  29.170  56.466  1.00  0.00     0.050 A 
ATOM      4  C   UNL     1       1.337  28.497  57.469  1.00  0.00     0.008 A 
ATOM      5  C   UNL     1       2.637  28.031  57.231  1.00  0.00    -0.040 A 
ATOM      6  C   UNL     1       3.236  28.262  55.982  1.00  0.00     0.054 A 
ENDROOT
BRANCH   1   7
ATOM      7  O   UNL     1       3.104  29.184  53.705  1.00  0.00    -0.493 OA
ATOM      8  C   UNL     1       4.271  28.539  53.208  1.00  0.00     0.278 C 
ENDBRANCH   1   7
BRANCH   2   9
ATOM      9  O   UNL     1       0.496  30.070  54.240  1.00  0.00    -0.504 OA
ATOM     10  H   UNL     1       0.928  30.728  53.602  1.00  0.00     0.293 HD
ENDBRANCH   2   9
BRANCH   5  11
ATOM     11  C   UNL     1       3.406  27.330  58.320  1.00  0.00     0.062 C 
BRANCH  11  12
ATOM     12  C   UNL     1       4.886  27.429  58.077  1.00  0.00    -0.030 C 
ATOM     13  C   UNL     1       5.759  26.671  58.746  1.00  0.00     0.004 C 
ENDBRANCH  11  12
ENDBRANCH   5  11
TORSDOF 4
ENDMDL
MODEL 5
REMARK VINA RESULT:    -4.497      2.834      5.116
REMARK INTER + INTRA:          -5.653
REMARK INTER:                  -5.400
REMARK INTRA:                  -0.253
REMARK UNBOUND:                -0.236
REMARK SMILES C=CCc1ccc(O)c(OC)c1
REMARK SMILES IDX 9 1 7 2 6 3 5 4 4 5 12 6 10 7 11 8 8 9 3 11 2 12 1 13
REMARK H PARENT 8 10
REMARK Flexibility Score: inf
ROOT
ATOM      1  C   UNL     1       0.852  29.575  55.325  1.00  0.00     0.160 A 
ATOM      2  C   UNL     1       0.310  29.382  56.609  1.00  0.00     0.157 A 
ATOM      3  C   UNL     1       1.035  28.681  57.578  1.00  0.00     0.050 A 
ATOM      4  C   UNL     1       2.298  28.166  57.281  1.00  0.00     0.008 A 
ATOM      5  C   UNL     1       2.849  28.340  56.004  1.00  0.00    -0.040 A 
ATOM      6  C   UNL     1       2.128  29.052  55.032  1.00  0.00     0.054 A 
ENDROOT
BRANCH   1   7
ATOM      7  O   UNL     1       0.105  30.287  54.373  1.00  0.00    -0.493 OA
ATOM      8  C   UNL     1       0.560  31.452  53.695  1.00  0.00     0.278 C 
ENDBRANCH   1   7
BRANCH   2   9
ATOM      9  O   UNL     1      -0.949  29.882  56.943  1.00  0.00    -0.504 OA
ATOM     10  H   UNL     1      -1.431  30.559  56.364  1.00  0.00     0.293 HD
ENDBRANCH   2   9
BRANCH   5  11
ATOM     11  C   UNL     1       4.223  27.811  55.690  1.00  0.00     0.062 C 
BRANCH  11  12
ATOM     12  C   UNL     1       5.136  27.958  56.875  1.00  0.00    -0.030 C 
ATOM     13  C   UNL     1       5.814  29.086  57.103  1.00  0.00     0.004 C 
ENDBRANCH  11  12
ENDBRANCH   5  11
TORSDOF 4
ENDMDL
MODEL 6
REMARK VINA RESULT:    -4.367      8.050     10.052
REMARK INTER + INTRA:          -5.497
REMARK INTER:                  -5.209
REMARK INTRA:                  -0.288
REMARK UNBOUND:                -0.236
REMARK SMILES C=CCc1ccc(O)c(OC)c1
REMARK SMILES IDX 9 1 7 2 6 3 5 4 4 5 12 6 10 7 11 8 8 9 3 11 2 12 1 13
REMARK H PARENT 8 10
REMARK Flexibility Score: inf
ROOT
ATOM      1  C   UNL     1      -5.642  30.872  59.158  1.00  0.00     0.160 A 
ATOM      2  C   UNL     1      -5.749  29.692  58.398  1.00  0.00     0.157 A 
ATOM      3  C   UNL     1      -6.746  29.574  57.424  1.00  0.00     0.050 A 
ATOM      4  C   UNL     1      -7.643  30.619  57.199  1.00  0.00     0.008 A 
ATOM      5  C   UNL     1      -7.557  31.797  57.954  1.00  0.00    -0.040 A 
ATOM      6  C   UNL     1      -6.552  31.924  58.925  1.00  0.00     0.054 A 
ENDROOT
BRANCH   1   7
ATOM      7  O   UNL     1      -4.629  30.966  60.125  1.00  0.00    -0.493 OA
ATOM      8  C   UNL     1      -3.400  31.660  59.942  1.00  0.00     0.278 C 
ENDBRANCH   1   7
BRANCH   2   9
ATOM      9  O   UNL     1      -4.870  28.626  58.594  1.00  0.00    -0.504 OA
ATOM     10  H   UNL     1      -4.632  28.286  59.518  1.00  0.00     0.293 HD
ENDBRANCH   2   9
BRANCH   5  11
ATOM     11  C   UNL     1      -8.505  32.938  57.694  1.00  0.00     0.062 C 
BRANCH  11  12
ATOM     12  C   UNL     1      -9.909  32.563  58.081  1.00  0.00    -0.030 C 
ATOM     13  C   UNL     1     -10.245  32.318  59.351  1.00  0.00     0.004 C 
ENDBRANCH  11  12
ENDBRANCH   5  11
TORSDOF 4
ENDMDL
MODEL 7
REMARK VINA RESULT:    -4.218      8.712     10.450
REMARK INTER + INTRA:          -5.316
REMARK INTER:                  -5.042
REMARK INTRA:                  -0.274
REMARK UNBOUND:                -0.236
REMARK SMILES C=CCc1ccc(O)c(OC)c1
REMARK SMILES IDX 9 1 7 2 6 3 5 4 4 5 12 6 10 7 11 8 8 9 3 11 2 12 1 13
REMARK H PARENT 8 10
REMARK Flexibility Score: inf
ROOT
ATOM      1  C   UNL     1      -6.642  29.547  57.464  1.00  0.00     0.160 A 
ATOM      2  C   UNL     1      -5.647  29.642  58.455  1.00  0.00     0.157 A 
ATOM      3  C   UNL     1      -5.517  30.814  59.208  1.00  0.00     0.050 A 
ATOM      4  C   UNL     1      -6.368  31.897  58.983  1.00  0.00     0.008 A 
ATOM      5  C   UNL     1      -7.358  31.823  57.994  1.00  0.00    -0.040 A 
ATOM      6  C   UNL     1      -7.498  30.645  57.243  1.00  0.00     0.054 A 
ENDROOT
BRANCH   1   7
ATOM      7  O   UNL     1      -6.754  28.357  56.727  1.00  0.00    -0.493 OA
ATOM      8  C   UNL     1      -7.675  27.312  57.016  1.00  0.00     0.278 C 
ENDBRANCH   1   7
BRANCH   2   9
ATOM      9  O   UNL     1      -4.778  28.580  58.708  1.00  0.00    -0.504 OA
ATOM     10  H   UNL     1      -5.110  27.671  59.007  1.00  0.00     0.293 HD
ENDBRANCH   2   9
BRANCH   5  11
ATOM     11  C   UNL     1      -8.296  32.980  57.768  1.00  0.00     0.062 C 
BRANCH  11  12
ATOM     12  C   UNL     1      -9.707  32.598  58.118  1.00  0.00    -0.030 C 
ATOM     13  C   UNL     1     -10.066  32.312  59.374  1.00  0.00     0.004 C 
ENDBRANCH  11  12
ENDBRANCH   5  11
TORSDOF 4
ENDMDL
MODEL 8
REMARK VINA RESULT:    -4.109      2.287      4.901
REMARK INTER + INTRA:          -5.186
REMARK INTER:                  -4.964
REMARK INTRA:                  -0.221
REMARK UNBOUND:                -0.236
REMARK SMILES C=CCc1ccc(O)c(OC)c1
REMARK SMILES IDX 9 1 7 2 6 3 5 4 4 5 12 6 10 7 11 8 8 9 3 11 2 12 1 13
REMARK H PARENT 8 10
REMARK Flexibility Score: inf
ROOT
ATOM      1  C   UNL     1       1.950  28.401  56.100  1.00  0.00     0.160 A 
ATOM      2  C   UNL     1       3.013  28.054  56.954  1.00  0.00     0.157 A 
ATOM      3  C   UNL     1       4.334  28.173  56.513  1.00  0.00     0.050 A 
ATOM      4  C   UNL     1       4.611  28.634  55.225  1.00  0.00     0.008 A 
ATOM      5  C   UNL     1       3.564  28.975  54.358  1.00  0.00    -0.040 A 
ATOM      6  C   UNL     1       2.236  28.866  54.801  1.00  0.00     0.054 A 
ENDROOT
BRANCH   1   7
ATOM      7  O   UNL     1       0.633  28.276  56.571  1.00  0.00    -0.493 OA
ATOM      8  C   UNL     1      -0.123  29.335  57.147  1.00  0.00     0.278 C 
ENDBRANCH   1   7
BRANCH   2   9
ATOM      9  O   UNL     1       2.775  27.589  58.249  1.00  0.00    -0.504 OA
ATOM     10  H   UNL     1       1.908  27.774  58.738  1.00  0.00     0.293 HD
ENDBRANCH   2   9
BRANCH   5  11
ATOM     11  C   UNL     1       3.860  29.500  52.977  1.00  0.00     0.062 C 
BRANCH  11  12
ATOM     12  C   UNL     1       4.565  28.461  52.151  1.00  0.00    -0.030 C 
ATOM     13  C   UNL     1       5.646  28.758  51.424  1.00  0.00     0.004 C 
ENDBRANCH  11  12
ENDBRANCH   5  11
TORSDOF 4
ENDMDL
MODEL 9
REMARK VINA RESULT:    -4.061      8.606     10.215
REMARK INTER + INTRA:          -5.128
REMARK INTER:                  -4.891
REMARK INTRA:                  -0.237
REMARK UNBOUND:                -0.236
REMARK SMILES C=CCc1ccc(O)c(OC)c1
REMARK SMILES IDX 9 1 7 2 6 3 5 4 4 5 12 6 10 7 11 8 8 9 3 11 2 12 1 13
REMARK H PARENT 8 10
REMARK Flexibility Score: inf
ROOT
ATOM      1  C   UNL     1      -6.769  31.183  57.904  1.00  0.00     0.160 A 
ATOM      2  C   UNL     1      -5.643  30.693  58.592  1.00  0.00     0.157 A 
ATOM      3  C   UNL     1      -5.325  29.332  58.535  1.00  0.00     0.050 A 
ATOM      4  C   UNL     1      -6.119  28.450  57.800  1.00  0.00     0.008 A 
ATOM      5  C   UNL     1      -7.249  28.920  57.117  1.00  0.00    -0.040 A 
ATOM      6  C   UNL     1      -7.566  30.287  57.164  1.00  0.00     0.054 A 
ENDROOT
BRANCH   1   7
ATOM      7  O   UNL     1      -7.062  32.555  57.974  1.00  0.00    -0.493 OA
ATOM      8  C   UNL     1      -7.666  33.306  56.928  1.00  0.00     0.278 C 
ENDBRANCH   1   7
BRANCH   2   9
ATOM      9  O   UNL     1      -4.826  31.544  59.337  1.00  0.00    -0.504 OA
ATOM     10  H   UNL     1      -3.831  31.623  59.166  1.00  0.00     0.293 HD
ENDBRANCH   2   9
BRANCH   5  11
ATOM     11  C   UNL     1      -8.092  27.976  56.300  1.00  0.00     0.062 C 
BRANCH  11  12
ATOM     12  C   UNL     1      -7.243  26.894  55.694  1.00  0.00    -0.030 C 
ATOM     13  C   UNL     1      -6.658  27.046  54.502  1.00  0.00     0.004 C 
ENDBRANCH  11  12
ENDBRANCH   5  11
TORSDOF 4
ENDMDL
