MODEL 1
REMARK VINA RESULT:    -2.745      0.000      0.000
REMARK INTER + INTRA:          -3.257
REMARK INTER:                  -3.227
REMARK INTRA:                  -0.030
REMARK UNBOUND:                -0.030
REMARK SMILES CCCCC(=O)[O-]
REMARK SMILES IDX 4 1 5 2 6 3 7 4 3 5 2 6 1 7
REMARK H PARENT
REMARK Flexibility Score: inf
ROOT
ATOM      1  C   UNL     1      57.833  27.294  50.639  1.00  0.00     0.053 C 
ENDROOT
BRANCH   1   2
ATOM      2  C   UNL     1      58.867  27.870  49.721  1.00  0.00     0.041 C 
ATOM      3  O   UNL     1      58.741  29.044  49.284  1.00  0.00    -0.550 OA
ATOM      4  O   UNL     1      59.987  27.123  49.377  1.00  0.00    -0.550 OA
ENDBRANCH   1   2
BRANCH   1   5
ATOM      5  C   UNL     1      56.584  28.180  50.720  1.00  0.00     0.006 C 
BRANCH   5   6
ATOM      6  C   UNL     1      55.288  27.377  50.537  1.00  0.00    -0.003 C 
ATOM      7  C   UNL     1      54.075  28.299  50.458  1.00  0.00     0.004 C 
ENDBRANCH   5   6
ENDBRANCH   1   5
TORSDOF 3
ENDMDL
MODEL 2
REMARK VINA RESULT:    -2.706      1.090      1.441
REMARK INTER + INTRA:          -3.211
REMARK INTER:                  -3.195
REMARK INTRA:                  -0.016
REMARK UNBOUND:                -0.030
REMARK SMILES CCCCC(=O)[O-]
REMARK SMILES IDX 4 1 5 2 6 3 7 4 3 5 2 6 1 7
REMARK H PARENT
REMARK Flexibility Score: inf
ROOT
ATOM      1  C   UNL     1      57.107  27.582  50.466  1.00  0.00     0.053 C 
ENDROOT
BRANCH   1   2
ATOM      2  C   UNL     1      58.233  28.556  50.306  1.00  0.00     0.041 C 
ATOM      3  O   UNL     1      58.793  28.698  49.186  1.00  0.00    -0.550 OA
ATOM      4  O   UNL     1      58.642  29.332  51.383  1.00  0.00    -0.550 OA
ENDBRANCH   1   2
BRANCH   1   5
ATOM      5  C   UNL     1      55.787  28.287  50.803  1.00  0.00     0.006 C 
BRANCH   5   6
ATOM      6  C   UNL     1      54.563  27.474  50.358  1.00  0.00    -0.003 C 
ATOM      7  C   UNL     1      53.321  28.356  50.261  1.00  0.00     0.004 C 
ENDBRANCH   5   6
ENDBRANCH   1   5
TORSDOF 3
ENDMDL
MODEL 3
REMARK VINA RESULT:    -2.658      2.871      4.334
REMARK INTER + INTRA:          -3.154
REMARK INTER:                  -3.126
REMARK INTRA:                  -0.027
REMARK UNBOUND:                -0.030
REMARK SMILES CCCCC(=O)[O-]
REMARK SMILES IDX 4 1 5 2 6 3 7 4 3 5 2 6 1 7
REMARK H PARENT
REMARK Flexibility Score: inf
ROOT
ATOM      1  C   UNL     1      55.745  28.238  50.780  1.00  0.00     0.053 C 
ENDROOT
BRANCH   1   2
ATOM      2  C   UNL     1      54.667  27.334  50.265  1.00  0.00     0.041 C 
ATOM      3  O   UNL     1      54.897  26.107  50.097  1.00  0.00    -0.550 OA
ATOM      4  O   UNL     1      53.400  27.839  50.004  1.00  0.00    -0.550 OA
ENDBRANCH   1   2
BRANCH   1   5
ATOM      5  C   UNL     1      57.133  27.596  50.663  1.00  0.00     0.006 C 
BRANCH   5   6
ATOM      6  C   UNL     1      58.166  28.552  50.049  1.00  0.00    -0.003 C 
ATOM      7  C   UNL     1      59.353  27.785  49.474  1.00  0.00     0.004 C 
ENDBRANCH   5   6
ENDBRANCH   1   5
TORSDOF 3
ENDMDL
MODEL 4
REMARK VINA RESULT:    -2.643      1.632      1.971
REMARK INTER + INTRA:          -3.137
REMARK INTER:                  -3.036
REMARK INTRA:                  -0.101
REMARK UNBOUND:                -0.030
REMARK SMILES CCCCC(=O)[O-]
REMARK SMILES IDX 4 1 5 2 6 3 7 4 3 5 2 6 1 7
REMARK H PARENT
REMARK Flexibility Score: inf
ROOT
ATOM      1  C   UNL     1      58.833  28.242  49.552  1.00  0.00     0.053 C 
ENDROOT
BRANCH   1   2
ATOM      2  C   UNL     1      59.763  27.068  49.582  1.00  0.00     0.041 C 
ATOM      3  O   UNL     1      59.302  25.896  49.578  1.00  0.00    -0.550 OA
ATOM      4  O   UNL     1      61.138  27.267  49.578  1.00  0.00    -0.550 OA
ENDBRANCH   1   2
BRANCH   1   5
ATOM      5  C   UNL     1      58.102  28.424  50.888  1.00  0.00     0.006 C 
BRANCH   5   6
ATOM      6  C   UNL     1      56.575  28.381  50.726  1.00  0.00    -0.003 C 
ATOM      7  C   UNL     1      56.077  26.947  50.574  1.00  0.00     0.004 C 
ENDBRANCH   5   6
ENDBRANCH   1   5
TORSDOF 3
ENDMDL
MODEL 5
REMARK VINA RESULT:    -2.591     12.297     12.707
REMARK INTER + INTRA:          -3.075
REMARK INTER:                  -3.058
REMARK INTRA:                  -0.018
REMARK UNBOUND:                -0.030
REMARK SMILES CCCCC(=O)[O-]
REMARK SMILES IDX 4 1 5 2 6 3 7 4 3 5 2 6 1 7
REMARK H PARENT
REMARK Flexibility Score: inf
ROOT
ATOM      1  C   UNL     1      61.474  30.547  61.659  1.00  0.00     0.053 C 
ENDROOT
BRANCH   1   2
ATOM      2  C   UNL     1      62.499  29.455  61.680  1.00  0.00     0.041 C 
ATOM      3  O   UNL     1      62.138  28.249  61.723  1.00  0.00    -0.550 OA
ATOM      4  O   UNL     1      63.851  29.767  61.618  1.00  0.00    -0.550 OA
ENDBRANCH   1   2
BRANCH   1   5
ATOM      5  C   UNL     1      61.961  31.771  60.872  1.00  0.00     0.006 C 
BRANCH   5   6
ATOM      6  C   UNL     1      60.808  32.702  60.471  1.00  0.00    -0.003 C 
ATOM      7  C   UNL     1      61.267  34.156  60.415  1.00  0.00     0.004 C 
ENDBRANCH   5   6
ENDBRANCH   1   5
TORSDOF 3
ENDMDL
MODEL 6
REMARK VINA RESULT:    -2.556      2.576      3.449
REMARK INTER + INTRA:          -3.034
REMARK INTER:                  -2.988
REMARK INTRA:                  -0.046
REMARK UNBOUND:                -0.030
REMARK SMILES CCCCC(=O)[O-]
REMARK SMILES IDX 4 1 5 2 6 3 7 4 3 5 2 6 1 7
REMARK H PARENT
REMARK Flexibility Score: inf
ROOT
ATOM      1  C   UNL     1      59.023  26.167  49.971  1.00  0.00     0.053 C 
ENDROOT
BRANCH   1   2
ATOM      2  C   UNL     1      60.058  25.128  50.277  1.00  0.00     0.041 C 
ATOM      3  O   UNL     1      61.276  25.443  50.322  1.00  0.00    -0.550 OA
ATOM      4  O   UNL     1      59.674  23.820  50.546  1.00  0.00    -0.550 OA
ENDBRANCH   1   2
BRANCH   1   5
ATOM      5  C   UNL     1      59.651  27.454  49.422  1.00  0.00     0.006 C 
BRANCH   5   6
ATOM      6  C   UNL     1      58.757  28.681  49.649  1.00  0.00    -0.003 C 
ATOM      7  C   UNL     1      57.524  28.320  50.472  1.00  0.00     0.004 C 
ENDBRANCH   5   6
ENDBRANCH   1   5
TORSDOF 3
ENDMDL
MODEL 7
REMARK VINA RESULT:    -2.548     10.456     11.184
REMARK INTER + INTRA:          -3.025
REMARK INTER:                  -2.988
REMARK INTRA:                  -0.037
REMARK UNBOUND:                -0.030
REMARK SMILES CCCCC(=O)[O-]
REMARK SMILES IDX 4 1 5 2 6 3 7 4 3 5 2 6 1 7
REMARK H PARENT
REMARK Flexibility Score: inf
ROOT
ATOM      1  C   UNL     1      57.749  17.050  49.983  1.00  0.00     0.053 C 
ENDROOT
BRANCH   1   2
ATOM      2  C   UNL     1      58.541  16.257  48.988  1.00  0.00     0.041 C 
ATOM      3  O   UNL     1      59.708  15.876  49.268  1.00  0.00    -0.550 OA
ATOM      4  O   UNL     1      57.977  15.910  47.767  1.00  0.00    -0.550 OA
ENDBRANCH   1   2
BRANCH   1   5
ATOM      5  C   UNL     1      58.404  17.041  51.370  1.00  0.00     0.006 C 
BRANCH   5   6
ATOM      6  C   UNL     1      57.726  18.020  52.340  1.00  0.00    -0.003 C 
ATOM      7  C   UNL     1      56.377  18.485  51.800  1.00  0.00     0.004 C 
ENDBRANCH   5   6
ENDBRANCH   1   5
TORSDOF 3
ENDMDL
MODEL 8
REMARK VINA RESULT:    -2.513     13.239     13.869
REMARK INTER + INTRA:          -2.983
REMARK INTER:                  -2.943
REMARK INTRA:                  -0.040
REMARK UNBOUND:                -0.030
REMARK SMILES CCCCC(=O)[O-]
REMARK SMILES IDX 4 1 5 2 6 3 7 4 3 5 2 6 1 7
REMARK H PARENT
REMARK Flexibility Score: inf
ROOT
ATOM      1  C   UNL     1      62.389  33.796  60.490  1.00  0.00     0.053 C 
ENDROOT
BRANCH   1   2
ATOM      2  C   UNL     1      61.074  33.082  60.564  1.00  0.00     0.041 C 
ATOM      3  O   UNL     1      61.040  31.839  60.766  1.00  0.00    -0.550 OA
ATOM      4  O   UNL     1      59.887  33.793  60.444  1.00  0.00    -0.550 OA
ENDBRANCH   1   2
BRANCH   1   5
ATOM      5  C   UNL     1      62.277  35.248  60.972  1.00  0.00     0.006 C 
BRANCH   5   6
ATOM      6  C   UNL     1      63.620  35.802  61.469  1.00  0.00    -0.003 C 
ATOM      7  C   UNL     1      64.651  34.689  61.627  1.00  0.00     0.004 C 
ENDBRANCH   5   6
ENDBRANCH   1   5
TORSDOF 3
ENDMDL
MODEL 9
REMARK VINA RESULT:    -2.497     12.632     13.132
REMARK INTER + INTRA:          -2.965
REMARK INTER:                  -2.902
REMARK INTRA:                  -0.063
REMARK UNBOUND:                -0.030
REMARK SMILES CCCCC(=O)[O-]
REMARK SMILES IDX 4 1 5 2 6 3 7 4 3 5 2 6 1 7
REMARK H PARENT
REMARK Flexibility Score: inf
ROOT
ATOM      1  C   UNL     1      62.594  31.582  60.493  1.00  0.00     0.053 C 
ENDROOT
BRANCH   1   2
ATOM      2  C   UNL     1      62.237  30.506  61.472  1.00  0.00     0.041 C 
ATOM      3  O   UNL     1      61.142  30.553  62.093  1.00  0.00    -0.550 OA
ATOM      4  O   UNL     1      63.097  29.434  61.674  1.00  0.00    -0.550 OA
ENDBRANCH   1   2
BRANCH   1   5
ATOM      5  C   UNL     1      61.593  32.743  60.531  1.00  0.00     0.006 C 
BRANCH   5   6
ATOM      6  C   UNL     1      62.289  34.110  60.599  1.00  0.00    -0.003 C 
ATOM      7  C   UNL     1      63.760  33.961  60.977  1.00  0.00     0.004 C 
ENDBRANCH   5   6
ENDBRANCH   1   5
TORSDOF 3
ENDMDL
