MODEL 1
REMARK VINA RESULT:    -4.587      0.000      0.000
REMARK INTER + INTRA:          -7.544
REMARK INTER:                  -7.001
REMARK INTRA:                  -0.543
REMARK UNBOUND:                -0.543
REMARK SMILES O=C([O-])CCCCCCCCC(=O)[O-]
REMARK SMILES IDX 7 1 6 2 5 3 4 4 2 5 1 6 3 7 8 8 9 9 10 10 11 11 12 12 13 13
REMARK SMILES IDX 14 14
REMARK H PARENT
REMARK Flexibility Score: inf
ROOT
ATOM      1  C   UNL     1      52.544  -4.619  10.473  1.00  0.00     0.000 C 
ENDROOT
BRANCH   1   2
ATOM      2  C   UNL     1      52.096  -4.541   9.009  1.00  0.00     0.000 C 
BRANCH   2   3
ATOM      3  C   UNL     1      53.218  -3.987   8.119  1.00  0.00     0.006 C 
BRANCH   3   4
ATOM      4  C   UNL     1      54.606  -4.192   8.740  1.00  0.00     0.053 C 
BRANCH   4   5
ATOM      5  C   UNL     1      55.653  -4.429   7.696  1.00  0.00     0.041 C 
ATOM      6  O   UNL     1      55.391  -4.237   6.479  1.00  0.00    -0.550 OA
ATOM      7  O   UNL     1      56.910  -4.893   8.065  1.00  0.00    -0.550 OA
ENDBRANCH   4   5
ENDBRANCH   3   4
ENDBRANCH   2   3
ENDBRANCH   1   2
BRANCH   1   8
ATOM      8  C   UNL     1      51.881  -3.519  11.311  1.00  0.00     0.000 C 
BRANCH   8   9
ATOM      9  C   UNL     1      52.458  -3.486  12.731  1.00  0.00     0.000 C 
BRANCH   9  10
ATOM     10  C   UNL     1      53.912  -2.989  12.723  1.00  0.00     0.006 C 
BRANCH  10  11
ATOM     11  C   UNL     1      54.857  -3.948  13.459  1.00  0.00     0.053 C 
BRANCH  11  12
ATOM     12  C   UNL     1      56.127  -3.269  13.871  1.00  0.00     0.041 C 
ATOM     13  O   UNL     1      57.241  -3.756  13.545  1.00  0.00    -0.550 OA
ATOM     14  O   UNL     1      56.081  -2.116  14.644  1.00  0.00    -0.550 OA
ENDBRANCH  11  12
ENDBRANCH  10  11
ENDBRANCH   9  10
ENDBRANCH   8   9
ENDBRANCH   1   8
TORSDOF 9
ENDMDL
MODEL 2
REMARK VINA RESULT:    -4.368      1.850      6.176
REMARK INTER + INTRA:          -7.209
REMARK INTER:                  -6.746
REMARK INTRA:                  -0.463
REMARK UNBOUND:                -0.543
REMARK SMILES O=C([O-])CCCCCCCCC(=O)[O-]
REMARK SMILES IDX 7 1 6 2 5 3 4 4 2 5 1 6 3 7 8 8 9 9 10 10 11 11 12 12 13 13
REMARK SMILES IDX 14 14
REMARK H PARENT
REMARK Flexibility Score: inf
ROOT
ATOM      1  C   UNL     1      53.067  -3.086  12.907  1.00  0.00     0.000 C 
ENDROOT
BRANCH   1   2
ATOM      2  C   UNL     1      54.554  -3.242  12.568  1.00  0.00     0.000 C 
BRANCH   2   3
ATOM      3  C   UNL     1      55.329  -3.838  13.752  1.00  0.00     0.006 C 
BRANCH   3   4
ATOM      4  C   UNL     1      56.767  -3.310  13.829  1.00  0.00     0.053 C 
BRANCH   4   5
ATOM      5  C   UNL     1      56.876  -2.122  14.734  1.00  0.00     0.041 C 
ATOM      6  O   UNL     1      55.876  -1.732  15.393  1.00  0.00    -0.550 OA
ATOM      7  O   UNL     1      58.074  -1.424  14.824  1.00  0.00    -0.550 OA
ENDBRANCH   4   5
ENDBRANCH   3   4
ENDBRANCH   2   3
ENDBRANCH   1   2
BRANCH   1   8
ATOM      8  C   UNL     1      52.234  -4.196  12.254  1.00  0.00     0.000 C 
BRANCH   8   9
ATOM      9  C   UNL     1      51.963  -3.884  10.777  1.00  0.00     0.000 C 
BRANCH   9  10
ATOM     10  C   UNL     1      52.602  -4.941   9.865  1.00  0.00     0.006 C 
BRANCH  10  11
ATOM     11  C   UNL     1      53.542  -4.318   8.824  1.00  0.00     0.053 C 
BRANCH  11  12
ATOM     12  C   UNL     1      52.853  -4.105   7.511  1.00  0.00     0.041 C 
ATOM     13  O   UNL     1      52.148  -5.019   7.009  1.00  0.00    -0.550 OA
ATOM     14  O   UNL     1      53.017  -2.909   6.825  1.00  0.00    -0.550 OA
ENDBRANCH  11  12
ENDBRANCH  10  11
ENDBRANCH   9  10
ENDBRANCH   8   9
ENDBRANCH   1   8
TORSDOF 9
ENDMDL
MODEL 3
REMARK VINA RESULT:    -4.346      1.227      5.958
REMARK INTER + INTRA:          -7.176
REMARK INTER:                  -6.781
REMARK INTRA:                  -0.395
REMARK UNBOUND:                -0.543
REMARK SMILES O=C([O-])CCCCCCCCC(=O)[O-]
REMARK SMILES IDX 7 1 6 2 5 3 4 4 2 5 1 6 3 7 8 8 9 9 10 10 11 11 12 12 13 13
REMARK SMILES IDX 14 14
REMARK H PARENT
REMARK Flexibility Score: inf
ROOT
ATOM      1  C   UNL     1      52.474  -2.797  11.600  1.00  0.00     0.000 C 
ENDROOT
BRANCH   1   2
ATOM      2  C   UNL     1      53.093  -2.529  12.977  1.00  0.00     0.000 C 
BRANCH   2   3
ATOM      3  C   UNL     1      54.556  -2.992  13.023  1.00  0.00     0.006 C 
BRANCH   3   4
ATOM      4  C   UNL     1      55.304  -2.433  14.239  1.00  0.00     0.053 C 
BRANCH   4   5
ATOM      5  C   UNL     1      56.772  -2.720  14.169  1.00  0.00     0.041 C 
ATOM      6  O   UNL     1      57.596  -1.953  14.734  1.00  0.00    -0.550 OA
ATOM      7  O   UNL     1      57.232  -3.818  13.452  1.00  0.00    -0.550 OA
ENDBRANCH   4   5
ENDBRANCH   3   4
ENDBRANCH   2   3
ENDBRANCH   1   2
BRANCH   1   8
ATOM      8  C   UNL     1      52.080  -4.272  11.451  1.00  0.00     0.000 C 
BRANCH   8   9
ATOM      9  C   UNL     1      52.655  -4.868  10.160  1.00  0.00     0.000 C 
BRANCH   9  10
ATOM     10  C   UNL     1      52.066  -4.173   8.924  1.00  0.00     0.006 C 
BRANCH  10  11
ATOM     11  C   UNL     1      53.138  -3.437   8.107  1.00  0.00     0.053 C 
BRANCH  11  12
ATOM     12  C   UNL     1      53.664  -4.283   6.989  1.00  0.00     0.041 C 
ATOM     13  O   UNL     1      52.884  -5.020   6.331  1.00  0.00    -0.550 OA
ATOM     14  O   UNL     1      55.021  -4.282   6.695  1.00  0.00    -0.550 OA
ENDBRANCH  11  12
ENDBRANCH  10  11
ENDBRANCH   9  10
ENDBRANCH   8   9
ENDBRANCH   1   8
TORSDOF 9
ENDMDL
MODEL 4
REMARK VINA RESULT:    -4.332      1.454      1.810
REMARK INTER + INTRA:          -7.155
REMARK INTER:                  -6.349
REMARK INTRA:                  -0.805
REMARK UNBOUND:                -0.543
REMARK SMILES O=C([O-])CCCCCCCCC(=O)[O-]
REMARK SMILES IDX 7 1 6 2 5 3 4 4 2 5 1 6 3 7 8 8 9 9 10 10 11 11 12 12 13 13
REMARK SMILES IDX 14 14
REMARK H PARENT
REMARK Flexibility Score: inf
ROOT
ATOM      1  C   UNL     1      51.658  -1.483  10.292  1.00  0.00     0.000 C 
ENDROOT
BRANCH   1   2
ATOM      2  C   UNL     1      51.931  -2.523   9.199  1.00  0.00     0.000 C 
BRANCH   2   3
ATOM      3  C   UNL     1      53.434  -2.814   9.080  1.00  0.00     0.006 C 
BRANCH   3   4
ATOM      4  C   UNL     1      53.714  -4.276   8.711  1.00  0.00     0.053 C 
BRANCH   4   5
ATOM      5  C   UNL     1      53.817  -4.466   7.230  1.00  0.00     0.041 C 
ATOM      6  O   UNL     1      52.836  -4.911   6.577  1.00  0.00    -0.550 OA
ATOM      7  O   UNL     1      55.009  -4.181   6.574  1.00  0.00    -0.550 OA
ENDBRANCH   4   5
ENDBRANCH   3   4
ENDBRANCH   2   3
ENDBRANCH   1   2
BRANCH   1   8
ATOM      8  C   UNL     1      52.464  -1.791  11.560  1.00  0.00     0.000 C 
BRANCH   8   9
ATOM      9  C   UNL     1      51.852  -2.967  12.330  1.00  0.00     0.000 C 
BRANCH   9  10
ATOM     10  C   UNL     1      52.945  -3.835  12.970  1.00  0.00     0.006 C 
BRANCH  10  11
ATOM     11  C   UNL     1      54.356  -3.364  12.592  1.00  0.00     0.053 C 
BRANCH  11  12
ATOM     12  C   UNL     1      55.246  -3.255  13.792  1.00  0.00     0.041 C 
ATOM     13  O   UNL     1      55.936  -4.241  14.161  1.00  0.00    -0.550 OA
ATOM     14  O   UNL     1      55.288  -2.075  14.522  1.00  0.00    -0.550 OA
ENDBRANCH  11  12
ENDBRANCH  10  11
ENDBRANCH   9  10
ENDBRANCH   8   9
ENDBRANCH   1   8
TORSDOF 9
ENDMDL
MODEL 5
REMARK VINA RESULT:    -4.276      9.002     11.776
REMARK INTER + INTRA:          -7.069
REMARK INTER:                  -6.516
REMARK INTRA:                  -0.552
REMARK UNBOUND:                -0.543
REMARK SMILES O=C([O-])CCCCCCCCC(=O)[O-]
REMARK SMILES IDX 7 1 6 2 5 3 4 4 2 5 1 6 3 7 8 8 9 9 10 10 11 11 12 12 13 13
REMARK SMILES IDX 14 14
REMARK H PARENT
REMARK Flexibility Score: inf
ROOT
ATOM      1  C   UNL     1      58.292  -4.298  20.737  1.00  0.00     0.000 C 
ENDROOT
BRANCH   1   2
ATOM      2  C   UNL     1      59.648  -4.140  20.039  1.00  0.00     0.000 C 
BRANCH   2   3
ATOM      3  C   UNL     1      60.766  -3.881  21.059  1.00  0.00     0.006 C 
BRANCH   3   4
ATOM      4  C   UNL     1      62.143  -4.300  20.530  1.00  0.00     0.053 C 
BRANCH   4   5
ATOM      5  C   UNL     1      63.249  -3.834  21.426  1.00  0.00     0.041 C 
ATOM      6  O   UNL     1      63.016  -3.567  22.635  1.00  0.00    -0.550 OA
ATOM      7  O   UNL     1      64.531  -3.663  20.917  1.00  0.00    -0.550 OA
ENDBRANCH   4   5
ENDBRANCH   3   4
ENDBRANCH   2   3
ENDBRANCH   1   2
BRANCH   1   8
ATOM      8  C   UNL     1      57.807  -2.959  21.306  1.00  0.00     0.000 C 
BRANCH   8   9
ATOM      9  C   UNL     1      56.380  -2.648  20.840  1.00  0.00     0.000 C 
BRANCH   9  10
ATOM     10  C   UNL     1      56.223  -1.158  20.502  1.00  0.00     0.006 C 
BRANCH  10  11
ATOM     11  C   UNL     1      57.444  -0.600  19.757  1.00  0.00     0.053 C 
BRANCH  11  12
ATOM     12  C   UNL     1      57.434  -0.983  18.309  1.00  0.00     0.041 C 
ATOM     13  O   UNL     1      56.450  -0.687  17.582  1.00  0.00    -0.550 OA
ATOM     14  O   UNL     1      58.498  -1.695  17.770  1.00  0.00    -0.550 OA
ENDBRANCH  11  12
ENDBRANCH  10  11
ENDBRANCH   9  10
ENDBRANCH   8   9
ENDBRANCH   1   8
TORSDOF 9
ENDMDL
MODEL 6
REMARK VINA RESULT:    -4.228      2.515      6.610
REMARK INTER + INTRA:          -6.996
REMARK INTER:                  -6.402
REMARK INTRA:                  -0.595
REMARK UNBOUND:                -0.543
REMARK SMILES O=C([O-])CCCCCCCCC(=O)[O-]
REMARK SMILES IDX 7 1 6 2 5 3 4 4 2 5 1 6 3 7 8 8 9 9 10 10 11 11 12 12 13 13
REMARK SMILES IDX 14 14
REMARK H PARENT
REMARK Flexibility Score: inf
ROOT
ATOM      1  C   UNL     1      54.986  -3.087  13.051  1.00  0.00     0.000 C 
ENDROOT
BRANCH   1   2
ATOM      2  C   UNL     1      56.298  -3.503  13.727  1.00  0.00     0.000 C 
BRANCH   2   3
ATOM      3  C   UNL     1      56.860  -2.362  14.587  1.00  0.00     0.006 C 
BRANCH   3   4
ATOM      4  C   UNL     1      55.778  -1.351  14.988  1.00  0.00     0.053 C 
BRANCH   4   5
ATOM      5  C   UNL     1      55.795  -1.073  16.460  1.00  0.00     0.041 C 
ATOM      6  O   UNL     1      54.714  -0.964  17.098  1.00  0.00    -0.550 OA
ATOM      7  O   UNL     1      57.005  -0.903  17.121  1.00  0.00    -0.550 OA
ENDBRANCH   4   5
ENDBRANCH   3   4
ENDBRANCH   2   3
ENDBRANCH   1   2
BRANCH   1   8
ATOM      8  C   UNL     1      53.894  -4.141  13.275  1.00  0.00     0.000 C 
BRANCH   8   9
ATOM      9  C   UNL     1      52.527  -3.625  12.808  1.00  0.00     0.000 C 
BRANCH   9  10
ATOM     10  C   UNL     1      52.683  -2.384  11.916  1.00  0.00     0.006 C 
BRANCH  10  11
ATOM     11  C   UNL     1      51.986  -2.553  10.559  1.00  0.00     0.053 C 
BRANCH  11  12
ATOM     12  C   UNL     1      52.972  -2.733   9.446  1.00  0.00     0.041 C 
ATOM     13  O   UNL     1      52.728  -2.268   8.302  1.00  0.00    -0.550 OA
ATOM     14  O   UNL     1      54.146  -3.442   9.663  1.00  0.00    -0.550 OA
ENDBRANCH  11  12
ENDBRANCH  10  11
ENDBRANCH   9  10
ENDBRANCH   8   9
ENDBRANCH   1   8
TORSDOF 9
ENDMDL
MODEL 7
REMARK VINA RESULT:    -4.225      2.170      3.500
REMARK INTER + INTRA:          -6.991
REMARK INTER:                  -6.721
REMARK INTRA:                  -0.270
REMARK UNBOUND:                -0.543
REMARK SMILES O=C([O-])CCCCCCCCC(=O)[O-]
REMARK SMILES IDX 7 1 6 2 5 3 4 4 2 5 1 6 3 7 8 8 9 9 10 10 11 11 12 12 13 13
REMARK SMILES IDX 14 14
REMARK H PARENT
REMARK Flexibility Score: inf
ROOT
ATOM      1  C   UNL     1      53.332  -3.063  13.086  1.00  0.00     0.000 C 
ENDROOT
BRANCH   1   2
ATOM      2  C   UNL     1      52.665  -4.294  12.460  1.00  0.00     0.000 C 
BRANCH   2   3
ATOM      3  C   UNL     1      52.065  -3.956  11.088  1.00  0.00     0.006 C 
BRANCH   3   4
ATOM      4  C   UNL     1      52.689  -4.789   9.961  1.00  0.00     0.053 C 
BRANCH   4   5
ATOM      5  C   UNL     1      53.564  -3.958   9.074  1.00  0.00     0.041 C 
ATOM      6  O   UNL     1      54.545  -4.480   8.481  1.00  0.00    -0.550 OA
ATOM      7  O   UNL     1      53.315  -2.598   8.929  1.00  0.00    -0.550 OA
ENDBRANCH   4   5
ENDBRANCH   3   4
ENDBRANCH   2   3
ENDBRANCH   1   2
BRANCH   1   8
ATOM      8  C   UNL     1      54.849  -3.259  13.203  1.00  0.00     0.000 C 
BRANCH   8   9
ATOM      9  C   UNL     1      55.481  -2.163  14.068  1.00  0.00     0.000 C 
BRANCH   9  10
ATOM     10  C   UNL     1      56.902  -2.554  14.502  1.00  0.00     0.006 C 
BRANCH  10  11
ATOM     11  C   UNL     1      57.693  -1.356  15.045  1.00  0.00     0.053 C 
BRANCH  11  12
ATOM     12  C   UNL     1      57.427  -1.128  16.501  1.00  0.00     0.041 C 
ATOM     13  O   UNL     1      56.404  -0.492  16.866  1.00  0.00    -0.550 OA
ATOM     14  O   UNL     1      58.326  -1.590  17.454  1.00  0.00    -0.550 OA
ENDBRANCH  11  12
ENDBRANCH  10  11
ENDBRANCH   9  10
ENDBRANCH   8   9
ENDBRANCH   1   8
TORSDOF 9
ENDMDL
MODEL 8
REMARK VINA RESULT:    -4.190      8.981     11.884
REMARK INTER + INTRA:          -6.938
REMARK INTER:                  -6.327
REMARK INTRA:                  -0.611
REMARK UNBOUND:                -0.543
REMARK SMILES O=C([O-])CCCCCCCCC(=O)[O-]
REMARK SMILES IDX 7 1 6 2 5 3 4 4 2 5 1 6 3 7 8 8 9 9 10 10 11 11 12 12 13 13
REMARK SMILES IDX 14 14
REMARK H PARENT
REMARK Flexibility Score: inf
ROOT
ATOM      1  C   UNL     1      58.654  -4.352  21.150  1.00  0.00     0.000 C 
ENDROOT
BRANCH   1   2
ATOM      2  C   UNL     1      57.436  -3.485  20.812  1.00  0.00     0.000 C 
BRANCH   2   3
ATOM      3  C   UNL     1      57.846  -2.020  20.601  1.00  0.00     0.006 C 
BRANCH   3   4
ATOM      4  C   UNL     1      58.335  -1.754  19.172  1.00  0.00     0.053 C 
BRANCH   4   5
ATOM      5  C   UNL     1      57.299  -1.052  18.350  1.00  0.00     0.041 C 
ATOM      6  O   UNL     1      57.632  -0.420  17.313  1.00  0.00    -0.550 OA
ATOM      7  O   UNL     1      55.968  -1.067  18.750  1.00  0.00    -0.550 OA
ENDBRANCH   4   5
ENDBRANCH   3   4
ENDBRANCH   2   3
ENDBRANCH   1   2
BRANCH   1   8
ATOM      8  C   UNL     1      59.510  -3.699  22.243  1.00  0.00     0.000 C 
BRANCH   8   9
ATOM      9  C   UNL     1      60.961  -4.187  22.171  1.00  0.00     0.000 C 
BRANCH   9  10
ATOM     10  C   UNL     1      61.521  -4.042  20.748  1.00  0.00     0.006 C 
BRANCH  10  11
ATOM     11  C   UNL     1      62.851  -4.787  20.569  1.00  0.00     0.053 C 
BRANCH  11  12
ATOM     12  C   UNL     1      63.879  -4.336  21.561  1.00  0.00     0.041 C 
ATOM     13  O   UNL     1      64.377  -3.184  21.478  1.00  0.00    -0.550 OA
ATOM     14  O   UNL     1      64.310  -5.202  22.559  1.00  0.00    -0.550 OA
ENDBRANCH  11  12
ENDBRANCH  10  11
ENDBRANCH   9  10
ENDBRANCH   8   9
ENDBRANCH   1   8
TORSDOF 9
ENDMDL
MODEL 9
REMARK VINA RESULT:    -4.161      3.193      4.905
REMARK INTER + INTRA:          -6.894
REMARK INTER:                  -6.400
REMARK INTRA:                  -0.495
REMARK UNBOUND:                -0.543
REMARK SMILES O=C([O-])CCCCCCCCC(=O)[O-]
REMARK SMILES IDX 7 1 6 2 5 3 4 4 2 5 1 6 3 7 8 8 9 9 10 10 11 11 12 12 13 13
REMARK SMILES IDX 14 14
REMARK H PARENT
REMARK Flexibility Score: inf
ROOT
ATOM      1  C   UNL     1      54.909  -2.490  13.888  1.00  0.00     0.000 C 
ENDROOT
BRANCH   1   2
ATOM      2  C   UNL     1      54.257  -3.086  12.634  1.00  0.00     0.000 C 
BRANCH   2   3
ATOM      3  C   UNL     1      53.202  -4.137  13.010  1.00  0.00     0.006 C 
BRANCH   3   4
ATOM      4  C   UNL     1      51.860  -3.887  12.310  1.00  0.00     0.053 C 
BRANCH   4   5
ATOM      5  C   UNL     1      51.990  -3.953  10.819  1.00  0.00     0.041 C 
ATOM      6  O   UNL     1      52.391  -5.009  10.263  1.00  0.00    -0.550 OA
ATOM      7  O   UNL     1      51.699  -2.835  10.046  1.00  0.00    -0.550 OA
ENDBRANCH   4   5
ENDBRANCH   3   4
ENDBRANCH   2   3
ENDBRANCH   1   2
BRANCH   1   8
ATOM      8  C   UNL     1      56.327  -3.040  14.085  1.00  0.00     0.000 C 
BRANCH   8   9
ATOM      9  C   UNL     1      57.227  -2.009  14.777  1.00  0.00     0.000 C 
BRANCH   9  10
ATOM     10  C   UNL     1      56.450  -0.720  15.083  1.00  0.00     0.006 C 
BRANCH  10  11
ATOM     11  C   UNL     1      56.665  -0.242  16.526  1.00  0.00     0.053 C 
BRANCH  11  12
ATOM     12  C   UNL     1      55.560  -0.694  17.431  1.00  0.00     0.041 C 
ATOM     13  O   UNL     1      54.358  -0.554  17.083  1.00  0.00    -0.550 OA
ATOM     14  O   UNL     1      55.856  -1.239  18.673  1.00  0.00    -0.550 OA
ENDBRANCH  11  12
ENDBRANCH  10  11
ENDBRANCH   9  10
ENDBRANCH   8   9
ENDBRANCH   1   8
TORSDOF 9
ENDMDL
