MODEL 1
REMARK VINA RESULT:    -3.200      0.000      0.000
REMARK INTER + INTRA:          -4.391
REMARK INTER:                  -4.135
REMARK INTRA:                  -0.256
REMARK UNBOUND:                -0.256
REMARK SMILES CCCCCCC(=O)[O-]
REMARK SMILES IDX 5 1 6 2 7 3 8 4 9 5 4 6 3 7 2 8 1 9
REMARK H PARENT
REMARK Flexibility Score: inf
ROOT
ATOM      1  C   UNL     1       1.880  -9.911 -41.988  1.00  0.00     0.006 C 
ENDROOT
BRANCH   1   2
ATOM      2  C   UNL     1       2.604 -11.174 -42.474  1.00  0.00     0.053 C 
BRANCH   2   3
ATOM      3  C   UNL     1       2.332 -11.446 -43.922  1.00  0.00     0.041 C 
ATOM      4  O   UNL     1       2.191 -12.629 -44.330  1.00  0.00    -0.550 OA
ATOM      5  O   UNL     1       2.269 -10.393 -44.826  1.00  0.00    -0.550 OA
ENDBRANCH   2   3
ENDBRANCH   1   2
BRANCH   1   6
ATOM      6  C   UNL     1       0.594 -10.239 -41.217  1.00  0.00     0.000 C 
BRANCH   6   7
ATOM      7  C   UNL     1      -0.524  -9.251 -41.568  1.00  0.00    -0.000 C 
BRANCH   7   8
ATOM      8  C   UNL     1      -1.664  -9.951 -42.316  1.00  0.00    -0.003 C 
ATOM      9  C   UNL     1      -1.414 -11.453 -42.420  1.00  0.00     0.004 C 
ENDBRANCH   7   8
ENDBRANCH   6   7
ENDBRANCH   1   6
TORSDOF 5
ENDMDL
MODEL 2
REMARK VINA RESULT:    -3.186      1.236      1.645
REMARK INTER + INTRA:          -4.373
REMARK INTER:                  -4.109
REMARK INTRA:                  -0.264
REMARK UNBOUND:                -0.256
REMARK SMILES CCCCCCC(=O)[O-]
REMARK SMILES IDX 5 1 6 2 7 3 8 4 9 5 4 6 3 7 2 8 1 9
REMARK H PARENT
REMARK Flexibility Score: inf
ROOT
ATOM      1  C   UNL     1       1.209  -9.491 -42.429  1.00  0.00     0.006 C 
ENDROOT
BRANCH   1   2
ATOM      2  C   UNL     1       2.400 -10.323 -41.933  1.00  0.00     0.053 C 
BRANCH   2   3
ATOM      3  C   UNL     1       2.263 -11.767 -42.308  1.00  0.00     0.041 C 
ATOM      4  O   UNL     1       2.437 -12.666 -41.444  1.00  0.00    -0.550 OA
ATOM      5  O   UNL     1       1.975 -12.119 -43.620  1.00  0.00    -0.550 OA
ENDBRANCH   2   3
ENDBRANCH   1   2
BRANCH   1   6
ATOM      6  C   UNL     1       0.013  -9.557 -41.470  1.00  0.00     0.000 C 
BRANCH   6   7
ATOM      7  C   UNL     1      -1.273  -9.925 -42.219  1.00  0.00    -0.000 C 
BRANCH   7   8
ATOM      8  C   UNL     1      -1.382 -11.442 -42.414  1.00  0.00    -0.003 C 
ATOM      9  C   UNL     1      -2.837 -11.900 -42.378  1.00  0.00     0.004 C 
ENDBRANCH   7   8
ENDBRANCH   6   7
ENDBRANCH   1   6
TORSDOF 5
ENDMDL
MODEL 3
REMARK VINA RESULT:    -3.178      1.739      2.572
REMARK INTER + INTRA:          -4.362
REMARK INTER:                  -4.148
REMARK INTRA:                  -0.214
REMARK UNBOUND:                -0.256
REMARK SMILES CCCCCCC(=O)[O-]
REMARK SMILES IDX 5 1 6 2 7 3 8 4 9 5 4 6 3 7 2 8 1 9
REMARK H PARENT
REMARK Flexibility Score: inf
ROOT
ATOM      1  C   UNL     1       1.135  -9.474 -42.717  1.00  0.00     0.006 C 
ENDROOT
BRANCH   1   2
ATOM      2  C   UNL     1       2.249 -10.276 -42.030  1.00  0.00     0.053 C 
BRANCH   2   3
ATOM      3  C   UNL     1       2.127 -11.743 -42.308  1.00  0.00     0.041 C 
ATOM      4  O   UNL     1       2.166 -12.170 -43.492  1.00  0.00    -0.550 OA
ATOM      5  O   UNL     1       1.937 -12.635 -41.260  1.00  0.00    -0.550 OA
ENDBRANCH   2   3
ENDBRANCH   1   2
BRANCH   1   6
ATOM      6  C   UNL     1      -0.237  -9.715 -42.073  1.00  0.00     0.000 C 
BRANCH   6   7
ATOM      7  C   UNL     1      -0.195  -9.436 -40.566  1.00  0.00    -0.000 C 
BRANCH   7   8
ATOM      8  C   UNL     1      -1.403  -8.601 -40.127  1.00  0.00    -0.003 C 
ATOM      9  C   UNL     1      -1.087  -7.789 -38.875  1.00  0.00     0.004 C 
ENDBRANCH   7   8
ENDBRANCH   6   7
ENDBRANCH   1   6
TORSDOF 5
ENDMDL
MODEL 4
REMARK VINA RESULT:    -3.156      2.381      3.401
REMARK INTER + INTRA:          -4.335
REMARK INTER:                  -4.201
REMARK INTRA:                  -0.133
REMARK UNBOUND:                -0.256
REMARK SMILES CCCCCCC(=O)[O-]
REMARK SMILES IDX 5 1 6 2 7 3 8 4 9 5 4 6 3 7 2 8 1 9
REMARK H PARENT
REMARK Flexibility Score: inf
ROOT
ATOM      1  C   UNL     1      -0.235  -9.501 -41.357  1.00  0.00     0.006 C 
ENDROOT
BRANCH   1   2
ATOM      2  C   UNL     1       1.230  -9.801 -41.704  1.00  0.00     0.053 C 
BRANCH   2   3
ATOM      3  C   UNL     1       1.502  -9.621 -43.166  1.00  0.00     0.041 C 
ATOM      4  O   UNL     1       1.315  -8.503 -43.713  1.00  0.00    -0.550 OA
ATOM      5  O   UNL     1       1.932 -10.698 -43.930  1.00  0.00    -0.550 OA
ENDBRANCH   2   3
ENDBRANCH   1   2
BRANCH   1   6
ATOM      6  C   UNL     1      -0.443  -9.279 -39.853  1.00  0.00     0.000 C 
BRANCH   6   7
ATOM      7  C   UNL     1      -1.530  -8.229 -39.597  1.00  0.00    -0.000 C 
BRANCH   7   8
ATOM      8  C   UNL     1      -1.088  -7.230 -38.522  1.00  0.00    -0.003 C 
ATOM      9  C   UNL     1      -0.393  -7.939 -37.363  1.00  0.00     0.004 C 
ENDBRANCH   7   8
ENDBRANCH   6   7
ENDBRANCH   1   6
TORSDOF 5
ENDMDL
MODEL 5
REMARK VINA RESULT:    -3.153      2.359      3.878
REMARK INTER + INTRA:          -4.331
REMARK INTER:                  -3.901
REMARK INTRA:                  -0.430
REMARK UNBOUND:                -0.256
REMARK SMILES CCCCCCC(=O)[O-]
REMARK SMILES IDX 5 1 6 2 7 3 8 4 9 5 4 6 3 7 2 8 1 9
REMARK H PARENT
REMARK Flexibility Score: inf
ROOT
ATOM      1  C   UNL     1       0.005  -9.467 -41.622  1.00  0.00     0.006 C 
ENDROOT
BRANCH   1   2
ATOM      2  C   UNL     1      -1.222 -10.029 -42.353  1.00  0.00     0.053 C 
BRANCH   2   3
ATOM      3  C   UNL     1      -1.510 -11.443 -41.947  1.00  0.00     0.041 C 
ATOM      4  O   UNL     1      -0.838 -11.990 -41.034  1.00  0.00    -0.550 OA
ATOM      5  O   UNL     1      -2.500 -12.165 -42.601  1.00  0.00    -0.550 OA
ENDBRANCH   2   3
ENDBRANCH   1   2
BRANCH   1   6
ATOM      6  C   UNL     1       1.274  -9.531 -42.483  1.00  0.00     0.000 C 
BRANCH   6   7
ATOM      7  C   UNL     1       2.383 -10.314 -41.771  1.00  0.00    -0.000 C 
BRANCH   7   8
ATOM      8  C   UNL     1       2.475 -11.748 -42.305  1.00  0.00    -0.003 C 
ATOM      9  C   UNL     1       1.931 -11.843 -43.727  1.00  0.00     0.004 C 
ENDBRANCH   7   8
ENDBRANCH   6   7
ENDBRANCH   1   6
TORSDOF 5
ENDMDL
MODEL 6
REMARK VINA RESULT:    -3.078      4.577      5.738
REMARK INTER + INTRA:          -4.234
REMARK INTER:                  -4.086
REMARK INTRA:                  -0.147
REMARK UNBOUND:                -0.256
REMARK SMILES CCCCCCC(=O)[O-]
REMARK SMILES IDX 5 1 6 2 7 3 8 4 9 5 4 6 3 7 2 8 1 9
REMARK H PARENT
REMARK Flexibility Score: inf
ROOT
ATOM      1  C   UNL     1      -0.783  -8.834 -39.756  1.00  0.00     0.006 C 
ENDROOT
BRANCH   1   2
ATOM      2  C   UNL     1      -1.192  -9.466 -38.419  1.00  0.00     0.053 C 
BRANCH   2   3
ATOM      3  C   UNL     1      -0.518  -8.797 -37.260  1.00  0.00     0.041 C 
ATOM      4  O   UNL     1      -0.169  -7.589 -37.340  1.00  0.00    -0.550 OA
ATOM      5  O   UNL     1      -0.245  -9.518 -36.104  1.00  0.00    -0.550 OA
ENDBRANCH   2   3
ENDBRANCH   1   2
BRANCH   1   6
ATOM      6  C   UNL     1       0.051  -9.790 -40.620  1.00  0.00     0.000 C 
BRANCH   6   7
ATOM      7  C   UNL     1      -0.016  -9.394 -42.100  1.00  0.00    -0.000 C 
BRANCH   7   8
ATOM      8  C   UNL     1       1.379  -9.407 -42.737  1.00  0.00    -0.003 C 
ATOM      9  C   UNL     1       2.340 -10.285 -41.941  1.00  0.00     0.004 C 
ENDBRANCH   7   8
ENDBRANCH   6   7
ENDBRANCH   1   6
TORSDOF 5
ENDMDL
MODEL 7
REMARK VINA RESULT:    -3.060      1.340      1.820
REMARK INTER + INTRA:          -4.210
REMARK INTER:                  -4.055
REMARK INTRA:                  -0.155
REMARK UNBOUND:                -0.256
REMARK SMILES CCCCCCC(=O)[O-]
REMARK SMILES IDX 5 1 6 2 7 3 8 4 9 5 4 6 3 7 2 8 1 9
REMARK H PARENT
REMARK Flexibility Score: inf
ROOT
ATOM      1  C   UNL     1       1.167  -9.868 -41.991  1.00  0.00     0.006 C 
ENDROOT
BRANCH   1   2
ATOM      2  C   UNL     1       0.879 -11.197 -42.702  1.00  0.00     0.053 C 
BRANCH   2   3
ATOM      3  C   UNL     1       1.811 -11.423 -43.853  1.00  0.00     0.041 C 
ATOM      4  O   UNL     1       2.219 -12.584 -44.120  1.00  0.00    -0.550 OA
ATOM      5  O   UNL     1       2.253 -10.346 -44.611  1.00  0.00    -0.550 OA
ENDBRANCH   2   3
ENDBRANCH   1   2
BRANCH   1   6
ATOM      6  C   UNL     1       0.063  -9.492 -40.993  1.00  0.00     0.000 C 
BRANCH   6   7
ATOM      7  C   UNL     1      -1.267  -9.241 -41.712  1.00  0.00    -0.000 C 
BRANCH   7   8
ATOM      8  C   UNL     1      -2.238  -8.461 -40.819  1.00  0.00    -0.003 C 
ATOM      9  C   UNL     1      -1.616  -8.161 -39.458  1.00  0.00     0.004 C 
ENDBRANCH   7   8
ENDBRANCH   6   7
ENDBRANCH   1   6
TORSDOF 5
ENDMDL
MODEL 8
REMARK VINA RESULT:    -3.025      1.301      1.790
REMARK INTER + INTRA:          -4.165
REMARK INTER:                  -4.001
REMARK INTRA:                  -0.164
REMARK UNBOUND:                -0.256
REMARK SMILES CCCCCCC(=O)[O-]
REMARK SMILES IDX 5 1 6 2 7 3 8 4 9 5 4 6 3 7 2 8 1 9
REMARK H PARENT
REMARK Flexibility Score: inf
ROOT
ATOM      1  C   UNL     1       0.310  -9.516 -42.278  1.00  0.00     0.006 C 
ENDROOT
BRANCH   1   2
ATOM      2  C   UNL     1       1.795  -9.905 -42.282  1.00  0.00     0.053 C 
BRANCH   2   3
ATOM      3  C   UNL     1       2.102 -10.909 -43.351  1.00  0.00     0.041 C 
ATOM      4  O   UNL     1       2.210 -12.130 -43.064  1.00  0.00    -0.550 OA
ATOM      5  O   UNL     1       2.303 -10.489 -44.660  1.00  0.00    -0.550 OA
ENDBRANCH   2   3
ENDBRANCH   1   2
BRANCH   1   6
ATOM      6  C   UNL     1      -0.251  -9.379 -40.856  1.00  0.00     0.000 C 
BRANCH   6   7
ATOM      7  C   UNL     1      -1.732  -8.983 -40.885  1.00  0.00    -0.000 C 
BRANCH   7   8
ATOM      8  C   UNL     1      -2.234  -8.836 -42.326  1.00  0.00    -0.003 C 
ATOM      9  C   UNL     1      -3.537  -8.044 -42.378  1.00  0.00     0.004 C 
ENDBRANCH   7   8
ENDBRANCH   6   7
ENDBRANCH   1   6
TORSDOF 5
ENDMDL
MODEL 9
REMARK VINA RESULT:    -2.949      3.439      4.745
REMARK INTER + INTRA:          -4.067
REMARK INTER:                  -3.786
REMARK INTRA:                  -0.281
REMARK UNBOUND:                -0.256
REMARK SMILES CCCCCCC(=O)[O-]
REMARK SMILES IDX 5 1 6 2 7 3 8 4 9 5 4 6 3 7 2 8 1 9
REMARK H PARENT
REMARK Flexibility Score: inf
ROOT
ATOM      1  C   UNL     1      -0.156  -9.425 -41.586  1.00  0.00     0.006 C 
ENDROOT
BRANCH   1   2
ATOM      2  C   UNL     1      -0.197 -10.589 -40.587  1.00  0.00     0.053 C 
BRANCH   2   3
ATOM      3  C   UNL     1      -0.663 -10.144 -39.235  1.00  0.00     0.041 C 
ATOM      4  O   UNL     1      -0.382  -8.991 -38.815  1.00  0.00    -0.550 OA
ATOM      5  O   UNL     1      -1.380 -11.016 -38.426  1.00  0.00    -0.550 OA
ENDBRANCH   2   3
ENDBRANCH   1   2
BRANCH   1   6
ATOM      6  C   UNL     1       1.055  -9.507 -42.525  1.00  0.00     0.000 C 
BRANCH   6   7
ATOM      7  C   UNL     1       2.190 -10.319 -41.890  1.00  0.00    -0.000 C 
BRANCH   7   8
ATOM      8  C   UNL     1       2.985 -11.081 -42.955  1.00  0.00    -0.003 C 
ATOM      9  C   UNL     1       2.096 -12.066 -43.708  1.00  0.00     0.004 C 
ENDBRANCH   7   8
ENDBRANCH   6   7
ENDBRANCH   1   6
TORSDOF 5
ENDMDL
