MODEL 1
REMARK VINA RESULT:    -4.140      0.000      0.000
REMARK INTER + INTRA:          -6.243
REMARK INTER:                  -6.318
REMARK INTRA:                   0.075
REMARK UNBOUND:                 0.075
REMARK SMILES CC1=CCC[C@@H](C)C(=O)C[C@H](C(C)C)C(=O)C1
REMARK SMILES IDX 8 1 9 2 6 3 7 4 5 5 4 6 3 7 2 8 1 9 10 11 11 12 15 13 16 14
REMARK SMILES IDX 17 15 12 17 13 18 14 19
REMARK H PARENT
REMARK Flexibility Score: 70.00
ROOT
ATOM      1  C   UNL     1       0.583 -25.349  13.735  1.00  0.00     0.136 C 
ATOM      2  O   UNL     1       1.512 -24.671  13.319  1.00  0.00    -0.299 OA
ENDROOT
BRANCH   1   3
ATOM      3  C   UNL     1       0.277 -25.372  15.220  1.00  0.00     0.053 C 
ATOM      4  C   UNL     1       0.924 -26.596  15.885  1.00  0.00     0.016 C 
BRANCH   3   5
ATOM      5  C   UNL     1      -1.250 -25.358  15.451  1.00  0.00     0.015 C 
BRANCH   5   6
ATOM      6  C   UNL     1      -1.767 -26.699  16.009  1.00  0.00     0.028 C 
BRANCH   6   7
ATOM      7  C   UNL     1      -2.893 -27.246  15.171  1.00  0.00    -0.028 C 
ATOM      8  C   UNL     1      -2.787 -28.277  14.301  1.00  0.00    -0.070 CG0
ATOM      9  C   UNL     1      -4.037 -28.732  13.589  1.00  0.00     0.039 C 
ATOM     10  G   UNL     1      -1.481 -29.002  14.019  1.00  0.00     0.000 G0
ENDBRANCH   6   7
ENDBRANCH   5   6
ENDBRANCH   3   5
ENDBRANCH   1   3
BRANCH   1  11
ATOM     11  C   UNL     1      -0.242 -26.148  12.754  1.00  0.00     0.087 C 
BRANCH  11  12
ATOM     12  C   UNL     1       0.280 -27.600  12.584  1.00  0.00     0.066 C 
BRANCH  12  13
ATOM     13  C   UNL     1      -0.865 -28.603  12.677  1.00  0.00     0.140 C 
ATOM     14  O   UNL     1      -1.333 -29.058  11.643  1.00  0.00    -0.299 OA
BRANCH  13  15
ATOM     15  C   UNL     1      -1.482 -28.996  14.001  1.00  0.00     0.106 CG0
ATOM     16  G   UNL     1      -2.784 -28.258  14.272  1.00  0.00     0.000 G0
ENDBRANCH  13  15
ENDBRANCH  12  13
BRANCH  12  17
ATOM     17  C   UNL     1       1.113 -27.801  11.278  1.00  0.00    -0.006 C 
ATOM     18  C   UNL     1       2.299 -28.753  11.520  1.00  0.00     0.008 C 
ATOM     19  C   UNL     1       1.654 -26.474  10.716  1.00  0.00     0.008 C 
ENDBRANCH  12  17
ENDBRANCH  11  12
ENDBRANCH   1  11
TORSDOF 1
ENDMDL
MODEL 2
REMARK VINA RESULT:    -4.080     17.320     19.523
REMARK INTER + INTRA:          -6.152
REMARK INTER:                  -5.928
REMARK INTRA:                  -0.224
REMARK UNBOUND:                 0.075
REMARK SMILES CC1=CCC[C@@H](C)C(=O)C[C@H](C(C)C)C(=O)C1
REMARK SMILES IDX 8 1 9 2 6 3 7 4 5 5 4 6 3 7 2 8 1 9 10 11 11 12 15 13 16 14
REMARK SMILES IDX 17 15 12 17 13 18 14 19
REMARK H PARENT
REMARK Flexibility Score: 70.00
ROOT
ATOM      1  C   UNL     1      10.630 -13.771  14.350  1.00  0.00     0.136 C 
ATOM      2  O   UNL     1      10.491 -14.857  13.806  1.00  0.00    -0.299 OA
ENDROOT
BRANCH   1   3
ATOM      3  C   UNL     1      11.506 -12.715  13.705  1.00  0.00     0.053 C 
ATOM      4  C   UNL     1      12.955 -12.840  14.200  1.00  0.00     0.016 C 
BRANCH   3   5
ATOM      5  C   UNL     1      10.942 -11.306  13.991  1.00  0.00     0.015 C 
BRANCH   5   6
ATOM      6  C   UNL     1      11.933 -10.432  14.785  1.00  0.00     0.028 C 
BRANCH   6   7
ATOM      7  C   UNL     1      11.259  -9.760  15.953  1.00  0.00    -0.028 C 
ATOM      8  C   UNL     1      11.245 -10.230  17.222  1.00  0.00    -0.070 CG0
ATOM      9  C   UNL     1      10.571  -9.392  18.279  1.00  0.00     0.039 C 
ATOM     10  G   UNL     1      11.883 -11.548  17.631  1.00  0.00     0.000 G0
ENDBRANCH   6   7
ENDBRANCH   5   6
ENDBRANCH   3   5
ENDBRANCH   1   3
BRANCH   1  11
ATOM     11  C   UNL     1       9.920 -13.506  15.657  1.00  0.00     0.087 C 
BRANCH  11  12
ATOM     12  C   UNL     1      10.798 -13.849  16.890  1.00  0.00     0.066 C 
BRANCH  12  13
ATOM     13  C   UNL     1      10.895 -12.658  17.837  1.00  0.00     0.140 C 
ATOM     14  O   UNL     1      10.095 -12.573  18.758  1.00  0.00    -0.299 OA
BRANCH  13  15
ATOM     15  C   UNL     1      11.900 -11.548  17.628  1.00  0.00     0.106 CG0
ATOM     16  G   UNL     1      11.241 -10.246  17.202  1.00  0.00     0.000 G0
ENDBRANCH  13  15
ENDBRANCH  12  13
BRANCH  12  17
ATOM     17  C   UNL     1      10.326 -15.138  17.637  1.00  0.00    -0.006 C 
ATOM     18  C   UNL     1      11.320 -16.294  17.427  1.00  0.00     0.008 C 
ATOM     19  C   UNL     1       8.929 -15.601  17.184  1.00  0.00     0.008 C 
ENDBRANCH  12  17
ENDBRANCH  11  12
ENDBRANCH   1  11
TORSDOF 1
ENDMDL
MODEL 3
REMARK VINA RESULT:    -3.833     17.297     19.389
REMARK INTER + INTRA:          -5.774
REMARK INTER:                  -5.923
REMARK INTRA:                   0.149
REMARK UNBOUND:                 0.075
REMARK SMILES CC1=CCC[C@@H](C)C(=O)C[C@H](C(C)C)C(=O)C1
REMARK SMILES IDX 8 1 9 2 6 3 7 4 5 5 4 6 3 7 2 8 1 9 10 11 11 12 15 13 16 14
REMARK SMILES IDX 17 15 12 17 13 18 14 19
REMARK H PARENT
REMARK Flexibility Score: 70.00
ROOT
ATOM      1  C   UNL     1      10.416 -11.666  16.983  1.00  0.00     0.136 C 
ATOM      2  O   UNL     1       9.302 -11.472  16.517  1.00  0.00    -0.299 OA
ENDROOT
BRANCH   1   3
ATOM      3  C   UNL     1      11.208 -10.502  17.546  1.00  0.00     0.053 C 
ATOM      4  C   UNL     1      10.354  -9.701  18.540  1.00  0.00     0.016 C 
BRANCH   3   5
ATOM      5  C   UNL     1      11.718  -9.600  16.401  1.00  0.00     0.015 C 
BRANCH   5   6
ATOM      6  C   UNL     1      12.776 -10.306  15.530  1.00  0.00     0.028 C 
BRANCH   6   7
ATOM      7  C   UNL     1      12.246 -10.600  14.151  1.00  0.00    -0.028 C 
ATOM      8  C   UNL     1      12.005 -11.835  13.655  1.00  0.00    -0.070 CG0
ATOM      9  C   UNL     1      11.414 -11.939  12.271  1.00  0.00     0.039 C 
ATOM     10  G   UNL     1      12.287 -13.115  14.426  1.00  0.00     0.000 G0
ENDBRANCH   6   7
ENDBRANCH   5   6
ENDBRANCH   3   5
ENDBRANCH   1   3
BRANCH   1  11
ATOM     11  C   UNL     1      10.976 -13.069  16.987  1.00  0.00     0.087 C 
BRANCH  11  12
ATOM     12  C   UNL     1      10.285 -13.987  15.944  1.00  0.00     0.066 C 
BRANCH  12  13
ATOM     13  C   UNL     1      11.033 -13.959  14.615  1.00  0.00     0.140 C 
ATOM     14  O   UNL     1      10.641 -14.675  13.705  1.00  0.00    -0.299 OA
BRANCH  13  15
ATOM     15  C   UNL     1      12.283 -13.131  14.415  1.00  0.00     0.106 CG0
ATOM     16  G   UNL     1      12.008 -11.847  13.649  1.00  0.00     0.000 G0
ENDBRANCH  13  15
ENDBRANCH  12  13
BRANCH  12  17
ATOM     17  C   UNL     1      10.081 -15.449  16.456  1.00  0.00    -0.006 C 
ATOM     18  C   UNL     1       9.441 -15.460  17.856  1.00  0.00     0.008 C 
ATOM     19  C   UNL     1      11.401 -16.242  16.511  1.00  0.00     0.008 C 
ENDBRANCH  12  17
ENDBRANCH  11  12
ENDBRANCH   1  11
TORSDOF 1
ENDMDL
MODEL 4
REMARK VINA RESULT:    -3.645     16.842     19.162
REMARK INTER + INTRA:          -5.489
REMARK INTER:                  -5.708
REMARK INTRA:                   0.219
REMARK UNBOUND:                 0.075
REMARK SMILES CC1=CCC[C@@H](C)C(=O)C[C@H](C(C)C)C(=O)C1
REMARK SMILES IDX 8 1 9 2 6 3 7 4 5 5 4 6 3 7 2 8 1 9 10 11 11 12 15 13 16 14
REMARK SMILES IDX 17 15 12 17 13 18 14 19
REMARK H PARENT
REMARK Flexibility Score: 70.00
ROOT
ATOM      1  C   UNL     1       9.959 -15.060  17.139  1.00  0.00     0.136 C 
ATOM      2  O   UNL     1       9.562 -15.355  18.258  1.00  0.00    -0.299 OA
ENDROOT
BRANCH   1   3
ATOM      3  C   UNL     1      10.519 -16.139  16.233  1.00  0.00     0.053 C 
ATOM      4  C   UNL     1      11.911 -16.577  16.714  1.00  0.00     0.016 C 
BRANCH   3   5
ATOM      5  C   UNL     1      10.570 -15.637  14.774  1.00  0.00     0.015 C 
BRANCH   5   6
ATOM      6  C   UNL     1      12.010 -15.340  14.309  1.00  0.00     0.028 C 
BRANCH   6   7
ATOM      7  C   UNL     1      12.045 -14.204  13.320  1.00  0.00    -0.028 C 
ATOM      8  C   UNL     1      12.411 -12.933  13.605  1.00  0.00    -0.070 CG0
ATOM      9  C   UNL     1      12.445 -11.937  12.472  1.00  0.00     0.039 C 
ATOM     10  G   UNL     1      12.799 -12.467  14.999  1.00  0.00     0.000 G0
ENDBRANCH   6   7
ENDBRANCH   5   6
ENDBRANCH   3   5
ENDBRANCH   1   3
BRANCH   1  11
ATOM     11  C   UNL     1       9.876 -13.622  16.686  1.00  0.00     0.087 C 
BRANCH  11  12
ATOM     12  C   UNL     1      11.157 -12.816  17.032  1.00  0.00     0.066 C 
BRANCH  12  13
ATOM     13  C   UNL     1      11.636 -12.013  15.828  1.00  0.00     0.140 C 
ATOM     14  O   UNL     1      11.009 -11.015  15.500  1.00  0.00    -0.299 OA
BRANCH  13  15
ATOM     15  C   UNL     1      12.815 -12.451  14.989  1.00  0.00     0.106 CG0
ATOM     16  G   UNL     1      12.395 -12.920  13.605  1.00  0.00     0.000 G0
ENDBRANCH  13  15
ENDBRANCH  12  13
BRANCH  12  17
ATOM     17  C   UNL     1      10.987 -11.911  18.294  1.00  0.00    -0.006 C 
ATOM     18  C   UNL     1       9.607 -11.228  18.303  1.00  0.00     0.008 C 
ATOM     19  C   UNL     1      12.074 -10.824  18.389  1.00  0.00     0.008 C 
ENDBRANCH  12  17
ENDBRANCH  11  12
ENDBRANCH   1  11
TORSDOF 1
ENDMDL
MODEL 5
REMARK VINA RESULT:    -3.628     16.863     18.927
REMARK INTER + INTRA:          -5.462
REMARK INTER:                  -5.405
REMARK INTRA:                  -0.057
REMARK UNBOUND:                 0.075
REMARK SMILES CC1=CCC[C@@H](C)C(=O)C[C@H](C(C)C)C(=O)C1
REMARK SMILES IDX 8 1 9 2 6 3 7 4 5 5 4 6 3 7 2 8 1 9 10 11 11 12 15 13 16 14
REMARK SMILES IDX 17 15 12 17 13 18 14 19
REMARK H PARENT
REMARK Flexibility Score: 70.00
ROOT
ATOM      1  C   UNL     1      11.409 -11.444  14.545  1.00  0.00     0.136 C 
ATOM      2  O   UNL     1      10.574 -10.562  14.400  1.00  0.00    -0.299 OA
ENDROOT
BRANCH   1   3
ATOM      3  C   UNL     1      12.152 -11.980  13.337  1.00  0.00     0.053 C 
ATOM      4  C   UNL     1      11.174 -12.273  12.190  1.00  0.00     0.016 C 
BRANCH   3   5
ATOM      5  C   UNL     1      12.951 -13.245  13.720  1.00  0.00     0.015 C 
BRANCH   5   6
ATOM      6  C   UNL     1      12.163 -14.540  13.441  1.00  0.00     0.028 C 
BRANCH   6   7
ATOM      7  C   UNL     1      12.250 -15.497  14.601  1.00  0.00    -0.028 C 
ATOM      8  C   UNL     1      11.343 -15.598  15.599  1.00  0.00    -0.070 CG0
ATOM      9  C   UNL     1      11.561 -16.659  16.649  1.00  0.00     0.039 C 
ATOM     10  G   UNL     1      10.115 -14.708  15.705  1.00  0.00     0.000 G0
ENDBRANCH   6   7
ENDBRANCH   5   6
ENDBRANCH   3   5
ENDBRANCH   1   3
BRANCH   1  11
ATOM     11  C   UNL     1      11.682 -11.977  15.932  1.00  0.00     0.087 C 
BRANCH  11  12
ATOM     12  C   UNL     1      10.379 -12.259  16.726  1.00  0.00     0.066 C 
BRANCH  12  13
ATOM     13  C   UNL     1      10.168 -13.757  16.911  1.00  0.00     0.140 C 
ATOM     14  O   UNL     1      10.113 -14.207  18.047  1.00  0.00    -0.299 OA
BRANCH  13  15
ATOM     15  C   UNL     1      10.099 -14.708  15.738  1.00  0.00     0.106 CG0
ATOM     16  G   UNL     1      11.349 -15.564  15.614  1.00  0.00     0.000 G0
ENDBRANCH  13  15
ENDBRANCH  12  13
BRANCH  12  17
ATOM     17  C   UNL     1      10.318 -11.499  18.090  1.00  0.00    -0.006 C 
ATOM     18  C   UNL     1       9.352 -10.303  18.015  1.00  0.00     0.008 C 
ATOM     19  C   UNL     1      11.700 -10.988  18.540  1.00  0.00     0.008 C 
ENDBRANCH  12  17
ENDBRANCH  11  12
ENDBRANCH   1  11
TORSDOF 1
ENDMDL
MODEL 6
REMARK VINA RESULT:    -3.574      1.959      2.500
REMARK INTER + INTRA:          -5.380
REMARK INTER:                  -6.179
REMARK INTRA:                   0.799
REMARK UNBOUND:                 0.075
REMARK SMILES CC1=CCC[C@@H](C)C(=O)C[C@H](C(C)C)C(=O)C1
REMARK SMILES IDX 8 1 9 2 6 3 7 4 5 5 4 6 3 7 2 8 1 9 10 11 11 12 15 13 16 14
REMARK SMILES IDX 17 15 12 17 13 18 14 19
REMARK H PARENT
REMARK Flexibility Score: 70.00
ROOT
ATOM      1  C   UNL     1      -1.702 -25.841  14.037  1.00  0.00     0.136 C 
ATOM      2  O   UNL     1      -2.806 -26.289  14.314  1.00  0.00    -0.299 OA
ENDROOT
BRANCH   1   3
ATOM      3  C   UNL     1      -1.023 -24.876  14.989  1.00  0.00     0.053 C 
ATOM      4  C   UNL     1      -1.379 -23.425  14.629  1.00  0.00     0.016 C 
BRANCH   3   5
ATOM      5  C   UNL     1       0.506 -25.093  14.968  1.00  0.00     0.015 C 
BRANCH   5   6
ATOM      6  C   UNL     1       0.980 -26.012  16.112  1.00  0.00     0.028 C 
BRANCH   6   7
ATOM      7  C   UNL     1      -0.164 -26.805  16.689  1.00  0.00    -0.028 C 
ATOM      8  C   UNL     1      -0.523 -28.050  16.301  1.00  0.00    -0.070 CG0
ATOM      9  C   UNL     1      -1.659 -28.719  17.034  1.00  0.00     0.039 C 
ATOM     10  G   UNL     1       0.168 -28.807  15.178  1.00  0.00     0.000 G0
ENDBRANCH   6   7
ENDBRANCH   5   6
ENDBRANCH   3   5
ENDBRANCH   1   3
BRANCH   1  11
ATOM     11  C   UNL     1      -1.039 -26.266  12.747  1.00  0.00     0.087 C 
BRANCH  11  12
ATOM     12  C   UNL     1       0.081 -27.316  12.975  1.00  0.00     0.066 C 
BRANCH  12  13
ATOM     13  C   UNL     1      -0.428 -28.482  13.815  1.00  0.00     0.140 C 
ATOM     14  O   UNL     1      -1.386 -29.124  13.408  1.00  0.00    -0.299 OA
BRANCH  13  15
ATOM     15  C   UNL     1       0.167 -28.820  15.163  1.00  0.00     0.106 CG0
ATOM     16  G   UNL     1      -0.510 -28.067  16.297  1.00  0.00     0.000 G0
ENDBRANCH  13  15
ENDBRANCH  12  13
BRANCH  12  17
ATOM     17  C   UNL     1       0.734 -27.810  11.644  1.00  0.00    -0.006 C 
ATOM     18  C   UNL     1       1.715 -28.967  11.907  1.00  0.00     0.008 C 
ATOM     19  C   UNL     1       1.484 -26.687  10.905  1.00  0.00     0.008 C 
ENDBRANCH  12  17
ENDBRANCH  11  12
ENDBRANCH   1  11
TORSDOF 1
ENDMDL
MODEL 7
REMARK VINA RESULT:    -3.545     16.523     18.506
REMARK INTER + INTRA:          -5.336
REMARK INTER:                  -5.618
REMARK INTRA:                   0.282
REMARK UNBOUND:                 0.075
REMARK SMILES CC1=CCC[C@@H](C)C(=O)C[C@H](C(C)C)C(=O)C1
REMARK SMILES IDX 8 1 9 2 6 3 7 4 5 5 4 6 3 7 2 8 1 9 10 11 11 12 15 13 16 14
REMARK SMILES IDX 17 15 12 17 13 18 14 19
REMARK H PARENT
REMARK Flexibility Score: 70.00
ROOT
ATOM      1  C   UNL     1      11.668 -15.469  15.016  1.00  0.00     0.136 C 
ATOM      2  O   UNL     1      10.788 -15.736  14.210  1.00  0.00    -0.299 OA
ENDROOT
BRANCH   1   3
ATOM      3  C   UNL     1      11.982 -16.442  16.135  1.00  0.00     0.053 C 
ATOM      4  C   UNL     1      12.055 -17.878  15.596  1.00  0.00     0.016 C 
BRANCH   3   5
ATOM      5  C   UNL     1      10.925 -16.325  17.256  1.00  0.00     0.015 C 
BRANCH   5   6
ATOM      6  C   UNL     1       9.951 -15.154  17.018  1.00  0.00     0.028 C 
BRANCH   6   7
ATOM      7  C   UNL     1      10.248 -13.996  17.935  1.00  0.00    -0.028 C 
ATOM      8  C   UNL     1      10.218 -12.692  17.579  1.00  0.00    -0.070 CG0
ATOM      9  C   UNL     1      10.485 -11.661  18.648  1.00  0.00     0.039 C 
ATOM     10  G   UNL     1       9.917 -12.218  16.166  1.00  0.00     0.000 G0
ENDBRANCH   6   7
ENDBRANCH   5   6
ENDBRANCH   3   5
ENDBRANCH   1   3
BRANCH   1  11
ATOM     11  C   UNL     1      12.428 -14.171  14.872  1.00  0.00     0.087 C 
BRANCH  11  12
ATOM     12  C   UNL     1      11.559 -13.040  14.258  1.00  0.00     0.066 C 
BRANCH  12  13
ATOM     13  C   UNL     1      11.164 -12.021  15.320  1.00  0.00     0.140 C 
ATOM     14  O   UNL     1      11.908 -11.073  15.530  1.00  0.00    -0.299 OA
BRANCH  13  15
ATOM     15  C   UNL     1       9.923 -12.185  16.168  1.00  0.00     0.106 CG0
ATOM     16  G   UNL     1      10.240 -12.705  17.561  1.00  0.00     0.000 G0
ENDBRANCH  13  15
ENDBRANCH  12  13
BRANCH  12  17
ATOM     17  C   UNL     1      12.231 -12.354  13.026  1.00  0.00    -0.006 C 
ATOM     18  C   UNL     1      11.210 -11.518  12.233  1.00  0.00     0.008 C 
ATOM     19  C   UNL     1      12.884 -13.370  12.071  1.00  0.00     0.008 C 
ENDBRANCH  12  17
ENDBRANCH  11  12
ENDBRANCH   1  11
TORSDOF 1
ENDMDL
MODEL 8
REMARK VINA RESULT:    -3.469      2.454      3.976
REMARK INTER + INTRA:          -5.219
REMARK INTER:                  -5.290
REMARK INTRA:                   0.071
REMARK UNBOUND:                 0.075
REMARK SMILES CC1=CCC[C@@H](C)C(=O)C[C@H](C(C)C)C(=O)C1
REMARK SMILES IDX 8 1 9 2 6 3 7 4 5 5 4 6 3 7 2 8 1 9 10 11 11 12 15 13 16 14
REMARK SMILES IDX 17 15 12 17 13 18 14 19
REMARK H PARENT
REMARK Flexibility Score: 70.00
ROOT
ATOM      1  C   UNL     1      -2.486 -25.423  14.028  1.00  0.00     0.136 C 
ATOM      2  O   UNL     1      -2.948 -25.029  12.966  1.00  0.00    -0.299 OA
ENDROOT
BRANCH   1   3
ATOM      3  C   UNL     1      -1.513 -24.548  14.794  1.00  0.00     0.053 C 
ATOM      4  C   UNL     1      -1.796 -23.063  14.523  1.00  0.00     0.016 C 
BRANCH   3   5
ATOM      5  C   UNL     1      -0.060 -24.913  14.421  1.00  0.00     0.015 C 
BRANCH   5   6
ATOM      6  C   UNL     1       0.811 -25.185  15.664  1.00  0.00     0.028 C 
BRANCH   6   7
ATOM      7  C   UNL     1       1.480 -26.532  15.583  1.00  0.00    -0.028 C 
ATOM      8  C   UNL     1       0.982 -27.682  16.092  1.00  0.00    -0.070 CG0
ATOM      9  C   UNL     1       1.761 -28.953  15.863  1.00  0.00     0.039 C 
ATOM     10  G   UNL     1      -0.324 -27.756  16.867  1.00  0.00     0.000 G0
ENDBRANCH   6   7
ENDBRANCH   5   6
ENDBRANCH   3   5
ENDBRANCH   1   3
BRANCH   1  11
ATOM     11  C   UNL     1      -2.902 -26.777  14.554  1.00  0.00     0.087 C 
BRANCH  11  12
ATOM     12  C   UNL     1      -1.728 -27.791  14.576  1.00  0.00     0.066 C 
BRANCH  12  13
ATOM     13  C   UNL     1      -1.472 -28.297  15.992  1.00  0.00     0.140 C 
ATOM     14  O   UNL     1      -2.236 -29.125  16.467  1.00  0.00    -0.299 OA
BRANCH  13  15
ATOM     15  C   UNL     1      -0.350 -27.753  16.847  1.00  0.00     0.106 CG0
ATOM     16  G   UNL     1       0.975 -27.709  16.102  1.00  0.00     0.000 G0
ENDBRANCH  13  15
ENDBRANCH  12  13
BRANCH  12  17
ATOM     17  C   UNL     1      -1.922 -28.973  13.572  1.00  0.00    -0.006 C 
ATOM     18  C   UNL     1      -0.872 -28.921  12.448  1.00  0.00     0.008 C 
ATOM     19  C   UNL     1      -3.324 -28.980  12.937  1.00  0.00     0.008 C 
ENDBRANCH  12  17
ENDBRANCH  11  12
ENDBRANCH   1  11
TORSDOF 1
ENDMDL
MODEL 9
REMARK VINA RESULT:    -3.148      2.022      3.914
REMARK INTER + INTRA:          -4.730
REMARK INTER:                  -5.219
REMARK INTRA:                   0.489
REMARK UNBOUND:                 0.075
REMARK SMILES CC1=CCC[C@@H](C)C(=O)C[C@H](C(C)C)C(=O)C1
REMARK SMILES IDX 8 1 9 2 6 3 7 4 5 5 4 6 3 7 2 8 1 9 10 11 11 12 15 13 16 14
REMARK SMILES IDX 17 15 12 17 13 18 14 19
REMARK H PARENT
REMARK Flexibility Score: 70.00
ROOT
ATOM      1  C   UNL     1      -2.207 -25.554  14.236  1.00  0.00     0.136 C 
ATOM      2  O   UNL     1      -2.969 -25.011  13.448  1.00  0.00    -0.299 OA
ENDROOT
BRANCH   1   3
ATOM      3  C   UNL     1      -1.045 -24.771  14.816  1.00  0.00     0.053 C 
ATOM      4  C   UNL     1      -1.519 -23.403  15.327  1.00  0.00     0.016 C 
BRANCH   3   5
ATOM      5  C   UNL     1       0.071 -24.612  13.760  1.00  0.00     0.015 C 
BRANCH   5   6
ATOM      6  C   UNL     1       0.968 -25.862  13.667  1.00  0.00     0.028 C 
BRANCH   6   7
ATOM      7  C   UNL     1       0.869 -26.510  12.310  1.00  0.00    -0.028 C 
ATOM      8  C   UNL     1       0.680 -27.831  12.088  1.00  0.00    -0.070 CG0
ATOM      9  C   UNL     1       0.544 -28.296  10.660  1.00  0.00     0.039 C 
ATOM     10  G   UNL     1       0.585 -28.860  13.203  1.00  0.00     0.000 G0
ENDBRANCH   6   7
ENDBRANCH   5   6
ENDBRANCH   3   5
ENDBRANCH   1   3
BRANCH   1  11
ATOM     11  C   UNL     1      -2.447 -26.996  14.616  1.00  0.00     0.087 C 
BRANCH  11  12
ATOM     12  C   UNL     1      -1.891 -27.988  13.559  1.00  0.00     0.066 C 
BRANCH  12  13
ATOM     13  C   UNL     1      -0.634 -28.682  14.073  1.00  0.00     0.140 C 
ATOM     14  O   UNL     1      -0.598 -29.044  15.241  1.00  0.00    -0.299 OA
BRANCH  13  15
ATOM     15  C   UNL     1       0.590 -28.869  13.205  1.00  0.00     0.106 CG0
ATOM     16  G   UNL     1       0.672 -27.837  12.092  1.00  0.00     0.000 G0
ENDBRANCH  13  15
ENDBRANCH  12  13
BRANCH  12  17
ATOM     17  C   UNL     1      -2.957 -29.021  13.071  1.00  0.00    -0.006 C 
ATOM     18  C   UNL     1      -2.964 -29.125  11.536  1.00  0.00     0.008 C 
ATOM     19  C   UNL     1      -4.378 -28.669  13.548  1.00  0.00     0.008 C 
ENDBRANCH  12  17
ENDBRANCH  11  12
ENDBRANCH   1  11
TORSDOF 1
ENDMDL
