MODEL 1
REMARK VINA RESULT:    -3.929      0.000      0.000
REMARK INTER + INTRA:          -5.335
REMARK INTER:                  -5.537
REMARK INTRA:                   0.201
REMARK UNBOUND:                 0.201
REMARK SMILES CC1=CCC(=C(C)C)C(=O)CC(C)=CCC1
REMARK SMILES IDX 12 1 14 2 13 3 15 4 16 5 2 6 1 7 3 8 11 10 9 11 10 12 5 13
REMARK SMILES IDX 6 14 7 15 8 16 4 17
REMARK H PARENT
REMARK Flexibility Score: 60.00
ROOT
ATOM      1  C   UNL     1      -6.507  37.400  -2.578  1.00  0.00    -0.070 C 
ATOM      2  C   UNL     1      -7.234  37.576  -3.704  1.00  0.00    -0.027 C 
ATOM      3  C   UNL     1      -5.030  37.132  -2.727  1.00  0.00     0.039 C 
ENDROOT
BRANCH   2   4
ATOM      4  C   UNL     1      -8.696  37.961  -3.760  1.00  0.00     0.032 C 
BRANCH   4   5
ATOM      5  C   UNL     1      -9.684  36.800  -3.520  1.00  0.00     0.034 C 
BRANCH   5   6
ATOM      6  C   UNL     1     -10.695  37.092  -2.425  1.00  0.00    -0.077 C 
ATOM      7  C   UNL     1     -11.740  38.143  -2.699  1.00  0.00     0.039 C 
ATOM      8  C   UNL     1     -10.754  36.429  -1.244  1.00  0.00    -0.023 CG0
ATOM      9  G   UNL     1      -9.802  35.361  -0.745  1.00  0.00     0.000 G0
ENDBRANCH   5   6
ENDBRANCH   4   5
ENDBRANCH   2   4
BRANCH   1  10
ATOM     10  C   UNL     1      -7.083  37.548  -1.184  1.00  0.00     0.111 C 
BRANCH  10  11
ATOM     11  C   UNL     1      -7.391  36.209  -0.566  1.00  0.00     0.163 C 
ATOM     12  O   UNL     1      -6.496  35.324  -0.588  1.00  0.00    -0.294 OA
BRANCH  11  13
ATOM     13  C   UNL     1      -8.685  35.925   0.122  1.00  0.00    -0.002 C 
ATOM     14  C   UNL     1      -8.864  36.252   1.437  1.00  0.00    -0.069 C 
ATOM     15  C   UNL     1     -10.207  36.118   2.121  1.00  0.00     0.039 C 
ATOM     16  C   UNL     1      -7.718  36.771   2.278  1.00  0.00     0.039 C 
BRANCH  13  17
ATOM     17  C   UNL     1      -9.810  35.350  -0.724  1.00  0.00     0.066 CG0
ATOM     18  G   UNL     1     -10.746  36.422  -1.246  1.00  0.00     0.000 G0
ENDBRANCH  13  17
ENDBRANCH  11  13
ENDBRANCH  10  11
ENDBRANCH   1  10
TORSDOF 0
ENDMDL
MODEL 2
REMARK VINA RESULT:    -3.855      1.742      3.623
REMARK INTER + INTRA:          -5.231
REMARK INTER:                  -5.344
REMARK INTRA:                   0.113
REMARK UNBOUND:                 0.201
REMARK SMILES CC1=CCC(=C(C)C)C(=O)CC(C)=CCC1
REMARK SMILES IDX 12 1 14 2 13 3 15 4 16 5 2 6 1 7 3 8 11 10 9 11 10 12 5 13
REMARK SMILES IDX 6 14 7 15 8 16 4 17
REMARK H PARENT
REMARK Flexibility Score: 60.00
ROOT
ATOM      1  C   UNL     1      -9.292  37.448  -3.413  1.00  0.00    -0.070 C 
ATOM      2  C   UNL     1      -8.076  37.601  -3.982  1.00  0.00    -0.027 C 
ATOM      3  C   UNL     1     -10.424  36.966  -4.286  1.00  0.00     0.039 C 
ENDROOT
BRANCH   2   4
ATOM      4  C   UNL     1      -6.800  37.965  -3.256  1.00  0.00     0.032 C 
BRANCH   4   5
ATOM      5  C   UNL     1      -6.097  36.789  -2.547  1.00  0.00     0.034 C 
BRANCH   5   6
ATOM      6  C   UNL     1      -5.637  37.127  -1.141  1.00  0.00    -0.077 C 
ATOM      7  C   UNL     1      -4.505  38.111  -0.990  1.00  0.00     0.039 C 
ATOM      8  C   UNL     1      -6.215  36.647  -0.012  1.00  0.00    -0.023 CG0
ATOM      9  G   UNL     1      -7.341  35.636   0.081  1.00  0.00     0.000 G0
ENDBRANCH   5   6
ENDBRANCH   4   5
ENDBRANCH   2   4
BRANCH   1  10
ATOM     10  C   UNL     1      -9.549  37.648  -1.933  1.00  0.00     0.111 C 
BRANCH  10  11
ATOM     11  C   UNL     1      -9.455  36.350  -1.173  1.00  0.00     0.163 C 
ATOM     12  O   UNL     1      -9.965  35.321  -1.690  1.00  0.00    -0.294 OA
BRANCH  11  13
ATOM     13  C   UNL     1      -8.728  36.235   0.125  1.00  0.00    -0.002 C 
ATOM     14  C   UNL     1      -9.329  36.599   1.297  1.00  0.00    -0.069 C 
ATOM     15  C   UNL     1      -8.679  36.353   2.641  1.00  0.00     0.039 C 
ATOM     16  C   UNL     1     -10.685  37.269   1.307  1.00  0.00     0.039 C 
BRANCH  13  17
ATOM     17  C   UNL     1      -7.342  35.611   0.092  1.00  0.00     0.066 CG0
ATOM     18  G   UNL     1      -6.243  36.650  -0.004  1.00  0.00     0.000 G0
ENDBRANCH  13  17
ENDBRANCH  11  13
ENDBRANCH  10  11
ENDBRANCH   1  10
TORSDOF 0
ENDMDL
MODEL 3
REMARK VINA RESULT:    -3.806      1.741      4.064
REMARK INTER + INTRA:          -5.162
REMARK INTER:                  -5.365
REMARK INTRA:                   0.202
REMARK UNBOUND:                 0.201
REMARK SMILES CC1=CCC(=C(C)C)C(=O)CC(C)=CCC1
REMARK SMILES IDX 12 1 14 2 13 3 15 4 16 5 2 6 1 7 3 8 11 10 9 11 10 12 5 13
REMARK SMILES IDX 6 14 7 15 8 16 4 17
REMARK H PARENT
REMARK Flexibility Score: 60.00
ROOT
ATOM      1  C   UNL     1      -6.423  37.544  -2.222  1.00  0.00    -0.070 C 
ATOM      2  C   UNL     1      -6.244  36.851  -1.076  1.00  0.00    -0.027 C 
ATOM      3  C   UNL     1      -5.376  38.562  -2.601  1.00  0.00     0.039 C 
ENDROOT
BRANCH   2   4
ATOM      4  C   UNL     1      -7.118  35.719  -0.583  1.00  0.00     0.032 C 
BRANCH   4   5
ATOM      5  C   UNL     1      -8.439  36.158   0.081  1.00  0.00     0.034 C 
BRANCH   5   6
ATOM      6  C   UNL     1      -9.664  35.508  -0.538  1.00  0.00    -0.077 C 
ATOM      7  C   UNL     1      -9.846  34.025  -0.340  1.00  0.00     0.039 C 
ATOM      8  C   UNL     1     -10.632  36.184  -1.204  1.00  0.00    -0.023 CG0
ATOM      9  G   UNL     1     -10.651  37.661  -1.542  1.00  0.00     0.000 G0
ENDBRANCH   5   6
ENDBRANCH   4   5
ENDBRANCH   2   4
BRANCH   1  10
ATOM     10  C   UNL     1      -7.566  37.284  -3.182  1.00  0.00     0.111 C 
BRANCH  10  11
ATOM     11  C   UNL     1      -8.657  38.314  -3.037  1.00  0.00     0.163 C 
ATOM     12  O   UNL     1      -8.331  39.530  -3.048  1.00  0.00    -0.294 OA
BRANCH  11  13
ATOM     13  C   UNL     1     -10.100  37.942  -2.949  1.00  0.00    -0.002 C 
ATOM     14  C   UNL     1     -10.849  37.779  -4.080  1.00  0.00    -0.069 C 
ATOM     15  C   UNL     1     -12.269  37.257  -4.033  1.00  0.00     0.039 C 
ATOM     16  C   UNL     1     -10.290  38.113  -5.446  1.00  0.00     0.039 C 
BRANCH  13  17
ATOM     17  C   UNL     1     -10.663  37.665  -1.564  1.00  0.00     0.066 CG0
ATOM     18  G   UNL     1     -10.615  36.192  -1.206  1.00  0.00     0.000 G0
ENDBRANCH  13  17
ENDBRANCH  11  13
ENDBRANCH  10  11
ENDBRANCH   1  10
TORSDOF 0
ENDMDL
MODEL 4
REMARK VINA RESULT:    -3.676      4.810      8.235
REMARK INTER + INTRA:          -4.979
REMARK INTER:                  -5.313
REMARK INTRA:                   0.334
REMARK UNBOUND:                 0.201
REMARK SMILES CC1=CCC(=C(C)C)C(=O)CC(C)=CCC1
REMARK SMILES IDX 12 1 14 2 13 3 15 4 16 5 2 6 1 7 3 8 11 10 9 11 10 12 5 13
REMARK SMILES IDX 6 14 7 15 8 16 4 17
REMARK H PARENT
REMARK Flexibility Score: 60.00
ROOT
ATOM      1  C   UNL     1      -6.286  34.330   5.062  1.00  0.00    -0.070 C 
ATOM      2  C   UNL     1      -5.491  34.396   6.153  1.00  0.00    -0.027 C 
ATOM      3  C   UNL     1      -7.776  34.232   5.280  1.00  0.00     0.039 C 
ENDROOT
BRANCH   2   4
ATOM      4  C   UNL     1      -3.993  34.608   6.143  1.00  0.00     0.032 C 
BRANCH   4   5
ATOM      5  C   UNL     1      -3.539  36.020   5.720  1.00  0.00     0.034 C 
BRANCH   5   6
ATOM      6  C   UNL     1      -2.564  36.011   4.556  1.00  0.00    -0.077 C 
ATOM      7  C   UNL     1      -1.262  35.274   4.738  1.00  0.00     0.039 C 
ATOM      8  C   UNL     1      -2.813  36.572   3.347  1.00  0.00    -0.023 CG0
ATOM      9  G   UNL     1      -4.032  37.377   2.944  1.00  0.00     0.000 G0
ENDBRANCH   5   6
ENDBRANCH   4   5
ENDBRANCH   2   4
BRANCH   1  10
ATOM     10  C   UNL     1      -5.764  34.440   3.644  1.00  0.00     0.111 C 
BRANCH  10  11
ATOM     11  C   UNL     1      -6.061  35.791   3.047  1.00  0.00     0.163 C 
ATOM     12  O   UNL     1      -7.164  36.333   3.322  1.00  0.00    -0.294 OA
BRANCH  11  13
ATOM     13  C   UNL     1      -5.073  36.528   2.204  1.00  0.00    -0.002 C 
ATOM     14  C   UNL     1      -5.158  36.496   0.840  1.00  0.00    -0.069 C 
ATOM     15  C   UNL     1      -4.269  37.350  -0.038  1.00  0.00     0.039 C 
ATOM     16  C   UNL     1      -6.153  35.599   0.138  1.00  0.00     0.039 C 
BRANCH  13  17
ATOM     17  C   UNL     1      -4.042  37.380   2.927  1.00  0.00     0.066 CG0
ATOM     18  G   UNL     1      -2.821  36.583   3.340  1.00  0.00     0.000 G0
ENDBRANCH  13  17
ENDBRANCH  11  13
ENDBRANCH  10  11
ENDBRANCH   1  10
TORSDOF 0
ENDMDL
MODEL 5
REMARK VINA RESULT:    -3.506      2.054      5.065
REMARK INTER + INTRA:          -4.740
REMARK INTER:                  -5.279
REMARK INTRA:                   0.539
REMARK UNBOUND:                 0.201
REMARK SMILES CC1=CCC(=C(C)C)C(=O)CC(C)=CCC1
REMARK SMILES IDX 12 1 14 2 13 3 15 4 16 5 2 6 1 7 3 8 11 10 9 11 10 12 5 13
REMARK SMILES IDX 6 14 7 15 8 16 4 17
REMARK H PARENT
REMARK Flexibility Score: 60.00
ROOT
ATOM      1  C   UNL     1      -9.213  35.833   0.037  1.00  0.00    -0.070 C 
ATOM      2  C   UNL     1      -7.916  35.952   0.397  1.00  0.00    -0.027 C 
ATOM      3  C   UNL     1     -10.260  36.004   1.109  1.00  0.00     0.039 C 
ENDROOT
BRANCH   2   4
ATOM      4  C   UNL     1      -6.732  35.924  -0.545  1.00  0.00     0.032 C 
BRANCH   4   5
ATOM      5  C   UNL     1      -6.350  37.291  -1.150  1.00  0.00     0.034 C 
BRANCH   5   6
ATOM      6  C   UNL     1      -6.514  37.344  -2.659  1.00  0.00    -0.077 C 
ATOM      7  C   UNL     1      -5.417  36.750  -3.504  1.00  0.00     0.039 C 
ATOM      8  C   UNL     1      -7.608  37.836  -3.291  1.00  0.00    -0.023 CG0
ATOM      9  G   UNL     1      -8.813  38.498  -2.655  1.00  0.00     0.000 G0
ENDBRANCH   5   6
ENDBRANCH   4   5
ENDBRANCH   2   4
BRANCH   1  10
ATOM     10  C   UNL     1      -9.664  35.628  -1.395  1.00  0.00     0.111 C 
BRANCH  10  11
ATOM     11  C   UNL     1     -10.546  36.756  -1.865  1.00  0.00     0.163 C 
ATOM     12  O   UNL     1     -11.665  36.907  -1.308  1.00  0.00    -0.294 OA
BRANCH  11  13
ATOM     13  C   UNL     1     -10.112  37.728  -2.912  1.00  0.00    -0.002 C 
ATOM     14  C   UNL     1     -10.893  37.970  -4.006  1.00  0.00    -0.069 C 
ATOM     15  C   UNL     1     -10.558  39.057  -5.005  1.00  0.00     0.039 C 
ATOM     16  C   UNL     1     -12.142  37.160  -4.273  1.00  0.00     0.039 C 
BRANCH  13  17
ATOM     17  C   UNL     1      -8.824  38.495  -2.656  1.00  0.00     0.066 CG0
ATOM     18  G   UNL     1      -7.620  37.830  -3.294  1.00  0.00     0.000 G0
ENDBRANCH  13  17
ENDBRANCH  11  13
ENDBRANCH  10  11
ENDBRANCH   1  10
TORSDOF 0
ENDMDL
MODEL 6
REMARK VINA RESULT:    -3.489      8.079     10.702
REMARK INTER + INTRA:          -4.716
REMARK INTER:                  -4.944
REMARK INTRA:                   0.228
REMARK UNBOUND:                 0.201
REMARK SMILES CC1=CCC(=C(C)C)C(=O)CC(C)=CCC1
REMARK SMILES IDX 12 1 14 2 13 3 15 4 16 5 2 6 1 7 3 8 11 10 9 11 10 12 5 13
REMARK SMILES IDX 6 14 7 15 8 16 4 17
REMARK H PARENT
REMARK Flexibility Score: 60.00
ROOT
ATOM      1  C   UNL     1     -13.107  35.928   5.478  1.00  0.00    -0.070 C 
ATOM      2  C   UNL     1     -14.166  35.738   4.660  1.00  0.00    -0.027 C 
ATOM      3  C   UNL     1     -11.856  36.527   4.884  1.00  0.00     0.039 C 
ENDROOT
BRANCH   2   4
ATOM      4  C   UNL     1     -15.535  35.256   5.086  1.00  0.00     0.032 C 
BRANCH   4   5
ATOM      5  C   UNL     1     -16.538  36.374   5.438  1.00  0.00     0.034 C 
BRANCH   5   6
ATOM      6  C   UNL     1     -17.122  36.235   6.832  1.00  0.00    -0.077 C 
ATOM      7  C   UNL     1     -18.283  35.292   7.015  1.00  0.00     0.039 C 
ATOM      8  C   UNL     1     -16.632  36.859   7.932  1.00  0.00    -0.023 CG0
ATOM      9  G   UNL     1     -15.497  37.863   7.985  1.00  0.00     0.000 G0
ENDBRANCH   5   6
ENDBRANCH   4   5
ENDBRANCH   2   4
BRANCH   1  10
ATOM     10  C   UNL     1     -13.146  35.654   6.968  1.00  0.00     0.111 C 
BRANCH  10  11
ATOM     11  C   UNL     1     -13.112  36.931   7.767  1.00  0.00     0.163 C 
ATOM     12  O   UNL     1     -12.123  37.697   7.623  1.00  0.00    -0.294 OA
BRANCH  11  13
ATOM     13  C   UNL     1     -14.233  37.343   8.663  1.00  0.00    -0.002 C 
ATOM     14  C   UNL     1     -14.088  37.311  10.022  1.00  0.00    -0.069 C 
ATOM     15  C   UNL     1     -15.145  37.864  10.953  1.00  0.00     0.039 C 
ATOM     16  C   UNL     1     -12.853  36.719  10.665  1.00  0.00     0.039 C 
BRANCH  13  17
ATOM     17  C   UNL     1     -15.490  37.884   8.000  1.00  0.00     0.066 CG0
ATOM     18  G   UNL     1     -16.605  36.858   7.954  1.00  0.00     0.000 G0
ENDBRANCH  13  17
ENDBRANCH  11  13
ENDBRANCH  10  11
ENDBRANCH   1  10
TORSDOF 0
ENDMDL
MODEL 7
REMARK VINA RESULT:    -3.360      7.257     10.124
REMARK INTER + INTRA:          -4.534
REMARK INTER:                  -4.818
REMARK INTRA:                   0.284
REMARK UNBOUND:                 0.201
REMARK SMILES CC1=CCC(=C(C)C)C(=O)CC(C)=CCC1
REMARK SMILES IDX 12 1 14 2 13 3 15 4 16 5 2 6 1 7 3 8 11 10 9 11 10 12 5 13
REMARK SMILES IDX 6 14 7 15 8 16 4 17
REMARK H PARENT
REMARK Flexibility Score: 60.00
ROOT
ATOM      1  C   UNL     1      -2.037  37.272   5.959  1.00  0.00    -0.070 C 
ATOM      2  C   UNL     1      -2.183  37.482   7.286  1.00  0.00    -0.027 C 
ATOM      3  C   UNL     1      -2.762  38.199   5.015  1.00  0.00     0.039 C 
ENDROOT
BRANCH   2   4
ATOM      4  C   UNL     1      -1.456  36.736   8.383  1.00  0.00     0.032 C 
BRANCH   4   5
ATOM      5  C   UNL     1      -1.898  35.270   8.576  1.00  0.00     0.034 C 
BRANCH   5   6
ATOM      6  C   UNL     1      -3.399  35.077   8.450  1.00  0.00    -0.077 C 
ATOM      7  C   UNL     1      -4.272  35.636   9.543  1.00  0.00     0.039 C 
ATOM      8  C   UNL     1      -4.006  34.486   7.392  1.00  0.00    -0.023 CG0
ATOM      9  G   UNL     1      -3.337  33.834   6.198  1.00  0.00     0.000 G0
ENDBRANCH   5   6
ENDBRANCH   4   5
ENDBRANCH   2   4
BRANCH   1  10
ATOM     10  C   UNL     1      -1.116  36.218   5.379  1.00  0.00     0.111 C 
BRANCH  10  11
ATOM     11  C   UNL     1      -1.881  35.187   4.590  1.00  0.00     0.163 C 
ATOM     12  O   UNL     1      -1.315  34.660   3.596  1.00  0.00    -0.294 OA
BRANCH  11  13
ATOM     13  C   UNL     1      -3.246  34.730   4.983  1.00  0.00    -0.002 C 
ATOM     14  C   UNL     1      -4.337  35.055   4.226  1.00  0.00    -0.069 C 
ATOM     15  C   UNL     1      -5.709  34.483   4.511  1.00  0.00     0.039 C 
ATOM     16  C   UNL     1      -4.224  36.008   3.057  1.00  0.00     0.039 C 
BRANCH  13  17
ATOM     17  C   UNL     1      -3.351  33.817   6.195  1.00  0.00     0.066 CG0
ATOM     18  G   UNL     1      -3.986  34.509   7.385  1.00  0.00     0.000 G0
ENDBRANCH  13  17
ENDBRANCH  11  13
ENDBRANCH  10  11
ENDBRANCH   1  10
TORSDOF 0
ENDMDL
MODEL 8
REMARK VINA RESULT:    -3.260      2.069      2.818
REMARK INTER + INTRA:          -4.392
REMARK INTER:                  -4.670
REMARK INTRA:                   0.278
REMARK UNBOUND:                 0.201
REMARK SMILES CC1=CCC(=C(C)C)C(=O)CC(C)=CCC1
REMARK SMILES IDX 12 1 14 2 13 3 15 4 16 5 2 6 1 7 3 8 11 10 9 11 10 12 5 13
REMARK SMILES IDX 6 14 7 15 8 16 4 17
REMARK H PARENT
REMARK Flexibility Score: 60.00
ROOT
ATOM      1  C   UNL     1      -8.932  37.499  -4.189  1.00  0.00    -0.070 C 
ATOM      2  C   UNL     1      -9.857  37.825  -5.119  1.00  0.00    -0.027 C 
ATOM      3  C   UNL     1      -7.508  37.935  -4.428  1.00  0.00     0.039 C 
ENDROOT
BRANCH   2   4
ATOM      4  C   UNL     1     -11.345  37.576  -5.009  1.00  0.00     0.032 C 
BRANCH   4   5
ATOM      5  C   UNL     1     -12.091  38.513  -4.037  1.00  0.00     0.034 C 
BRANCH   5   6
ATOM      6  C   UNL     1     -12.901  37.768  -2.992  1.00  0.00    -0.077 C 
ATOM      7  C   UNL     1     -14.036  36.901  -3.472  1.00  0.00     0.039 C 
ATOM      8  C   UNL     1     -12.635  37.786  -1.663  1.00  0.00    -0.023 CG0
ATOM      9  G   UNL     1     -11.568  38.597  -0.954  1.00  0.00     0.000 G0
ENDBRANCH   5   6
ENDBRANCH   4   5
ENDBRANCH   2   4
BRANCH   1  10
ATOM     10  C   UNL     1      -9.271  36.803  -2.886  1.00  0.00     0.111 C 
BRANCH  10  11
ATOM     11  C   UNL     1      -9.243  37.760  -1.722  1.00  0.00     0.163 C 
ATOM     12  O   UNL     1      -8.316  38.610  -1.674  1.00  0.00    -0.294 OA
BRANCH  11  13
ATOM     13  C   UNL     1     -10.306  37.774  -0.674  1.00  0.00    -0.002 C 
ATOM     14  C   UNL     1     -10.111  37.147   0.525  1.00  0.00    -0.069 C 
ATOM     15  C   UNL     1     -11.101  37.270   1.663  1.00  0.00     0.039 C 
ATOM     16  C   UNL     1      -8.886  36.295   0.775  1.00  0.00     0.039 C 
BRANCH  13  17
ATOM     17  C   UNL     1     -11.556  38.589  -0.962  1.00  0.00     0.066 CG0
ATOM     18  G   UNL     1     -12.627  37.775  -1.661  1.00  0.00     0.000 G0
ENDBRANCH  13  17
ENDBRANCH  11  13
ENDBRANCH  10  11
ENDBRANCH   1  10
TORSDOF 0
ENDMDL
MODEL 9
REMARK VINA RESULT:    -3.144      7.521     10.540
REMARK INTER + INTRA:          -4.229
REMARK INTER:                  -4.672
REMARK INTRA:                   0.443
REMARK UNBOUND:                 0.201
REMARK SMILES CC1=CCC(=C(C)C)C(=O)CC(C)=CCC1
REMARK SMILES IDX 12 1 14 2 13 3 15 4 16 5 2 6 1 7 3 8 11 10 9 11 10 12 5 13
REMARK SMILES IDX 6 14 7 15 8 16 4 17
REMARK H PARENT
REMARK Flexibility Score: 60.00
ROOT
ATOM      1  C   UNL     1     -16.079  36.291   5.768  1.00  0.00    -0.070 C 
ATOM      2  C   UNL     1     -15.224  35.496   5.086  1.00  0.00    -0.027 C 
ATOM      3  C   UNL     1     -17.146  37.015   4.984  1.00  0.00     0.039 C 
ENDROOT
BRANCH   2   4
ATOM      4  C   UNL     1     -14.165  34.608   5.699  1.00  0.00     0.032 C 
BRANCH   4   5
ATOM      5  C   UNL     1     -12.723  34.897   5.230  1.00  0.00     0.034 C 
BRANCH   5   6
ATOM      6  C   UNL     1     -12.297  36.335   5.461  1.00  0.00    -0.077 C 
ATOM      7  C   UNL     1     -11.844  37.132   4.265  1.00  0.00     0.039 C 
ATOM      8  C   UNL     1     -12.352  36.965   6.660  1.00  0.00    -0.023 CG0
ATOM      9  G   UNL     1     -12.747  36.363   7.994  1.00  0.00     0.000 G0
ENDBRANCH   5   6
ENDBRANCH   4   5
ENDBRANCH   2   4
BRANCH   1  10
ATOM     10  C   UNL     1     -16.073  36.417   7.278  1.00  0.00     0.111 C 
BRANCH  10  11
ATOM     11  C   UNL     1     -15.062  37.431   7.746  1.00  0.00     0.163 C 
ATOM     12  O   UNL     1     -15.226  38.633   7.409  1.00  0.00    -0.294 OA
BRANCH  11  13
ATOM     13  C   UNL     1     -13.923  37.070   8.641  1.00  0.00    -0.002 C 
ATOM     14  C   UNL     1     -13.997  37.291   9.988  1.00  0.00    -0.069 C 
ATOM     15  C   UNL     1     -12.928  36.800  10.940  1.00  0.00     0.039 C 
ATOM     16  C   UNL     1     -15.161  38.040  10.597  1.00  0.00     0.039 C 
BRANCH  13  17
ATOM     17  C   UNL     1     -12.734  36.368   8.004  1.00  0.00     0.066 CG0
ATOM     18  G   UNL     1     -12.351  36.975   6.670  1.00  0.00     0.000 G0
ENDBRANCH  13  17
ENDBRANCH  11  13
ENDBRANCH  10  11
ENDBRANCH   1  10
TORSDOF 0
ENDMDL
