MODEL 1
REMARK VINA RESULT:    -5.841      0.000      0.000
REMARK INTER + INTRA:          -5.841
REMARK INTER:                  -5.841
REMARK INTRA:                   0.000
REMARK UNBOUND:                 0.000
REMARK SMILES O=c1ccc2ccccc2o1
REMARK SMILES IDX 7 1 8 2 9 3 10 4 5 5 6 6 4 7 3 8 2 9 1 10 11 11
REMARK H PARENT
REMARK Flexibility Score: inf
ROOT
ATOM      1  C   UNL     1      29.011  25.095  45.828  1.00  0.00     0.001 A 
ATOM      2  C   UNL     1      27.716  24.715  45.458  1.00  0.00     0.004 A 
ATOM      3  C   UNL     1      26.927  23.962  46.333  1.00  0.00     0.048 A 
ATOM      4  C   UNL     1      27.430  23.585  47.582  1.00  0.00     0.138 A 
ATOM      5  C   UNL     1      28.738  23.968  47.957  1.00  0.00     0.018 A 
ATOM      6  C   UNL     1      29.524  24.724  47.076  1.00  0.00     0.012 A 
ATOM      7  C   UNL     1      29.214  23.577  49.212  1.00  0.00     0.019 A 
ATOM      8  C   UNL     1      28.392  22.825  50.052  1.00  0.00     0.094 A 
ATOM      9  C   UNL     1      27.108  22.483  49.614  1.00  0.00     0.336 A 
ATOM     10  O   UNL     1      26.351  21.806  50.358  1.00  0.00    -0.246 OA
ATOM     11  O   UNL     1      26.679  22.868  48.415  1.00  0.00    -0.423 OA
ENDROOT
TORSDOF 0
ENDMDL
MODEL 2
REMARK VINA RESULT:    -5.705      1.643      2.374
REMARK INTER + INTRA:          -5.705
REMARK INTER:                  -5.705
REMARK INTRA:                   0.000
REMARK UNBOUND:                 0.000
REMARK SMILES O=c1ccc2ccccc2o1
REMARK SMILES IDX 7 1 8 2 9 3 10 4 5 5 6 6 4 7 3 8 2 9 1 10 11 11
REMARK H PARENT
REMARK Flexibility Score: inf
ROOT
ATOM      1  C   UNL     1      27.653  24.585  45.709  1.00  0.00     0.001 A 
ATOM      2  C   UNL     1      28.961  25.015  45.959  1.00  0.00     0.004 A 
ATOM      3  C   UNL     1      29.487  24.954  47.253  1.00  0.00     0.048 A 
ATOM      4  C   UNL     1      28.706  24.463  48.304  1.00  0.00     0.138 A 
ATOM      5  C   UNL     1      27.385  24.028  48.053  1.00  0.00     0.018 A 
ATOM      6  C   UNL     1      26.863  24.091  46.753  1.00  0.00     0.012 A 
ATOM      7  C   UNL     1      26.628  23.542  49.123  1.00  0.00     0.019 A 
ATOM      8  C   UNL     1      27.193  23.500  50.398  1.00  0.00     0.094 A 
ATOM      9  C   UNL     1      28.508  23.947  50.572  1.00  0.00     0.336 A 
ATOM     10  O   UNL     1      29.035  23.916  51.714  1.00  0.00    -0.246 OA
ATOM     11  O   UNL     1      29.207  24.405  49.537  1.00  0.00    -0.423 OA
ENDROOT
TORSDOF 0
ENDMDL
MODEL 3
REMARK VINA RESULT:    -5.692      1.445      3.901
REMARK INTER + INTRA:          -5.692
REMARK INTER:                  -5.692
REMARK INTRA:                   0.000
REMARK UNBOUND:                 0.000
REMARK SMILES O=c1ccc2ccccc2o1
REMARK SMILES IDX 7 1 8 2 9 3 10 4 5 5 6 6 4 7 3 8 2 9 1 10 11 11
REMARK H PARENT
REMARK Flexibility Score: inf
ROOT
ATOM      1  C   UNL     1      28.216  23.296  51.755  1.00  0.00     0.001 A 
ATOM      2  C   UNL     1      27.252  22.338  51.420  1.00  0.00     0.004 A 
ATOM      3  C   UNL     1      26.763  22.259  50.112  1.00  0.00     0.048 A 
ATOM      4  C   UNL     1      27.236  23.140  49.133  1.00  0.00     0.138 A 
ATOM      5  C   UNL     1      28.209  24.107  49.471  1.00  0.00     0.018 A 
ATOM      6  C   UNL     1      28.697  24.181  50.783  1.00  0.00     0.012 A 
ATOM      7  C   UNL     1      28.663  24.973  48.471  1.00  0.00     0.019 A 
ATOM      8  C   UNL     1      28.147  24.858  47.180  1.00  0.00     0.094 A 
ATOM      9  C   UNL     1      27.185  23.876  46.919  1.00  0.00     0.336 A 
ATOM     10  O   UNL     1      26.708  23.757  45.760  1.00  0.00    -0.246 OA
ATOM     11  O   UNL     1      26.770  23.064  47.888  1.00  0.00    -0.423 OA
ENDROOT
TORSDOF 0
ENDMDL
MODEL 4
REMARK VINA RESULT:    -5.646      1.938      4.354
REMARK INTER + INTRA:          -5.646
REMARK INTER:                  -5.646
REMARK INTRA:                   0.000
REMARK UNBOUND:                 0.000
REMARK SMILES O=c1ccc2ccccc2o1
REMARK SMILES IDX 7 1 8 2 9 3 10 4 5 5 6 6 4 7 3 8 2 9 1 10 11 11
REMARK H PARENT
REMARK Flexibility Score: inf
ROOT
ATOM      1  C   UNL     1      26.883  22.164  50.258  1.00  0.00     0.001 A 
ATOM      2  C   UNL     1      28.233  22.094  50.619  1.00  0.00     0.004 A 
ATOM      3  C   UNL     1      29.205  22.733  49.841  1.00  0.00     0.048 A 
ATOM      4  C   UNL     1      28.829  23.445  48.697  1.00  0.00     0.138 A 
ATOM      5  C   UNL     1      27.466  23.516  48.332  1.00  0.00     0.018 A 
ATOM      6  C   UNL     1      26.497  22.875  49.116  1.00  0.00     0.012 A 
ATOM      7  C   UNL     1      27.120  24.236  47.184  1.00  0.00     0.019 A 
ATOM      8  C   UNL     1      28.123  24.857  46.438  1.00  0.00     0.094 A 
ATOM      9  C   UNL     1      29.452  24.743  46.861  1.00  0.00     0.336 A 
ATOM     10  O   UNL     1      30.370  25.297  46.201  1.00  0.00    -0.246 OA
ATOM     11  O   UNL     1      29.753  24.053  47.957  1.00  0.00    -0.423 OA
ENDROOT
TORSDOF 0
ENDMDL
MODEL 5
REMARK VINA RESULT:    -5.605      1.450      2.447
REMARK INTER + INTRA:          -5.605
REMARK INTER:                  -5.605
REMARK INTRA:                   0.000
REMARK UNBOUND:                 0.000
REMARK SMILES O=c1ccc2ccccc2o1
REMARK SMILES IDX 7 1 8 2 9 3 10 4 5 5 6 6 4 7 3 8 2 9 1 10 11 11
REMARK H PARENT
REMARK Flexibility Score: inf
ROOT
ATOM      1  C   UNL     1      30.985  24.765  46.532  1.00  0.00     0.001 A 
ATOM      2  C   UNL     1      31.541  23.715  47.269  1.00  0.00     0.004 A 
ATOM      3  C   UNL     1      30.776  23.047  48.232  1.00  0.00     0.048 A 
ATOM      4  C   UNL     1      29.450  23.429  48.460  1.00  0.00     0.138 A 
ATOM      5  C   UNL     1      28.887  24.491  47.716  1.00  0.00     0.018 A 
ATOM      6  C   UNL     1      29.659  25.155  46.752  1.00  0.00     0.012 A 
ATOM      7  C   UNL     1      27.560  24.850  47.967  1.00  0.00     0.019 A 
ATOM      8  C   UNL     1      26.834  24.156  48.936  1.00  0.00     0.094 A 
ATOM      9  C   UNL     1      27.458  23.116  49.634  1.00  0.00     0.336 A 
ATOM     10  O   UNL     1      26.819  22.478  50.512  1.00  0.00    -0.246 OA
ATOM     11  O   UNL     1      28.722  22.794  49.376  1.00  0.00    -0.423 OA
ENDROOT
TORSDOF 0
ENDMDL
MODEL 6
REMARK VINA RESULT:    -5.467      1.346      1.562
REMARK INTER + INTRA:          -5.467
REMARK INTER:                  -5.467
REMARK INTRA:                   0.000
REMARK UNBOUND:                 0.000
REMARK SMILES O=c1ccc2ccccc2o1
REMARK SMILES IDX 7 1 8 2 9 3 10 4 5 5 6 6 4 7 3 8 2 9 1 10 11 11
REMARK H PARENT
REMARK Flexibility Score: inf
ROOT
ATOM      1  C   UNL     1      28.138  24.804  46.626  1.00  0.00     0.001 A 
ATOM      2  C   UNL     1      27.212  23.760  46.532  1.00  0.00     0.004 A 
ATOM      3  C   UNL     1      26.839  23.044  47.674  1.00  0.00     0.048 A 
ATOM      4  C   UNL     1      27.393  23.369  48.917  1.00  0.00     0.138 A 
ATOM      5  C   UNL     1      28.329  24.424  49.013  1.00  0.00     0.018 A 
ATOM      6  C   UNL     1      28.698  25.138  47.864  1.00  0.00     0.012 A 
ATOM      7  C   UNL     1      28.865  24.727  50.268  1.00  0.00     0.019 A 
ATOM      8  C   UNL     1      28.465  23.986  51.380  1.00  0.00     0.094 A 
ATOM      9  C   UNL     1      27.533  22.956  51.209  1.00  0.00     0.336 A 
ATOM     10  O   UNL     1      27.159  22.277  52.201  1.00  0.00    -0.246 OA
ATOM     11  O   UNL     1      27.038  22.688  50.004  1.00  0.00    -0.423 OA
ENDROOT
TORSDOF 0
ENDMDL
MODEL 7
REMARK VINA RESULT:    -5.283     11.950     13.368
REMARK INTER + INTRA:          -5.283
REMARK INTER:                  -5.283
REMARK INTRA:                   0.000
REMARK UNBOUND:                 0.000
REMARK SMILES O=c1ccc2ccccc2o1
REMARK SMILES IDX 7 1 8 2 9 3 10 4 5 5 6 6 4 7 3 8 2 9 1 10 11 11
REMARK H PARENT
REMARK Flexibility Score: inf
ROOT
ATOM      1  C   UNL     1      14.993  18.130  45.360  1.00  0.00     0.001 A 
ATOM      2  C   UNL     1      16.322  17.731  45.181  1.00  0.00     0.004 A 
ATOM      3  C   UNL     1      17.231  18.578  44.538  1.00  0.00     0.048 A 
ATOM      4  C   UNL     1      16.812  19.828  44.069  1.00  0.00     0.138 A 
ATOM      5  C   UNL     1      15.469  20.231  44.249  1.00  0.00     0.018 A 
ATOM      6  C   UNL     1      14.564  19.378  44.896  1.00  0.00     0.012 A 
ATOM      7  C   UNL     1      15.080  21.486  43.770  1.00  0.00     0.019 A 
ATOM      8  C   UNL     1      16.020  22.297  43.134  1.00  0.00     0.094 A 
ATOM      9  C   UNL     1      17.332  21.832  42.992  1.00  0.00     0.336 A 
ATOM     10  O   UNL     1      18.194  22.550  42.421  1.00  0.00    -0.246 OA
ATOM     11  O   UNL     1      17.677  20.634  43.457  1.00  0.00    -0.423 OA
ENDROOT
TORSDOF 0
ENDMDL
MODEL 8
REMARK VINA RESULT:    -5.245     12.339     13.307
REMARK INTER + INTRA:          -5.245
REMARK INTER:                  -5.245
REMARK INTRA:                   0.000
REMARK UNBOUND:                 0.000
REMARK SMILES O=c1ccc2ccccc2o1
REMARK SMILES IDX 7 1 8 2 9 3 10 4 5 5 6 6 4 7 3 8 2 9 1 10 11 11
REMARK H PARENT
REMARK Flexibility Score: inf
ROOT
ATOM      1  C   UNL     1      17.014  21.902  42.989  1.00  0.00     0.001 A 
ATOM      2  C   UNL     1      15.663  22.234  43.135  1.00  0.00     0.004 A 
ATOM      3  C   UNL     1      14.788  21.355  43.783  1.00  0.00     0.048 A 
ATOM      4  C   UNL     1      15.262  20.140  44.287  1.00  0.00     0.138 A 
ATOM      5  C   UNL     1      16.627  19.804  44.140  1.00  0.00     0.018 A 
ATOM      6  C   UNL     1      17.499  20.689  43.490  1.00  0.00     0.012 A 
ATOM      7  C   UNL     1      17.072  18.583  44.655  1.00  0.00     0.019 A 
ATOM      8  C   UNL     1      16.164  17.738  45.293  1.00  0.00     0.094 A 
ATOM      9  C   UNL     1      14.828  18.137  45.403  1.00  0.00     0.336 A 
ATOM     10  O   UNL     1      13.994  17.388  45.976  1.00  0.00    -0.246 OA
ATOM     11  O   UNL     1      14.430  19.304  44.905  1.00  0.00    -0.423 OA
ENDROOT
TORSDOF 0
ENDMDL
MODEL 9
REMARK VINA RESULT:    -5.132      2.128      2.739
REMARK INTER + INTRA:          -5.132
REMARK INTER:                  -5.132
REMARK INTRA:                   0.000
REMARK UNBOUND:                 0.000
REMARK SMILES O=c1ccc2ccccc2o1
REMARK SMILES IDX 7 1 8 2 9 3 10 4 5 5 6 6 4 7 3 8 2 9 1 10 11 11
REMARK H PARENT
REMARK Flexibility Score: inf
ROOT
ATOM      1  C   UNL     1      27.706  24.869  47.238  1.00  0.00     0.001 A 
ATOM      2  C   UNL     1      26.893  24.748  48.371  1.00  0.00     0.004 A 
ATOM      3  C   UNL     1      27.355  24.064  49.500  1.00  0.00     0.048 A 
ATOM      4  C   UNL     1      28.634  23.496  49.499  1.00  0.00     0.138 A 
ATOM      5  C   UNL     1      29.455  23.617  48.356  1.00  0.00     0.018 A 
ATOM      6  C   UNL     1      28.987  24.305  47.228  1.00  0.00     0.012 A 
ATOM      7  C   UNL     1      30.728  23.040  48.386  1.00  0.00     0.019 A 
ATOM      8  C   UNL     1      31.147  22.366  49.533  1.00  0.00     0.094 A 
ATOM      9  C   UNL     1      30.280  22.287  50.628  1.00  0.00     0.336 A 
ATOM     10  O   UNL     1      30.641  21.683  51.672  1.00  0.00    -0.246 OA
ATOM     11  O   UNL     1      29.074  22.845  50.574  1.00  0.00    -0.423 OA
ENDROOT
TORSDOF 0
ENDMDL
