MODEL 1
REMARK VINA RESULT:    -3.321      0.000      0.000
REMARK INTER + INTRA:          -4.016
REMARK INTER:                  -3.904
REMARK INTRA:                  -0.113
REMARK UNBOUND:                -0.113
REMARK SMILES O=C([O-])CCC(=O)[O-]
REMARK SMILES IDX 4 1 2 2 1 3 3 4 5 5 6 6 7 7 8 8
REMARK H PARENT
REMARK Flexibility Score: inf
ROOT
ATOM      1  C   UNL     1      -5.687   7.615  -6.424  1.00  0.00     0.059 C 
ENDROOT
BRANCH   1   2
ATOM      2  C   UNL     1      -4.262   7.183  -6.283  1.00  0.00     0.042 C 
ATOM      3  O   UNL     1      -3.432   7.429  -7.199  1.00  0.00    -0.550 OA
ATOM      4  O   UNL     1      -3.859   6.467  -5.164  1.00  0.00    -0.550 OA
ENDBRANCH   1   2
BRANCH   1   5
ATOM      5  C   UNL     1      -6.263   7.135  -7.757  1.00  0.00     0.059 C 
BRANCH   5   6
ATOM      6  C   UNL     1      -6.836   5.760  -7.614  1.00  0.00     0.042 C 
ATOM      7  O   UNL     1      -6.134   4.750  -7.884  1.00  0.00    -0.550 OA
ATOM      8  O   UNL     1      -8.161   5.595  -7.231  1.00  0.00    -0.550 OA
ENDBRANCH   5   6
ENDBRANCH   1   5
TORSDOF 3
ENDMDL
MODEL 2
REMARK VINA RESULT:    -3.316      0.095      1.147
REMARK INTER + INTRA:          -4.010
REMARK INTER:                  -3.888
REMARK INTRA:                  -0.123
REMARK UNBOUND:                -0.113
REMARK SMILES O=C([O-])CCC(=O)[O-]
REMARK SMILES IDX 4 1 2 2 1 3 3 4 5 5 6 6 7 7 8 8
REMARK H PARENT
REMARK Flexibility Score: inf
ROOT
ATOM      1  C   UNL     1      -5.655   7.665  -6.404  1.00  0.00     0.059 C 
ENDROOT
BRANCH   1   2
ATOM      2  C   UNL     1      -4.252   7.163  -6.286  1.00  0.00     0.042 C 
ATOM      3  O   UNL     1      -3.425   7.363  -7.215  1.00  0.00    -0.550 OA
ATOM      4  O   UNL     1      -3.867   6.430  -5.170  1.00  0.00    -0.550 OA
ENDBRANCH   1   2
BRANCH   1   5
ATOM      5  C   UNL     1      -6.277   7.210  -7.726  1.00  0.00     0.059 C 
BRANCH   5   6
ATOM      6  C   UNL     1      -6.898   5.858  -7.573  1.00  0.00     0.042 C 
ATOM      7  O   UNL     1      -8.076   5.746  -7.144  1.00  0.00    -0.550 OA
ATOM      8  O   UNL     1      -6.158   4.717  -7.858  1.00  0.00    -0.550 OA
ENDBRANCH   5   6
ENDBRANCH   1   5
TORSDOF 3
ENDMDL
MODEL 3
REMARK VINA RESULT:    -3.304      0.071      3.567
REMARK INTER + INTRA:          -3.996
REMARK INTER:                  -3.886
REMARK INTRA:                  -0.110
REMARK UNBOUND:                -0.113
REMARK SMILES O=C([O-])CCC(=O)[O-]
REMARK SMILES IDX 4 1 2 2 1 3 3 4 5 5 6 6 7 7 8 8
REMARK H PARENT
REMARK Flexibility Score: inf
ROOT
ATOM      1  C   UNL     1      -6.261   7.205  -7.723  1.00  0.00     0.059 C 
ENDROOT
BRANCH   1   2
ATOM      2  C   UNL     1      -6.788   5.810  -7.625  1.00  0.00     0.042 C 
ATOM      3  O   UNL     1      -6.060   4.832  -7.944  1.00  0.00    -0.550 OA
ATOM      4  O   UNL     1      -8.101   5.588  -7.227  1.00  0.00    -0.550 OA
ENDBRANCH   1   2
BRANCH   1   5
ATOM      5  C   UNL     1      -5.665   7.647  -6.385  1.00  0.00     0.059 C 
BRANCH   5   6
ATOM      6  C   UNL     1      -4.236   7.217  -6.281  1.00  0.00     0.042 C 
ATOM      7  O   UNL     1      -3.428   7.471  -7.213  1.00  0.00    -0.550 OA
ATOM      8  O   UNL     1      -3.808   6.490  -5.177  1.00  0.00    -0.550 OA
ENDBRANCH   5   6
ENDBRANCH   1   5
TORSDOF 3
ENDMDL
MODEL 4
REMARK VINA RESULT:    -3.202      1.694      2.290
REMARK INTER + INTRA:          -3.876
REMARK INTER:                  -3.725
REMARK INTRA:                  -0.150
REMARK UNBOUND:                -0.113
REMARK SMILES O=C([O-])CCC(=O)[O-]
REMARK SMILES IDX 4 1 2 2 1 3 3 4 5 5 6 6 7 7 8 8
REMARK H PARENT
REMARK Flexibility Score: inf
ROOT
ATOM      1  C   UNL     1      -4.012   7.543  -6.798  1.00  0.00     0.059 C 
ENDROOT
BRANCH   1   2
ATOM      2  C   UNL     1      -3.979   6.290  -5.983  1.00  0.00     0.042 C 
ATOM      3  O   UNL     1      -3.658   6.334  -4.765  1.00  0.00    -0.550 OA
ATOM      4  O   UNL     1      -4.255   5.065  -6.577  1.00  0.00    -0.550 OA
ENDBRANCH   1   2
BRANCH   1   5
ATOM      5  C   UNL     1      -5.094   7.451  -7.876  1.00  0.00     0.059 C 
BRANCH   5   6
ATOM      6  C   UNL     1      -6.435   7.779  -7.301  1.00  0.00     0.042 C 
ATOM      7  O   UNL     1      -6.696   8.954  -6.930  1.00  0.00    -0.550 OA
ATOM      8  O   UNL     1      -7.381   6.776  -7.127  1.00  0.00    -0.550 OA
ENDBRANCH   5   6
ENDBRANCH   1   5
TORSDOF 3
ENDMDL
MODEL 5
REMARK VINA RESULT:    -3.184      2.249      3.337
REMARK INTER + INTRA:          -3.855
REMARK INTER:                  -3.816
REMARK INTRA:                  -0.039
REMARK UNBOUND:                -0.113
REMARK SMILES O=C([O-])CCC(=O)[O-]
REMARK SMILES IDX 4 1 2 2 1 3 3 4 5 5 6 6 7 7 8 8
REMARK H PARENT
REMARK Flexibility Score: inf
ROOT
ATOM      1  C   UNL     1      -4.744   7.511  -6.617  1.00  0.00     0.059 C 
ENDROOT
BRANCH   1   2
ATOM      2  C   UNL     1      -4.180   6.262  -6.018  1.00  0.00     0.042 C 
ATOM      3  O   UNL     1      -4.337   5.154  -6.598  1.00  0.00    -0.550 OA
ATOM      4  O   UNL     1      -3.524   6.312  -4.795  1.00  0.00    -0.550 OA
ENDBRANCH   1   2
BRANCH   1   5
ATOM      5  C   UNL     1      -3.689   8.218  -7.471  1.00  0.00     0.059 C 
BRANCH   5   6
ATOM      6  C   UNL     1      -4.288   8.693  -8.756  1.00  0.00     0.042 C 
ATOM      7  O   UNL     1      -5.017   9.720  -8.775  1.00  0.00    -0.550 OA
ATOM      8  O   UNL     1      -4.084   7.973  -9.927  1.00  0.00    -0.550 OA
ENDBRANCH   5   6
ENDBRANCH   1   5
TORSDOF 3
ENDMDL
MODEL 6
REMARK VINA RESULT:    -3.172     20.598     21.675
REMARK INTER + INTRA:          -3.841
REMARK INTER:                  -3.809
REMARK INTRA:                  -0.032
REMARK UNBOUND:                -0.113
REMARK SMILES O=C([O-])CCC(=O)[O-]
REMARK SMILES IDX 4 1 2 2 1 3 3 4 5 5 6 6 7 7 8 8
REMARK H PARENT
REMARK Flexibility Score: inf
ROOT
ATOM      1  C   UNL     1       8.483  -0.282   8.551  1.00  0.00     0.059 C 
ENDROOT
BRANCH   1   2
ATOM      2  C   UNL     1       7.182  -0.729   9.136  1.00  0.00     0.042 C 
ATOM      3  O   UNL     1       6.683  -0.116  10.117  1.00  0.00    -0.550 OA
ATOM      4  O   UNL     1       6.541  -1.854   8.631  1.00  0.00    -0.550 OA
ENDBRANCH   1   2
BRANCH   1   5
ATOM      5  C   UNL     1       8.895   1.071   9.135  1.00  0.00     0.059 C 
BRANCH   5   6
ATOM      6  C   UNL     1       8.473   2.183   8.228  1.00  0.00     0.042 C 
ATOM      7  O   UNL     1       8.847   3.364   8.456  1.00  0.00    -0.550 OA
ATOM      8  O   UNL     1       7.624   1.924   7.160  1.00  0.00    -0.550 OA
ENDBRANCH   5   6
ENDBRANCH   1   5
TORSDOF 3
ENDMDL
MODEL 7
REMARK VINA RESULT:    -3.126      2.261      3.540
REMARK INTER + INTRA:          -3.787
REMARK INTER:                  -3.682
REMARK INTRA:                  -0.105
REMARK UNBOUND:                -0.113
REMARK SMILES O=C([O-])CCC(=O)[O-]
REMARK SMILES IDX 4 1 2 2 1 3 3 4 5 5 6 6 7 7 8 8
REMARK H PARENT
REMARK Flexibility Score: inf
ROOT
ATOM      1  C   UNL     1      -4.341   7.787  -8.198  1.00  0.00     0.059 C 
ENDROOT
BRANCH   1   2
ATOM      2  C   UNL     1      -5.391   8.848  -8.105  1.00  0.00     0.042 C 
ATOM      3  O   UNL     1      -6.366   8.709  -7.319  1.00  0.00    -0.550 OA
ATOM      4  O   UNL     1      -5.320   9.970  -8.921  1.00  0.00    -0.550 OA
ENDBRANCH   1   2
BRANCH   1   5
ATOM      5  C   UNL     1      -3.591   7.658  -6.870  1.00  0.00     0.059 C 
BRANCH   5   6
ATOM      6  C   UNL     1      -4.019   6.422  -6.145  1.00  0.00     0.042 C 
ATOM      7  O   UNL     1      -4.731   5.560  -6.725  1.00  0.00    -0.550 OA
ATOM      8  O   UNL     1      -3.675   6.245  -4.810  1.00  0.00    -0.550 OA
ENDBRANCH   5   6
ENDBRANCH   1   5
TORSDOF 3
ENDMDL
MODEL 8
REMARK VINA RESULT:    -3.028      1.324      3.720
REMARK INTER + INTRA:          -3.672
REMARK INTER:                  -3.520
REMARK INTRA:                  -0.152
REMARK UNBOUND:                -0.113
REMARK SMILES O=C([O-])CCC(=O)[O-]
REMARK SMILES IDX 4 1 2 2 1 3 3 4 5 5 6 6 7 7 8 8
REMARK H PARENT
REMARK Flexibility Score: inf
ROOT
ATOM      1  C   UNL     1      -5.794   6.207  -8.017  1.00  0.00     0.059 C 
ENDROOT
BRANCH   1   2
ATOM      2  C   UNL     1      -7.039   6.787  -7.426  1.00  0.00     0.042 C 
ATOM      3  O   UNL     1      -8.009   6.039  -7.131  1.00  0.00    -0.550 OA
ATOM      4  O   UNL     1      -7.150   8.160  -7.246  1.00  0.00    -0.550 OA
ENDBRANCH   1   2
BRANCH   1   5
ATOM      5  C   UNL     1      -4.940   5.552  -6.929  1.00  0.00     0.059 C 
BRANCH   5   6
ATOM      6  C   UNL     1      -4.155   6.586  -6.185  1.00  0.00     0.042 C 
ATOM      7  O   UNL     1      -4.005   6.493  -4.939  1.00  0.00    -0.550 OA
ATOM      8  O   UNL     1      -3.632   7.681  -6.862  1.00  0.00    -0.550 OA
ENDBRANCH   5   6
ENDBRANCH   1   5
TORSDOF 3
ENDMDL
MODEL 9
REMARK VINA RESULT:    -2.983      1.671      3.227
REMARK INTER + INTRA:          -3.619
REMARK INTER:                  -3.488
REMARK INTRA:                  -0.131
REMARK UNBOUND:                -0.113
REMARK SMILES O=C([O-])CCC(=O)[O-]
REMARK SMILES IDX 4 1 2 2 1 3 3 4 5 5 6 6 7 7 8 8
REMARK H PARENT
REMARK Flexibility Score: inf
ROOT
ATOM      1  C   UNL     1      -6.674   6.855  -7.124  1.00  0.00     0.059 C 
ENDROOT
BRANCH   1   2
ATOM      2  C   UNL     1      -5.895   5.621  -7.449  1.00  0.00     0.042 C 
ATOM      3  O   UNL     1      -6.322   4.810  -8.314  1.00  0.00    -0.550 OA
ATOM      4  O   UNL     1      -4.719   5.341  -6.765  1.00  0.00    -0.550 OA
ENDBRANCH   1   2
BRANCH   1   5
ATOM      5  C   UNL     1      -5.732   8.000  -6.746  1.00  0.00     0.059 C 
BRANCH   5   6
ATOM      6  C   UNL     1      -5.020   8.514  -7.957  1.00  0.00     0.042 C 
ATOM      7  O   UNL     1      -3.761   8.541  -7.988  1.00  0.00    -0.550 OA
ATOM      8  O   UNL     1      -5.746   9.010  -9.032  1.00  0.00    -0.550 OA
ENDBRANCH   5   6
ENDBRANCH   1   5
TORSDOF 3
ENDMDL
