MODEL 1
REMARK VINA RESULT:    -4.785      0.000      0.000
REMARK INTER + INTRA:          -6.085
REMARK INTER:                  -5.764
REMARK INTRA:                  -0.322
REMARK UNBOUND:                -0.322
REMARK SMILES O=c1c(O)c(-c2ccc(O)c(O)c2)oc2cc(O)cc(O)c12
REMARK SMILES IDX 5 1 3 2 2 3 1 4 22 5 20 6 19 7 17 8 16 9 15 10 14 11 6 12
REMARK SMILES IDX 7 13 8 14 9 15 13 16 11 17 10 18 12 20 4 22 21 24 18 26
REMARK H PARENT 10 19 12 21 4 23 21 25 18 27
REMARK Flexibility Score: inf
ROOT
ATOM      1  C   UNL     1     -99.985  42.654   9.236  1.00  0.00     0.180 A 
ATOM      2  C   UNL     1    -101.384  42.759   9.166  1.00  0.00     0.208 A 
ATOM      3  C   UNL     1    -101.989  42.996   7.922  1.00  0.00     0.238 A 
ATOM      4  O   UNL     1    -103.239  43.142   7.875  1.00  0.00    -0.285 OA
ATOM      5  C   UNL     1    -101.189  43.111   6.760  1.00  0.00     0.111 A 
ATOM      6  C   UNL     1    -101.698  43.311   5.441  1.00  0.00     0.134 A 
ATOM      7  C   UNL     1    -100.808  43.541   4.385  1.00  0.00     0.093 A 
ATOM      8  C   UNL     1     -99.426  43.512   4.588  1.00  0.00     0.123 A 
ATOM      9  C   UNL     1     -98.919  43.258   5.860  1.00  0.00     0.094 A 
ATOM     10  C   UNL     1     -99.782  43.061   6.941  1.00  0.00     0.146 A 
ATOM     11  O   UNL     1     -99.256  42.832   8.139  1.00  0.00    -0.452 OA
ENDROOT
BRANCH   1  12
ATOM     12  C   UNL     1     -99.276  42.380  10.507  1.00  0.00     0.025 A 
ATOM     13  C   UNL     1     -98.902  43.448  11.333  1.00  0.00     0.016 A 
ATOM     14  C   UNL     1     -98.215  43.213  12.526  1.00  0.00     0.051 A 
ATOM     15  C   UNL     1     -97.877  41.911  12.909  1.00  0.00     0.157 A 
ATOM     16  C   UNL     1     -98.918  41.073  10.877  1.00  0.00     0.062 A 
ATOM     17  C   UNL     1     -98.226  40.826  12.070  1.00  0.00     0.158 A 
BRANCH  15  18
ATOM     18  O   UNL     1     -97.197  41.742  14.118  1.00  0.00    -0.504 OA
ATOM     19  H   UNL     1     -96.290  42.140  14.315  1.00  0.00     0.293 HD
ENDBRANCH  15  18
BRANCH  17  20
ATOM     20  O   UNL     1     -97.904  39.502  12.376  1.00  0.00    -0.504 OA
ATOM     21  H   UNL     1     -97.287  39.230  13.128  1.00  0.00     0.293 HD
ENDBRANCH  17  20
ENDBRANCH   1  12
BRANCH   2  22
ATOM     22  O   UNL     1    -102.154  42.663  10.329  1.00  0.00    -0.502 OA
ATOM     23  H   UNL     1    -102.541  41.786  10.654  1.00  0.00     0.293 HD
ENDBRANCH   2  22
BRANCH   6  24
ATOM     24  O   UNL     1    -103.057  43.268   5.115  1.00  0.00    -0.507 OA
ATOM     25  H   UNL     1    -103.446  42.740   4.349  1.00  0.00     0.293 HD
ENDBRANCH   6  24
BRANCH   8  26
ATOM     26  O   UNL     1     -98.547  43.725   3.528  1.00  0.00    -0.508 OA
ATOM     27  H   UNL     1     -98.875  43.780   2.571  1.00  0.00     0.293 HD
ENDBRANCH   8  26
TORSDOF 6
ENDMDL
MODEL 2
REMARK VINA RESULT:    -4.761      1.657      6.929
REMARK INTER + INTRA:          -6.057
REMARK INTER:                  -5.750
REMARK INTRA:                  -0.307
REMARK UNBOUND:                -0.322
REMARK SMILES O=c1c(O)c(-c2ccc(O)c(O)c2)oc2cc(O)cc(O)c12
REMARK SMILES IDX 5 1 3 2 2 3 1 4 22 5 20 6 19 7 17 8 16 9 15 10 14 11 6 12
REMARK SMILES IDX 7 13 8 14 9 15 13 16 11 17 10 18 12 20 4 22 21 24 18 26
REMARK H PARENT 10 19 12 21 4 23 21 25 18 27
REMARK Flexibility Score: inf
ROOT
ATOM      1  C   UNL     1     -99.812  42.280   9.017  1.00  0.00     0.180 A 
ATOM      2  C   UNL     1    -100.318  41.006   9.328  1.00  0.00     0.208 A 
ATOM      3  C   UNL     1    -100.249  40.552  10.655  1.00  0.00     0.238 A 
ATOM      4  O   UNL     1    -100.654  39.389  10.917  1.00  0.00    -0.285 OA
ATOM      5  C   UNL     1     -99.688  41.381  11.656  1.00  0.00     0.111 A 
ATOM      6  C   UNL     1     -99.602  41.038  13.039  1.00  0.00     0.134 A 
ATOM      7  C   UNL     1     -98.910  41.880  13.917  1.00  0.00     0.093 A 
ATOM      8  C   UNL     1     -98.357  43.084  13.475  1.00  0.00     0.123 A 
ATOM      9  C   UNL     1     -98.487  43.456  12.140  1.00  0.00     0.094 A 
ATOM     10  C   UNL     1     -99.140  42.620  11.231  1.00  0.00     0.146 A 
ATOM     11  O   UNL     1     -99.233  43.008   9.965  1.00  0.00    -0.452 OA
ENDROOT
BRANCH   1  12
ATOM     12  C   UNL     1     -99.873  42.839   7.647  1.00  0.00     0.025 A 
ATOM     13  C   UNL     1     -98.870  42.513   6.723  1.00  0.00     0.016 A 
ATOM     14  C   UNL     1     -98.898  43.045   5.432  1.00  0.00     0.051 A 
ATOM     15  C   UNL     1     -99.915  43.922   5.044  1.00  0.00     0.157 A 
ATOM     16  C   UNL     1    -100.884  43.738   7.267  1.00  0.00     0.062 A 
ATOM     17  C   UNL     1    -100.918  44.280   5.976  1.00  0.00     0.158 A 
BRANCH  15  18
ATOM     18  O   UNL     1     -99.890  44.414   3.737  1.00  0.00    -0.504 OA
ATOM     19  H   UNL     1    -100.451  45.189   3.415  1.00  0.00     0.293 HD
ENDBRANCH  15  18
BRANCH  17  20
ATOM     20  O   UNL     1    -101.954  45.165   5.667  1.00  0.00    -0.504 OA
ATOM     21  H   UNL     1    -102.175  45.986   6.211  1.00  0.00     0.293 HD
ENDBRANCH  17  20
ENDBRANCH   1  12
BRANCH   2  22
ATOM     22  O   UNL     1    -100.848  40.195   8.321  1.00  0.00    -0.502 OA
ATOM     23  H   UNL     1    -101.422  39.385   8.521  1.00  0.00     0.293 HD
ENDBRANCH   2  22
BRANCH   6  24
ATOM     24  O   UNL     1    -100.199  39.905  13.600  1.00  0.00    -0.507 OA
ATOM     25  H   UNL     1     -99.704  39.187  14.107  1.00  0.00     0.293 HD
ENDBRANCH   6  24
BRANCH   8  26
ATOM     26  O   UNL     1     -97.684  43.925  14.360  1.00  0.00    -0.508 OA
ATOM     27  H   UNL     1     -98.097  44.791  14.686  1.00  0.00     0.293 HD
ENDBRANCH   8  26
TORSDOF 6
ENDMDL
MODEL 3
REMARK VINA RESULT:    -4.632      3.322      8.395
REMARK INTER + INTRA:          -5.902
REMARK INTER:                  -5.694
REMARK INTRA:                  -0.208
REMARK UNBOUND:                -0.322
REMARK SMILES O=c1c(O)c(-c2ccc(O)c(O)c2)oc2cc(O)cc(O)c12
REMARK SMILES IDX 5 1 3 2 2 3 1 4 22 5 20 6 19 7 17 8 16 9 15 10 14 11 6 12
REMARK SMILES IDX 7 13 8 14 9 15 13 16 11 17 10 18 12 20 4 22 21 24 18 26
REMARK H PARENT 10 19 12 21 4 23 21 25 18 27
REMARK Flexibility Score: inf
ROOT
ATOM      1  C   UNL     1     -99.244  43.607   3.220  1.00  0.00     0.180 A 
ATOM      2  C   UNL     1     -99.579  42.259   3.002  1.00  0.00     0.208 A 
ATOM      3  C   UNL     1     -99.932  41.458   4.099  1.00  0.00     0.238 A 
ATOM      4  O   UNL     1    -100.178  40.239   3.904  1.00  0.00    -0.285 OA
ATOM      5  C   UNL     1     -99.961  42.018   5.399  1.00  0.00     0.111 A 
ATOM      6  C   UNL     1    -100.342  41.309   6.578  1.00  0.00     0.134 A 
ATOM      7  C   UNL     1    -100.209  41.926   7.828  1.00  0.00     0.093 A 
ATOM      8  C   UNL     1     -99.769  43.248   7.936  1.00  0.00     0.123 A 
ATOM      9  C   UNL     1     -99.452  43.967   6.786  1.00  0.00     0.094 A 
ATOM     10  C   UNL     1     -99.540  43.367   5.528  1.00  0.00     0.146 A 
ATOM     11  O   UNL     1     -99.217  44.086   4.459  1.00  0.00    -0.452 OA
ENDROOT
BRANCH   1  12
ATOM     12  C   UNL     1     -98.886  44.520   2.111  1.00  0.00     0.025 A 
ATOM     13  C   UNL     1     -99.787  45.520   1.723  1.00  0.00     0.016 A 
ATOM     14  C   UNL     1     -99.477  46.380   0.666  1.00  0.00     0.051 A 
ATOM     15  C   UNL     1     -98.272  46.247  -0.032  1.00  0.00     0.157 A 
ATOM     16  C   UNL     1     -97.684  44.369   1.398  1.00  0.00     0.062 A 
ATOM     17  C   UNL     1     -97.366  45.224   0.334  1.00  0.00     0.158 A 
BRANCH  15  18
ATOM     18  O   UNL     1     -98.019  47.143  -1.073  1.00  0.00    -0.504 OA
ATOM     19  H   UNL     1     -97.096  47.459  -1.333  1.00  0.00     0.293 HD
ENDBRANCH  15  18
BRANCH  17  20
ATOM     20  O   UNL     1     -96.154  45.017  -0.328  1.00  0.00    -0.504 OA
ATOM     21  H   UNL     1     -95.911  44.163  -0.808  1.00  0.00     0.293 HD
ENDBRANCH  17  20
ENDBRANCH   1  12
BRANCH   2  22
ATOM     22  O   UNL     1     -99.523  41.722   1.713  1.00  0.00    -0.502 OA
ATOM     23  H   UNL     1     -99.833  40.781   1.502  1.00  0.00     0.293 HD
ENDBRANCH   2  22
BRANCH   6  24
ATOM     24  O   UNL     1    -100.880  40.018   6.573  1.00  0.00    -0.507 OA
ATOM     25  H   UNL     1    -101.090  39.481   7.400  1.00  0.00     0.293 HD
ENDBRANCH   6  24
BRANCH   8  26
ATOM     26  O   UNL     1     -99.655  43.859   9.183  1.00  0.00    -0.508 OA
ATOM     27  H   UNL     1    -100.292  43.642   9.940  1.00  0.00     0.293 HD
ENDBRANCH   8  26
TORSDOF 6
ENDMDL
MODEL 4
REMARK VINA RESULT:    -4.631      1.634      6.962
REMARK INTER + INTRA:          -5.900
REMARK INTER:                  -6.095
REMARK INTRA:                   0.195
REMARK UNBOUND:                -0.322
REMARK SMILES O=c1c(O)c(-c2ccc(O)c(O)c2)oc2cc(O)cc(O)c12
REMARK SMILES IDX 5 1 3 2 2 3 1 4 22 5 20 6 19 7 17 8 16 9 15 10 14 11 6 12
REMARK SMILES IDX 7 13 8 14 9 15 13 16 11 17 10 18 12 20 4 22 21 24 18 26
REMARK H PARENT 10 19 12 21 4 23 21 25 18 27
REMARK Flexibility Score: inf
ROOT
ATOM      1  C   UNL     1     -99.507  42.687   9.365  1.00  0.00     0.180 A 
ATOM      2  C   UNL     1     -99.828  43.605  10.379  1.00  0.00     0.208 A 
ATOM      3  C   UNL     1     -99.688  43.216  11.721  1.00  0.00     0.238 A 
ATOM      4  O   UNL     1    -100.029  44.024  12.624  1.00  0.00    -0.285 OA
ATOM      5  C   UNL     1     -99.215  41.918  12.032  1.00  0.00     0.111 A 
ATOM      6  C   UNL     1     -98.997  41.430  13.356  1.00  0.00     0.134 A 
ATOM      7  C   UNL     1     -98.652  40.087  13.549  1.00  0.00     0.093 A 
ATOM      8  C   UNL     1     -98.452  39.232  12.463  1.00  0.00     0.123 A 
ATOM      9  C   UNL     1     -98.604  39.714  11.165  1.00  0.00     0.094 A 
ATOM     10  C   UNL     1     -98.984  41.040  10.942  1.00  0.00     0.146 A 
ATOM     11  O   UNL     1     -99.128  41.456   9.688  1.00  0.00    -0.452 OA
ENDROOT
BRANCH   1  12
ATOM     12  C   UNL     1     -99.604  43.033   7.929  1.00  0.00     0.025 A 
ATOM     13  C   UNL     1     -98.615  42.585   7.043  1.00  0.00     0.016 A 
ATOM     14  C   UNL     1     -98.677  42.917   5.687  1.00  0.00     0.051 A 
ATOM     15  C   UNL     1     -99.716  43.712   5.194  1.00  0.00     0.157 A 
ATOM     16  C   UNL     1    -100.637  43.851   7.441  1.00  0.00     0.062 A 
ATOM     17  C   UNL     1    -100.706  44.193   6.084  1.00  0.00     0.158 A 
BRANCH  15  18
ATOM     18  O   UNL     1     -99.725  44.002   3.828  1.00  0.00    -0.504 OA
ATOM     19  H   UNL     1     -99.423  44.882   3.436  1.00  0.00     0.293 HD
ENDBRANCH  15  18
BRANCH  17  20
ATOM     20  O   UNL     1    -101.762  45.008   5.669  1.00  0.00    -0.504 OA
ATOM     21  H   UNL     1    -102.447  45.406   6.294  1.00  0.00     0.293 HD
ENDBRANCH  17  20
ENDBRANCH   1  12
BRANCH   2  22
ATOM     22  O   UNL     1    -100.314  44.874  10.050  1.00  0.00    -0.502 OA
ATOM     23  H   UNL     1    -101.204  45.012   9.589  1.00  0.00     0.293 HD
ENDBRANCH   2  22
BRANCH   6  24
ATOM     24  O   UNL     1     -99.080  42.225  14.503  1.00  0.00    -0.507 OA
ATOM     25  H   UNL     1     -98.305  42.440  15.110  1.00  0.00     0.293 HD
ENDBRANCH   6  24
BRANCH   8  26
ATOM     26  O   UNL     1     -98.092  37.901  12.663  1.00  0.00    -0.508 OA
ATOM     27  H   UNL     1     -98.778  37.198  12.915  1.00  0.00     0.293 HD
ENDBRANCH   8  26
TORSDOF 6
ENDMDL
MODEL 5
REMARK VINA RESULT:    -4.556      2.884      8.045
REMARK INTER + INTRA:          -5.810
REMARK INTER:                  -5.487
REMARK INTRA:                  -0.323
REMARK UNBOUND:                -0.322
REMARK SMILES O=c1c(O)c(-c2ccc(O)c(O)c2)oc2cc(O)cc(O)c12
REMARK SMILES IDX 5 1 3 2 2 3 1 4 22 5 20 6 19 7 17 8 16 9 15 10 14 11 6 12
REMARK SMILES IDX 7 13 8 14 9 15 13 16 11 17 10 18 12 20 4 22 21 24 18 26
REMARK H PARENT 10 19 12 21 4 23 21 25 18 27
REMARK Flexibility Score: inf
ROOT
ATOM      1  C   UNL     1     -99.745  44.229   3.381  1.00  0.00     0.180 A 
ATOM      2  C   UNL     1    -101.148  44.283   3.333  1.00  0.00     0.208 A 
ATOM      3  C   UNL     1    -101.882  43.979   4.491  1.00  0.00     0.238 A 
ATOM      4  O   UNL     1    -103.139  43.977   4.427  1.00  0.00    -0.285 OA
ATOM      5  C   UNL     1    -101.203  43.640   5.686  1.00  0.00     0.111 A 
ATOM      6  C   UNL     1    -101.844  43.353   6.929  1.00  0.00     0.134 A 
ATOM      7  C   UNL     1    -101.080  42.902   8.012  1.00  0.00     0.093 A 
ATOM      8  C   UNL     1     -99.691  42.791   7.917  1.00  0.00     0.123 A 
ATOM      9  C   UNL     1     -99.050  43.126   6.727  1.00  0.00     0.094 A 
ATOM     10  C   UNL     1     -99.789  43.544   5.618  1.00  0.00     0.146 A 
ATOM     11  O   UNL     1     -99.139  43.844   4.499  1.00  0.00    -0.452 OA
ENDROOT
BRANCH   1  12
ATOM     12  C   UNL     1     -98.902  44.560   2.209  1.00  0.00     0.025 A 
ATOM     13  C   UNL     1     -98.531  45.891   1.980  1.00  0.00     0.016 A 
ATOM     14  C   UNL     1     -97.754  46.228   0.870  1.00  0.00     0.051 A 
ATOM     15  C   UNL     1     -97.345  45.246  -0.039  1.00  0.00     0.157 A 
ATOM     16  C   UNL     1     -98.513  43.574   1.286  1.00  0.00     0.062 A 
ATOM     17  C   UNL     1     -97.736  43.902   0.167  1.00  0.00     0.158 A 
BRANCH  15  18
ATOM     18  O   UNL     1     -96.563  45.647  -1.125  1.00  0.00    -0.504 OA
ATOM     19  H   UNL     1     -96.645  45.258  -2.053  1.00  0.00     0.293 HD
ENDBRANCH  15  18
BRANCH  17  20
ATOM     20  O   UNL     1     -97.384  42.872  -0.707  1.00  0.00    -0.504 OA
ATOM     21  H   UNL     1     -96.539  42.325  -0.625  1.00  0.00     0.293 HD
ENDBRANCH  17  20
ENDBRANCH   1  12
BRANCH   2  22
ATOM     22  O   UNL     1    -101.798  44.599   2.137  1.00  0.00    -0.502 OA
ATOM     23  H   UNL     1    -101.580  45.431   1.603  1.00  0.00     0.293 HD
ENDBRANCH   2  22
BRANCH   6  24
ATOM     24  O   UNL     1    -103.214  43.519   7.157  1.00  0.00    -0.507 OA
ATOM     25  H   UNL     1    -103.932  42.897   6.819  1.00  0.00     0.293 HD
ENDBRANCH   6  24
BRANCH   8  26
ATOM     26  O   UNL     1     -98.936  42.358   9.006  1.00  0.00    -0.508 OA
ATOM     27  H   UNL     1     -98.076  41.836   8.880  1.00  0.00     0.293 HD
ENDBRANCH   8  26
TORSDOF 6
ENDMDL
MODEL 6
REMARK VINA RESULT:    -4.511      1.412      2.062
REMARK INTER + INTRA:          -5.755
REMARK INTER:                  -5.437
REMARK INTRA:                  -0.318
REMARK UNBOUND:                -0.322
REMARK SMILES O=c1c(O)c(-c2ccc(O)c(O)c2)oc2cc(O)cc(O)c12
REMARK SMILES IDX 5 1 3 2 2 3 1 4 22 5 20 6 19 7 17 8 16 9 15 10 14 11 6 12
REMARK SMILES IDX 7 13 8 14 9 15 13 16 11 17 10 18 12 20 4 22 21 24 18 26
REMARK H PARENT 10 19 12 21 4 23 21 25 18 27
REMARK Flexibility Score: inf
ROOT
ATOM      1  C   UNL     1     -99.562  42.365  10.420  1.00  0.00     0.180 A 
ATOM      2  C   UNL     1    -100.963  42.259  10.449  1.00  0.00     0.208 A 
ATOM      3  C   UNL     1    -101.674  42.293   9.239  1.00  0.00     0.238 A 
ATOM      4  O   UNL     1    -102.932  42.252   9.275  1.00  0.00    -0.285 OA
ATOM      5  C   UNL     1    -100.975  42.417   8.014  1.00  0.00     0.111 A 
ATOM      6  C   UNL     1    -101.590  42.422   6.726  1.00  0.00     0.134 A 
ATOM      7  C   UNL     1    -100.813  42.681   5.591  1.00  0.00     0.093 A 
ATOM      8  C   UNL     1     -99.432  42.870   5.690  1.00  0.00     0.123 A 
ATOM      9  C   UNL     1     -98.814  42.808   6.937  1.00  0.00     0.094 A 
ATOM     10  C   UNL     1     -99.568  42.587   8.092  1.00  0.00     0.146 A 
ATOM     11  O   UNL     1     -98.939  42.545   9.261  1.00  0.00    -0.452 OA
ENDROOT
BRANCH   1  12
ATOM     12  C   UNL     1     -98.742  42.312  11.652  1.00  0.00     0.025 A 
ATOM     13  C   UNL     1     -98.371  41.069  12.181  1.00  0.00     0.016 A 
ATOM     14  C   UNL     1     -97.614  40.996  13.353  1.00  0.00     0.051 A 
ATOM     15  C   UNL     1     -97.227  42.159  14.026  1.00  0.00     0.157 A 
ATOM     16  C   UNL     1     -98.374  43.482  12.338  1.00  0.00     0.062 A 
ATOM     17  C   UNL     1     -97.619  43.420  13.516  1.00  0.00     0.158 A 
BRANCH  15  18
ATOM     18  O   UNL     1     -96.465  42.019  15.188  1.00  0.00    -0.504 OA
ATOM     19  H   UNL     1     -96.859  41.936  16.114  1.00  0.00     0.293 HD
ENDBRANCH  15  18
BRANCH  17  20
ATOM     20  O   UNL     1     -97.288  44.623  14.143  1.00  0.00    -0.504 OA
ATOM     21  H   UNL     1     -97.829  45.471  14.059  1.00  0.00     0.293 HD
ENDBRANCH  17  20
ENDBRANCH   1  12
BRANCH   2  22
ATOM     22  O   UNL     1    -101.635  42.159  11.670  1.00  0.00    -0.502 OA
ATOM     23  H   UNL     1    -102.287  42.864  11.992  1.00  0.00     0.293 HD
ENDBRANCH   2  22
BRANCH   6  24
ATOM     24  O   UNL     1    -102.944  42.153   6.508  1.00  0.00    -0.507 OA
ATOM     25  H   UNL     1    -103.324  41.241   6.306  1.00  0.00     0.293 HD
ENDBRANCH   6  24
BRANCH   8  26
ATOM     26  O   UNL     1     -98.664  43.111   4.553  1.00  0.00    -0.508 OA
ATOM     27  H   UNL     1     -98.958  43.775   3.846  1.00  0.00     0.293 HD
ENDBRANCH   8  26
TORSDOF 6
ENDMDL
MODEL 7
REMARK VINA RESULT:    -4.499      3.441      6.273
REMARK INTER + INTRA:          -5.741
REMARK INTER:                  -5.476
REMARK INTRA:                  -0.265
REMARK UNBOUND:                -0.322
REMARK SMILES O=c1c(O)c(-c2ccc(O)c(O)c2)oc2cc(O)cc(O)c12
REMARK SMILES IDX 5 1 3 2 2 3 1 4 22 5 20 6 19 7 17 8 16 9 15 10 14 11 6 12
REMARK SMILES IDX 7 13 8 14 9 15 13 16 11 17 10 18 12 20 4 22 21 24 18 26
REMARK H PARENT 10 19 12 21 4 23 21 25 18 27
REMARK Flexibility Score: inf
ROOT
ATOM      1  C   UNL     1     -99.954  44.176   3.553  1.00  0.00     0.180 A 
ATOM      2  C   UNL     1    -101.017  44.954   3.063  1.00  0.00     0.208 A 
ATOM      3  C   UNL     1    -100.882  45.586   1.817  1.00  0.00     0.238 A 
ATOM      4  O   UNL     1    -101.816  46.325   1.409  1.00  0.00    -0.285 OA
ATOM      5  C   UNL     1     -99.691  45.421   1.069  1.00  0.00     0.111 A 
ATOM      6  C   UNL     1     -99.461  45.983  -0.223  1.00  0.00     0.134 A 
ATOM      7  C   UNL     1     -98.197  45.863  -0.813  1.00  0.00     0.093 A 
ATOM      8  C   UNL     1     -97.175  45.145  -0.187  1.00  0.00     0.123 A 
ATOM      9  C   UNL     1     -97.409  44.542   1.046  1.00  0.00     0.094 A 
ATOM     10  C   UNL     1     -98.648  44.675   1.677  1.00  0.00     0.146 A 
ATOM     11  O   UNL     1     -98.825  44.093   2.858  1.00  0.00    -0.452 OA
ENDROOT
BRANCH   1  12
ATOM     12  C   UNL     1    -100.032  43.458   4.846  1.00  0.00     0.025 A 
ATOM     13  C   UNL     1    -100.279  42.079   4.855  1.00  0.00     0.016 A 
ATOM     14  C   UNL     1    -100.377  41.387   6.065  1.00  0.00     0.051 A 
ATOM     15  C   UNL     1    -100.243  42.059   7.284  1.00  0.00     0.157 A 
ATOM     16  C   UNL     1     -99.920  44.141   6.069  1.00  0.00     0.062 A 
ATOM     17  C   UNL     1    -100.019  43.456   7.287  1.00  0.00     0.158 A 
BRANCH  15  18
ATOM     18  O   UNL     1    -100.343  41.308   8.458  1.00  0.00    -0.504 OA
ATOM     19  H   UNL     1     -99.673  41.347   9.211  1.00  0.00     0.293 HD
ENDBRANCH  15  18
BRANCH  17  20
ATOM     20  O   UNL     1     -99.896  44.197   8.464  1.00  0.00    -0.504 OA
ATOM     21  H   UNL     1    -100.364  45.077   8.630  1.00  0.00     0.293 HD
ENDBRANCH  17  20
ENDBRANCH   1  12
BRANCH   2  22
ATOM     22  O   UNL     1    -102.175  45.121   3.827  1.00  0.00    -0.502 OA
ATOM     23  H   UNL     1    -102.406  45.996   4.282  1.00  0.00     0.293 HD
ENDBRANCH   2  22
BRANCH   6  24
ATOM     24  O   UNL     1    -100.441  46.640  -0.974  1.00  0.00    -0.507 OA
ATOM     25  H   UNL     1    -100.846  46.284  -1.826  1.00  0.00     0.293 HD
ENDBRANCH   6  24
BRANCH   8  26
ATOM     26  O   UNL     1     -95.925  45.016  -0.789  1.00  0.00    -0.508 OA
ATOM     27  H   UNL     1     -95.327  44.219  -0.603  1.00  0.00     0.293 HD
ENDBRANCH   8  26
TORSDOF 6
ENDMDL
MODEL 8
REMARK VINA RESULT:    -4.494      2.940      5.507
REMARK INTER + INTRA:          -5.735
REMARK INTER:                  -5.515
REMARK INTRA:                  -0.220
REMARK UNBOUND:                -0.322
REMARK SMILES O=c1c(O)c(-c2ccc(O)c(O)c2)oc2cc(O)cc(O)c12
REMARK SMILES IDX 5 1 3 2 2 3 1 4 22 5 20 6 19 7 17 8 16 9 15 10 14 11 6 12
REMARK SMILES IDX 7 13 8 14 9 15 13 16 11 17 10 18 12 20 4 22 21 24 18 26
REMARK H PARENT 10 19 12 21 4 23 21 25 18 27
REMARK Flexibility Score: inf
ROOT
ATOM      1  C   UNL     1     -99.858  43.199   4.555  1.00  0.00     0.180 A 
ATOM      2  C   UNL     1     -99.943  41.973   3.874  1.00  0.00     0.208 A 
ATOM      3  C   UNL     1     -99.627  41.930   2.506  1.00  0.00     0.238 A 
ATOM      4  O   UNL     1     -99.757  40.840   1.890  1.00  0.00    -0.285 OA
ATOM      5  C   UNL     1     -99.215  43.109   1.841  1.00  0.00     0.111 A 
ATOM      6  C   UNL     1     -98.833  43.174   0.467  1.00  0.00     0.134 A 
ATOM      7  C   UNL     1     -98.570  44.418  -0.119  1.00  0.00     0.093 A 
ATOM      8  C   UNL     1     -98.611  45.593   0.635  1.00  0.00     0.123 A 
ATOM      9  C   UNL     1     -98.925  45.533   1.991  1.00  0.00     0.094 A 
ATOM     10  C   UNL     1     -99.228  44.311   2.595  1.00  0.00     0.146 A 
ATOM     11  O   UNL     1     -99.532  44.301   3.889  1.00  0.00    -0.452 OA
ENDROOT
BRANCH   1  12
ATOM     12  C   UNL     1    -100.151  43.320   6.001  1.00  0.00     0.025 A 
ATOM     13  C   UNL     1     -99.096  43.502   6.906  1.00  0.00     0.016 A 
ATOM     14  C   UNL     1     -99.348  43.598   8.276  1.00  0.00     0.051 A 
ATOM     15  C   UNL     1    -100.653  43.499   8.770  1.00  0.00     0.157 A 
ATOM     16  C   UNL     1    -101.460  43.197   6.496  1.00  0.00     0.062 A 
ATOM     17  C   UNL     1    -101.723  43.288   7.869  1.00  0.00     0.158 A 
BRANCH  15  18
ATOM     18  O   UNL     1    -100.839  43.611  10.150  1.00  0.00    -0.504 OA
ATOM     19  H   UNL     1    -100.311  44.235  10.742  1.00  0.00     0.293 HD
ENDBRANCH  15  18
BRANCH  17  20
ATOM     20  O   UNL     1    -103.049  43.159   8.289  1.00  0.00    -0.504 OA
ATOM     21  H   UNL     1    -103.439  43.643   9.085  1.00  0.00     0.293 HD
ENDBRANCH  17  20
ENDBRANCH   1  12
BRANCH   2  22
ATOM     22  O   UNL     1    -100.372  40.825   4.545  1.00  0.00    -0.502 OA
ATOM     23  H   UNL     1    -101.349  40.573   4.622  1.00  0.00     0.293 HD
ENDBRANCH   2  22
BRANCH   6  24
ATOM     24  O   UNL     1     -98.673  42.052  -0.352  1.00  0.00    -0.507 OA
ATOM     25  H   UNL     1     -99.421  41.586  -0.841  1.00  0.00     0.293 HD
ENDBRANCH   6  24
BRANCH   8  26
ATOM     26  O   UNL     1     -98.331  46.825   0.048  1.00  0.00    -0.508 OA
ATOM     27  H   UNL     1     -97.402  47.054  -0.285  1.00  0.00     0.293 HD
ENDBRANCH   8  26
TORSDOF 6
ENDMDL
MODEL 9
REMARK VINA RESULT:    -4.468      2.027      6.856
REMARK INTER + INTRA:          -5.704
REMARK INTER:                  -5.564
REMARK INTRA:                  -0.140
REMARK UNBOUND:                -0.322
REMARK SMILES O=c1c(O)c(-c2ccc(O)c(O)c2)oc2cc(O)cc(O)c12
REMARK SMILES IDX 5 1 3 2 2 3 1 4 22 5 20 6 19 7 17 8 16 9 15 10 14 11 6 12
REMARK SMILES IDX 7 13 8 14 9 15 13 16 11 17 10 18 12 20 4 22 21 24 18 26
REMARK H PARENT 10 19 12 21 4 23 21 25 18 27
REMARK Flexibility Score: inf
ROOT
ATOM      1  C   UNL     1     -99.601  42.535  10.278  1.00  0.00     0.180 A 
ATOM      2  C   UNL     1    -100.707  42.976  11.023  1.00  0.00     0.208 A 
ATOM      3  C   UNL     1    -100.551  43.216  12.398  1.00  0.00     0.238 A 
ATOM      4  O   UNL     1    -101.559  43.559  13.070  1.00  0.00    -0.285 OA
ATOM      5  C   UNL     1     -99.288  43.026  13.007  1.00  0.00     0.111 A 
ATOM      6  C   UNL     1     -99.005  43.276  14.384  1.00  0.00     0.134 A 
ATOM      7  C   UNL     1     -97.754  42.928  14.906  1.00  0.00     0.093 A 
ATOM      8  C   UNL     1     -96.753  42.400  14.087  1.00  0.00     0.123 A 
ATOM      9  C   UNL     1     -96.999  42.208  12.730  1.00  0.00     0.094 A 
ATOM     10  C   UNL     1     -98.250  42.511  12.187  1.00  0.00     0.146 A 
ATOM     11  O   UNL     1     -98.445  42.303  10.890  1.00  0.00    -0.452 OA
ENDROOT
BRANCH   1  12
ATOM     12  C   UNL     1     -99.681  42.286   8.820  1.00  0.00     0.025 A 
ATOM     13  C   UNL     1     -98.940  43.087   7.941  1.00  0.00     0.016 A 
ATOM     14  C   UNL     1     -99.017  42.882   6.562  1.00  0.00     0.051 A 
ATOM     15  C   UNL     1     -99.843  41.885   6.034  1.00  0.00     0.157 A 
ATOM     16  C   UNL     1    -100.529  41.298   8.292  1.00  0.00     0.062 A 
ATOM     17  C   UNL     1    -100.616  41.086   6.910  1.00  0.00     0.158 A 
BRANCH  15  18
ATOM     18  O   UNL     1     -99.869  41.725   4.646  1.00  0.00    -0.504 OA
ATOM     19  H   UNL     1    -100.691  41.870   4.077  1.00  0.00     0.293 HD
ENDBRANCH  15  18
BRANCH  17  20
ATOM     20  O   UNL     1    -101.478  40.086   6.456  1.00  0.00    -0.504 OA
ATOM     21  H   UNL     1    -102.196  40.231   5.761  1.00  0.00     0.293 HD
ENDBRANCH  17  20
ENDBRANCH   1  12
BRANCH   2  22
ATOM     22  O   UNL     1    -101.951  43.137  10.406  1.00  0.00    -0.502 OA
ATOM     23  H   UNL     1    -102.606  43.858  10.683  1.00  0.00     0.293 HD
ENDBRANCH   2  22
BRANCH   6  24
ATOM     24  O   UNL     1     -99.904  43.884  15.266  1.00  0.00    -0.507 OA
ATOM     25  H   UNL     1    -100.772  43.474  15.574  1.00  0.00     0.293 HD
ENDBRANCH   6  24
BRANCH   8  26
ATOM     26  O   UNL     1     -95.504  42.073  14.612  1.00  0.00    -0.508 OA
ATOM     27  H   UNL     1     -95.009  41.238  14.321  1.00  0.00     0.293 HD
ENDBRANCH   8  26
TORSDOF 6
ENDMDL
