MODEL 1
REMARK VINA RESULT:    -4.365      0.000      0.000
REMARK INTER + INTRA:          -6.377
REMARK INTER:                  -6.151
REMARK INTRA:                  -0.226
REMARK UNBOUND:                -0.226
REMARK SMILES CCCCCCCCC(=O)[O-]
REMARK SMILES IDX 6 1 7 2 8 3 9 4 10 5 11 6 5 7 4 8 3 9 2 10 1 11
REMARK H PARENT
REMARK Flexibility Score: inf
ROOT
ATOM      1  C   UNL     1     -12.626  -9.782   6.582  1.00  0.00     0.000 C 
ENDROOT
BRANCH   1   2
ATOM      2  C   UNL     1     -13.723 -10.772   7.009  1.00  0.00     0.006 C 
BRANCH   2   3
ATOM      3  C   UNL     1     -15.085 -10.112   7.290  1.00  0.00     0.053 C 
BRANCH   3   4
ATOM      4  C   UNL     1     -15.311  -9.856   8.748  1.00  0.00     0.041 C 
ATOM      5  O   UNL     1     -16.385  -9.327   9.139  1.00  0.00    -0.550 OA
ATOM      6  O   UNL     1     -14.323 -10.169   9.675  1.00  0.00    -0.550 OA
ENDBRANCH   3   4
ENDBRANCH   2   3
ENDBRANCH   1   2
BRANCH   1   7
ATOM      7  C   UNL     1     -11.453 -10.458   5.857  1.00  0.00     0.000 C 
BRANCH   7   8
ATOM      8  C   UNL     1     -10.888 -11.619   6.685  1.00  0.00    -0.000 C 
BRANCH   8   9
ATOM      9  C   UNL     1     -10.265 -12.690   5.778  1.00  0.00    -0.000 C 
BRANCH   9  10
ATOM     10  C   UNL     1      -8.800 -12.986   6.133  1.00  0.00    -0.003 C 
ATOM     11  C   UNL     1      -8.082 -13.796   5.053  1.00  0.00     0.004 C 
ENDBRANCH   9  10
ENDBRANCH   8   9
ENDBRANCH   7   8
ENDBRANCH   1   7
TORSDOF 7
ENDMDL
MODEL 2
REMARK VINA RESULT:    -4.224      1.996      2.537
REMARK INTER + INTRA:          -6.178
REMARK INTER:                  -5.632
REMARK INTRA:                  -0.546
REMARK UNBOUND:                -0.226
REMARK SMILES CCCCCCCCC(=O)[O-]
REMARK SMILES IDX 6 1 7 2 8 3 9 4 10 5 11 6 5 7 4 8 3 9 2 10 1 11
REMARK H PARENT
REMARK Flexibility Score: inf
ROOT
ATOM      1  C   UNL     1     -12.784 -10.579   6.686  1.00  0.00     0.000 C 
ENDROOT
BRANCH   1   2
ATOM      2  C   UNL     1     -12.993  -9.502   7.765  1.00  0.00     0.006 C 
BRANCH   2   3
ATOM      3  C   UNL     1     -13.605 -10.037   9.072  1.00  0.00     0.053 C 
BRANCH   3   4
ATOM      4  C   UNL     1     -15.067  -9.734   9.189  1.00  0.00     0.041 C 
ATOM      5  O   UNL     1     -15.544  -9.330  10.282  1.00  0.00    -0.550 OA
ATOM      6  O   UNL     1     -15.911  -9.931   8.103  1.00  0.00    -0.550 OA
ENDBRANCH   3   4
ENDBRANCH   2   3
ENDBRANCH   1   2
BRANCH   1   7
ATOM      7  C   UNL     1     -11.487 -10.387   5.886  1.00  0.00     0.000 C 
BRANCH   7   8
ATOM      8  C   UNL     1     -10.969  -8.949   6.013  1.00  0.00    -0.000 C 
BRANCH   8   9
ATOM      9  C   UNL     1      -9.493  -8.931   6.439  1.00  0.00    -0.000 C 
BRANCH   9  10
ATOM     10  C   UNL     1      -9.006 -10.300   6.939  1.00  0.00    -0.003 C 
ATOM     11  C   UNL     1      -8.821 -10.344   8.456  1.00  0.00     0.004 C 
ENDBRANCH   9  10
ENDBRANCH   8   9
ENDBRANCH   7   8
ENDBRANCH   1   7
TORSDOF 7
ENDMDL
MODEL 3
REMARK VINA RESULT:    -4.186      3.654      5.971
REMARK INTER + INTRA:          -6.125
REMARK INTER:                  -5.756
REMARK INTRA:                  -0.368
REMARK UNBOUND:                -0.226
REMARK SMILES CCCCCCCCC(=O)[O-]
REMARK SMILES IDX 6 1 7 2 8 3 9 4 10 5 11 6 5 7 4 8 3 9 2 10 1 11
REMARK H PARENT
REMARK Flexibility Score: inf
ROOT
ATOM      1  C   UNL     1     -11.767  -9.074   6.811  1.00  0.00     0.000 C 
ENDROOT
BRANCH   1   2
ATOM      2  C   UNL     1     -10.569  -8.876   5.867  1.00  0.00     0.006 C 
BRANCH   2   3
ATOM      3  C   UNL     1      -9.205  -8.875   6.579  1.00  0.00     0.053 C 
BRANCH   3   4
ATOM      4  C   UNL     1      -8.931 -10.159   7.301  1.00  0.00     0.041 C 
ATOM      5  O   UNL     1      -8.498 -10.141   8.483  1.00  0.00    -0.550 OA
ATOM      6  O   UNL     1      -9.122 -11.377   6.659  1.00  0.00    -0.550 OA
ENDBRANCH   3   4
ENDBRANCH   2   3
ENDBRANCH   1   2
BRANCH   1   7
ATOM      7  C   UNL     1     -12.831 -10.024   6.244  1.00  0.00     0.000 C 
BRANCH   7   8
ATOM      8  C   UNL     1     -13.731 -10.573   7.359  1.00  0.00    -0.000 C 
BRANCH   8   9
ATOM      9  C   UNL     1     -15.198 -10.182   7.125  1.00  0.00    -0.000 C 
BRANCH   9  10
ATOM     10  C   UNL     1     -15.872  -9.633   8.391  1.00  0.00    -0.003 C 
ATOM     11  C   UNL     1     -14.984  -9.745   9.631  1.00  0.00     0.004 C 
ENDBRANCH   9  10
ENDBRANCH   8   9
ENDBRANCH   7   8
ENDBRANCH   1   7
TORSDOF 7
ENDMDL
MODEL 4
REMARK VINA RESULT:    -3.977      3.300      5.890
REMARK INTER + INTRA:          -5.830
REMARK INTER:                  -5.343
REMARK INTRA:                  -0.487
REMARK UNBOUND:                -0.226
REMARK SMILES CCCCCCCCC(=O)[O-]
REMARK SMILES IDX 6 1 7 2 8 3 9 4 10 5 11 6 5 7 4 8 3 9 2 10 1 11
REMARK H PARENT
REMARK Flexibility Score: inf
ROOT
ATOM      1  C   UNL     1     -12.691 -10.403   6.814  1.00  0.00     0.000 C 
ENDROOT
BRANCH   1   2
ATOM      2  C   UNL     1     -11.536 -10.648   5.827  1.00  0.00     0.006 C 
BRANCH   2   3
ATOM      3  C   UNL     1     -10.623 -11.825   6.213  1.00  0.00     0.053 C 
BRANCH   3   4
ATOM      4  C   UNL     1      -9.424 -11.391   6.999  1.00  0.00     0.041 C 
ATOM      5  O   UNL     1      -9.015 -12.085   7.966  1.00  0.00    -0.550 OA
ATOM      6  O   UNL     1      -8.777 -10.200   6.687  1.00  0.00    -0.550 OA
ENDBRANCH   3   4
ENDBRANCH   2   3
ENDBRANCH   1   2
BRANCH   1   7
ATOM      7  C   UNL     1     -12.540  -9.097   7.606  1.00  0.00     0.000 C 
BRANCH   7   8
ATOM      8  C   UNL     1     -12.508  -9.368   9.116  1.00  0.00    -0.000 C 
BRANCH   8   9
ATOM      9  C   UNL     1     -13.674 -10.274   9.537  1.00  0.00    -0.000 C 
BRANCH   9  10
ATOM     10  C   UNL     1     -14.970  -9.489   9.792  1.00  0.00    -0.003 C 
ATOM     11  C   UNL     1     -16.011  -9.694   8.691  1.00  0.00     0.004 C 
ENDBRANCH   9  10
ENDBRANCH   8   9
ENDBRANCH   7   8
ENDBRANCH   1   7
TORSDOF 7
ENDMDL
MODEL 5
REMARK VINA RESULT:    -3.830      2.836      5.575
REMARK INTER + INTRA:          -5.623
REMARK INTER:                  -5.167
REMARK INTRA:                  -0.456
REMARK UNBOUND:                -0.226
REMARK SMILES CCCCCCCCC(=O)[O-]
REMARK SMILES IDX 6 1 7 2 8 3 9 4 10 5 11 6 5 7 4 8 3 9 2 10 1 11
REMARK H PARENT
REMARK Flexibility Score: inf
ROOT
ATOM      1  C   UNL     1     -10.650 -11.638   6.165  1.00  0.00     0.000 C 
ENDROOT
BRANCH   1   2
ATOM      2  C   UNL     1      -9.221 -11.311   6.635  1.00  0.00     0.006 C 
BRANCH   2   3
ATOM      3  C   UNL     1      -9.034  -9.856   7.100  1.00  0.00     0.053 C 
BRANCH   3   4
ATOM      4  C   UNL     1      -8.930  -9.736   8.589  1.00  0.00     0.041 C 
ATOM      5  O   UNL     1      -9.951  -9.887   9.309  1.00  0.00    -0.550 OA
ATOM      6  O   UNL     1      -7.712  -9.423   9.182  1.00  0.00    -0.550 OA
ENDBRANCH   3   4
ENDBRANCH   2   3
ENDBRANCH   1   2
BRANCH   1   7
ATOM      7  C   UNL     1     -11.531 -10.391   6.005  1.00  0.00     0.000 C 
BRANCH   7   8
ATOM      8  C   UNL     1     -12.930 -10.625   6.588  1.00  0.00    -0.000 C 
BRANCH   8   9
ATOM      9  C   UNL     1     -13.152  -9.772   7.845  1.00  0.00    -0.000 C 
BRANCH   9  10
ATOM     10  C   UNL     1     -14.632  -9.692   8.250  1.00  0.00    -0.003 C 
ATOM     11  C   UNL     1     -15.579 -10.075   7.112  1.00  0.00     0.004 C 
ENDBRANCH   9  10
ENDBRANCH   8   9
ENDBRANCH   7   8
ENDBRANCH   1   7
TORSDOF 7
ENDMDL
MODEL 6
REMARK VINA RESULT:    -3.817     14.313     15.873
REMARK INTER + INTRA:          -5.605
REMARK INTER:                  -5.302
REMARK INTRA:                  -0.303
REMARK UNBOUND:                -0.226
REMARK SMILES CCCCCCCCC(=O)[O-]
REMARK SMILES IDX 6 1 7 2 8 3 9 4 10 5 11 6 5 7 4 8 3 9 2 10 1 11
REMARK H PARENT
REMARK Flexibility Score: inf
ROOT
ATOM      1  C   UNL     1      -7.920 -20.067  16.325  1.00  0.00     0.000 C 
ENDROOT
BRANCH   1   2
ATOM      2  C   UNL     1      -8.004 -21.593  16.146  1.00  0.00     0.006 C 
BRANCH   2   3
ATOM      3  C   UNL     1      -6.653 -22.315  16.297  1.00  0.00     0.053 C 
BRANCH   3   4
ATOM      4  C   UNL     1      -6.512 -23.476  15.362  1.00  0.00     0.041 C 
ATOM      5  O   UNL     1      -7.094 -23.464  14.245  1.00  0.00    -0.550 OA
ATOM      6  O   UNL     1      -5.767 -24.589  15.735  1.00  0.00    -0.550 OA
ENDBRANCH   3   4
ENDBRANCH   2   3
ENDBRANCH   1   2
BRANCH   1   7
ATOM      7  C   UNL     1      -9.172 -19.468  16.981  1.00  0.00     0.000 C 
BRANCH   7   8
ATOM      8  C   UNL     1      -9.920 -20.521  17.808  1.00  0.00    -0.000 C 
BRANCH   8   9
ATOM      9  C   UNL     1     -11.388 -20.626  17.369  1.00  0.00    -0.000 C 
BRANCH   9  10
ATOM     10  C   UNL     1     -12.284 -19.583  18.054  1.00  0.00    -0.003 C 
ATOM     11  C   UNL     1     -12.616 -19.946  19.501  1.00  0.00     0.004 C 
ENDBRANCH   9  10
ENDBRANCH   8   9
ENDBRANCH   7   8
ENDBRANCH   1   7
TORSDOF 7
ENDMDL
MODEL 7
REMARK VINA RESULT:    -3.802      4.960      7.675
REMARK INTER + INTRA:          -5.583
REMARK INTER:                  -5.436
REMARK INTRA:                  -0.147
REMARK UNBOUND:                -0.226
REMARK SMILES CCCCCCCCC(=O)[O-]
REMARK SMILES IDX 6 1 7 2 8 3 9 4 10 5 11 6 5 7 4 8 3 9 2 10 1 11
REMARK H PARENT
REMARK Flexibility Score: inf
ROOT
ATOM      1  C   UNL     1      -8.952 -12.959   6.144  1.00  0.00     0.000 C 
ENDROOT
BRANCH   1   2
ATOM      2  C   UNL     1      -8.454 -13.963   5.090  1.00  0.00     0.006 C 
BRANCH   2   3
ATOM      3  C   UNL     1      -6.922 -14.113   5.045  1.00  0.00     0.053 C 
BRANCH   3   4
ATOM      4  C   UNL     1      -6.472 -15.514   5.324  1.00  0.00     0.041 C 
ATOM      5  O   UNL     1      -7.229 -16.486   5.063  1.00  0.00    -0.550 OA
ATOM      6  O   UNL     1      -5.231 -15.748   5.905  1.00  0.00    -0.550 OA
ENDBRANCH   3   4
ENDBRANCH   2   3
ENDBRANCH   1   2
BRANCH   1   7
ATOM      7  C   UNL     1     -10.381 -12.465   5.878  1.00  0.00     0.000 C 
BRANCH   7   8
ATOM      8  C   UNL     1     -10.566 -11.023   6.367  1.00  0.00    -0.000 C 
BRANCH   8   9
ATOM      9  C   UNL     1     -11.976 -10.508   6.041  1.00  0.00    -0.000 C 
BRANCH   9  10
ATOM     10  C   UNL     1     -12.828 -10.284   7.299  1.00  0.00    -0.003 C 
ATOM     11  C   UNL     1     -14.329 -10.325   7.012  1.00  0.00     0.004 C 
ENDBRANCH   9  10
ENDBRANCH   8   9
ENDBRANCH   7   8
ENDBRANCH   1   7
TORSDOF 7
ENDMDL
MODEL 8
REMARK VINA RESULT:    -3.730     13.370     14.814
REMARK INTER + INTRA:          -5.482
REMARK INTER:                  -5.177
REMARK INTRA:                  -0.305
REMARK UNBOUND:                -0.226
REMARK SMILES CCCCCCCCC(=O)[O-]
REMARK SMILES IDX 6 1 7 2 8 3 9 4 10 5 11 6 5 7 4 8 3 9 2 10 1 11
REMARK H PARENT
REMARK Flexibility Score: inf
ROOT
ATOM      1  C   UNL     1      -9.684 -20.029  14.449  1.00  0.00     0.000 C 
ENDROOT
BRANCH   1   2
ATOM      2  C   UNL     1      -8.462 -20.707  15.094  1.00  0.00     0.006 C 
BRANCH   2   3
ATOM      3  C   UNL     1      -7.288 -19.750  15.366  1.00  0.00     0.053 C 
BRANCH   3   4
ATOM      4  C   UNL     1      -6.125 -20.435  16.015  1.00  0.00     0.041 C 
ATOM      5  O   UNL     1      -6.210 -21.645  16.351  1.00  0.00    -0.550 OA
ATOM      6  O   UNL     1      -4.957 -19.730  16.281  1.00  0.00    -0.550 OA
ENDBRANCH   3   4
ENDBRANCH   2   3
ENDBRANCH   1   2
BRANCH   1   7
ATOM      7  C   UNL     1     -11.018 -20.645  14.892  1.00  0.00     0.000 C 
BRANCH   7   8
ATOM      8  C   UNL     1     -10.958 -21.098  16.356  1.00  0.00    -0.000 C 
BRANCH   8   9
ATOM      9  C   UNL     1     -11.721 -20.123  17.266  1.00  0.00    -0.000 C 
BRANCH   9  10
ATOM     10  C   UNL     1     -11.271 -20.209  18.732  1.00  0.00    -0.003 C 
ATOM     11  C   UNL     1     -12.431 -20.059  19.717  1.00  0.00     0.004 C 
ENDBRANCH   9  10
ENDBRANCH   8   9
ENDBRANCH   7   8
ENDBRANCH   1   7
TORSDOF 7
ENDMDL
MODEL 9
REMARK VINA RESULT:    -3.725      2.104      3.404
REMARK INTER + INTRA:          -5.475
REMARK INTER:                  -5.137
REMARK INTRA:                  -0.338
REMARK UNBOUND:                -0.226
REMARK SMILES CCCCCCCCC(=O)[O-]
REMARK SMILES IDX 6 1 7 2 8 3 9 4 10 5 11 6 5 7 4 8 3 9 2 10 1 11
REMARK H PARENT
REMARK Flexibility Score: inf
ROOT
ATOM      1  C   UNL     1      -9.875 -11.873   7.141  1.00  0.00     0.000 C 
ENDROOT
BRANCH   1   2
ATOM      2  C   UNL     1     -10.717 -11.614   5.880  1.00  0.00     0.006 C 
BRANCH   2   3
ATOM      3  C   UNL     1     -11.404 -10.236   5.860  1.00  0.00     0.053 C 
BRANCH   3   4
ATOM      4  C   UNL     1     -12.489 -10.119   6.886  1.00  0.00     0.041 C 
ATOM      5  O   UNL     1     -13.384 -11.000   6.965  1.00  0.00    -0.550 OA
ATOM      6  O   UNL     1     -12.534  -9.018   7.734  1.00  0.00    -0.550 OA
ENDBRANCH   3   4
ENDBRANCH   2   3
ENDBRANCH   1   2
BRANCH   1   7
ATOM      7  C   UNL     1      -8.783 -12.932   6.930  1.00  0.00     0.000 C 
BRANCH   7   8
ATOM      8  C   UNL     1      -8.756 -13.413   5.473  1.00  0.00    -0.000 C 
BRANCH   8   9
ATOM      9  C   UNL     1      -7.328 -13.774   5.039  1.00  0.00    -0.000 C 
BRANCH   9  10
ATOM     10  C   UNL     1      -6.943 -15.213   5.415  1.00  0.00    -0.003 C 
ATOM     11  C   UNL     1      -5.780 -15.275   6.406  1.00  0.00     0.004 C 
ENDBRANCH   9  10
ENDBRANCH   8   9
ENDBRANCH   7   8
ENDBRANCH   1   7
TORSDOF 7
ENDMDL
