MODEL 1
REMARK VINA RESULT:    -3.086      0.000      0.000
REMARK INTER + INTRA:          -3.677
REMARK INTER:                  -3.628
REMARK INTRA:                  -0.050
REMARK UNBOUND:                -0.050
REMARK SMILES CCCCC(=O)[O-]
REMARK SMILES IDX 4 1 5 2 6 3 7 4 3 5 2 6 1 7
REMARK H PARENT
REMARK Flexibility Score: inf
ROOT
ATOM      1  C   UNL     1      -5.913  -8.632 -14.567  1.00  0.00     0.053 C 
ENDROOT
BRANCH   1   2
ATOM      2  C   UNL     1      -6.680  -9.842 -14.998  1.00  0.00     0.041 C 
ATOM      3  O   UNL     1      -7.774 -10.129 -14.445  1.00  0.00    -0.550 OA
ATOM      4  O   UNL     1      -6.210 -10.627 -16.044  1.00  0.00    -0.550 OA
ENDBRANCH   1   2
BRANCH   1   5
ATOM      5  C   UNL     1      -4.759  -8.355 -15.536  1.00  0.00     0.006 C 
BRANCH   5   6
ATOM      6  C   UNL     1      -5.112  -7.217 -16.500  1.00  0.00    -0.003 C 
ATOM      7  C   UNL     1      -3.902  -6.806 -17.334  1.00  0.00     0.004 C 
ENDBRANCH   5   6
ENDBRANCH   1   5
TORSDOF 3
ENDMDL
MODEL 2
REMARK VINA RESULT:    -3.062     16.321     16.842
REMARK INTER + INTRA:          -3.649
REMARK INTER:                  -3.614
REMARK INTRA:                  -0.035
REMARK UNBOUND:                -0.050
REMARK SMILES CCCCC(=O)[O-]
REMARK SMILES IDX 4 1 5 2 6 3 7 4 3 5 2 6 1 7
REMARK H PARENT
REMARK Flexibility Score: inf
ROOT
ATOM      1  C   UNL     1     -18.885  -1.586 -23.088  1.00  0.00     0.053 C 
ENDROOT
BRANCH   1   2
ATOM      2  C   UNL     1     -19.422  -0.884 -24.294  1.00  0.00     0.041 C 
ATOM      3  O   UNL     1     -19.470   0.374 -24.326  1.00  0.00    -0.550 OA
ATOM      4  O   UNL     1     -19.825  -1.616 -25.404  1.00  0.00    -0.550 OA
ENDBRANCH   1   2
BRANCH   1   5
ATOM      5  C   UNL     1     -17.455  -1.126 -22.791  1.00  0.00     0.006 C 
BRANCH   5   6
ATOM      6  C   UNL     1     -17.255  -0.884 -21.290  1.00  0.00    -0.003 C 
ATOM      7  C   UNL     1     -16.400  -1.982 -20.665  1.00  0.00     0.004 C 
ENDBRANCH   5   6
ENDBRANCH   1   5
TORSDOF 3
ENDMDL
MODEL 3
REMARK VINA RESULT:    -3.036     16.633     17.184
REMARK INTER + INTRA:          -3.618
REMARK INTER:                  -3.575
REMARK INTRA:                  -0.043
REMARK UNBOUND:                -0.050
REMARK SMILES CCCCC(=O)[O-]
REMARK SMILES IDX 4 1 5 2 6 3 7 4 3 5 2 6 1 7
REMARK H PARENT
REMARK Flexibility Score: inf
ROOT
ATOM      1  C   UNL     1     -18.883  -1.603 -23.442  1.00  0.00     0.053 C 
ENDROOT
BRANCH   1   2
ATOM      2  C   UNL     1     -19.622  -0.830 -24.487  1.00  0.00     0.041 C 
ATOM      3  O   UNL     1     -19.988  -1.392 -25.552  1.00  0.00    -0.550 OA
ATOM      4  O   UNL     1     -19.951   0.502 -24.265  1.00  0.00    -0.550 OA
ENDBRANCH   1   2
BRANCH   1   5
ATOM      5  C   UNL     1     -17.553  -0.921 -23.110  1.00  0.00     0.006 C 
BRANCH   5   6
ATOM      6  C   UNL     1     -17.451  -0.613 -21.611  1.00  0.00    -0.003 C 
ATOM      7  C   UNL     1     -16.811  -1.771 -20.853  1.00  0.00     0.004 C 
ENDBRANCH   5   6
ENDBRANCH   1   5
TORSDOF 3
ENDMDL
MODEL 4
REMARK VINA RESULT:    -2.937      1.836      2.596
REMARK INTER + INTRA:          -3.501
REMARK INTER:                  -3.424
REMARK INTRA:                  -0.077
REMARK UNBOUND:                -0.050
REMARK SMILES CCCCC(=O)[O-]
REMARK SMILES IDX 4 1 5 2 6 3 7 4 3 5 2 6 1 7
REMARK H PARENT
REMARK Flexibility Score: inf
ROOT
ATOM      1  C   UNL     1      -4.905  -7.160 -16.686  1.00  0.00     0.053 C 
ENDROOT
BRANCH   1   2
ATOM      2  C   UNL     1      -5.074  -8.070 -15.512  1.00  0.00     0.041 C 
ATOM      3  O   UNL     1      -6.208  -8.538 -15.229  1.00  0.00    -0.550 OA
ATOM      4  O   UNL     1      -3.968  -8.442 -14.756  1.00  0.00    -0.550 OA
ENDBRANCH   1   2
BRANCH   1   5
ATOM      5  C   UNL     1      -4.440  -7.949 -17.914  1.00  0.00     0.006 C 
BRANCH   5   6
ATOM      6  C   UNL     1      -3.191  -7.313 -18.535  1.00  0.00    -0.003 C 
ATOM      7  C   UNL     1      -2.264  -6.754 -17.460  1.00  0.00     0.004 C 
ENDBRANCH   5   6
ENDBRANCH   1   5
TORSDOF 3
ENDMDL
MODEL 5
REMARK VINA RESULT:    -2.937      3.081      4.424
REMARK INTER + INTRA:          -3.501
REMARK INTER:                  -3.448
REMARK INTRA:                  -0.053
REMARK UNBOUND:                -0.050
REMARK SMILES CCCCC(=O)[O-]
REMARK SMILES IDX 4 1 5 2 6 3 7 4 3 5 2 6 1 7
REMARK H PARENT
REMARK Flexibility Score: inf
ROOT
ATOM      1  C   UNL     1      -4.403  -6.929 -17.044  1.00  0.00     0.053 C 
ENDROOT
BRANCH   1   2
ATOM      2  C   UNL     1      -2.949  -7.150 -17.314  1.00  0.00     0.041 C 
ATOM      3  O   UNL     1      -2.120  -6.223 -17.118  1.00  0.00    -0.550 OA
ATOM      4  O   UNL     1      -2.501  -8.396 -17.735  1.00  0.00    -0.550 OA
ENDBRANCH   1   2
BRANCH   1   5
ATOM      5  C   UNL     1      -5.043  -8.200 -16.477  1.00  0.00     0.006 C 
BRANCH   5   6
ATOM      6  C   UNL     1      -5.059  -8.170 -14.944  1.00  0.00    -0.003 C 
ATOM      7  C   UNL     1      -6.166  -9.061 -14.387  1.00  0.00     0.004 C 
ENDBRANCH   5   6
ENDBRANCH   1   5
TORSDOF 3
ENDMDL
MODEL 6
REMARK VINA RESULT:    -2.920      2.643      4.181
REMARK INTER + INTRA:          -3.482
REMARK INTER:                  -3.433
REMARK INTRA:                  -0.049
REMARK UNBOUND:                -0.050
REMARK SMILES CCCCC(=O)[O-]
REMARK SMILES IDX 4 1 5 2 6 3 7 4 3 5 2 6 1 7
REMARK H PARENT
REMARK Flexibility Score: inf
ROOT
ATOM      1  C   UNL     1      -3.984  -6.902 -17.260  1.00  0.00     0.053 C 
ENDROOT
BRANCH   1   2
ATOM      2  C   UNL     1      -3.934  -7.683 -18.534  1.00  0.00     0.041 C 
ATOM      3  O   UNL     1      -4.786  -8.581 -18.762  1.00  0.00    -0.550 OA
ATOM      4  O   UNL     1      -2.973  -7.387 -19.495  1.00  0.00    -0.550 OA
ENDBRANCH   1   2
BRANCH   1   5
ATOM      5  C   UNL     1      -5.194  -7.322 -16.421  1.00  0.00     0.006 C 
BRANCH   5   6
ATOM      6  C   UNL     1      -4.762  -8.177 -15.223  1.00  0.00    -0.003 C 
ATOM      7  C   UNL     1      -5.971  -8.762 -14.500  1.00  0.00     0.004 C 
ENDBRANCH   5   6
ENDBRANCH   1   5
TORSDOF 3
ENDMDL
MODEL 7
REMARK VINA RESULT:    -2.813     15.331     15.885
REMARK INTER + INTRA:          -3.356
REMARK INTER:                  -3.336
REMARK INTRA:                  -0.020
REMARK UNBOUND:                -0.050
REMARK SMILES CCCCC(=O)[O-]
REMARK SMILES IDX 4 1 5 2 6 3 7 4 3 5 2 6 1 7
REMARK H PARENT
REMARK Flexibility Score: inf
ROOT
ATOM      1  C   UNL     1     -18.130  -1.298 -22.385  1.00  0.00     0.053 C 
ENDROOT
BRANCH   1   2
ATOM      2  C   UNL     1     -18.135  -0.287 -23.487  1.00  0.00     0.041 C 
ATOM      3  O   UNL     1     -19.111  -0.218 -24.279  1.00  0.00    -0.550 OA
ATOM      4  O   UNL     1     -17.084   0.613 -23.610  1.00  0.00    -0.550 OA
ENDBRANCH   1   2
BRANCH   1   5
ATOM      5  C   UNL     1     -17.071  -0.945 -21.337  1.00  0.00     0.006 C 
BRANCH   5   6
ATOM      6  C   UNL     1     -16.945  -2.054 -20.286  1.00  0.00    -0.003 C 
ATOM      7  C   UNL     1     -15.487  -2.285 -19.901  1.00  0.00     0.004 C 
ENDBRANCH   5   6
ENDBRANCH   1   5
TORSDOF 3
ENDMDL
MODEL 8
REMARK VINA RESULT:    -2.727     12.068     12.605
REMARK INTER + INTRA:          -3.255
REMARK INTER:                  -3.210
REMARK INTRA:                  -0.045
REMARK UNBOUND:                -0.050
REMARK SMILES CCCCC(=O)[O-]
REMARK SMILES IDX 4 1 5 2 6 3 7 4 3 5 2 6 1 7
REMARK H PARENT
REMARK Flexibility Score: inf
ROOT
ATOM      1  C   UNL     1     -15.553  -2.543 -16.985  1.00  0.00     0.053 C 
ENDROOT
BRANCH   1   2
ATOM      2  C   UNL     1     -15.689  -1.818 -15.684  1.00  0.00     0.041 C 
ATOM      3  O   UNL     1     -14.682  -1.637 -14.951  1.00  0.00    -0.550 OA
ATOM      4  O   UNL     1     -16.920  -1.298 -15.303  1.00  0.00    -0.550 OA
ENDBRANCH   1   2
BRANCH   1   5
ATOM      5  C   UNL     1     -15.142  -1.576 -18.099  1.00  0.00     0.006 C 
BRANCH   5   6
ATOM      6  C   UNL     1     -16.307  -1.319 -19.062  1.00  0.00    -0.003 C 
ATOM      7  C   UNL     1     -16.133  -2.103 -20.359  1.00  0.00     0.004 C 
ENDBRANCH   5   6
ENDBRANCH   1   5
TORSDOF 3
ENDMDL
MODEL 9
REMARK VINA RESULT:    -2.704     17.915     18.454
REMARK INTER + INTRA:          -3.227
REMARK INTER:                  -3.117
REMARK INTRA:                  -0.111
REMARK UNBOUND:                -0.050
REMARK SMILES CCCCC(=O)[O-]
REMARK SMILES IDX 4 1 5 2 6 3 7 4 3 5 2 6 1 7
REMARK H PARENT
REMARK Flexibility Score: inf
ROOT
ATOM      1  C   UNL     1     -19.826   0.679 -23.878  1.00  0.00     0.053 C 
ENDROOT
BRANCH   1   2
ATOM      2  C   UNL     1     -18.661  -0.251 -23.764  1.00  0.00     0.041 C 
ATOM      3  O   UNL     1     -17.516   0.197 -23.494  1.00  0.00    -0.550 OA
ATOM      4  O   UNL     1     -18.847  -1.621 -23.907  1.00  0.00    -0.550 OA
ENDBRANCH   1   2
BRANCH   1   5
ATOM      5  C   UNL     1     -19.507   2.023 -23.216  1.00  0.00     0.006 C 
BRANCH   5   6
ATOM      6  C   UNL     1     -19.481   3.154 -24.251  1.00  0.00    -0.003 C 
ATOM      7  C   UNL     1     -18.050   3.556 -24.591  1.00  0.00     0.004 C 
ENDBRANCH   5   6
ENDBRANCH   1   5
TORSDOF 3
ENDMDL
