MODEL 1
REMARK VINA RESULT:    -7.065      0.000      0.000
REMARK INTER + INTRA:          -7.478
REMARK INTER:                  -7.478
REMARK INTRA:                   0.000
REMARK UNBOUND:                 0.000
REMARK SMILES O=c1ccc2cc(O)c(O)cc2o1
REMARK SMILES IDX 4 1 3 2 2 3 1 4 13 5 12 6 11 7 9 8 7 9 6 10 5 11 8 12 10 14
REMARK H PARENT 8 13 10 15
REMARK Flexibility Score: inf
ROOT
ATOM      1  C   UNL     1       9.449  67.259  -0.356  1.00  0.00     0.019 A 
ATOM      2  C   UNL     1       9.382  66.886   0.987  1.00  0.00     0.094 A 
ATOM      3  C   UNL     1       9.496  67.873   1.971  1.00  0.00     0.336 A 
ATOM      4  O   UNL     1       9.438  67.557   3.189  1.00  0.00    -0.246 OA
ATOM      5  O   UNL     1       9.665  69.149   1.630  1.00  0.00    -0.423 OA
ATOM      6  C   UNL     1       9.735  69.548   0.363  1.00  0.00     0.142 A 
ATOM      7  C   UNL     1       9.913  70.901   0.064  1.00  0.00     0.098 A 
ATOM      8  C   UNL     1       9.987  71.327  -1.271  1.00  0.00     0.161 A 
ATOM      9  C   UNL     1       9.881  70.393  -2.312  1.00  0.00     0.158 A 
ATOM     10  C   UNL     1       9.702  69.033  -2.018  1.00  0.00     0.062 A 
ATOM     11  C   UNL     1       9.628  68.607  -0.685  1.00  0.00     0.022 A 
ENDROOT
BRANCH   9  12
ATOM     12  O   UNL     1       9.956  70.824  -3.635  1.00  0.00    -0.504 OA
ATOM     13  H   UNL     1      10.571  71.581  -3.911  1.00  0.00     0.293 HD
ENDBRANCH   9  12
BRANCH   8  14
ATOM     14  O   UNL     1      10.165  72.676  -1.571  1.00  0.00    -0.504 OA
ATOM     15  H   UNL     1      11.018  73.016  -1.999  1.00  0.00     0.293 HD
ENDBRANCH   8  14
TORSDOF 2
ENDMDL
MODEL 2
REMARK VINA RESULT:    -7.036      2.074      3.749
REMARK INTER + INTRA:          -7.447
REMARK INTER:                  -7.447
REMARK INTRA:                   0.000
REMARK UNBOUND:                 0.000
REMARK SMILES O=c1ccc2cc(O)c(O)cc2o1
REMARK SMILES IDX 4 1 3 2 2 3 1 4 13 5 12 6 11 7 9 8 7 9 6 10 5 11 8 12 10 14
REMARK H PARENT 8 13 10 15
REMARK Flexibility Score: inf
ROOT
ATOM      1  C   UNL     1       9.033  67.484   0.876  1.00  0.00     0.019 A 
ATOM      2  C   UNL     1       8.977  67.021  -0.439  1.00  0.00     0.094 A 
ATOM      3  C   UNL     1       9.268  67.906  -1.481  1.00  0.00     0.336 A 
ATOM      4  O   UNL     1       9.224  67.508  -2.675  1.00  0.00    -0.246 OA
ATOM      5  O   UNL     1       9.593  69.171  -1.221  1.00  0.00    -0.423 OA
ATOM      6  C   UNL     1       9.658  69.653   0.018  1.00  0.00     0.142 A 
ATOM      7  C   UNL     1      10.005  70.990   0.230  1.00  0.00     0.098 A 
ATOM      8  C   UNL     1      10.074  71.503   1.534  1.00  0.00     0.161 A 
ATOM      9  C   UNL     1       9.796  70.674   2.630  1.00  0.00     0.158 A 
ATOM     10  C   UNL     1       9.446  69.330   2.422  1.00  0.00     0.062 A 
ATOM     11  C   UNL     1       9.377  68.817   1.120  1.00  0.00     0.022 A 
ENDROOT
BRANCH   9  12
ATOM     12  O   UNL     1       9.866  71.192   3.922  1.00  0.00    -0.504 OA
ATOM     13  H   UNL     1       9.666  72.166   4.114  1.00  0.00     0.293 HD
ENDBRANCH   9  12
BRANCH   8  14
ATOM     14  O   UNL     1      10.420  72.836   1.750  1.00  0.00    -0.504 OA
ATOM     15  H   UNL     1      11.046  73.328   1.123  1.00  0.00     0.293 HD
ENDBRANCH   8  14
TORSDOF 2
ENDMDL
MODEL 3
REMARK VINA RESULT:    -6.962      1.638      2.341
REMARK INTER + INTRA:          -7.368
REMARK INTER:                  -7.368
REMARK INTRA:                   0.000
REMARK UNBOUND:                 0.000
REMARK SMILES O=c1ccc2cc(O)c(O)cc2o1
REMARK SMILES IDX 4 1 3 2 2 3 1 4 13 5 12 6 11 7 9 8 7 9 6 10 5 11 8 12 10 14
REMARK H PARENT 8 13 10 15
REMARK Flexibility Score: inf
ROOT
ATOM      1  C   UNL     1       9.547  67.865   1.894  1.00  0.00     0.019 A 
ATOM      2  C   UNL     1       9.623  68.719   2.995  1.00  0.00     0.094 A 
ATOM      3  C   UNL     1       9.663  70.100   2.779  1.00  0.00     0.336 A 
ATOM      4  O   UNL     1       9.732  70.887   3.760  1.00  0.00    -0.246 OA
ATOM      5  O   UNL     1       9.630  70.591   1.542  1.00  0.00    -0.423 OA
ATOM      6  C   UNL     1       9.559  69.812   0.465  1.00  0.00     0.142 A 
ATOM      7  C   UNL     1       9.526  70.384  -0.810  1.00  0.00     0.098 A 
ATOM      8  C   UNL     1       9.451  69.568  -1.948  1.00  0.00     0.161 A 
ATOM      9  C   UNL     1       9.406  68.173  -1.810  1.00  0.00     0.158 A 
ATOM     10  C   UNL     1       9.439  67.593  -0.532  1.00  0.00     0.062 A 
ATOM     11  C   UNL     1       9.514  68.408   0.605  1.00  0.00     0.022 A 
ENDROOT
BRANCH   9  12
ATOM     12  O   UNL     1       9.332  67.369  -2.947  1.00  0.00    -0.504 OA
ATOM     13  H   UNL     1       9.087  67.754  -3.852  1.00  0.00     0.293 HD
ENDBRANCH   9  12
BRANCH   8  14
ATOM     14  O   UNL     1       9.418  70.135  -3.221  1.00  0.00    -0.504 OA
ATOM     15  H   UNL     1       9.211  71.118  -3.357  1.00  0.00     0.293 HD
ENDBRANCH   8  14
TORSDOF 2
ENDMDL
MODEL 4
REMARK VINA RESULT:    -6.952      1.065      2.366
REMARK INTER + INTRA:          -7.359
REMARK INTER:                  -7.359
REMARK INTRA:                   0.000
REMARK UNBOUND:                 0.000
REMARK SMILES O=c1ccc2cc(O)c(O)cc2o1
REMARK SMILES IDX 4 1 3 2 2 3 1 4 13 5 12 6 11 7 9 8 7 9 6 10 5 11 8 12 10 14
REMARK H PARENT 8 13 10 15
REMARK Flexibility Score: inf
ROOT
ATOM      1  C   UNL     1       9.892  70.288   2.441  1.00  0.00     0.019 A 
ATOM      2  C   UNL     1       9.647  69.019   2.967  1.00  0.00     0.094 A 
ATOM      3  C   UNL     1       9.372  67.965   2.091  1.00  0.00     0.336 A 
ATOM      4  O   UNL     1       9.149  66.812   2.546  1.00  0.00    -0.246 OA
ATOM      5  O   UNL     1       9.344  68.170   0.776  1.00  0.00    -0.423 OA
ATOM      6  C   UNL     1       9.571  69.363   0.233  1.00  0.00     0.142 A 
ATOM      7  C   UNL     1       9.529  69.519  -1.155  1.00  0.00     0.098 A 
ATOM      8  C   UNL     1       9.767  70.776  -1.732  1.00  0.00     0.161 A 
ATOM      9  C   UNL     1      10.051  71.881  -0.916  1.00  0.00     0.158 A 
ATOM     10  C   UNL     1      10.094  71.729   0.478  1.00  0.00     0.062 A 
ATOM     11  C   UNL     1       9.856  70.475   1.056  1.00  0.00     0.022 A 
ENDROOT
BRANCH   9  12
ATOM     12  O   UNL     1      10.286  73.125  -1.498  1.00  0.00    -0.504 OA
ATOM     13  H   UNL     1      10.937  73.786  -1.091  1.00  0.00     0.293 HD
ENDBRANCH   9  12
BRANCH   8  14
ATOM     14  O   UNL     1       9.726  70.934  -3.116  1.00  0.00    -0.504 OA
ATOM     15  H   UNL     1       9.589  71.844  -3.542  1.00  0.00     0.293 HD
ENDBRANCH   8  14
TORSDOF 2
ENDMDL
MODEL 5
REMARK VINA RESULT:    -6.935      1.223      4.406
REMARK INTER + INTRA:          -7.341
REMARK INTER:                  -7.341
REMARK INTRA:                   0.000
REMARK UNBOUND:                 0.000
REMARK SMILES O=c1ccc2cc(O)c(O)cc2o1
REMARK SMILES IDX 4 1 3 2 2 3 1 4 13 5 12 6 11 7 9 8 7 9 6 10 5 11 8 12 10 14
REMARK H PARENT 8 13 10 15
REMARK Flexibility Score: inf
ROOT
ATOM      1  C   UNL     1       9.384  67.657  -1.441  1.00  0.00     0.019 A 
ATOM      2  C   UNL     1       9.520  68.424  -2.599  1.00  0.00     0.094 A 
ATOM      3  C   UNL     1       9.848  69.778  -2.479  1.00  0.00     0.336 A 
ATOM      4  O   UNL     1       9.976  70.488  -3.512  1.00  0.00    -0.246 OA
ATOM      5  O   UNL     1      10.027  70.326  -1.279  1.00  0.00    -0.423 OA
ATOM      6  C   UNL     1       9.906  69.631  -0.150  1.00  0.00     0.142 A 
ATOM      7  C   UNL     1      10.106  70.259   1.082  1.00  0.00     0.098 A 
ATOM      8  C   UNL     1       9.980  69.531   2.275  1.00  0.00     0.161 A 
ATOM      9  C   UNL     1       9.654  68.167   2.233  1.00  0.00     0.158 A 
ATOM     10  C   UNL     1       9.452  67.532   0.998  1.00  0.00     0.062 A 
ATOM     11  C   UNL     1       9.577  68.258  -0.193  1.00  0.00     0.022 A 
ENDROOT
BRANCH   9  12
ATOM     12  O   UNL     1       9.530  67.451   3.423  1.00  0.00    -0.504 OA
ATOM     13  H   UNL     1       8.726  66.863   3.606  1.00  0.00     0.293 HD
ENDBRANCH   9  12
BRANCH   8  14
ATOM     14  O   UNL     1      10.179  70.154   3.505  1.00  0.00    -0.504 OA
ATOM     15  H   UNL     1       9.427  70.252   4.177  1.00  0.00     0.293 HD
ENDBRANCH   8  14
TORSDOF 2
ENDMDL
MODEL 6
REMARK VINA RESULT:    -6.875      2.187      3.799
REMARK INTER + INTRA:          -7.277
REMARK INTER:                  -7.277
REMARK INTRA:                   0.000
REMARK UNBOUND:                 0.000
REMARK SMILES O=c1ccc2cc(O)c(O)cc2o1
REMARK SMILES IDX 4 1 3 2 2 3 1 4 13 5 12 6 11 7 9 8 7 9 6 10 5 11 8 12 10 14
REMARK H PARENT 8 13 10 15
REMARK Flexibility Score: inf
ROOT
ATOM      1  C   UNL     1       9.860  70.269  -2.056  1.00  0.00     0.019 A 
ATOM      2  C   UNL     1       9.701  68.984  -2.575  1.00  0.00     0.094 A 
ATOM      3  C   UNL     1       9.596  67.905  -1.692  1.00  0.00     0.336 A 
ATOM      4  O   UNL     1       9.452  66.737  -2.141  1.00  0.00    -0.246 OA
ATOM      5  O   UNL     1       9.646  68.102  -0.377  1.00  0.00    -0.423 OA
ATOM      6  C   UNL     1       9.797  69.311   0.160  1.00  0.00     0.142 A 
ATOM      7  C   UNL     1       9.842  69.458   1.549  1.00  0.00     0.098 A 
ATOM      8  C   UNL     1      10.001  70.730   2.120  1.00  0.00     0.161 A 
ATOM      9  C   UNL     1      10.113  71.859   1.297  1.00  0.00     0.158 A 
ATOM     10  C   UNL     1      10.068  71.717  -0.099  1.00  0.00     0.062 A 
ATOM     11  C   UNL     1       9.910  70.447  -0.670  1.00  0.00     0.022 A 
ENDROOT
BRANCH   9  12
ATOM     12  O   UNL     1      10.271  73.119   1.872  1.00  0.00    -0.504 OA
ATOM     13  H   UNL     1      10.751  73.867   1.385  1.00  0.00     0.293 HD
ENDBRANCH   9  12
BRANCH   8  14
ATOM     14  O   UNL     1      10.046  70.880   3.505  1.00  0.00    -0.504 OA
ATOM     15  H   UNL     1       9.211  71.076   4.044  1.00  0.00     0.293 HD
ENDBRANCH   8  14
TORSDOF 2
ENDMDL
MODEL 7
REMARK VINA RESULT:    -6.483      1.606      3.046
REMARK INTER + INTRA:          -6.862
REMARK INTER:                  -6.862
REMARK INTRA:                   0.000
REMARK UNBOUND:                 0.000
REMARK SMILES O=c1ccc2cc(O)c(O)cc2o1
REMARK SMILES IDX 4 1 3 2 2 3 1 4 13 5 12 6 11 7 9 8 7 9 6 10 5 11 8 12 10 14
REMARK H PARENT 8 13 10 15
REMARK Flexibility Score: inf
ROOT
ATOM      1  C   UNL     1      10.125  72.177   0.690  1.00  0.00     0.019 A 
ATOM      2  C   UNL     1      10.040  71.968   2.067  1.00  0.00     0.094 A 
ATOM      3  C   UNL     1       9.701  70.696   2.539  1.00  0.00     0.336 A 
ATOM      4  O   UNL     1       9.619  70.487   3.778  1.00  0.00    -0.246 OA
ATOM      5  O   UNL     1       9.464  69.701   1.687  1.00  0.00    -0.423 OA
ATOM      6  C   UNL     1       9.534  69.858   0.367  1.00  0.00     0.142 A 
ATOM      7  C   UNL     1       9.276  68.776  -0.480  1.00  0.00     0.098 A 
ATOM      8  C   UNL     1       9.348  68.936  -1.872  1.00  0.00     0.161 A 
ATOM      9  C   UNL     1       9.683  70.183  -2.419  1.00  0.00     0.158 A 
ATOM     10  C   UNL     1       9.943  71.273  -1.573  1.00  0.00     0.062 A 
ATOM     11  C   UNL     1       9.871  71.114  -0.182  1.00  0.00     0.022 A 
ENDROOT
BRANCH   9  12
ATOM     12  O   UNL     1       9.753  70.333  -3.802  1.00  0.00    -0.504 OA
ATOM     13  H   UNL     1      10.237  71.116  -4.227  1.00  0.00     0.293 HD
ENDBRANCH   9  12
BRANCH   8  14
ATOM     14  O   UNL     1       9.092  67.859  -2.719  1.00  0.00    -0.504 OA
ATOM     15  H   UNL     1       8.217  67.348  -2.675  1.00  0.00     0.293 HD
ENDBRANCH   8  14
TORSDOF 2
ENDMDL
MODEL 8
REMARK VINA RESULT:    -6.445      1.398      4.530
REMARK INTER + INTRA:          -6.822
REMARK INTER:                  -6.822
REMARK INTRA:                   0.000
REMARK UNBOUND:                 0.000
REMARK SMILES O=c1ccc2cc(O)c(O)cc2o1
REMARK SMILES IDX 4 1 3 2 2 3 1 4 13 5 12 6 11 7 9 8 7 9 6 10 5 11 8 12 10 14
REMARK H PARENT 8 13 10 15
REMARK Flexibility Score: inf
ROOT
ATOM      1  C   UNL     1       9.393  69.884  -1.711  1.00  0.00     0.019 A 
ATOM      2  C   UNL     1       9.779  71.218  -1.844  1.00  0.00     0.094 A 
ATOM      3  C   UNL     1      10.193  71.920  -0.707  1.00  0.00     0.336 A 
ATOM      4  O   UNL     1      10.546  73.125  -0.805  1.00  0.00    -0.246 OA
ATOM      5  O   UNL     1      10.216  71.322   0.483  1.00  0.00    -0.423 OA
ATOM      6  C   UNL     1       9.856  70.053   0.653  1.00  0.00     0.142 A 
ATOM      7  C   UNL     1       9.902  69.478   1.926  1.00  0.00     0.098 A 
ATOM      8  C   UNL     1       9.522  68.140   2.111  1.00  0.00     0.161 A 
ATOM      9  C   UNL     1       9.097  67.373   1.017  1.00  0.00     0.158 A 
ATOM     10  C   UNL     1       9.049  67.946  -0.264  1.00  0.00     0.062 A 
ATOM     11  C   UNL     1       9.427  69.282  -0.449  1.00  0.00     0.022 A 
ENDROOT
BRANCH   9  12
ATOM     12  O   UNL     1       8.722  66.045   1.209  1.00  0.00    -0.504 OA
ATOM     13  H   UNL     1       8.086  65.776   1.951  1.00  0.00     0.293 HD
ENDBRANCH   9  12
BRANCH   8  14
ATOM     14  O   UNL     1       9.567  67.564   3.380  1.00  0.00    -0.504 OA
ATOM     15  H   UNL     1      10.007  66.665   3.538  1.00  0.00     0.293 HD
ENDBRANCH   8  14
TORSDOF 2
ENDMDL
MODEL 9
REMARK VINA RESULT:    -6.328      1.160      5.035
REMARK INTER + INTRA:          -6.698
REMARK INTER:                  -6.698
REMARK INTRA:                   0.000
REMARK UNBOUND:                 0.000
REMARK SMILES O=c1ccc2cc(O)c(O)cc2o1
REMARK SMILES IDX 4 1 3 2 2 3 1 4 13 5 12 6 11 7 9 8 7 9 6 10 5 11 8 12 10 14
REMARK H PARENT 8 13 10 15
REMARK Flexibility Score: inf
ROOT
ATOM      1  C   UNL     1      10.165  71.036  -0.235  1.00  0.00     0.019 A 
ATOM      2  C   UNL     1      10.183  71.292  -1.606  1.00  0.00     0.094 A 
ATOM      3  C   UNL     1       9.824  70.271  -2.491  1.00  0.00     0.336 A 
ATOM      4  O   UNL     1       9.833  70.482  -3.732  1.00  0.00    -0.246 OA
ATOM      5  O   UNL     1       9.470  69.073  -2.030  1.00  0.00    -0.423 OA
ATOM      6  C   UNL     1       9.440  68.786  -0.731  1.00  0.00     0.142 A 
ATOM      7  C   UNL     1       9.060  67.510  -0.305  1.00  0.00     0.098 A 
ATOM      8  C   UNL     1       9.027  67.203   1.063  1.00  0.00     0.161 A 
ATOM      9  C   UNL     1       9.374  68.178   2.010  1.00  0.00     0.158 A 
ATOM     10  C   UNL     1       9.756  69.460   1.588  1.00  0.00     0.062 A 
ATOM     11  C   UNL     1       9.790  69.768   0.221  1.00  0.00     0.022 A 
ENDROOT
BRANCH   9  12
ATOM     12  O   UNL     1       9.338  67.864   3.367  1.00  0.00    -0.504 OA
ATOM     13  H   UNL     1       8.929  66.999   3.701  1.00  0.00     0.293 HD
ENDBRANCH   9  12
BRANCH   8  14
ATOM     14  O   UNL     1       8.648  65.932   1.491  1.00  0.00    -0.504 OA
ATOM     15  H   UNL     1       8.350  65.760   2.444  1.00  0.00     0.293 HD
ENDBRANCH   8  14
TORSDOF 2
ENDMDL
