MODEL 1
REMARK VINA RESULT:    -3.742      0.000      0.000
REMARK INTER + INTRA:          -4.771
REMARK INTER:                  -4.726
REMARK INTRA:                  -0.044
REMARK UNBOUND:                -0.044
REMARK SMILES CSCC[C@@H]([NH3+])C(=O)[O-]
REMARK SMILES IDX 4 1 5 2 6 3 7 7 8 8 9 9 3 10 2 11 1 12
REMARK H PARENT 6 4 6 5 6 6
REMARK Flexibility Score: inf
ROOT
ATOM      1  C   UNL     1      20.728  27.965  18.183  1.00  0.00     0.082 C 
ENDROOT
BRANCH   1   2
ATOM      2  C   UNL     1      22.125  28.390  18.682  1.00  0.00     0.228 C 
BRANCH   2   3
ATOM      3  N   UNL     1      22.824  27.249  19.287  1.00  0.00    -0.350 N 
ATOM      4  H   UNL     1      22.343  26.351  19.047  1.00  0.00     0.345 HD
ATOM      5  H   UNL     1      22.845  27.358  20.326  1.00  0.00     0.345 HD
ATOM      6  H   UNL     1      23.812  27.214  18.943  1.00  0.00     0.345 HD
ENDBRANCH   2   3
BRANCH   2   7
ATOM      7  C   UNL     1      22.953  28.969  17.562  1.00  0.00     0.099 C 
ATOM      8  O   UNL     1      24.165  29.260  17.747  1.00  0.00    -0.544 OA
ATOM      9  O   UNL     1      22.381  29.174  16.312  1.00  0.00    -0.544 OA
ENDBRANCH   2   7
ENDBRANCH   1   2
BRANCH   1  10
ATOM     10  C   UNL     1      19.895  27.299  19.285  1.00  0.00     0.076 C 
BRANCH  10  11
ATOM     11  S   UNL     1      18.342  28.222  19.563  1.00  0.00    -0.165 SA
ATOM     12  C   UNL     1      17.405  26.819  20.253  1.00  0.00     0.085 C 
ENDBRANCH  10  11
ENDBRANCH   1  10
TORSDOF 5
ENDMDL
MODEL 2
REMARK VINA RESULT:    -3.490      4.945      6.352
REMARK INTER + INTRA:          -4.452
REMARK INTER:                  -4.376
REMARK INTRA:                  -0.076
REMARK UNBOUND:                -0.044
REMARK SMILES CSCC[C@@H]([NH3+])C(=O)[O-]
REMARK SMILES IDX 4 1 5 2 6 3 7 7 8 8 9 9 3 10 2 11 1 12
REMARK H PARENT 6 4 6 5 6 6
REMARK Flexibility Score: inf
ROOT
ATOM      1  C   UNL     1      17.613  28.352  19.711  1.00  0.00     0.082 C 
ENDROOT
BRANCH   1   2
ATOM      2  C   UNL     1      16.375  27.471  19.983  1.00  0.00     0.228 C 
BRANCH   2   3
ATOM      3  N   UNL     1      16.767  26.230  20.663  1.00  0.00    -0.350 N 
ATOM      4  H   UNL     1      17.247  26.440  21.569  1.00  0.00     0.345 HD
ATOM      5  H   UNL     1      17.414  25.681  20.053  1.00  0.00     0.345 HD
ATOM      6  H   UNL     1      15.920  25.644  20.849  1.00  0.00     0.345 HD
ENDBRANCH   2   3
BRANCH   2   7
ATOM      7  C   UNL     1      15.348  28.210  20.804  1.00  0.00     0.099 C 
ATOM      8  O   UNL     1      14.177  27.759  20.919  1.00  0.00    -0.544 OA
ATOM      9  O   UNL     1      15.695  29.390  21.449  1.00  0.00    -0.544 OA
ENDBRANCH   2   7
ENDBRANCH   1   2
BRANCH   1  10
ATOM     10  C   UNL     1      18.926  27.605  19.972  1.00  0.00     0.076 C 
BRANCH  10  11
ATOM     11  S   UNL     1      20.017  27.694  18.507  1.00  0.00    -0.165 SA
ATOM     12  C   UNL     1      21.530  27.143  19.360  1.00  0.00     0.085 C 
ENDBRANCH  10  11
ENDBRANCH   1  10
TORSDOF 5
ENDMDL
MODEL 3
REMARK VINA RESULT:    -3.477      1.751      1.963
REMARK INTER + INTRA:          -4.436
REMARK INTER:                  -4.353
REMARK INTRA:                  -0.083
REMARK UNBOUND:                -0.044
REMARK SMILES CSCC[C@@H]([NH3+])C(=O)[O-]
REMARK SMILES IDX 4 1 5 2 6 3 7 7 8 8 9 9 3 10 2 11 1 12
REMARK H PARENT 6 4 6 5 6 6
REMARK Flexibility Score: inf
ROOT
ATOM      1  C   UNL     1      19.807  27.919  19.738  1.00  0.00     0.082 C 
ENDROOT
BRANCH   1   2
ATOM      2  C   UNL     1      20.772  27.229  18.750  1.00  0.00     0.228 C 
BRANCH   2   3
ATOM      3  N   UNL     1      20.034  26.696  17.598  1.00  0.00    -0.350 N 
ATOM      4  H   UNL     1      20.318  27.184  16.717  1.00  0.00     0.345 HD
ATOM      5  H   UNL     1      19.007  26.826  17.745  1.00  0.00     0.345 HD
ATOM      6  H   UNL     1      20.221  25.671  17.500  1.00  0.00     0.345 HD
ENDBRANCH   2   3
BRANCH   2   7
ATOM      7  C   UNL     1      21.846  28.178  18.282  1.00  0.00     0.099 C 
ATOM      8  O   UNL     1      22.885  28.358  18.972  1.00  0.00    -0.544 OA
ATOM      9  O   UNL     1      21.699  28.853  17.077  1.00  0.00    -0.544 OA
ENDBRANCH   2   7
ENDBRANCH   1   2
BRANCH   1  10
ATOM     10  C   UNL     1      18.350  27.861  19.262  1.00  0.00     0.076 C 
BRANCH  10  11
ATOM     11  S   UNL     1      17.352  26.813  20.378  1.00  0.00    -0.165 SA
ATOM     12  C   UNL     1      15.866  27.868  20.356  1.00  0.00     0.085 C 
ENDBRANCH  10  11
ENDBRANCH   1  10
TORSDOF 5
ENDMDL
MODEL 4
REMARK VINA RESULT:    -3.469      3.401      4.669
REMARK INTER + INTRA:          -4.426
REMARK INTER:                  -4.580
REMARK INTRA:                   0.155
REMARK UNBOUND:                -0.044
REMARK SMILES CSCC[C@@H]([NH3+])C(=O)[O-]
REMARK SMILES IDX 4 1 5 2 6 3 7 7 8 8 9 9 3 10 2 11 1 12
REMARK H PARENT 6 4 6 5 6 6
REMARK Flexibility Score: inf
ROOT
ATOM      1  C   UNL     1      21.670  27.613  19.246  1.00  0.00     0.082 C 
ENDROOT
BRANCH   1   2
ATOM      2  C   UNL     1      20.335  27.736  18.480  1.00  0.00     0.228 C 
BRANCH   2   3
ATOM      3  N   UNL     1      20.177  26.619  17.541  1.00  0.00    -0.350 N 
ATOM      4  H   UNL     1      21.073  26.431  17.034  1.00  0.00     0.345 HD
ATOM      5  H   UNL     1      19.431  26.846  16.844  1.00  0.00     0.345 HD
ATOM      6  H   UNL     1      19.885  25.757  18.059  1.00  0.00     0.345 HD
ENDBRANCH   2   3
BRANCH   2   7
ATOM      7  C   UNL     1      19.164  27.786  19.429  1.00  0.00     0.099 C 
ATOM      8  O   UNL     1      19.246  27.265  20.573  1.00  0.00    -0.544 OA
ATOM      9  O   UNL     1      17.989  28.419  19.046  1.00  0.00    -0.544 OA
ENDBRANCH   2   7
ENDBRANCH   1   2
BRANCH   1  10
ATOM     10  C   UNL     1      22.809  28.370  18.552  1.00  0.00     0.076 C 
BRANCH  10  11
ATOM     11  S   UNL     1      22.227  29.110  16.985  1.00  0.00    -0.165 SA
ATOM     12  C   UNL     1      23.882  29.490  16.325  1.00  0.00     0.085 C 
ENDBRANCH  10  11
ENDBRANCH   1  10
TORSDOF 5
ENDMDL
MODEL 5
REMARK VINA RESULT:    -3.184      4.548      5.604
REMARK INTER + INTRA:          -4.066
REMARK INTER:                  -4.005
REMARK INTRA:                  -0.061
REMARK UNBOUND:                -0.044
REMARK SMILES CSCC[C@@H]([NH3+])C(=O)[O-]
REMARK SMILES IDX 4 1 5 2 6 3 7 7 8 8 9 9 3 10 2 11 1 12
REMARK H PARENT 6 4 6 5 6 6
REMARK Flexibility Score: inf
ROOT
ATOM      1  C   UNL     1      15.992  28.453  20.841  1.00  0.00     0.082 C 
ENDROOT
BRANCH   1   2
ATOM      2  C   UNL     1      16.831  27.387  20.104  1.00  0.00     0.228 C 
BRANCH   2   3
ATOM      3  N   UNL     1      16.195  27.021  18.832  1.00  0.00    -0.350 N 
ATOM      4  H   UNL     1      15.211  27.374  18.796  1.00  0.00     0.345 HD
ATOM      5  H   UNL     1      16.190  25.981  18.726  1.00  0.00     0.345 HD
ATOM      6  H   UNL     1      16.737  27.427  18.035  1.00  0.00     0.345 HD
ENDBRANCH   2   3
BRANCH   2   7
ATOM      7  C   UNL     1      18.238  27.873  19.859  1.00  0.00     0.099 C 
ATOM      8  O   UNL     1      18.890  27.466  18.861  1.00  0.00    -0.544 OA
ATOM      9  O   UNL     1      18.818  28.785  20.732  1.00  0.00    -0.544 OA
ENDBRANCH   2   7
ENDBRANCH   1   2
BRANCH   1  10
ATOM     10  C   UNL     1      14.568  27.967  21.138  1.00  0.00     0.076 C 
BRANCH  10  11
ATOM     11  S   UNL     1      13.693  29.160  22.212  1.00  0.00    -0.165 SA
ATOM     12  C   UNL     1      15.022  30.407  22.237  1.00  0.00     0.085 C 
ENDBRANCH  10  11
ENDBRANCH   1  10
TORSDOF 5
ENDMDL
MODEL 6
REMARK VINA RESULT:    -3.122      3.537      4.622
REMARK INTER + INTRA:          -3.987
REMARK INTER:                  -3.928
REMARK INTRA:                  -0.059
REMARK UNBOUND:                -0.044
REMARK SMILES CSCC[C@@H]([NH3+])C(=O)[O-]
REMARK SMILES IDX 4 1 5 2 6 3 7 7 8 8 9 9 3 10 2 11 1 12
REMARK H PARENT 6 4 6 5 6 6
REMARK Flexibility Score: inf
ROOT
ATOM      1  C   UNL     1      21.627  28.261  18.317  1.00  0.00     0.082 C 
ENDROOT
BRANCH   1   2
ATOM      2  C   UNL     1      20.179  27.799  18.048  1.00  0.00     0.228 C 
BRANCH   2   3
ATOM      3  N   UNL     1      20.171  26.467  17.431  1.00  0.00    -0.350 N 
ATOM      4  H   UNL     1      21.022  25.925  17.708  1.00  0.00     0.345 HD
ATOM      5  H   UNL     1      20.149  26.560  16.389  1.00  0.00     0.345 HD
ATOM      6  H   UNL     1      19.315  25.943  17.729  1.00  0.00     0.345 HD
ENDBRANCH   2   3
BRANCH   2   7
ATOM      7  C   UNL     1      19.364  27.788  19.317  1.00  0.00     0.099 C 
ATOM      8  O   UNL     1      19.845  27.313  20.381  1.00  0.00    -0.544 OA
ATOM      9  O   UNL     1      18.078  28.313  19.320  1.00  0.00    -0.544 OA
ENDBRANCH   2   7
ENDBRANCH   1   2
BRANCH   1  10
ATOM     10  C   UNL     1      22.190  29.107  17.168  1.00  0.00     0.076 C 
BRANCH  10  11
ATOM     11  S   UNL     1      23.990  29.348  17.371  1.00  0.00    -0.165 SA
ATOM     12  C   UNL     1      24.143  28.374  18.904  1.00  0.00     0.085 C 
ENDBRANCH  10  11
ENDBRANCH   1  10
TORSDOF 5
ENDMDL
MODEL 7
REMARK VINA RESULT:    -3.049      7.823      8.577
REMARK INTER + INTRA:          -3.895
REMARK INTER:                  -3.825
REMARK INTRA:                  -0.070
REMARK UNBOUND:                -0.044
REMARK SMILES CSCC[C@@H]([NH3+])C(=O)[O-]
REMARK SMILES IDX 4 1 5 2 6 3 7 7 8 8 9 9 3 10 2 11 1 12
REMARK H PARENT 6 4 6 5 6 6
REMARK Flexibility Score: inf
ROOT
ATOM      1  C   UNL     1      14.999  30.228  22.100  1.00  0.00     0.082 C 
ENDROOT
BRANCH   1   2
ATOM      2  C   UNL     1      14.184  28.922  22.225  1.00  0.00     0.228 C 
BRANCH   2   3
ATOM      3  N   UNL     1      12.764  29.222  22.448  1.00  0.00    -0.350 N 
ATOM      4  H   UNL     1      12.464  30.042  21.870  1.00  0.00     0.345 HD
ATOM      5  H   UNL     1      12.603  29.439  23.458  1.00  0.00     0.345 HD
ATOM      6  H   UNL     1      12.182  28.390  22.196  1.00  0.00     0.345 HD
ENDBRANCH   2   3
BRANCH   2   7
ATOM      7  C   UNL     1      14.346  28.058  21.001  1.00  0.00     0.099 C 
ATOM      8  O   UNL     1      13.335  27.648  20.369  1.00  0.00    -0.544 OA
ATOM      9  O   UNL     1      15.616  27.717  20.555  1.00  0.00    -0.544 OA
ENDBRANCH   2   7
ENDBRANCH   1   2
BRANCH   1  10
ATOM     10  C   UNL     1      14.970  31.056  23.390  1.00  0.00     0.076 C 
BRANCH  10  11
ATOM     11  S   UNL     1      14.971  32.844  23.004  1.00  0.00    -0.165 SA
ATOM     12  C   UNL     1      15.609  32.673  21.306  1.00  0.00     0.085 C 
ENDBRANCH  10  11
ENDBRANCH   1  10
TORSDOF 5
ENDMDL
MODEL 8
REMARK VINA RESULT:    -3.047      8.285      9.095
REMARK INTER + INTRA:          -3.892
REMARK INTER:                  -3.839
REMARK INTRA:                  -0.054
REMARK UNBOUND:                -0.044
REMARK SMILES CSCC[C@@H]([NH3+])C(=O)[O-]
REMARK SMILES IDX 4 1 5 2 6 3 7 7 8 8 9 9 3 10 2 11 1 12
REMARK H PARENT 6 4 6 5 6 6
REMARK Flexibility Score: inf
ROOT
ATOM      1  C   UNL     1      14.578  31.933  21.979  1.00  0.00     0.082 C 
ENDROOT
BRANCH   1   2
ATOM      2  C   UNL     1      15.039  30.609  22.624  1.00  0.00     0.228 C 
BRANCH   2   3
ATOM      3  N   UNL     1      15.103  30.744  24.085  1.00  0.00    -0.350 N 
ATOM      4  H   UNL     1      14.711  29.895  24.554  1.00  0.00     0.345 HD
ATOM      5  H   UNL     1      14.557  31.583  24.387  1.00  0.00     0.345 HD
ATOM      6  H   UNL     1      16.097  30.878  24.386  1.00  0.00     0.345 HD
ENDBRANCH   2   3
BRANCH   2   7
ATOM      7  C   UNL     1      14.125  29.470  22.249  1.00  0.00     0.099 C 
ATOM      8  O   UNL     1      12.903  29.503  22.556  1.00  0.00    -0.544 OA
ATOM      9  O   UNL     1      14.626  28.380  21.550  1.00  0.00    -0.544 OA
ENDBRANCH   2   7
ENDBRANCH   1   2
BRANCH   1  10
ATOM     10  C   UNL     1      15.757  32.776  21.477  1.00  0.00     0.076 C 
BRANCH  10  11
ATOM     11  S   UNL     1      15.638  34.487  22.110  1.00  0.00    -0.165 SA
ATOM     12  C   UNL     1      17.416  34.863  21.982  1.00  0.00     0.085 C 
ENDBRANCH  10  11
ENDBRANCH   1  10
TORSDOF 5
ENDMDL
MODEL 9
REMARK VINA RESULT:    -2.874      8.175      8.679
REMARK INTER + INTRA:          -3.674
REMARK INTER:                  -3.567
REMARK INTRA:                  -0.107
REMARK UNBOUND:                -0.044
REMARK SMILES CSCC[C@@H]([NH3+])C(=O)[O-]
REMARK SMILES IDX 4 1 5 2 6 3 7 7 8 8 9 9 3 10 2 11 1 12
REMARK H PARENT 6 4 6 5 6 6
REMARK Flexibility Score: inf
ROOT
ATOM      1  C   UNL     1      14.932  31.738  22.215  1.00  0.00     0.082 C 
ENDROOT
BRANCH   1   2
ATOM      2  C   UNL     1      15.524  32.821  21.287  1.00  0.00     0.228 C 
BRANCH   2   3
ATOM      3  N   UNL     1      14.481  33.379  20.417  1.00  0.00    -0.350 N 
ATOM      4  H   UNL     1      13.767  33.897  20.980  1.00  0.00     0.345 HD
ATOM      5  H   UNL     1      14.008  32.608  19.893  1.00  0.00     0.345 HD
ATOM      6  H   UNL     1      14.910  34.031  19.720  1.00  0.00     0.345 HD
ENDBRANCH   2   3
BRANCH   2   7
ATOM      7  C   UNL     1      16.179  33.923  22.082  1.00  0.00     0.099 C 
ATOM      8  O   UNL     1      17.222  34.487  21.654  1.00  0.00    -0.544 OA
ATOM      9  O   UNL     1      15.627  34.329  23.290  1.00  0.00    -0.544 OA
ENDBRANCH   2   7
ENDBRANCH   1   2
BRANCH   1  10
ATOM     10  C   UNL     1      13.399  31.714  22.175  1.00  0.00     0.076 C 
BRANCH  10  11
ATOM     11  S   UNL     1      12.771  30.063  22.644  1.00  0.00    -0.165 SA
ATOM     12  C   UNL     1      14.263  29.141  22.148  1.00  0.00     0.085 C 
ENDBRANCH  10  11
ENDBRANCH   1  10
TORSDOF 5
ENDMDL
