MODEL 1
REMARK VINA RESULT:    -6.313      0.000      0.000
REMARK INTER + INTRA:         -14.181
REMARK INTER:                 -10.925
REMARK INTRA:                  -3.256
REMARK UNBOUND:                -3.256
REMARK SMILES OC[C@@H]1O[C@H](O[C@H]2[C@@H](O)[C@@H](O)[C@@H](O[C@@H]3[C@@H](O)[C@@H](O)[C@@H](O)O[C@H]3CO)O[C@H]2CO)[C@H](O)[C@H](O)[C@H]1O
REMARK SMILES IDX 7 1 26 2 25 3 12 4 10 5 8 6 6 7 5 8 3 9 33 10 4 11 31 12
REMARK SMILES IDX 29 13 2 14 1 15 34 17 32 19 30 21 27 23 28 24 9 26 11 28
REMARK SMILES IDX 13 30 14 31 22 32 15 33 21 34 17 35 19 36 23 37 24 38 16 40
REMARK SMILES IDX 18 42 20 44
REMARK H PARENT 1 16 34 18 32 20 30 22 28 25 9 27 11 29 24 39 16 41 18 43
REMARK H PARENT 20 45
REMARK Flexibility Score: inf
ROOT
ATOM      1  C   UNL     1     236.668 237.379 239.768  1.00  0.00     0.184 C 
ATOM      2  C   UNL     1     237.511 236.947 238.520  1.00  0.00     0.178 C 
ATOM      3  O   UNL     1     238.510 235.955 238.745  1.00  0.00    -0.341 OA
ATOM      4  C   UNL     1     238.113 234.861 239.550  1.00  0.00     0.282 C 
ATOM      5  C   UNL     1     237.544 235.315 240.905  1.00  0.00     0.202 C 
ATOM      6  C   UNL     1     236.315 236.202 240.700  1.00  0.00     0.180 C 
ENDROOT
BRANCH   1   7
ATOM      7  O   UNL     1     235.497 238.065 239.346  1.00  0.00    -0.341 OA
BRANCH   7   8
ATOM      8  C   UNL     1     234.977 238.977 240.315  1.00  0.00     0.282 C 
ATOM      9  C   UNL     1     234.162 240.688 238.827  1.00  0.00     0.178 C 
ATOM     10  C   UNL     1     232.683 240.360 239.185  1.00  0.00     0.177 C 
ATOM     11  O   UNL     1     235.103 240.311 239.831  1.00  0.00    -0.341 OA
ATOM     12  C   UNL     1     232.587 239.811 240.617  1.00  0.00     0.179 C 
ATOM     13  C   UNL     1     233.521 238.596 240.737  1.00  0.00     0.202 C 
BRANCH   9  14
ATOM     14  C   UNL     1     234.629 240.270 237.399  1.00  0.00     0.191 C 
BRANCH  14  15
ATOM     15  O   UNL     1     234.095 239.046 236.966  1.00  0.00    -0.394 OA
ATOM     16  H   UNL     1     233.167 239.012 237.288  1.00  0.00     0.210 HD
ENDBRANCH  14  15
ENDBRANCH   9  14
BRANCH  10  17
ATOM     17  O   UNL     1     231.888 241.512 239.046  1.00  0.00    -0.387 OA
ATOM     18  H   UNL     1     231.168 241.296 238.399  1.00  0.00     0.211 HD
ENDBRANCH  10  17
BRANCH  12  19
ATOM     19  O   UNL     1     231.262 239.456 240.914  1.00  0.00    -0.387 OA
ATOM     20  H   UNL     1     231.213 238.463 240.860  1.00  0.00     0.211 HD
ENDBRANCH  12  19
BRANCH  13  21
ATOM     21  O   UNL     1     233.038 237.544 239.943  1.00  0.00    -0.385 OA
ATOM     22  H   UNL     1     232.544 237.961 239.186  1.00  0.00     0.211 HD
ENDBRANCH  13  21
ENDBRANCH   7   8
ENDBRANCH   1   7
BRANCH   2  23
ATOM     23  C   UNL     1     236.731 236.703 237.213  1.00  0.00     0.191 C 
BRANCH  23  24
ATOM     24  O   UNL     1     235.450 236.178 237.403  1.00  0.00    -0.394 OA
ATOM     25  H   UNL     1     235.458 235.710 238.274  1.00  0.00     0.210 HD
ENDBRANCH  23  24
ENDBRANCH   2  23
BRANCH   6  26
ATOM     26  O   UNL     1     235.253 235.449 240.170  1.00  0.00    -0.387 OA
ATOM     27  H   UNL     1     234.428 235.742 240.640  1.00  0.00     0.211 HD
ENDBRANCH   6  26
BRANCH   5  28
ATOM     28  O   UNL     1     237.207 234.186 241.677  1.00  0.00    -0.385 OA
ATOM     29  H   UNL     1     237.887 234.123 242.398  1.00  0.00     0.211 HD
ENDBRANCH   5  28
BRANCH   4  30
ATOM     30  O   UNL     1     237.180 234.026 238.876  1.00  0.00    -0.341 OA
BRANCH  30  31
ATOM     31  C   UNL     1     237.798 232.992 238.120  1.00  0.00     0.184 C 
ATOM     32  C   UNL     1     239.050 232.407 238.873  1.00  0.00     0.178 C 
ATOM     33  C   UNL     1     236.751 231.885 237.909  1.00  0.00     0.180 C 
ATOM     34  O   UNL     1     238.813 231.082 239.344  1.00  0.00    -0.342 OA
ATOM     35  C   UNL     1     236.371 231.292 239.287  1.00  0.00     0.201 C 
ATOM     36  C   UNL     1     237.648 231.028 240.147  1.00  0.00     0.279 C 
BRANCH  32  37
ATOM     37  C   UNL     1     240.268 232.399 237.941  1.00  0.00     0.191 C 
BRANCH  37  38
ATOM     38  O   UNL     1     240.206 231.302 237.067  1.00  0.00    -0.394 OA
ATOM     39  H   UNL     1     240.139 230.491 237.635  1.00  0.00     0.210 HD
ENDBRANCH  37  38
ENDBRANCH  32  37
BRANCH  33  40
ATOM     40  O   UNL     1     237.269 230.882 237.067  1.00  0.00    -0.387 OA
ATOM     41  H   UNL     1     238.203 230.705 237.351  1.00  0.00     0.211 HD
ENDBRANCH  33  40
BRANCH  35  42
ATOM     42  O   UNL     1     235.600 230.127 239.109  1.00  0.00    -0.385 OA
ATOM     43  H   UNL     1     235.369 230.074 238.137  1.00  0.00     0.211 HD
ENDBRANCH  35  42
BRANCH  36  44
ATOM     44  O   UNL     1     237.582 229.764 240.759  1.00  0.00    -0.366 OA
ATOM     45  H   UNL     1     237.520 229.921 241.742  1.00  0.00     0.213 HD
ENDBRANCH  36  44
ENDBRANCH  30  31
ENDBRANCH   4  30
TORSDOF 18
ENDMDL
MODEL 2
REMARK VINA RESULT:    -6.133      1.737      2.354
REMARK INTER + INTRA:         -13.870
REMARK INTER:                 -10.771
REMARK INTRA:                  -3.099
REMARK UNBOUND:                -3.256
REMARK SMILES OC[C@@H]1O[C@H](O[C@H]2[C@@H](O)[C@@H](O)[C@@H](O[C@@H]3[C@@H](O)[C@@H](O)[C@@H](O)O[C@H]3CO)O[C@H]2CO)[C@H](O)[C@H](O)[C@H]1O
REMARK SMILES IDX 7 1 26 2 25 3 12 4 10 5 8 6 6 7 5 8 3 9 33 10 4 11 31 12
REMARK SMILES IDX 29 13 2 14 1 15 34 17 32 19 30 21 27 23 28 24 9 26 11 28
REMARK SMILES IDX 13 30 14 31 22 32 15 33 21 34 17 35 19 36 23 37 24 38 16 40
REMARK SMILES IDX 18 42 20 44
REMARK H PARENT 1 16 34 18 32 20 30 22 28 25 9 27 11 29 24 39 16 41 18 43
REMARK H PARENT 20 45
REMARK Flexibility Score: inf
ROOT
ATOM      1  C   UNL     1     237.342 237.871 238.659  1.00  0.00     0.184 C 
ATOM      2  C   UNL     1     237.142 236.775 237.560  1.00  0.00     0.178 C 
ATOM      3  O   UNL     1     238.294 236.009 237.214  1.00  0.00    -0.341 OA
ATOM      4  C   UNL     1     239.078 235.562 238.305  1.00  0.00     0.282 C 
ATOM      5  C   UNL     1     239.504 236.719 239.224  1.00  0.00     0.202 C 
ATOM      6  C   UNL     1     238.275 237.423 239.803  1.00  0.00     0.180 C 
ENDROOT
BRANCH   1   7
ATOM      7  O   UNL     1     236.079 238.286 239.164  1.00  0.00    -0.341 OA
BRANCH   7   8
ATOM      8  C   UNL     1     235.934 239.702 239.275  1.00  0.00     0.282 C 
ATOM      9  C   UNL     1     233.530 239.832 239.375  1.00  0.00     0.178 C 
ATOM     10  C   UNL     1     233.571 240.295 240.861  1.00  0.00     0.177 C 
ATOM     11  O   UNL     1     234.724 240.110 238.644  1.00  0.00    -0.341 OA
ATOM     12  C   UNL     1     234.868 241.066 241.147  1.00  0.00     0.179 C 
ATOM     13  C   UNL     1     236.060 240.176 240.760  1.00  0.00     0.202 C 
BRANCH   9  14
ATOM     14  C   UNL     1     233.014 238.381 239.125  1.00  0.00     0.191 C 
BRANCH  14  15
ATOM     15  O   UNL     1     233.454 237.452 240.081  1.00  0.00    -0.394 OA
ATOM     16  H   UNL     1     233.404 237.900 240.955  1.00  0.00     0.210 HD
ENDBRANCH  14  15
ENDBRANCH   9  14
BRANCH  10  17
ATOM     17  O   UNL     1     232.450 241.096 241.145  1.00  0.00    -0.387 OA
ATOM     18  H   UNL     1     231.773 240.915 240.443  1.00  0.00     0.211 HD
ENDBRANCH  10  17
BRANCH  12  19
ATOM     19  O   UNL     1     234.931 241.426 242.502  1.00  0.00    -0.387 OA
ATOM     20  H   UNL     1     235.779 241.047 242.860  1.00  0.00     0.211 HD
ENDBRANCH  12  19
BRANCH  13  21
ATOM     21  O   UNL     1     236.130 239.072 241.624  1.00  0.00    -0.385 OA
ATOM     22  H   UNL     1     235.208 238.916 241.964  1.00  0.00     0.211 HD
ENDBRANCH  13  21
ENDBRANCH   7   8
ENDBRANCH   1   7
BRANCH   2  23
ATOM     23  C   UNL     1     235.877 235.903 237.677  1.00  0.00     0.191 C 
BRANCH  23  24
ATOM     24  O   UNL     1     235.582 235.499 238.982  1.00  0.00    -0.394 OA
ATOM     25  H   UNL     1     235.097 234.640 238.913  1.00  0.00     0.210 HD
ENDBRANCH  23  24
ENDBRANCH   2  23
BRANCH   6  26
ATOM     26  O   UNL     1     237.599 236.571 240.692  1.00  0.00    -0.387 OA
ATOM     27  H   UNL     1     237.066 237.150 241.299  1.00  0.00     0.211 HD
ENDBRANCH   6  26
BRANCH   5  28
ATOM     28  O   UNL     1     240.315 236.222 240.263  1.00  0.00    -0.385 OA
ATOM     29  H   UNL     1     239.723 235.685 240.851  1.00  0.00     0.211 HD
ENDBRANCH   5  28
BRANCH   4  30
ATOM     30  O   UNL     1     238.410 234.555 239.052  1.00  0.00    -0.341 OA
BRANCH  30  31
ATOM     31  C   UNL     1     239.095 233.308 239.049  1.00  0.00     0.184 C 
ATOM     32  C   UNL     1     239.343 232.791 240.514  1.00  0.00     0.178 C 
ATOM     33  C   UNL     1     238.219 232.302 238.281  1.00  0.00     0.180 C 
ATOM     34  O   UNL     1     238.539 231.654 240.818  1.00  0.00    -0.342 OA
ATOM     35  C   UNL     1     236.894 232.105 239.057  1.00  0.00     0.201 C 
ATOM     36  C   UNL     1     237.169 231.921 240.583  1.00  0.00     0.279 C 
BRANCH  32  37
ATOM     37  C   UNL     1     240.821 232.426 240.701  1.00  0.00     0.191 C 
BRANCH  37  38
ATOM     38  O   UNL     1     241.612 233.585 240.707  1.00  0.00    -0.394 OA
ATOM     39  H   UNL     1     242.476 233.341 240.285  1.00  0.00     0.210 HD
ENDBRANCH  37  38
ENDBRANCH  32  37
BRANCH  33  40
ATOM     40  O   UNL     1     238.897 231.075 238.145  1.00  0.00    -0.387 OA
ATOM     41  H   UNL     1     238.919 230.851 237.179  1.00  0.00     0.211 HD
ENDBRANCH  33  40
BRANCH  35  42
ATOM     42  O   UNL     1     236.179 231.021 238.511  1.00  0.00    -0.385 OA
ATOM     43  H   UNL     1     236.854 230.379 238.146  1.00  0.00     0.211 HD
ENDBRANCH  35  42
BRANCH  36  44
ATOM     44  O   UNL     1     236.407 230.857 241.100  1.00  0.00    -0.366 OA
ATOM     45  H   UNL     1     236.582 230.827 242.081  1.00  0.00     0.213 HD
ENDBRANCH  36  44
ENDBRANCH  30  31
ENDBRANCH   4  30
TORSDOF 18
ENDMDL
MODEL 3
REMARK VINA RESULT:    -6.118      1.460      8.026
REMARK INTER + INTRA:         -13.844
REMARK INTER:                 -11.083
REMARK INTRA:                  -2.761
REMARK UNBOUND:                -3.256
REMARK SMILES OC[C@@H]1O[C@H](O[C@H]2[C@@H](O)[C@@H](O)[C@@H](O[C@@H]3[C@@H](O)[C@@H](O)[C@@H](O)O[C@H]3CO)O[C@H]2CO)[C@H](O)[C@H](O)[C@H]1O
REMARK SMILES IDX 7 1 26 2 25 3 12 4 10 5 8 6 6 7 5 8 3 9 33 10 4 11 31 12
REMARK SMILES IDX 29 13 2 14 1 15 34 17 32 19 30 21 27 23 28 24 9 26 11 28
REMARK SMILES IDX 13 30 14 31 22 32 15 33 21 34 17 35 19 36 23 37 24 38 16 40
REMARK SMILES IDX 18 42 20 44
REMARK H PARENT 1 16 34 18 32 20 30 22 28 25 9 27 11 29 24 39 16 41 18 43
REMARK H PARENT 20 45
REMARK Flexibility Score: inf
ROOT
ATOM      1  C   UNL     1     238.134 235.257 238.966  1.00  0.00     0.184 C 
ATOM      2  C   UNL     1     237.980 236.393 240.032  1.00  0.00     0.178 C 
ATOM      3  O   UNL     1     237.955 237.728 239.534  1.00  0.00    -0.341 OA
ATOM      4  C   UNL     1     237.154 237.935 238.385  1.00  0.00     0.282 C 
ATOM      5  C   UNL     1     237.528 236.981 237.239  1.00  0.00     0.202 C 
ATOM      6  C   UNL     1     237.339 235.525 237.672  1.00  0.00     0.180 C 
ENDROOT
BRANCH   1   7
ATOM      7  O   UNL     1     237.773 234.006 239.537  1.00  0.00    -0.341 OA
BRANCH   7   8
ATOM      8  C   UNL     1     238.125 232.878 238.734  1.00  0.00     0.282 C 
ATOM      9  C   UNL     1     238.930 231.413 240.470  1.00  0.00     0.178 C 
ATOM     10  C   UNL     1     237.723 230.449 240.280  1.00  0.00     0.177 C 
ATOM     11  O   UNL     1     239.234 232.202 239.321  1.00  0.00    -0.341 OA
ATOM     12  C   UNL     1     237.223 230.495 238.828  1.00  0.00     0.179 C 
ATOM     13  C   UNL     1     236.892 231.953 238.472  1.00  0.00     0.202 C 
BRANCH   9  14
ATOM     14  C   UNL     1     238.927 232.261 241.780  1.00  0.00     0.191 C 
BRANCH  14  15
ATOM     15  O   UNL     1     237.642 232.613 242.222  1.00  0.00    -0.394 OA
ATOM     16  H   UNL     1     237.089 231.804 242.159  1.00  0.00     0.210 HD
ENDBRANCH  14  15
ENDBRANCH   9  14
BRANCH  10  17
ATOM     17  O   UNL     1     238.095 229.138 240.629  1.00  0.00    -0.387 OA
ATOM     18  H   UNL     1     237.261 228.634 240.813  1.00  0.00     0.211 HD
ENDBRANCH  10  17
BRANCH  12  19
ATOM     19  O   UNL     1     236.096 229.674 238.674  1.00  0.00    -0.387 OA
ATOM     20  H   UNL     1     235.914 229.615 237.697  1.00  0.00     0.211 HD
ENDBRANCH  12  19
BRANCH  13  21
ATOM     21  O   UNL     1     235.786 232.386 239.220  1.00  0.00    -0.385 OA
ATOM     22  H   UNL     1     236.117 232.565 240.142  1.00  0.00     0.211 HD
ENDBRANCH  13  21
ENDBRANCH   7   8
ENDBRANCH   1   7
BRANCH   2  23
ATOM     23  C   UNL     1     236.930 236.164 241.137  1.00  0.00     0.191 C 
BRANCH  23  24
ATOM     24  O   UNL     1     235.728 235.617 240.677  1.00  0.00    -0.394 OA
ATOM     25  H   UNL     1     235.004 236.027 241.210  1.00  0.00     0.210 HD
ENDBRANCH  23  24
ENDBRANCH   2  23
BRANCH   6  26
ATOM     26  O   UNL     1     235.975 235.245 237.859  1.00  0.00    -0.387 OA
ATOM     27  H   UNL     1     235.876 234.896 238.784  1.00  0.00     0.211 HD
ENDBRANCH   6  26
BRANCH   5  28
ATOM     28  O   UNL     1     236.730 237.261 236.112  1.00  0.00    -0.385 OA
ATOM     29  H   UNL     1     236.150 236.469 235.973  1.00  0.00     0.211 HD
ENDBRANCH   5  28
BRANCH   4  30
ATOM     30  O   UNL     1     235.769 237.831 238.686  1.00  0.00    -0.341 OA
BRANCH  30  31
ATOM     31  C   UNL     1     234.984 238.845 238.072  1.00  0.00     0.184 C 
ATOM     32  C   UNL     1     233.681 238.243 237.426  1.00  0.00     0.178 C 
ATOM     33  C   UNL     1     234.604 239.860 239.164  1.00  0.00     0.180 C 
ATOM     34  O   UNL     1     232.509 238.624 238.143  1.00  0.00    -0.342 OA
ATOM     35  C   UNL     1     233.713 239.151 240.212  1.00  0.00     0.201 C 
ATOM     36  C   UNL     1     232.618 238.285 239.513  1.00  0.00     0.279 C 
BRANCH  32  37
ATOM     37  C   UNL     1     233.553 238.707 235.969  1.00  0.00     0.191 C 
BRANCH  37  38
ATOM     38  O   UNL     1     234.727 239.358 235.561  1.00  0.00    -0.394 OA
ATOM     39  H   UNL     1     234.457 240.030 234.883  1.00  0.00     0.210 HD
ENDBRANCH  37  38
ENDBRANCH  32  37
BRANCH  33  40
ATOM     40  O   UNL     1     233.920 240.952 238.594  1.00  0.00    -0.387 OA
ATOM     41  H   UNL     1     234.597 241.636 238.353  1.00  0.00     0.211 HD
ENDBRANCH  33  40
BRANCH  35  42
ATOM     42  O   UNL     1     233.159 240.104 241.089  1.00  0.00    -0.385 OA
ATOM     43  H   UNL     1     232.164 240.017 241.026  1.00  0.00     0.211 HD
ENDBRANCH  35  42
BRANCH  36  44
ATOM     44  O   UNL     1     231.366 238.479 240.125  1.00  0.00    -0.366 OA
ATOM     45  H   UNL     1     231.097 237.602 240.515  1.00  0.00     0.213 HD
ENDBRANCH  36  44
ENDBRANCH  30  31
ENDBRANCH   4  30
TORSDOF 18
ENDMDL
MODEL 4
REMARK VINA RESULT:    -6.092      0.954      2.276
REMARK INTER + INTRA:         -13.799
REMARK INTER:                 -10.965
REMARK INTRA:                  -2.834
REMARK UNBOUND:                -3.256
REMARK SMILES OC[C@@H]1O[C@H](O[C@H]2[C@@H](O)[C@@H](O)[C@@H](O[C@@H]3[C@@H](O)[C@@H](O)[C@@H](O)O[C@H]3CO)O[C@H]2CO)[C@H](O)[C@H](O)[C@H]1O
REMARK SMILES IDX 7 1 26 2 25 3 12 4 10 5 8 6 6 7 5 8 3 9 33 10 4 11 31 12
REMARK SMILES IDX 29 13 2 14 1 15 34 17 32 19 30 21 27 23 28 24 9 26 11 28
REMARK SMILES IDX 13 30 14 31 22 32 15 33 21 34 17 35 19 36 23 37 24 38 16 40
REMARK SMILES IDX 18 42 20 44
REMARK H PARENT 1 16 34 18 32 20 30 22 28 25 9 27 11 29 24 39 16 41 18 43
REMARK H PARENT 20 45
REMARK Flexibility Score: inf
ROOT
ATOM      1  C   UNL     1     236.684 237.558 239.932  1.00  0.00     0.184 C 
ATOM      2  C   UNL     1     237.572 237.132 238.716  1.00  0.00     0.178 C 
ATOM      3  O   UNL     1     238.593 236.174 238.984  1.00  0.00    -0.341 OA
ATOM      4  C   UNL     1     238.206 235.081 239.795  1.00  0.00     0.282 C 
ATOM      5  C   UNL     1     237.587 235.538 241.126  1.00  0.00     0.202 C 
ATOM      6  C   UNL     1     236.338 236.386 240.874  1.00  0.00     0.180 C 
ENDROOT
BRANCH   1   7
ATOM      7  O   UNL     1     235.505 238.204 239.468  1.00  0.00    -0.341 OA
BRANCH   7   8
ATOM      8  C   UNL     1     234.905 239.077 240.426  1.00  0.00     0.282 C 
ATOM      9  C   UNL     1     234.084 240.777 238.928  1.00  0.00     0.178 C 
ATOM     10  C   UNL     1     232.606 240.381 239.215  1.00  0.00     0.177 C 
ATOM     11  O   UNL     1     234.995 240.423 239.968  1.00  0.00    -0.341 OA
ATOM     12  C   UNL     1     232.470 239.805 240.632  1.00  0.00     0.179 C 
ATOM     13  C   UNL     1     233.448 238.628 240.777  1.00  0.00     0.202 C 
BRANCH   9  14
ATOM     14  C   UNL     1     234.631 240.402 237.516  1.00  0.00     0.191 C 
BRANCH  14  15
ATOM     15  O   UNL     1     234.087 239.218 236.996  1.00  0.00    -0.394 OA
ATOM     16  H   UNL     1     234.516 239.067 236.124  1.00  0.00     0.210 HD
ENDBRANCH  14  15
ENDBRANCH   9  14
BRANCH  10  17
ATOM     17  O   UNL     1     231.770 241.501 239.057  1.00  0.00    -0.387 OA
ATOM     18  H   UNL     1     232.187 242.086 238.374  1.00  0.00     0.211 HD
ENDBRANCH  10  17
BRANCH  12  19
ATOM     19  O   UNL     1     231.150 239.389 240.864  1.00  0.00    -0.387 OA
ATOM     20  H   UNL     1     231.191 238.672 241.553  1.00  0.00     0.211 HD
ENDBRANCH  12  19
BRANCH  13  21
ATOM     21  O   UNL     1     233.047 237.570 239.946  1.00  0.00    -0.385 OA
ATOM     22  H   UNL     1     233.407 236.736 240.352  1.00  0.00     0.211 HD
ENDBRANCH  13  21
ENDBRANCH   7   8
ENDBRANCH   1   7
BRANCH   2  23
ATOM     23  C   UNL     1     236.837 236.846 237.392  1.00  0.00     0.191 C 
BRANCH  23  24
ATOM     24  O   UNL     1     235.674 236.084 237.539  1.00  0.00    -0.394 OA
ATOM     25  H   UNL     1     235.879 235.179 237.196  1.00  0.00     0.210 HD
ENDBRANCH  23  24
ENDBRANCH   2  23
BRANCH   6  26
ATOM     26  O   UNL     1     235.314 235.594 240.328  1.00  0.00    -0.387 OA
ATOM     27  H   UNL     1     234.548 236.200 240.142  1.00  0.00     0.211 HD
ENDBRANCH   6  26
BRANCH   5  28
ATOM     28  O   UNL     1     237.262 234.412 241.907  1.00  0.00    -0.385 OA
ATOM     29  H   UNL     1     236.271 234.358 241.927  1.00  0.00     0.211 HD
ENDBRANCH   5  28
BRANCH   4  30
ATOM     30  O   UNL     1     237.317 234.209 239.109  1.00  0.00    -0.341 OA
BRANCH  30  31
ATOM     31  C   UNL     1     237.876 232.927 238.853  1.00  0.00     0.184 C 
ATOM     32  C   UNL     1     236.752 231.840 238.676  1.00  0.00     0.178 C 
ATOM     33  C   UNL     1     238.706 233.034 237.562  1.00  0.00     0.180 C 
ATOM     34  O   UNL     1     236.656 231.392 237.327  1.00  0.00    -0.342 OA
ATOM     35  C   UNL     1     237.756 233.372 236.388  1.00  0.00     0.201 C 
ATOM     36  C   UNL     1     236.474 232.481 236.440  1.00  0.00     0.279 C 
BRANCH  32  37
ATOM     37  C   UNL     1     237.034 230.638 239.587  1.00  0.00     0.191 C 
BRANCH  37  38
ATOM     38  O   UNL     1     236.237 230.702 240.740  1.00  0.00    -0.394 OA
ATOM     39  H   UNL     1     236.271 231.642 241.055  1.00  0.00     0.210 HD
ENDBRANCH  37  38
ENDBRANCH  32  37
BRANCH  33  40
ATOM     40  O   UNL     1     239.381 231.822 237.318  1.00  0.00    -0.387 OA
ATOM     41  H   UNL     1     239.410 231.318 238.171  1.00  0.00     0.211 HD
ENDBRANCH  33  40
BRANCH  35  42
ATOM     42  O   UNL     1     238.444 233.243 235.166  1.00  0.00    -0.385 OA
ATOM     43  H   UNL     1     238.708 234.164 234.879  1.00  0.00     0.211 HD
ENDBRANCH  35  42
BRANCH  36  44
ATOM     44  O   UNL     1     236.168 231.976 235.164  1.00  0.00    -0.366 OA
ATOM     45  H   UNL     1     235.916 232.756 234.597  1.00  0.00     0.213 HD
ENDBRANCH  36  44
ENDBRANCH  30  31
ENDBRANCH   4  30
TORSDOF 18
ENDMDL
MODEL 5
REMARK VINA RESULT:    -6.053      1.508      8.382
REMARK INTER + INTRA:         -13.732
REMARK INTER:                 -11.355
REMARK INTRA:                  -2.376
REMARK UNBOUND:                -3.256
REMARK SMILES OC[C@@H]1O[C@H](O[C@H]2[C@@H](O)[C@@H](O)[C@@H](O[C@@H]3[C@@H](O)[C@@H](O)[C@@H](O)O[C@H]3CO)O[C@H]2CO)[C@H](O)[C@H](O)[C@H]1O
REMARK SMILES IDX 7 1 26 2 25 3 12 4 10 5 8 6 6 7 5 8 3 9 33 10 4 11 31 12
REMARK SMILES IDX 29 13 2 14 1 15 34 17 32 19 30 21 27 23 28 24 9 26 11 28
REMARK SMILES IDX 13 30 14 31 22 32 15 33 21 34 17 35 19 36 23 37 24 38 16 40
REMARK SMILES IDX 18 42 20 44
REMARK H PARENT 1 16 34 18 32 20 30 22 28 25 9 27 11 29 24 39 16 41 18 43
REMARK H PARENT 20 45
REMARK Flexibility Score: inf
ROOT
ATOM      1  C   UNL     1     237.783 234.758 238.429  1.00  0.00     0.184 C 
ATOM      2  C   UNL     1     238.097 236.000 239.329  1.00  0.00     0.178 C 
ATOM      3  O   UNL     1     237.796 237.277 238.771  1.00  0.00    -0.341 OA
ATOM      4  C   UNL     1     236.547 237.374 238.109  1.00  0.00     0.282 C 
ATOM      5  C   UNL     1     236.384 236.301 237.021  1.00  0.00     0.202 C 
ATOM      6  C   UNL     1     236.470 234.900 237.632  1.00  0.00     0.180 C 
ENDROOT
BRANCH   1   7
ATOM      7  O   UNL     1     237.773 233.577 239.222  1.00  0.00    -0.341 OA
BRANCH   7   8
ATOM      8  C   UNL     1     238.376 232.448 238.589  1.00  0.00     0.282 C 
ATOM      9  C   UNL     1     239.090 231.248 240.554  1.00  0.00     0.178 C 
ATOM     10  C   UNL     1     238.052 230.117 240.296  1.00  0.00     0.177 C 
ATOM     11  O   UNL     1     239.461 231.977 239.384  1.00  0.00    -0.341 OA
ATOM     12  C   UNL     1     237.770 229.979 238.793  1.00  0.00     0.179 C 
ATOM     13  C   UNL     1     237.318 231.346 238.254  1.00  0.00     0.202 C 
BRANCH   9  14
ATOM     14  C   UNL     1     238.790 232.190 241.761  1.00  0.00     0.191 C 
BRANCH  14  15
ATOM     15  O   UNL     1     237.427 232.484 241.923  1.00  0.00    -0.394 OA
ATOM     16  H   UNL     1     236.931 231.668 241.687  1.00  0.00     0.210 HD
ENDBRANCH  14  15
ENDBRANCH   9  14
BRANCH  10  17
ATOM     17  O   UNL     1     238.528 228.901 240.820  1.00  0.00    -0.387 OA
ATOM     18  H   UNL     1     238.411 228.212 240.117  1.00  0.00     0.211 HD
ENDBRANCH  10  17
BRANCH  12  19
ATOM     19  O   UNL     1     236.787 229.003 238.569  1.00  0.00    -0.387 OA
ATOM     20  H   UNL     1     237.236 228.244 238.108  1.00  0.00     0.211 HD
ENDBRANCH  12  19
BRANCH  13  21
ATOM     21  O   UNL     1     236.069 231.683 238.799  1.00  0.00    -0.385 OA
ATOM     22  H   UNL     1     235.678 232.381 238.207  1.00  0.00     0.211 HD
ENDBRANCH  13  21
ENDBRANCH   7   8
ENDBRANCH   1   7
BRANCH   2  23
ATOM     23  C   UNL     1     237.685 235.900 240.810  1.00  0.00     0.191 C 
BRANCH  23  24
ATOM     24  O   UNL     1     236.471 235.240 241.022  1.00  0.00    -0.394 OA
ATOM     25  H   UNL     1     236.650 234.273 240.919  1.00  0.00     0.210 HD
ENDBRANCH  23  24
ENDBRANCH   2  23
BRANCH   6  26
ATOM     26  O   UNL     1     235.359 234.658 238.455  1.00  0.00    -0.387 OA
ATOM     27  H   UNL     1     235.580 235.020 239.354  1.00  0.00     0.211 HD
ENDBRANCH   6  26
BRANCH   5  28
ATOM     28  O   UNL     1     235.147 236.473 236.370  1.00  0.00    -0.385 OA
ATOM     29  H   UNL     1     234.827 237.382 236.606  1.00  0.00     0.211 HD
ENDBRANCH   5  28
BRANCH   4  30
ATOM     30  O   UNL     1     235.463 237.318 239.027  1.00  0.00    -0.341 OA
BRANCH  30  31
ATOM     31  C   UNL     1     234.483 238.323 238.797  1.00  0.00     0.184 C 
ATOM     32  C   UNL     1     233.528 238.480 240.037  1.00  0.00     0.178 C 
ATOM     33  C   UNL     1     235.229 239.646 238.542  1.00  0.00     0.180 C 
ATOM     34  O   UNL     1     233.745 239.711 240.722  1.00  0.00    -0.342 OA
ATOM     35  C   UNL     1     236.004 240.033 239.824  1.00  0.00     0.201 C 
ATOM     36  C   UNL     1     235.105 239.856 241.089  1.00  0.00     0.279 C 
BRANCH  32  37
ATOM     37  C   UNL     1     232.063 238.409 239.585  1.00  0.00     0.191 C 
BRANCH  37  38
ATOM     38  O   UNL     1     231.210 238.393 240.699  1.00  0.00    -0.394 OA
ATOM     39  H   UNL     1     231.131 237.445 240.981  1.00  0.00     0.210 HD
ENDBRANCH  37  38
ENDBRANCH  32  37
BRANCH  33  40
ATOM     40  O   UNL     1     234.314 240.658 238.194  1.00  0.00    -0.387 OA
ATOM     41  H   UNL     1     234.335 241.341 238.913  1.00  0.00     0.211 HD
ENDBRANCH  33  40
BRANCH  35  42
ATOM     42  O   UNL     1     236.498 241.347 239.703  1.00  0.00    -0.385 OA
ATOM     43  H   UNL     1     235.706 241.955 239.650  1.00  0.00     0.211 HD
ENDBRANCH  35  42
BRANCH  36  44
ATOM     44  O   UNL     1     235.225 240.967 241.943  1.00  0.00    -0.366 OA
ATOM     45  H   UNL     1     234.408 240.982 242.515  1.00  0.00     0.213 HD
ENDBRANCH  36  44
ENDBRANCH  30  31
ENDBRANCH   4  30
TORSDOF 18
ENDMDL
MODEL 6
REMARK VINA RESULT:    -5.838      2.204      3.394
REMARK INTER + INTRA:         -13.361
REMARK INTER:                 -11.195
REMARK INTRA:                  -2.166
REMARK UNBOUND:                -3.256
REMARK SMILES OC[C@@H]1O[C@H](O[C@H]2[C@@H](O)[C@@H](O)[C@@H](O[C@@H]3[C@@H](O)[C@@H](O)[C@@H](O)O[C@H]3CO)O[C@H]2CO)[C@H](O)[C@H](O)[C@H]1O
REMARK SMILES IDX 7 1 26 2 25 3 12 4 10 5 8 6 6 7 5 8 3 9 33 10 4 11 31 12
REMARK SMILES IDX 29 13 2 14 1 15 34 17 32 19 30 21 27 23 28 24 9 26 11 28
REMARK SMILES IDX 13 30 14 31 22 32 15 33 21 34 17 35 19 36 23 37 24 38 16 40
REMARK SMILES IDX 18 42 20 44
REMARK H PARENT 1 16 34 18 32 20 30 22 28 25 9 27 11 29 24 39 16 41 18 43
REMARK H PARENT 20 45
REMARK Flexibility Score: inf
ROOT
ATOM      1  C   UNL     1     236.164 238.557 238.322  1.00  0.00     0.184 C 
ATOM      2  C   UNL     1     235.734 238.348 236.831  1.00  0.00     0.178 C 
ATOM      3  O   UNL     1     236.679 237.696 235.986  1.00  0.00    -0.341 OA
ATOM      4  C   UNL     1     237.313 236.559 236.543  1.00  0.00     0.282 C 
ATOM      5  C   UNL     1     237.980 236.872 237.892  1.00  0.00     0.202 C 
ATOM      6  C   UNL     1     236.941 237.357 238.904  1.00  0.00     0.180 C 
ENDROOT
BRANCH   1   7
ATOM      7  O   UNL     1     235.025 238.861 239.116  1.00  0.00    -0.341 OA
BRANCH   7   8
ATOM      8  C   UNL     1     234.878 240.250 239.413  1.00  0.00     0.282 C 
ATOM      9  C   UNL     1     232.613 240.225 240.236  1.00  0.00     0.178 C 
ATOM     10  C   UNL     1     233.086 240.552 241.683  1.00  0.00     0.177 C 
ATOM     11  O   UNL     1     233.522 240.640 239.217  1.00  0.00    -0.341 OA
ATOM     12  C   UNL     1     234.385 241.371 241.650  1.00  0.00     0.179 C 
ATOM     13  C   UNL     1     235.431 240.594 240.835  1.00  0.00     0.202 C 
BRANCH   9  14
ATOM     14  C   UNL     1     232.090 238.774 240.000  1.00  0.00     0.191 C 
BRANCH  14  15
ATOM     15  O   UNL     1     230.938 238.462 240.740  1.00  0.00    -0.394 OA
ATOM     16  H   UNL     1     230.341 239.239 240.677  1.00  0.00     0.210 HD
ENDBRANCH  14  15
ENDBRANCH   9  14
BRANCH  10  17
ATOM     17  O   UNL     1     232.080 241.255 242.369  1.00  0.00    -0.387 OA
ATOM     18  H   UNL     1     231.212 240.996 241.965  1.00  0.00     0.211 HD
ENDBRANCH  10  17
BRANCH  12  19
ATOM     19  O   UNL     1     234.843 241.610 242.954  1.00  0.00    -0.387 OA
ATOM     20  H   UNL     1     234.310 242.370 243.311  1.00  0.00     0.211 HD
ENDBRANCH  12  19
BRANCH  13  21
ATOM     21  O   UNL     1     235.792 239.422 241.518  1.00  0.00    -0.385 OA
ATOM     22  H   UNL     1     236.726 239.552 241.836  1.00  0.00     0.211 HD
ENDBRANCH  13  21
ENDBRANCH   7   8
ENDBRANCH   1   7
BRANCH   2  23
ATOM     23  C   UNL     1     234.297 237.848 236.592  1.00  0.00     0.191 C 
BRANCH  23  24
ATOM     24  O   UNL     1     233.321 238.843 236.701  1.00  0.00    -0.394 OA
ATOM     25  H   UNL     1     232.455 238.421 236.478  1.00  0.00     0.210 HD
ENDBRANCH  23  24
ENDBRANCH   2  23
BRANCH   6  26
ATOM     26  O   UNL     1     236.064 236.313 239.242  1.00  0.00    -0.387 OA
ATOM     27  H   UNL     1     236.530 235.750 239.915  1.00  0.00     0.211 HD
ENDBRANCH   6  26
BRANCH   5  28
ATOM     28  O   UNL     1     238.629 235.718 238.376  1.00  0.00    -0.385 OA
ATOM     29  H   UNL     1     239.324 236.031 239.012  1.00  0.00     0.211 HD
ENDBRANCH   5  28
BRANCH   4  30
ATOM     30  O   UNL     1     236.410 235.470 236.677  1.00  0.00    -0.341 OA
BRANCH  30  31
ATOM     31  C   UNL     1     236.423 234.591 235.559  1.00  0.00     0.184 C 
ATOM     32  C   UNL     1     237.894 234.284 235.092  1.00  0.00     0.178 C 
ATOM     33  C   UNL     1     235.729 233.286 235.988  1.00  0.00     0.180 C 
ATOM     34  O   UNL     1     238.271 232.940 235.378  1.00  0.00    -0.342 OA
ATOM     35  C   UNL     1     236.565 232.626 237.110  1.00  0.00     0.201 C 
ATOM     36  C   UNL     1     238.085 232.639 236.749  1.00  0.00     0.279 C 
BRANCH  32  37
ATOM     37  C   UNL     1     238.031 234.536 233.585  1.00  0.00     0.191 C 
BRANCH  37  38
ATOM     38  O   UNL     1     236.910 234.037 232.904  1.00  0.00    -0.394 OA
ATOM     39  H   UNL     1     236.707 234.686 232.181  1.00  0.00     0.210 HD
ENDBRANCH  37  38
ENDBRANCH  32  37
BRANCH  33  40
ATOM     40  O   UNL     1     235.608 232.417 234.887  1.00  0.00    -0.387 OA
ATOM     41  H   UNL     1     236.451 231.900 234.819  1.00  0.00     0.211 HD
ENDBRANCH  33  40
BRANCH  35  42
ATOM     42  O   UNL     1     236.088 231.324 237.356  1.00  0.00    -0.385 OA
ATOM     43  H   UNL     1     236.888 230.742 237.510  1.00  0.00     0.211 HD
ENDBRANCH  35  42
BRANCH  36  44
ATOM     44  O   UNL     1     238.670 231.389 237.019  1.00  0.00    -0.366 OA
ATOM     45  H   UNL     1     238.468 231.175 237.972  1.00  0.00     0.213 HD
ENDBRANCH  36  44
ENDBRANCH  30  31
ENDBRANCH   4  30
TORSDOF 18
ENDMDL
MODEL 7
REMARK VINA RESULT:    -5.810      1.899      8.070
REMARK INTER + INTRA:         -13.312
REMARK INTER:                 -10.875
REMARK INTRA:                  -2.438
REMARK UNBOUND:                -3.256
REMARK SMILES OC[C@@H]1O[C@H](O[C@H]2[C@@H](O)[C@@H](O)[C@@H](O[C@@H]3[C@@H](O)[C@@H](O)[C@@H](O)O[C@H]3CO)O[C@H]2CO)[C@H](O)[C@H](O)[C@H]1O
REMARK SMILES IDX 7 1 26 2 25 3 12 4 10 5 8 6 6 7 5 8 3 9 33 10 4 11 31 12
REMARK SMILES IDX 29 13 2 14 1 15 34 17 32 19 30 21 27 23 28 24 9 26 11 28
REMARK SMILES IDX 13 30 14 31 22 32 15 33 21 34 17 35 19 36 23 37 24 38 16 40
REMARK SMILES IDX 18 42 20 44
REMARK H PARENT 1 16 34 18 32 20 30 22 28 25 9 27 11 29 24 39 16 41 18 43
REMARK H PARENT 20 45
REMARK Flexibility Score: inf
ROOT
ATOM      1  C   UNL     1     237.932 234.353 236.896  1.00  0.00     0.184 C 
ATOM      2  C   UNL     1     238.577 235.759 237.141  1.00  0.00     0.178 C 
ATOM      3  O   UNL     1     238.033 236.843 236.392  1.00  0.00    -0.341 OA
ATOM      4  C   UNL     1     236.620 236.887 236.322  1.00  0.00     0.282 C 
ATOM      5  C   UNL     1     236.024 235.570 235.800  1.00  0.00     0.202 C 
ATOM      6  C   UNL     1     236.400 234.409 236.723  1.00  0.00     0.180 C 
ENDROOT
BRANCH   1   7
ATOM      7  O   UNL     1     238.295 233.465 237.945  1.00  0.00    -0.341 OA
BRANCH   7   8
ATOM      8  C   UNL     1     237.578 232.229 237.934  1.00  0.00     0.282 C 
ATOM      9  C   UNL     1     239.318 230.774 238.747  1.00  0.00     0.178 C 
ATOM     10  C   UNL     1     238.561 230.541 240.087  1.00  0.00     0.177 C 
ATOM     11  O   UNL     1     238.477 231.158 237.660  1.00  0.00    -0.341 OA
ATOM     12  C   UNL     1     237.044 230.664 239.874  1.00  0.00     0.179 C 
ATOM     13  C   UNL     1     236.750 232.035 239.245  1.00  0.00     0.202 C 
BRANCH   9  14
ATOM     14  C   UNL     1     240.604 231.652 238.833  1.00  0.00     0.191 C 
BRANCH  14  15
ATOM     15  O   UNL     1     240.506 232.710 239.751  1.00  0.00    -0.394 OA
ATOM     16  H   UNL     1     239.716 233.235 239.494  1.00  0.00     0.210 HD
ENDBRANCH  14  15
ENDBRANCH   9  14
BRANCH  10  17
ATOM     17  O   UNL     1     238.883 229.274 240.606  1.00  0.00    -0.387 OA
ATOM     18  H   UNL     1     238.115 228.675 240.419  1.00  0.00     0.211 HD
ENDBRANCH  10  17
BRANCH  12  19
ATOM     19  O   UNL     1     236.368 230.517 241.095  1.00  0.00    -0.387 OA
ATOM     20  H   UNL     1     236.411 231.399 241.555  1.00  0.00     0.211 HD
ENDBRANCH  12  19
BRANCH  13  21
ATOM     21  O   UNL     1     237.042 233.053 240.166  1.00  0.00    -0.385 OA
ATOM     22  H   UNL     1     236.557 232.827 241.005  1.00  0.00     0.211 HD
ENDBRANCH  13  21
ENDBRANCH   7   8
ENDBRANCH   1   7
BRANCH   2  23
ATOM     23  C   UNL     1     238.853 236.144 238.607  1.00  0.00     0.191 C 
BRANCH  23  24
ATOM     24  O   UNL     1     237.815 235.824 239.486  1.00  0.00    -0.394 OA
ATOM     25  H   UNL     1     237.085 235.441 238.940  1.00  0.00     0.210 HD
ENDBRANCH  23  24
ENDBRANCH   2  23
BRANCH   6  26
ATOM     26  O   UNL     1     235.763 234.549 237.967  1.00  0.00    -0.387 OA
ATOM     27  H   UNL     1     236.093 233.811 238.545  1.00  0.00     0.211 HD
ENDBRANCH   6  26
BRANCH   5  28
ATOM     28  O   UNL     1     234.623 235.688 235.711  1.00  0.00    -0.385 OA
ATOM     29  H   UNL     1     234.245 234.850 236.085  1.00  0.00     0.211 HD
ENDBRANCH   5  28
BRANCH   4  30
ATOM     30  O   UNL     1     236.044 237.229 237.576  1.00  0.00    -0.341 OA
BRANCH  30  31
ATOM     31  C   UNL     1     235.370 238.481 237.561  1.00  0.00     0.184 C 
ATOM     32  C   UNL     1     234.136 238.475 238.537  1.00  0.00     0.178 C 
ATOM     33  C   UNL     1     236.380 239.555 238.003  1.00  0.00     0.180 C 
ATOM     34  O   UNL     1     234.358 239.301 239.678  1.00  0.00    -0.342 OA
ATOM     35  C   UNL     1     236.800 239.268 239.465  1.00  0.00     0.201 C 
ATOM     36  C   UNL     1     235.553 238.937 240.345  1.00  0.00     0.279 C 
BRANCH  32  37
ATOM     37  C   UNL     1     232.881 238.962 237.801  1.00  0.00     0.191 C 
BRANCH  37  38
ATOM     38  O   UNL     1     232.739 238.285 236.580  1.00  0.00    -0.394 OA
ATOM     39  H   UNL     1     232.706 237.317 236.796  1.00  0.00     0.210 HD
ENDBRANCH  37  38
ENDBRANCH  32  37
BRANCH  33  40
ATOM     40  O   UNL     1     235.803 240.835 237.898  1.00  0.00    -0.387 OA
ATOM     41  H   UNL     1     234.893 240.723 237.519  1.00  0.00     0.211 HD
ENDBRANCH  33  40
BRANCH  35  42
ATOM     42  O   UNL     1     237.534 240.359 239.972  1.00  0.00    -0.385 OA
ATOM     43  H   UNL     1     237.412 240.358 240.965  1.00  0.00     0.211 HD
ENDBRANCH  35  42
BRANCH  36  44
ATOM     44  O   UNL     1     235.612 239.625 241.570  1.00  0.00    -0.366 OA
ATOM     45  H   UNL     1     235.151 239.054 242.245  1.00  0.00     0.213 HD
ENDBRANCH  36  44
ENDBRANCH  30  31
ENDBRANCH   4  30
TORSDOF 18
ENDMDL
MODEL 8
REMARK VINA RESULT:    -5.804      1.901      8.161
REMARK INTER + INTRA:         -13.302
REMARK INTER:                 -10.621
REMARK INTRA:                  -2.681
REMARK UNBOUND:                -3.256
REMARK SMILES OC[C@@H]1O[C@H](O[C@H]2[C@@H](O)[C@@H](O)[C@@H](O[C@@H]3[C@@H](O)[C@@H](O)[C@@H](O)O[C@H]3CO)O[C@H]2CO)[C@H](O)[C@H](O)[C@H]1O
REMARK SMILES IDX 7 1 26 2 25 3 12 4 10 5 8 6 6 7 5 8 3 9 33 10 4 11 31 12
REMARK SMILES IDX 29 13 2 14 1 15 34 17 32 19 30 21 27 23 28 24 9 26 11 28
REMARK SMILES IDX 13 30 14 31 22 32 15 33 21 34 17 35 19 36 23 37 24 38 16 40
REMARK SMILES IDX 18 42 20 44
REMARK H PARENT 1 16 34 18 32 20 30 22 28 25 9 27 11 29 24 39 16 41 18 43
REMARK H PARENT 20 45
REMARK Flexibility Score: inf
ROOT
ATOM      1  C   UNL     1     238.679 234.821 238.962  1.00  0.00     0.184 C 
ATOM      2  C   UNL     1     238.326 235.995 239.936  1.00  0.00     0.178 C 
ATOM      3  O   UNL     1     238.293 237.301 239.366  1.00  0.00    -0.341 OA
ATOM      4  C   UNL     1     237.638 237.404 238.115  1.00  0.00     0.282 C 
ATOM      5  C   UNL     1     238.207 236.420 237.080  1.00  0.00     0.202 C 
ATOM      6  C   UNL     1     238.044 234.978 237.565  1.00  0.00     0.180 C 
ENDROOT
BRANCH   1   7
ATOM      7  O   UNL     1     238.315 233.578 239.551  1.00  0.00    -0.341 OA
BRANCH   7   8
ATOM      8  C   UNL     1     238.467 232.456 238.680  1.00  0.00     0.282 C 
ATOM      9  C   UNL     1     239.428 230.892 240.241  1.00  0.00     0.178 C 
ATOM     10  C   UNL     1     238.145 230.010 240.216  1.00  0.00     0.177 C 
ATOM     11  O   UNL     1     239.605 231.696 239.075  1.00  0.00    -0.341 OA
ATOM     12  C   UNL     1     237.436 230.132 238.859  1.00  0.00     0.179 C 
ATOM     13  C   UNL     1     237.151 231.618 238.590  1.00  0.00     0.202 C 
BRANCH   9  14
ATOM     14  C   UNL     1     239.678 231.697 241.553  1.00  0.00     0.191 C 
BRANCH  14  15
ATOM     15  O   UNL     1     238.510 232.229 242.121  1.00  0.00    -0.394 OA
ATOM     16  H   UNL     1     238.069 231.494 242.603  1.00  0.00     0.210 HD
ENDBRANCH  14  15
ENDBRANCH   9  14
BRANCH  10  17
ATOM     17  O   UNL     1     238.480 228.669 240.477  1.00  0.00    -0.387 OA
ATOM     18  H   UNL     1     237.634 228.150 240.485  1.00  0.00     0.211 HD
ENDBRANCH  10  17
BRANCH  12  19
ATOM     19  O   UNL     1     236.247 229.387 238.862  1.00  0.00    -0.387 OA
ATOM     20  H   UNL     1     235.796 229.561 237.992  1.00  0.00     0.211 HD
ENDBRANCH  12  19
BRANCH  13  21
ATOM     21  O   UNL     1     236.201 232.094 239.507  1.00  0.00    -0.385 OA
ATOM     22  H   UNL     1     235.478 231.412 239.551  1.00  0.00     0.211 HD
ENDBRANCH  13  21
ENDBRANCH   7   8
ENDBRANCH   1   7
BRANCH   2  23
ATOM     23  C   UNL     1     237.156 235.755 240.910  1.00  0.00     0.191 C 
BRANCH  23  24
ATOM     24  O   UNL     1     236.082 235.057 240.350  1.00  0.00    -0.394 OA
ATOM     25  H   UNL     1     235.529 235.721 239.869  1.00  0.00     0.210 HD
ENDBRANCH  23  24
ENDBRANCH   2  23
BRANCH   6  26
ATOM     26  O   UNL     1     236.685 234.624 237.593  1.00  0.00    -0.387 OA
ATOM     27  H   UNL     1     236.277 235.102 238.364  1.00  0.00     0.211 HD
ENDBRANCH   6  26
BRANCH   5  28
ATOM     28  O   UNL     1     237.548 236.597 235.848  1.00  0.00    -0.385 OA
ATOM     29  H   UNL     1     236.639 236.934 236.060  1.00  0.00     0.211 HD
ENDBRANCH   5  28
BRANCH   4  30
ATOM     30  O   UNL     1     236.233 237.229 238.245  1.00  0.00    -0.341 OA
BRANCH  30  31
ATOM     31  C   UNL     1     235.534 238.449 238.456  1.00  0.00     0.184 C 
ATOM     32  C   UNL     1     236.326 239.670 237.859  1.00  0.00     0.178 C 
ATOM     33  C   UNL     1     234.166 238.324 237.761  1.00  0.00     0.180 C 
ATOM     34  O   UNL     1     235.680 240.210 236.708  1.00  0.00    -0.342 OA
ATOM     35  C   UNL     1     234.395 238.176 236.238  1.00  0.00     0.201 C 
ATOM     36  C   UNL     1     235.454 239.207 235.734  1.00  0.00     0.279 C 
BRANCH  32  37
ATOM     37  C   UNL     1     236.471 240.772 238.917  1.00  0.00     0.191 C 
BRANCH  37  38
ATOM     38  O   UNL     1     237.228 240.307 240.003  1.00  0.00    -0.394 OA
ATOM     39  H   UNL     1     237.707 241.094 240.371  1.00  0.00     0.210 HD
ENDBRANCH  37  38
ENDBRANCH  32  37
BRANCH  33  40
ATOM     40  O   UNL     1     233.380 239.461 238.033  1.00  0.00    -0.387 OA
ATOM     41  H   UNL     1     232.443 239.155 238.151  1.00  0.00     0.211 HD
ENDBRANCH  33  40
BRANCH  35  42
ATOM     42  O   UNL     1     233.168 238.298 235.558  1.00  0.00    -0.385 OA
ATOM     43  H   UNL     1     233.000 239.275 235.428  1.00  0.00     0.211 HD
ENDBRANCH  35  42
BRANCH  36  44
ATOM     44  O   UNL     1     235.021 239.823 234.546  1.00  0.00    -0.366 OA
ATOM     45  H   UNL     1     235.109 240.807 234.682  1.00  0.00     0.213 HD
ENDBRANCH  36  44
ENDBRANCH  30  31
ENDBRANCH   4  30
TORSDOF 18
ENDMDL
MODEL 9
REMARK VINA RESULT:    -5.649      1.919      8.401
REMARK INTER + INTRA:         -13.032
REMARK INTER:                 -10.509
REMARK INTRA:                  -2.523
REMARK UNBOUND:                -3.256
REMARK SMILES OC[C@@H]1O[C@H](O[C@H]2[C@@H](O)[C@@H](O)[C@@H](O[C@@H]3[C@@H](O)[C@@H](O)[C@@H](O)O[C@H]3CO)O[C@H]2CO)[C@H](O)[C@H](O)[C@H]1O
REMARK SMILES IDX 7 1 26 2 25 3 12 4 10 5 8 6 6 7 5 8 3 9 33 10 4 11 31 12
REMARK SMILES IDX 29 13 2 14 1 15 34 17 32 19 30 21 27 23 28 24 9 26 11 28
REMARK SMILES IDX 13 30 14 31 22 32 15 33 21 34 17 35 19 36 23 37 24 38 16 40
REMARK SMILES IDX 18 42 20 44
REMARK H PARENT 1 16 34 18 32 20 30 22 28 25 9 27 11 29 24 39 16 41 18 43
REMARK H PARENT 20 45
REMARK Flexibility Score: inf
ROOT
ATOM      1  C   UNL     1     237.742 235.551 240.450  1.00  0.00     0.184 C 
ATOM      2  C   UNL     1     236.192 235.414 240.282  1.00  0.00     0.178 C 
ATOM      3  O   UNL     1     235.438 236.620 240.365  1.00  0.00    -0.341 OA
ATOM      4  C   UNL     1     235.975 237.725 239.660  1.00  0.00     0.282 C 
ATOM      5  C   UNL     1     237.430 238.015 240.061  1.00  0.00     0.202 C 
ATOM      6  C   UNL     1     238.319 236.806 239.763  1.00  0.00     0.180 C 
ENDROOT
BRANCH   1   7
ATOM      7  O   UNL     1     238.386 234.372 239.981  1.00  0.00    -0.341 OA
BRANCH   7   8
ATOM      8  C   UNL     1     239.462 233.930 240.809  1.00  0.00     0.282 C 
ATOM      9  C   UNL     1     238.825 231.620 241.059  1.00  0.00     0.178 C 
ATOM     10  C   UNL     1     240.040 231.145 240.210  1.00  0.00     0.177 C 
ATOM     11  O   UNL     1     239.005 232.894 241.674  1.00  0.00    -0.341 OA
ATOM     12  C   UNL     1     241.209 232.131 240.348  1.00  0.00     0.179 C 
ATOM     13  C   UNL     1     240.713 233.533 239.959  1.00  0.00     0.202 C 
BRANCH   9  14
ATOM     14  C   UNL     1     237.425 231.488 240.383  1.00  0.00     0.191 C 
BRANCH  14  15
ATOM     15  O   UNL     1     236.493 230.769 241.148  1.00  0.00    -0.394 OA
ATOM     16  H   UNL     1     236.898 229.894 241.338  1.00  0.00     0.210 HD
ENDBRANCH  14  15
ENDBRANCH   9  14
BRANCH  10  17
ATOM     17  O   UNL     1     240.434 229.856 240.614  1.00  0.00    -0.387 OA
ATOM     18  H   UNL     1     241.416 229.797 240.494  1.00  0.00     0.211 HD
ENDBRANCH  10  17
BRANCH  12  19
ATOM     19  O   UNL     1     242.279 231.735 239.532  1.00  0.00    -0.387 OA
ATOM     20  H   UNL     1     243.072 232.264 239.820  1.00  0.00     0.211 HD
ENDBRANCH  12  19
BRANCH  13  21
ATOM     21  O   UNL     1     240.407 233.567 238.590  1.00  0.00    -0.385 OA
ATOM     22  H   UNL     1     239.700 234.257 238.472  1.00  0.00     0.211 HD
ENDBRANCH  13  21
ENDBRANCH   7   8
ENDBRANCH   1   7
BRANCH   2  23
ATOM     23  C   UNL     1     235.700 234.496 239.146  1.00  0.00     0.191 C 
BRANCH  23  24
ATOM     24  O   UNL     1     236.364 234.687 237.931  1.00  0.00    -0.394 OA
ATOM     25  H   UNL     1     235.686 234.593 237.216  1.00  0.00     0.210 HD
ENDBRANCH  23  24
ENDBRANCH   2  23
BRANCH   6  26
ATOM     26  O   UNL     1     238.428 236.610 238.377  1.00  0.00    -0.387 OA
ATOM     27  H   UNL     1     237.654 236.050 238.102  1.00  0.00     0.211 HD
ENDBRANCH   6  26
BRANCH   5  28
ATOM     28  O   UNL     1     237.895 239.146 239.362  1.00  0.00    -0.385 OA
ATOM     29  H   UNL     1     237.180 239.831 239.424  1.00  0.00     0.211 HD
ENDBRANCH   5  28
BRANCH   4  30
ATOM     30  O   UNL     1     235.874 237.547 238.253  1.00  0.00    -0.341 OA
BRANCH  30  31
ATOM     31  C   UNL     1     234.616 237.950 237.726  1.00  0.00     0.184 C 
ATOM     32  C   UNL     1     234.047 239.195 238.501  1.00  0.00     0.178 C 
ATOM     33  C   UNL     1     234.830 238.309 236.245  1.00  0.00     0.180 C 
ATOM     34  O   UNL     1     234.071 240.374 237.700  1.00  0.00    -0.342 OA
ATOM     35  C   UNL     1     235.782 239.526 236.163  1.00  0.00     0.201 C 
ATOM     36  C   UNL     1     235.372 240.622 237.198  1.00  0.00     0.279 C 
BRANCH  32  37
ATOM     37  C   UNL     1     232.606 238.922 238.950  1.00  0.00     0.191 C 
BRANCH  37  38
ATOM     38  O   UNL     1     232.581 237.909 239.921  1.00  0.00    -0.394 OA
ATOM     39  H   UNL     1     232.237 238.324 240.754  1.00  0.00     0.210 HD
ENDBRANCH  37  38
ENDBRANCH  32  37
BRANCH  33  40
ATOM     40  O   UNL     1     233.595 238.607 235.636  1.00  0.00    -0.387 OA
ATOM     41  H   UNL     1     233.174 237.747 235.376  1.00  0.00     0.211 HD
ENDBRANCH  33  40
BRANCH  35  42
ATOM     42  O   UNL     1     235.807 240.023 234.845  1.00  0.00    -0.385 OA
ATOM     43  H   UNL     1     235.275 239.390 234.282  1.00  0.00     0.211 HD
ENDBRANCH  35  42
BRANCH  36  44
ATOM     44  O   UNL     1     235.390 241.897 236.605  1.00  0.00    -0.366 OA
ATOM     45  H   UNL     1     235.491 242.558 237.345  1.00  0.00     0.213 HD
ENDBRANCH  36  44
ENDBRANCH  30  31
ENDBRANCH   4  30
TORSDOF 18
ENDMDL
