MODEL 1
REMARK VINA RESULT:    -5.164      0.000      0.000
REMARK INTER + INTRA:          -7.866
REMARK INTER:                  -6.975
REMARK INTRA:                  -0.890
REMARK UNBOUND:                -0.890
REMARK SMILES CC(=O)CCC=C(C)CCC=C(C)C
REMARK SMILES IDX 7 1 6 2 8 3 9 4 10 5 11 6 13 7 12 8 14 9 5 10 4 11 2 12 3 13
REMARK SMILES IDX 1 14
REMARK H PARENT
REMARK Flexibility Score: inf
ROOT
ATOM      1  C   UNL     1      83.974   2.989  28.186  1.00  0.00    -0.077 C 
ATOM      2  C   UNL     1      82.789   2.584  28.698  1.00  0.00    -0.028 C 
ATOM      3  C   UNL     1      85.240   2.985  29.010  1.00  0.00     0.039 C 
ENDROOT
BRANCH   1   4
ATOM      4  C   UNL     1      84.026   3.481  26.756  1.00  0.00     0.034 C 
BRANCH   4   5
ATOM      5  C   UNL     1      84.161   5.008  26.711  1.00  0.00     0.032 C 
BRANCH   5   6
ATOM      6  C   UNL     1      82.828   5.668  26.451  1.00  0.00    -0.028 C 
ATOM      7  C   UNL     1      80.745   6.821  27.064  1.00  0.00     0.039 C 
ATOM      8  C   UNL     1      82.059   6.184  27.433  1.00  0.00    -0.080 C 
ATOM      9  C   UNL     1      82.486   6.132  28.881  1.00  0.00     0.039 C 
ENDBRANCH   5   6
ENDBRANCH   4   5
ENDBRANCH   1   4
BRANCH   2  10
ATOM     10  C   UNL     1      82.607   2.026  30.087  1.00  0.00     0.035 C 
BRANCH  10  11
ATOM     11  C   UNL     1      81.733   2.955  30.934  1.00  0.00     0.079 C 
BRANCH  11  12
ATOM     12  C   UNL     1      80.973   2.172  31.971  1.00  0.00     0.130 C 
ATOM     13  O   UNL     1      81.002   0.951  31.944  1.00  0.00    -0.300 OA
ATOM     14  C   UNL     1      80.183   2.859  33.045  1.00  0.00     0.087 C 
ENDBRANCH  11  12
ENDBRANCH  10  11
ENDBRANCH   2  10
TORSDOF 6
ENDMDL
MODEL 2
REMARK VINA RESULT:    -4.907      1.833      5.205
REMARK INTER + INTRA:          -7.518
REMARK INTER:                  -6.875
REMARK INTRA:                  -0.643
REMARK UNBOUND:                -0.890
REMARK SMILES CC(=O)CCC=C(C)CCC=C(C)C
REMARK SMILES IDX 7 1 6 2 8 3 9 4 10 5 11 6 13 7 12 8 14 9 5 10 4 11 2 12 3 13
REMARK SMILES IDX 1 14
REMARK H PARENT
REMARK Flexibility Score: inf
ROOT
ATOM      1  C   UNL     1      82.438   6.007  27.759  1.00  0.00    -0.077 C 
ATOM      2  C   UNL     1      83.679   5.720  27.304  1.00  0.00    -0.028 C 
ATOM      3  C   UNL     1      81.240   6.043  26.839  1.00  0.00     0.039 C 
ENDROOT
BRANCH   1   4
ATOM      4  C   UNL     1      82.250   6.326  29.227  1.00  0.00     0.034 C 
BRANCH   4   5
ATOM      5  C   UNL     1      83.072   5.372  30.100  1.00  0.00     0.032 C 
BRANCH   5   6
ATOM      6  C   UNL     1      82.206   4.687  31.130  1.00  0.00    -0.028 C 
ATOM      7  C   UNL     1      81.050   2.784  32.174  1.00  0.00     0.039 C 
ATOM      8  C   UNL     1      81.927   3.367  31.096  1.00  0.00    -0.080 C 
ATOM      9  C   UNL     1      82.471   2.472  30.007  1.00  0.00     0.039 C 
ENDBRANCH   5   6
ENDBRANCH   4   5
ENDBRANCH   1   4
BRANCH   2  10
ATOM     10  C   UNL     1      83.998   5.338  25.880  1.00  0.00     0.035 C 
BRANCH  10  11
ATOM     11  C   UNL     1      84.905   4.105  25.841  1.00  0.00     0.079 C 
BRANCH  11  12
ATOM     12  C   UNL     1      84.599   3.182  26.990  1.00  0.00     0.130 C 
ATOM     13  O   UNL     1      83.584   2.502  26.962  1.00  0.00    -0.300 OA
ATOM     14  C   UNL     1      85.518   3.072  28.170  1.00  0.00     0.087 C 
ENDBRANCH  11  12
ENDBRANCH  10  11
ENDBRANCH   2  10
TORSDOF 6
ENDMDL
MODEL 3
REMARK VINA RESULT:    -4.861      2.462      5.520
REMARK INTER + INTRA:          -7.457
REMARK INTER:                  -6.453
REMARK INTRA:                  -1.004
REMARK UNBOUND:                -0.890
REMARK SMILES CC(=O)CCC=C(C)CCC=C(C)C
REMARK SMILES IDX 7 1 6 2 8 3 9 4 10 5 11 6 13 7 12 8 14 9 5 10 4 11 2 12 3 13
REMARK SMILES IDX 1 14
REMARK H PARENT
REMARK Flexibility Score: inf
ROOT
ATOM      1  C   UNL     1      82.164   5.004  29.834  1.00  0.00    -0.077 C 
ATOM      2  C   UNL     1      81.731   5.062  28.553  1.00  0.00    -0.028 C 
ATOM      3  C   UNL     1      82.902   6.155  30.478  1.00  0.00     0.039 C 
ENDROOT
BRANCH   1   4
ATOM      4  C   UNL     1      81.923   3.743  30.634  1.00  0.00     0.034 C 
BRANCH   4   5
ATOM      5  C   UNL     1      82.537   2.527  29.931  1.00  0.00     0.032 C 
BRANCH   5   6
ATOM      6  C   UNL     1      83.991   2.760  29.601  1.00  0.00    -0.028 C 
ATOM      7  C   UNL     1      85.957   2.911  28.131  1.00  0.00     0.039 C 
ATOM      8  C   UNL     1      84.488   2.657  28.350  1.00  0.00    -0.080 C 
ATOM      9  C   UNL     1      83.608   2.293  27.178  1.00  0.00     0.039 C 
ENDBRANCH   5   6
ENDBRANCH   4   5
ENDBRANCH   1   4
BRANCH   2  10
ATOM     10  C   UNL     1      81.862   6.273  27.663  1.00  0.00     0.035 C 
BRANCH  10  11
ATOM     11  C   UNL     1      82.418   5.879  26.292  1.00  0.00     0.079 C 
BRANCH  11  12
ATOM     12  C   UNL     1      83.904   5.652  26.366  1.00  0.00     0.130 C 
ATOM     13  O   UNL     1      84.525   6.047  27.342  1.00  0.00    -0.300 OA
ATOM     14  C   UNL     1      84.642   4.945  25.269  1.00  0.00     0.087 C 
ENDBRANCH  11  12
ENDBRANCH  10  11
ENDBRANCH   2  10
TORSDOF 6
ENDMDL
MODEL 4
REMARK VINA RESULT:    -4.623      1.728      3.840
REMARK INTER + INTRA:          -7.135
REMARK INTER:                  -6.458
REMARK INTRA:                  -0.676
REMARK UNBOUND:                -0.890
REMARK SMILES CC(=O)CCC=C(C)CCC=C(C)C
REMARK SMILES IDX 7 1 6 2 8 3 9 4 10 5 11 6 13 7 12 8 14 9 5 10 4 11 2 12 3 13
REMARK SMILES IDX 1 14
REMARK H PARENT
REMARK Flexibility Score: inf
ROOT
ATOM      1  C   UNL     1      82.830   5.828  26.869  1.00  0.00    -0.077 C 
ATOM      2  C   UNL     1      83.153   5.966  28.176  1.00  0.00    -0.028 C 
ATOM      3  C   UNL     1      81.406   5.602  26.419  1.00  0.00     0.039 C 
ENDROOT
BRANCH   1   4
ATOM      4  C   UNL     1      83.932   5.876  25.833  1.00  0.00     0.034 C 
BRANCH   4   5
ATOM      5  C   UNL     1      84.528   4.482  25.607  1.00  0.00     0.032 C 
BRANCH   5   6
ATOM      6  C   UNL     1      85.289   4.008  26.822  1.00  0.00    -0.028 C 
ATOM      7  C   UNL     1      85.680   2.629  28.820  1.00  0.00     0.039 C 
ATOM      8  C   UNL     1      84.841   3.026  27.633  1.00  0.00    -0.080 C 
ATOM      9  C   UNL     1      83.528   2.325  27.376  1.00  0.00     0.039 C 
ENDBRANCH   5   6
ENDBRANCH   4   5
ENDBRANCH   1   4
BRANCH   2  10
ATOM     10  C   UNL     1      82.150   5.987  29.303  1.00  0.00     0.035 C 
BRANCH  10  11
ATOM     11  C   UNL     1      82.838   5.718  30.644  1.00  0.00     0.079 C 
BRANCH  11  12
ATOM     12  C   UNL     1      82.400   4.393  31.210  1.00  0.00     0.130 C 
ATOM     13  O   UNL     1      82.152   4.301  32.403  1.00  0.00    -0.300 OA
ATOM     14  C   UNL     1      82.254   3.181  30.339  1.00  0.00     0.087 C 
ENDBRANCH  11  12
ENDBRANCH  10  11
ENDBRANCH   2  10
TORSDOF 6
ENDMDL
MODEL 5
REMARK VINA RESULT:    -4.589      2.764      4.213
REMARK INTER + INTRA:          -7.089
REMARK INTER:                  -6.582
REMARK INTRA:                  -0.507
REMARK UNBOUND:                -0.890
REMARK SMILES CC(=O)CCC=C(C)CCC=C(C)C
REMARK SMILES IDX 7 1 6 2 8 3 9 4 10 5 11 6 13 7 12 8 14 9 5 10 4 11 2 12 3 13
REMARK SMILES IDX 1 14
REMARK H PARENT
REMARK Flexibility Score: inf
ROOT
ATOM      1  C   UNL     1      83.275   4.463  26.396  1.00  0.00    -0.077 C 
ATOM      2  C   UNL     1      83.103   3.444  27.269  1.00  0.00    -0.028 C 
ATOM      3  C   UNL     1      84.613   4.744  25.754  1.00  0.00     0.039 C 
ENDROOT
BRANCH   1   4
ATOM      4  C   UNL     1      82.100   5.359  26.074  1.00  0.00     0.034 C 
BRANCH   4   5
ATOM      5  C   UNL     1      82.026   6.534  27.056  1.00  0.00     0.032 C 
BRANCH   5   6
ATOM      6  C   UNL     1      81.829   6.052  28.473  1.00  0.00    -0.028 C 
ATOM      7  C   UNL     1      82.527   5.486  30.762  1.00  0.00     0.039 C 
ATOM      8  C   UNL     1      82.833   5.982  29.373  1.00  0.00    -0.080 C 
ATOM      9  C   UNL     1      84.244   6.387  29.015  1.00  0.00     0.039 C 
ENDBRANCH   5   6
ENDBRANCH   4   5
ENDBRANCH   1   4
BRANCH   2  10
ATOM     10  C   UNL     1      84.175   2.448  27.639  1.00  0.00     0.035 C 
BRANCH  10  11
ATOM     11  C   UNL     1      84.913   2.894  28.904  1.00  0.00     0.079 C 
BRANCH  11  12
ATOM     12  C   UNL     1      86.403   2.782  28.717  1.00  0.00     0.130 C 
ATOM     13  O   UNL     1      86.854   1.917  27.981  1.00  0.00    -0.300 OA
ATOM     14  C   UNL     1      87.350   3.717  29.410  1.00  0.00     0.087 C 
ENDBRANCH  11  12
ENDBRANCH  10  11
ENDBRANCH   2  10
TORSDOF 6
ENDMDL
MODEL 6
REMARK VINA RESULT:    -4.493      2.247      4.340
REMARK INTER + INTRA:          -6.959
REMARK INTER:                  -6.479
REMARK INTRA:                  -0.481
REMARK UNBOUND:                -0.890
REMARK SMILES CC(=O)CCC=C(C)CCC=C(C)C
REMARK SMILES IDX 7 1 6 2 8 3 9 4 10 5 11 6 13 7 12 8 14 9 5 10 4 11 2 12 3 13
REMARK SMILES IDX 1 14
REMARK H PARENT
REMARK Flexibility Score: inf
ROOT
ATOM      1  C   UNL     1      83.202   3.874  30.057  1.00  0.00    -0.077 C 
ATOM      2  C   UNL     1      84.438   4.003  29.521  1.00  0.00    -0.028 C 
ATOM      3  C   UNL     1      82.478   2.548  30.080  1.00  0.00     0.039 C 
ENDROOT
BRANCH   1   4
ATOM      4  C   UNL     1      82.517   5.098  30.625  1.00  0.00     0.034 C 
BRANCH   4   5
ATOM      5  C   UNL     1      82.467   6.225  29.588  1.00  0.00     0.032 C 
BRANCH   5   6
ATOM      6  C   UNL     1      82.268   5.680  28.195  1.00  0.00    -0.028 C 
ATOM      7  C   UNL     1      81.383   5.669  25.900  1.00  0.00     0.039 C 
ATOM      8  C   UNL     1      81.516   6.301  27.262  1.00  0.00    -0.080 C 
ATOM      9  C   UNL     1      80.810   7.604  27.554  1.00  0.00     0.039 C 
ENDBRANCH   5   6
ENDBRANCH   4   5
ENDBRANCH   1   4
BRANCH   2  10
ATOM     10  C   UNL     1      85.250   2.859  28.967  1.00  0.00     0.035 C 
BRANCH  10  11
ATOM     11  C   UNL     1      85.794   3.205  27.578  1.00  0.00     0.079 C 
BRANCH  11  12
ATOM     12  C   UNL     1      84.668   3.522  26.629  1.00  0.00     0.130 C 
ATOM     13  O   UNL     1      83.635   2.873  26.684  1.00  0.00    -0.300 OA
ATOM     14  C   UNL     1      84.784   4.626  25.621  1.00  0.00     0.087 C 
ENDBRANCH  11  12
ENDBRANCH  10  11
ENDBRANCH   2  10
TORSDOF 6
ENDMDL
MODEL 7
REMARK VINA RESULT:    -4.416      2.618      4.794
REMARK INTER + INTRA:          -6.856
REMARK INTER:                  -6.087
REMARK INTRA:                  -0.769
REMARK UNBOUND:                -0.890
REMARK SMILES CC(=O)CCC=C(C)CCC=C(C)C
REMARK SMILES IDX 7 1 6 2 8 3 9 4 10 5 11 6 13 7 12 8 14 9 5 10 4 11 2 12 3 13
REMARK SMILES IDX 1 14
REMARK H PARENT
REMARK Flexibility Score: inf
ROOT
ATOM      1  C   UNL     1      84.638   5.276  28.241  1.00  0.00    -0.077 C 
ATOM      2  C   UNL     1      83.766   5.566  29.233  1.00  0.00    -0.028 C 
ATOM      3  C   UNL     1      84.418   5.749  26.823  1.00  0.00     0.039 C 
ENDROOT
BRANCH   1   4
ATOM      4  C   UNL     1      85.854   4.433  28.556  1.00  0.00     0.034 C 
BRANCH   4   5
ATOM      5  C   UNL     1      85.444   3.005  28.935  1.00  0.00     0.032 C 
BRANCH   5   6
ATOM      6  C   UNL     1      84.454   2.439  27.946  1.00  0.00    -0.028 C 
ATOM      7  C   UNL     1      82.286   1.536  27.217  1.00  0.00     0.039 C 
ATOM      8  C   UNL     1      83.193   2.093  28.283  1.00  0.00    -0.080 C 
ATOM      9  C   UNL     1      82.681   2.250  29.695  1.00  0.00     0.039 C 
ENDBRANCH   5   6
ENDBRANCH   4   5
ENDBRANCH   1   4
BRANCH   2  10
ATOM     10  C   UNL     1      82.544   6.435  29.067  1.00  0.00     0.035 C 
BRANCH  10  11
ATOM     11  C   UNL     1      81.428   5.669  28.351  1.00  0.00     0.079 C 
BRANCH  11  12
ATOM     12  C   UNL     1      81.023   6.376  27.086  1.00  0.00     0.130 C 
ATOM     13  O   UNL     1      80.989   5.755  26.034  1.00  0.00    -0.300 OA
ATOM     14  C   UNL     1      80.653   7.830  27.087  1.00  0.00     0.087 C 
ENDBRANCH  11  12
ENDBRANCH  10  11
ENDBRANCH   2  10
TORSDOF 6
ENDMDL
MODEL 8
REMARK VINA RESULT:    -4.331      2.058      3.772
REMARK INTER + INTRA:          -6.741
REMARK INTER:                  -6.006
REMARK INTRA:                  -0.734
REMARK UNBOUND:                -0.890
REMARK SMILES CC(=O)CCC=C(C)CCC=C(C)C
REMARK SMILES IDX 7 1 6 2 8 3 9 4 10 5 11 6 13 7 12 8 14 9 5 10 4 11 2 12 3 13
REMARK SMILES IDX 1 14
REMARK H PARENT
REMARK Flexibility Score: inf
ROOT
ATOM      1  C   UNL     1      81.832   5.568  28.980  1.00  0.00    -0.077 C 
ATOM      2  C   UNL     1      81.769   4.234  29.197  1.00  0.00    -0.028 C 
ATOM      3  C   UNL     1      82.615   6.486  29.889  1.00  0.00     0.039 C 
ENDROOT
BRANCH   1   4
ATOM      4  C   UNL     1      81.077   6.157  27.809  1.00  0.00     0.034 C 
BRANCH   4   5
ATOM      5  C   UNL     1      82.037   6.845  26.832  1.00  0.00     0.032 C 
BRANCH   5   6
ATOM      6  C   UNL     1      82.791   5.834  26.002  1.00  0.00    -0.028 C 
ATOM      7  C   UNL     1      84.717   4.439  25.379  1.00  0.00     0.039 C 
ATOM      8  C   UNL     1      84.058   5.456  26.273  1.00  0.00    -0.080 C 
ATOM      9  C   UNL     1      84.820   6.029  27.445  1.00  0.00     0.039 C 
ENDBRANCH   5   6
ENDBRANCH   4   5
ENDBRANCH   1   4
BRANCH   2  10
ATOM     10  C   UNL     1      82.511   3.513  30.295  1.00  0.00     0.035 C 
BRANCH  10  11
ATOM     11  C   UNL     1      83.102   2.199  29.776  1.00  0.00     0.079 C 
BRANCH  11  12
ATOM     12  C   UNL     1      84.043   2.455  28.629  1.00  0.00     0.130 C 
ATOM     13  O   UNL     1      83.660   2.266  27.484  1.00  0.00    -0.300 OA
ATOM     14  C   UNL     1      85.441   2.944  28.859  1.00  0.00     0.087 C 
ENDBRANCH  11  12
ENDBRANCH  10  11
ENDBRANCH   2  10
TORSDOF 6
ENDMDL
MODEL 9
REMARK VINA RESULT:    -4.099      2.084      2.942
REMARK INTER + INTRA:          -6.427
REMARK INTER:                  -5.821
REMARK INTRA:                  -0.606
REMARK UNBOUND:                -0.890
REMARK SMILES CC(=O)CCC=C(C)CCC=C(C)C
REMARK SMILES IDX 7 1 6 2 8 3 9 4 10 5 11 6 13 7 12 8 14 9 5 10 4 11 2 12 3 13
REMARK SMILES IDX 1 14
REMARK H PARENT
REMARK Flexibility Score: inf
ROOT
ATOM      1  C   UNL     1      82.870   3.009  29.760  1.00  0.00    -0.077 C 
ATOM      2  C   UNL     1      82.247   2.048  30.481  1.00  0.00    -0.028 C 
ATOM      3  C   UNL     1      83.581   2.696  28.464  1.00  0.00     0.039 C 
ENDROOT
BRANCH   1   4
ATOM      4  C   UNL     1      82.875   4.430  30.280  1.00  0.00     0.034 C 
BRANCH   4   5
ATOM      5  C   UNL     1      83.298   5.410  29.180  1.00  0.00     0.032 C 
BRANCH   5   6
ATOM      6  C   UNL     1      82.135   6.260  28.726  1.00  0.00    -0.028 C 
ATOM      7  C   UNL     1      80.589   7.245  27.088  1.00  0.00     0.039 C 
ATOM      8  C   UNL     1      81.765   6.369  27.433  1.00  0.00    -0.080 C 
ATOM      9  C   UNL     1      82.502   5.638  26.335  1.00  0.00     0.039 C 
ENDBRANCH   5   6
ENDBRANCH   4   5
ENDBRANCH   1   4
BRANCH   2  10
ATOM     10  C   UNL     1      82.125   0.606  30.055  1.00  0.00     0.035 C 
BRANCH  10  11
ATOM     11  C   UNL     1      81.907  -0.301  31.269  1.00  0.00     0.079 C 
BRANCH  11  12
ATOM     12  C   UNL     1      81.091  -1.508  30.891  1.00  0.00     0.130 C 
ATOM     13  O   UNL     1      80.174  -1.865  31.615  1.00  0.00    -0.300 OA
ATOM     14  C   UNL     1      81.374  -2.282  29.638  1.00  0.00     0.087 C 
ENDBRANCH  11  12
ENDBRANCH  10  11
ENDBRANCH   2  10
TORSDOF 6
ENDMDL
