MODEL 1
REMARK VINA RESULT:    -5.764      0.000      0.000
REMARK INTER + INTRA:          -6.269
REMARK INTER:                  -6.269
REMARK INTRA:                   0.000
REMARK UNBOUND:                 0.000
REMARK SMILES Cc1cc(O)c2c(c1)C(=O)c1cc(O)cc(O)c1C2=O
REMARK SMILES IDX 1 1 2 2 8 3 7 4 6 5 4 6 3 7 19 8 20 9 18 10 11 11 9 12 10 13
REMARK SMILES IDX 12 14 13 15 15 16 16 17 5 18 17 20 14 22
REMARK H PARENT 5 19 17 21 14 23
REMARK Flexibility Score: inf
ROOT
ATOM      1  C   UNL     1       3.004  -5.419  21.504  1.00  0.00     0.044 C 
ATOM      2  C   UNL     1       2.517  -4.695  22.725  1.00  0.00    -0.047 A 
ATOM      3  C   UNL     1       1.145  -4.530  22.946  1.00  0.00     0.016 A 
ATOM      4  C   UNL     1       0.680  -3.830  24.071  1.00  0.00     0.038 A 
ATOM      5  C   UNL     1       1.603  -3.285  24.991  1.00  0.00     0.076 A 
ATOM      6  C   UNL     1       2.992  -3.382  24.718  1.00  0.00     0.127 A 
ATOM      7  C   UNL     1       3.430  -4.102  23.602  1.00  0.00     0.050 A 
ATOM      8  C   UNL     1       1.076  -2.681  26.243  1.00  0.00     0.201 C 
ATOM      9  O   UNL     1       1.769  -2.710  27.293  1.00  0.00    -0.288 OA
ATOM     10  C   UNL     1      -0.335  -2.217  26.300  1.00  0.00     0.076 A 
ATOM     11  C   UNL     1      -1.255  -2.761  25.376  1.00  0.00     0.041 A 
ATOM     12  C   UNL     1      -0.775  -3.652  24.293  1.00  0.00     0.194 C 
ATOM     13  O   UNL     1      -1.604  -4.240  23.545  1.00  0.00    -0.289 OA
ATOM     14  C   UNL     1      -2.622  -2.453  25.486  1.00  0.00     0.059 A 
ATOM     15  C   UNL     1      -3.077  -1.597  26.493  1.00  0.00     0.120 A 
ATOM     16  C   UNL     1      -2.166  -1.026  27.382  1.00  0.00     0.093 A 
ATOM     17  C   UNL     1      -0.799  -1.301  27.281  1.00  0.00     0.131 A 
ENDROOT
BRANCH   6  18
ATOM     18  O   UNL     1       3.961  -2.753  25.501  1.00  0.00    -0.507 OA
ATOM     19  H   UNL     1       4.912  -3.088  25.591  1.00  0.00     0.293 HD
ENDBRANCH   6  18
BRANCH  17  20
ATOM     20  O   UNL     1       0.061  -0.622  28.147  1.00  0.00    -0.507 OA
ATOM     21  H   UNL     1       0.666   0.134  27.855  1.00  0.00     0.293 HD
ENDBRANCH  17  20
BRANCH  15  22
ATOM     22  O   UNL     1      -4.432  -1.298  26.612  1.00  0.00    -0.508 OA
ATOM     23  H   UNL     1      -5.131  -1.765  26.045  1.00  0.00     0.293 HD
ENDBRANCH  15  22
TORSDOF 3
ENDMDL
MODEL 2
REMARK VINA RESULT:    -5.628      2.123      3.665
REMARK INTER + INTRA:          -6.122
REMARK INTER:                  -6.122
REMARK INTRA:                   0.000
REMARK UNBOUND:                 0.000
REMARK SMILES Cc1cc(O)c2c(c1)C(=O)c1cc(O)cc(O)c1C2=O
REMARK SMILES IDX 1 1 2 2 8 3 7 4 6 5 4 6 3 7 19 8 20 9 18 10 11 11 9 12 10 13
REMARK SMILES IDX 12 14 13 15 15 16 16 17 5 18 17 20 14 22
REMARK H PARENT 5 19 17 21 14 23
REMARK Flexibility Score: inf
ROOT
ATOM      1  C   UNL     1       4.124  -5.414  28.920  1.00  0.00     0.044 C 
ATOM      2  C   UNL     1       3.403  -4.833  27.739  1.00  0.00    -0.047 A 
ATOM      3  C   UNL     1       2.122  -4.291  27.894  1.00  0.00     0.016 A 
ATOM      4  C   UNL     1       1.427  -3.771  26.790  1.00  0.00     0.038 A 
ATOM      5  C   UNL     1       2.022  -3.795  25.509  1.00  0.00     0.076 A 
ATOM      6  C   UNL     1       3.284  -4.422  25.345  1.00  0.00     0.127 A 
ATOM      7  C   UNL     1       3.965  -4.914  26.462  1.00  0.00     0.050 A 
ATOM      8  C   UNL     1       1.322  -3.104  24.395  1.00  0.00     0.201 C 
ATOM      9  O   UNL     1       1.988  -2.600  23.453  1.00  0.00    -0.288 OA
ATOM     10  C   UNL     1      -0.139  -2.847  24.489  1.00  0.00     0.076 A 
ATOM     11  C   UNL     1      -0.732  -2.827  25.771  1.00  0.00     0.041 A 
ATOM     12  C   UNL     1       0.068  -3.205  26.961  1.00  0.00     0.194 C 
ATOM     13  O   UNL     1      -0.418  -3.068  28.117  1.00  0.00    -0.289 OA
ATOM     14  C   UNL     1      -2.079  -2.453  25.912  1.00  0.00     0.059 A 
ATOM     15  C   UNL     1      -2.843  -2.115  24.792  1.00  0.00     0.120 A 
ATOM     16  C   UNL     1      -2.272  -2.173  23.520  1.00  0.00     0.093 A 
ATOM     17  C   UNL     1      -0.940  -2.562  23.351  1.00  0.00     0.131 A 
ENDROOT
BRANCH   6  18
ATOM     18  O   UNL     1       3.876  -4.610  24.094  1.00  0.00    -0.507 OA
ATOM     19  H   UNL     1       4.019  -5.519  23.674  1.00  0.00     0.293 HD
ENDBRANCH   6  18
BRANCH  17  20
ATOM     20  O   UNL     1      -0.465  -2.684  22.043  1.00  0.00    -0.507 OA
ATOM     21  H   UNL     1       0.213  -2.056  21.634  1.00  0.00     0.293 HD
ENDBRANCH  17  20
BRANCH  15  22
ATOM     22  O   UNL     1      -4.175  -1.732  24.929  1.00  0.00    -0.508 OA
ATOM     23  H   UNL     1      -4.915  -2.186  24.406  1.00  0.00     0.293 HD
ENDBRANCH  15  22
TORSDOF 3
ENDMDL
MODEL 3
REMARK VINA RESULT:    -5.548      3.143      4.989
REMARK INTER + INTRA:          -6.035
REMARK INTER:                  -6.035
REMARK INTRA:                   0.000
REMARK UNBOUND:                 0.000
REMARK SMILES Cc1cc(O)c2c(c1)C(=O)c1cc(O)cc(O)c1C2=O
REMARK SMILES IDX 1 1 2 2 8 3 7 4 6 5 4 6 3 7 19 8 20 9 18 10 11 11 9 12 10 13
REMARK SMILES IDX 12 14 13 15 15 16 16 17 5 18 17 20 14 22
REMARK H PARENT 5 19 17 21 14 23
REMARK Flexibility Score: inf
ROOT
ATOM      1  C   UNL     1       2.763  -6.074  18.043  1.00  0.00     0.044 C 
ATOM      2  C   UNL     1       2.576  -5.322  19.328  1.00  0.00    -0.047 A 
ATOM      3  C   UNL     1       3.066  -5.847  20.529  1.00  0.00     0.016 A 
ATOM      4  C   UNL     1       2.871  -5.164  21.741  1.00  0.00     0.038 A 
ATOM      5  C   UNL     1       2.173  -3.936  21.752  1.00  0.00     0.076 A 
ATOM      6  C   UNL     1       1.606  -3.452  20.545  1.00  0.00     0.127 A 
ATOM      7  C   UNL     1       1.831  -4.139  19.348  1.00  0.00     0.050 A 
ATOM      8  C   UNL     1       2.115  -3.172  23.025  1.00  0.00     0.201 C 
ATOM      9  O   UNL     1       2.047  -1.915  22.999  1.00  0.00    -0.288 OA
ATOM     10  C   UNL     1       2.327  -3.874  24.318  1.00  0.00     0.076 A 
ATOM     11  C   UNL     1       3.023  -5.104  24.303  1.00  0.00     0.041 A 
ATOM     12  C   UNL     1       3.387  -5.731  23.010  1.00  0.00     0.194 C 
ATOM     13  O   UNL     1       4.116  -6.761  22.991  1.00  0.00    -0.289 OA
ATOM     14  C   UNL     1       3.362  -5.730  25.514  1.00  0.00     0.059 A 
ATOM     15  C   UNL     1       3.004  -5.153  26.736  1.00  0.00     0.120 A 
ATOM     16  C   UNL     1       2.281  -3.959  26.753  1.00  0.00     0.093 A 
ATOM     17  C   UNL     1       1.913  -3.328  25.561  1.00  0.00     0.131 A 
ENDROOT
BRANCH   6  18
ATOM     18  O   UNL     1       0.786  -2.322  20.496  1.00  0.00    -0.507 OA
ATOM     19  H   UNL     1       1.113  -1.406  20.219  1.00  0.00     0.293 HD
ENDBRANCH   6  18
BRANCH  17  20
ATOM     20  O   UNL     1       1.114  -2.187  25.657  1.00  0.00    -0.507 OA
ATOM     21  H   UNL     1       1.361  -1.377  26.209  1.00  0.00     0.293 HD
ENDBRANCH  17  20
BRANCH  15  22
ATOM     22  O   UNL     1       3.349  -5.764  27.939  1.00  0.00    -0.508 OA
ATOM     23  H   UNL     1       2.648  -6.030  28.620  1.00  0.00     0.293 HD
ENDBRANCH  15  22
TORSDOF 3
ENDMDL
MODEL 4
REMARK VINA RESULT:    -5.529      1.794      5.646
REMARK INTER + INTRA:          -6.014
REMARK INTER:                  -6.014
REMARK INTRA:                   0.000
REMARK UNBOUND:                 0.000
REMARK SMILES Cc1cc(O)c2c(c1)C(=O)c1cc(O)cc(O)c1C2=O
REMARK SMILES IDX 1 1 2 2 8 3 7 4 6 5 4 6 3 7 19 8 20 9 18 10 11 11 9 12 10 13
REMARK SMILES IDX 12 14 13 15 15 16 16 17 5 18 17 20 14 22
REMARK H PARENT 5 19 17 21 14 23
REMARK Flexibility Score: inf
ROOT
ATOM      1  C   UNL     1      -3.160  -0.943  26.701  1.00  0.00     0.044 C 
ATOM      2  C   UNL     1      -1.840  -1.598  26.420  1.00  0.00    -0.047 A 
ATOM      3  C   UNL     1      -1.468  -1.898  25.105  1.00  0.00     0.016 A 
ATOM      4  C   UNL     1      -0.246  -2.537  24.834  1.00  0.00     0.038 A 
ATOM      5  C   UNL     1       0.617  -2.883  25.897  1.00  0.00     0.076 A 
ATOM      6  C   UNL     1       0.196  -2.653  27.232  1.00  0.00     0.127 A 
ATOM      7  C   UNL     1      -1.014  -1.998  27.476  1.00  0.00     0.050 A 
ATOM      8  C   UNL     1       1.961  -3.421  25.564  1.00  0.00     0.201 C 
ATOM      9  O   UNL     1       2.930  -3.213  26.342  1.00  0.00    -0.288 OA
ATOM     10  C   UNL     1       2.201  -4.037  24.232  1.00  0.00     0.076 A 
ATOM     11  C   UNL     1       1.333  -3.691  23.172  1.00  0.00     0.041 A 
ATOM     12  C   UNL     1       0.136  -2.858  23.439  1.00  0.00     0.194 C 
ATOM     13  O   UNL     1      -0.570  -2.443  22.479  1.00  0.00    -0.289 OA
ATOM     14  C   UNL     1       1.607  -4.143  21.870  1.00  0.00     0.059 A 
ATOM     15  C   UNL     1       2.723  -4.945  21.617  1.00  0.00     0.120 A 
ATOM     16  C   UNL     1       3.559  -5.322  22.669  1.00  0.00     0.093 A 
ATOM     17  C   UNL     1       3.297  -4.902  23.977  1.00  0.00     0.131 A 
ENDROOT
BRANCH   6  18
ATOM     18  O   UNL     1       0.927  -3.090  28.340  1.00  0.00    -0.507 OA
ATOM     19  H   UNL     1       1.114  -4.064  28.537  1.00  0.00     0.293 HD
ENDBRANCH   6  18
BRANCH  17  20
ATOM     20  O   UNL     1       4.125  -5.393  24.988  1.00  0.00    -0.507 OA
ATOM     21  H   UNL     1       4.197  -6.373  25.225  1.00  0.00     0.293 HD
ENDBRANCH  17  20
BRANCH  15  22
ATOM     22  O   UNL     1       3.004  -5.385  20.326  1.00  0.00    -0.508 OA
ATOM     23  H   UNL     1       3.820  -5.061  19.820  1.00  0.00     0.293 HD
ENDBRANCH  15  22
TORSDOF 3
ENDMDL
MODEL 5
REMARK VINA RESULT:    -5.447      2.119      5.544
REMARK INTER + INTRA:          -5.924
REMARK INTER:                  -5.924
REMARK INTRA:                   0.000
REMARK UNBOUND:                 0.000
REMARK SMILES Cc1cc(O)c2c(c1)C(=O)c1cc(O)cc(O)c1C2=O
REMARK SMILES IDX 1 1 2 2 8 3 7 4 6 5 4 6 3 7 19 8 20 9 18 10 11 11 9 12 10 13
REMARK SMILES IDX 12 14 13 15 15 16 16 17 5 18 17 20 14 22
REMARK H PARENT 5 19 17 21 14 23
REMARK Flexibility Score: inf
ROOT
ATOM      1  C   UNL     1      -3.808  -0.879  24.730  1.00  0.00     0.044 C 
ATOM      2  C   UNL     1      -2.544  -1.681  24.616  1.00  0.00    -0.047 A 
ATOM      3  C   UNL     1      -1.881  -2.117  25.769  1.00  0.00     0.016 A 
ATOM      4  C   UNL     1      -0.682  -2.844  25.674  1.00  0.00     0.038 A 
ATOM      5  C   UNL     1      -0.138  -3.139  24.404  1.00  0.00     0.076 A 
ATOM      6  C   UNL     1      -0.770  -2.622  23.244  1.00  0.00     0.127 A 
ATOM      7  C   UNL     1      -1.972  -1.919  23.363  1.00  0.00     0.050 A 
ATOM      8  C   UNL     1       1.047  -4.033  24.337  1.00  0.00     0.201 C 
ATOM      9  O   UNL     1       1.221  -4.768  23.330  1.00  0.00    -0.288 OA
ATOM     10  C   UNL     1       1.915  -4.197  25.533  1.00  0.00     0.076 A 
ATOM     11  C   UNL     1       1.369  -3.898  26.801  1.00  0.00     0.041 A 
ATOM     12  C   UNL     1       0.018  -3.294  26.899  1.00  0.00     0.194 C 
ATOM     13  O   UNL     1      -0.524  -3.142  28.029  1.00  0.00    -0.289 OA
ATOM     14  C   UNL     1       2.110  -4.170  27.963  1.00  0.00     0.059 A 
ATOM     15  C   UNL     1       3.392  -4.720  27.874  1.00  0.00     0.120 A 
ATOM     16  C   UNL     1       3.950  -4.979  26.622  1.00  0.00     0.093 A 
ATOM     17  C   UNL     1       3.241  -4.698  25.451  1.00  0.00     0.131 A 
ENDROOT
BRANCH   6  18
ATOM     18  O   UNL     1      -0.222  -2.751  21.965  1.00  0.00    -0.507 OA
ATOM     19  H   UNL     1      -0.388  -2.091  21.217  1.00  0.00     0.293 HD
ENDBRANCH   6  18
BRANCH  17  20
ATOM     20  O   UNL     1       3.900  -4.899  24.235  1.00  0.00    -0.507 OA
ATOM     21  H   UNL     1       4.140  -4.151  23.600  1.00  0.00     0.293 HD
ENDBRANCH  17  20
BRANCH  15  22
ATOM     22  O   UNL     1       4.125  -5.002  29.025  1.00  0.00    -0.508 OA
ATOM     23  H   UNL     1       3.680  -5.354  29.865  1.00  0.00     0.293 HD
ENDBRANCH  15  22
TORSDOF 3
ENDMDL
MODEL 6
REMARK VINA RESULT:    -5.426      2.221      3.394
REMARK INTER + INTRA:          -5.902
REMARK INTER:                  -5.902
REMARK INTRA:                   0.000
REMARK UNBOUND:                 0.000
REMARK SMILES Cc1cc(O)c2c(c1)C(=O)c1cc(O)cc(O)c1C2=O
REMARK SMILES IDX 1 1 2 2 8 3 7 4 6 5 4 6 3 7 19 8 20 9 18 10 11 11 9 12 10 13
REMARK SMILES IDX 12 14 13 15 15 16 16 17 5 18 17 20 14 22
REMARK H PARENT 5 19 17 21 14 23
REMARK Flexibility Score: inf
ROOT
ATOM      1  C   UNL     1       0.425  -2.355  19.960  1.00  0.00     0.044 C 
ATOM      2  C   UNL     1       0.968  -2.872  21.260  1.00  0.00    -0.047 A 
ATOM      3  C   UNL     1       0.219  -2.745  22.435  1.00  0.00     0.016 A 
ATOM      4  C   UNL     1       0.730  -3.200  23.662  1.00  0.00     0.038 A 
ATOM      5  C   UNL     1       2.012  -3.791  23.714  1.00  0.00     0.076 A 
ATOM      6  C   UNL     1       2.799  -3.839  22.535  1.00  0.00     0.127 A 
ATOM      7  C   UNL     1       2.261  -3.399  21.322  1.00  0.00     0.050 A 
ATOM      8  C   UNL     1       2.457  -4.393  24.997  1.00  0.00     0.201 C 
ATOM      9  O   UNL     1       3.246  -5.375  24.989  1.00  0.00    -0.288 OA
ATOM     10  C   UNL     1       1.827  -3.961  26.273  1.00  0.00     0.076 A 
ATOM     11  C   UNL     1       0.547  -3.368  26.217  1.00  0.00     0.041 A 
ATOM     12  C   UNL     1      -0.066  -3.055  24.904  1.00  0.00     0.194 C 
ATOM     13  O   UNL     1      -1.258  -2.643  24.845  1.00  0.00    -0.289 OA
ATOM     14  C   UNL     1      -0.139  -3.072  27.407  1.00  0.00     0.059 A 
ATOM     15  C   UNL     1       0.443  -3.346  28.648  1.00  0.00     0.120 A 
ATOM     16  C   UNL     1       1.724  -3.894  28.707  1.00  0.00     0.093 A 
ATOM     17  C   UNL     1       2.435  -4.179  27.537  1.00  0.00     0.131 A 
ENDROOT
BRANCH   6  18
ATOM     18  O   UNL     1       4.125  -4.280  22.530  1.00  0.00    -0.507 OA
ATOM     19  H   UNL     1       4.550  -4.764  21.751  1.00  0.00     0.293 HD
ENDBRANCH   6  18
BRANCH  17  20
ATOM     20  O   UNL     1       3.746  -4.641  27.676  1.00  0.00    -0.507 OA
ATOM     21  H   UNL     1       4.552  -4.158  27.302  1.00  0.00     0.293 HD
ENDBRANCH  17  20
BRANCH  15  22
ATOM     22  O   UNL     1      -0.238  -3.065  29.830  1.00  0.00    -0.508 OA
ATOM     23  H   UNL     1      -1.247  -3.141  29.892  1.00  0.00     0.293 HD
ENDBRANCH  15  22
TORSDOF 3
ENDMDL
MODEL 7
REMARK VINA RESULT:    -5.346      1.490      5.504
REMARK INTER + INTRA:          -5.815
REMARK INTER:                  -5.815
REMARK INTRA:                   0.000
REMARK UNBOUND:                 0.000
REMARK SMILES Cc1cc(O)c2c(c1)C(=O)c1cc(O)cc(O)c1C2=O
REMARK SMILES IDX 1 1 2 2 8 3 7 4 6 5 4 6 3 7 19 8 20 9 18 10 11 11 9 12 10 13
REMARK SMILES IDX 12 14 13 15 15 16 16 17 5 18 17 20 14 22
REMARK H PARENT 5 19 17 21 14 23
REMARK Flexibility Score: inf
ROOT
ATOM      1  C   UNL     1      -3.941  -0.546  27.224  1.00  0.00     0.044 C 
ATOM      2  C   UNL     1      -2.598  -1.182  27.012  1.00  0.00    -0.047 A 
ATOM      3  C   UNL     1      -2.291  -1.785  25.787  1.00  0.00     0.016 A 
ATOM      4  C   UNL     1      -1.048  -2.409  25.587  1.00  0.00     0.038 A 
ATOM      5  C   UNL     1      -0.096  -2.429  26.631  1.00  0.00     0.076 A 
ATOM      6  C   UNL     1      -0.446  -1.890  27.896  1.00  0.00     0.127 A 
ATOM      7  C   UNL     1      -1.681  -1.258  28.064  1.00  0.00     0.050 A 
ATOM      8  C   UNL     1       1.258  -2.964  26.337  1.00  0.00     0.201 C 
ATOM      9  O   UNL     1       2.258  -2.516  26.959  1.00  0.00    -0.288 OA
ATOM     10  C   UNL     1       1.454  -3.883  25.185  1.00  0.00     0.076 A 
ATOM     11  C   UNL     1       0.499  -3.863  24.145  1.00  0.00     0.041 A 
ATOM     12  C   UNL     1      -0.734  -3.052  24.290  1.00  0.00     0.194 C 
ATOM     13  O   UNL     1      -1.528  -2.931  23.316  1.00  0.00    -0.289 OA
ATOM     14  C   UNL     1       0.719  -4.615  22.978  1.00  0.00     0.059 A 
ATOM     15  C   UNL     1       1.871  -5.396  22.845  1.00  0.00     0.120 A 
ATOM     16  C   UNL     1       2.796  -5.451  23.888  1.00  0.00     0.093 A 
ATOM     17  C   UNL     1       2.589  -4.728  25.067  1.00  0.00     0.131 A 
ENDROOT
BRANCH   6  18
ATOM     18  O   UNL     1       0.383  -1.994  29.016  1.00  0.00    -0.507 OA
ATOM     19  H   UNL     1       1.000  -1.255  29.325  1.00  0.00     0.293 HD
ENDBRANCH   6  18
BRANCH  17  20
ATOM     20  O   UNL     1       3.513  -4.903  26.100  1.00  0.00    -0.507 OA
ATOM     21  H   UNL     1       4.324  -4.315  26.229  1.00  0.00     0.293 HD
ENDBRANCH  17  20
BRANCH  15  22
ATOM     22  O   UNL     1       2.098  -6.134  21.686  1.00  0.00    -0.508 OA
ATOM     23  H   UNL     1       1.607  -7.001  21.503  1.00  0.00     0.293 HD
ENDBRANCH  15  22
TORSDOF 3
ENDMDL
MODEL 8
REMARK VINA RESULT:    -5.333      1.692      3.429
REMARK INTER + INTRA:          -5.800
REMARK INTER:                  -5.800
REMARK INTRA:                   0.000
REMARK UNBOUND:                 0.000
REMARK SMILES Cc1cc(O)c2c(c1)C(=O)c1cc(O)cc(O)c1C2=O
REMARK SMILES IDX 1 1 2 2 8 3 7 4 6 5 4 6 3 7 19 8 20 9 18 10 11 11 9 12 10 13
REMARK SMILES IDX 12 14 13 15 15 16 16 17 5 18 17 20 14 22
REMARK H PARENT 5 19 17 21 14 23
REMARK Flexibility Score: inf
ROOT
ATOM      1  C   UNL     1       4.125  -5.283  26.590  1.00  0.00     0.044 C 
ATOM      2  C   UNL     1       2.959  -4.702  25.846  1.00  0.00    -0.047 A 
ATOM      3  C   UNL     1       2.130  -3.758  26.462  1.00  0.00     0.016 A 
ATOM      4  C   UNL     1       1.019  -3.229  25.783  1.00  0.00     0.038 A 
ATOM      5  C   UNL     1       0.732  -3.653  24.467  1.00  0.00     0.076 A 
ATOM      6  C   UNL     1       1.526  -4.672  23.880  1.00  0.00     0.127 A 
ATOM      7  C   UNL     1       2.638  -5.168  24.567  1.00  0.00     0.050 A 
ATOM      8  C   UNL     1      -0.359  -2.965  23.729  1.00  0.00     0.201 C 
ATOM      9  O   UNL     1      -0.300  -2.863  22.475  1.00  0.00    -0.288 OA
ATOM     10  C   UNL     1      -1.414  -2.238  24.482  1.00  0.00     0.076 A 
ATOM     11  C   UNL     1      -1.126  -1.819  25.800  1.00  0.00     0.041 A 
ATOM     12  C   UNL     1       0.142  -2.235  26.446  1.00  0.00     0.194 C 
ATOM     13  O   UNL     1       0.462  -1.762  27.572  1.00  0.00    -0.289 OA
ATOM     14  C   UNL     1      -2.043  -1.012  26.494  1.00  0.00     0.059 A 
ATOM     15  C   UNL     1      -3.249  -0.634  25.896  1.00  0.00     0.120 A 
ATOM     16  C   UNL     1      -3.555  -1.080  24.610  1.00  0.00     0.093 A 
ATOM     17  C   UNL     1      -2.668  -1.900  23.907  1.00  0.00     0.131 A 
ENDROOT
BRANCH   6  18
ATOM     18  O   UNL     1       1.226  -5.242  22.641  1.00  0.00    -0.507 OA
ATOM     19  H   UNL     1       1.560  -4.874  21.760  1.00  0.00     0.293 HD
ENDBRANCH   6  18
BRANCH  17  20
ATOM     20  O   UNL     1      -3.083  -2.380  22.663  1.00  0.00    -0.507 OA
ATOM     21  H   UNL     1      -2.445  -2.650  21.927  1.00  0.00     0.293 HD
ENDBRANCH  17  20
BRANCH  15  22
ATOM     22  O   UNL     1      -4.155   0.175  26.576  1.00  0.00    -0.508 OA
ATOM     23  H   UNL     1      -4.108   0.298  27.581  1.00  0.00     0.293 HD
ENDBRANCH  15  22
TORSDOF 3
ENDMDL
MODEL 9
REMARK VINA RESULT:    -4.834      2.795      5.987
REMARK INTER + INTRA:          -5.258
REMARK INTER:                  -5.258
REMARK INTRA:                   0.000
REMARK UNBOUND:                 0.000
REMARK SMILES Cc1cc(O)c2c(c1)C(=O)c1cc(O)cc(O)c1C2=O
REMARK SMILES IDX 1 1 2 2 8 3 7 4 6 5 4 6 3 7 19 8 20 9 18 10 11 11 9 12 10 13
REMARK SMILES IDX 12 14 13 15 15 16 16 17 5 18 17 20 14 22
REMARK H PARENT 5 19 17 21 14 23
REMARK Flexibility Score: inf
ROOT
ATOM      1  C   UNL     1       4.125  -5.314  28.390  1.00  0.00     0.044 C 
ATOM      2  C   UNL     1       3.347  -4.885  27.181  1.00  0.00    -0.047 A 
ATOM      3  C   UNL     1       3.654  -5.414  25.922  1.00  0.00     0.016 A 
ATOM      4  C   UNL     1       2.951  -4.997  24.780  1.00  0.00     0.038 A 
ATOM      5  C   UNL     1       1.924  -4.035  24.898  1.00  0.00     0.076 A 
ATOM      6  C   UNL     1       1.675  -3.441  26.162  1.00  0.00     0.127 A 
ATOM      7  C   UNL     1       2.374  -3.886  27.288  1.00  0.00     0.050 A 
ATOM      8  C   UNL     1       1.105  -3.729  23.697  1.00  0.00     0.201 C 
ATOM      9  O   UNL     1      -0.096  -3.374  23.831  1.00  0.00    -0.288 OA
ATOM     10  C   UNL     1       1.643  -4.024  22.343  1.00  0.00     0.076 A 
ATOM     11  C   UNL     1       2.672  -4.984  22.228  1.00  0.00     0.041 A 
ATOM     12  C   UNL     1       3.288  -5.557  23.449  1.00  0.00     0.194 C 
ATOM     13  O   UNL     1       4.116  -6.504  23.354  1.00  0.00    -0.289 OA
ATOM     14  C   UNL     1       3.111  -5.390  20.956  1.00  0.00     0.059 A 
ATOM     15  C   UNL     1       2.548  -4.838  19.802  1.00  0.00     0.120 A 
ATOM     16  C   UNL     1       1.560  -3.859  19.912  1.00  0.00     0.093 A 
ATOM     17  C   UNL     1       1.121  -3.424  21.166  1.00  0.00     0.131 A 
ENDROOT
BRANCH   6  18
ATOM     18  O   UNL     1       0.776  -2.387  26.337  1.00  0.00    -0.507 OA
ATOM     19  H   UNL     1      -0.188  -2.418  26.033  1.00  0.00     0.293 HD
ENDBRANCH   6  18
BRANCH  17  20
ATOM     20  O   UNL     1       0.195  -2.379  21.197  1.00  0.00    -0.507 OA
ATOM     21  H   UNL     1       0.221  -1.591  20.563  1.00  0.00     0.293 HD
ENDBRANCH  17  20
BRANCH  15  22
ATOM     22  O   UNL     1       2.973  -5.246  18.540  1.00  0.00    -0.508 OA
ATOM     23  H   UNL     1       3.498  -6.103  18.408  1.00  0.00     0.293 HD
ENDBRANCH  15  22
TORSDOF 3
ENDMDL
