MODEL 1
REMARK VINA RESULT:    -3.902      0.000      0.000
REMARK INTER + INTRA:          -4.479
REMARK INTER:                  -4.245
REMARK INTRA:                  -0.235
REMARK UNBOUND:                -0.235
REMARK SMILES O=C([O-])c1ccccc1O
REMARK SMILES IDX 4 1 9 2 5 3 8 4 6 5 7 6 2 7 1 8 3 9 10 10
REMARK H PARENT 10 11
REMARK Flexibility Score: inf
ROOT
ATOM      1  C   UNL     1      -4.753   2.047  17.623  1.00  0.00     0.039 A 
ATOM      2  C   UNL     1      -3.963   0.929  17.991  1.00  0.00     0.124 A 
ATOM      3  C   UNL     1      -4.553   3.272  18.288  1.00  0.00     0.014 A 
ATOM      4  C   UNL     1      -3.047   1.045  19.044  1.00  0.00     0.047 A 
ATOM      5  C   UNL     1      -3.620   3.376  19.322  1.00  0.00     0.001 A 
ATOM      6  C   UNL     1      -2.875   2.262  19.706  1.00  0.00     0.004 A 
ENDROOT
BRANCH   1   7
ATOM      7  C   UNL     1      -5.811   1.966  16.592  1.00  0.00     0.075 C 
ATOM      8  O   UNL     1      -7.004   2.243  16.887  1.00  0.00    -0.545 OA
ATOM      9  O   UNL     1      -5.521   1.523  15.307  1.00  0.00    -0.545 OA
ENDBRANCH   1   7
BRANCH   2  10
ATOM     10  O   UNL     1      -4.029  -0.292  17.318  1.00  0.00    -0.507 OA
ATOM     11  H   UNL     1      -4.668  -1.034  17.571  1.00  0.00     0.293 HD
ENDBRANCH   2  10
TORSDOF 2
ENDMDL
MODEL 2
REMARK VINA RESULT:    -3.860      2.018      4.080
REMARK INTER + INTRA:          -4.433
REMARK INTER:                  -4.197
REMARK INTRA:                  -0.236
REMARK UNBOUND:                -0.235
REMARK SMILES O=C([O-])c1ccccc1O
REMARK SMILES IDX 4 1 9 2 5 3 8 4 6 5 7 6 2 7 1 8 3 9 10 10
REMARK H PARENT 10 11
REMARK Flexibility Score: inf
ROOT
ATOM      1  C   UNL     1      -4.356   1.975  17.661  1.00  0.00     0.039 A 
ATOM      2  C   UNL     1      -5.528   2.752  17.480  1.00  0.00     0.124 A 
ATOM      3  C   UNL     1      -3.996   1.043  16.669  1.00  0.00     0.014 A 
ATOM      4  C   UNL     1      -6.336   2.536  16.357  1.00  0.00     0.047 A 
ATOM      5  C   UNL     1      -4.801   0.855  15.544  1.00  0.00     0.001 A 
ATOM      6  C   UNL     1      -5.974   1.593  15.392  1.00  0.00     0.004 A 
ENDROOT
BRANCH   1   7
ATOM      7  C   UNL     1      -3.515   2.078  18.874  1.00  0.00     0.075 C 
ATOM      8  O   UNL     1      -2.889   1.070  19.297  1.00  0.00    -0.545 OA
ATOM      9  O   UNL     1      -3.453   3.262  19.599  1.00  0.00    -0.545 OA
ENDBRANCH   1   7
BRANCH   2  10
ATOM     10  O   UNL     1      -5.903   3.764  18.365  1.00  0.00    -0.507 OA
ATOM     11  H   UNL     1      -5.755   3.714  19.364  1.00  0.00     0.293 HD
ENDBRANCH   2  10
TORSDOF 2
ENDMDL
MODEL 3
REMARK VINA RESULT:    -3.853      1.915      4.075
REMARK INTER + INTRA:          -4.426
REMARK INTER:                  -4.180
REMARK INTRA:                  -0.246
REMARK UNBOUND:                -0.235
REMARK SMILES O=C([O-])c1ccccc1O
REMARK SMILES IDX 4 1 9 2 5 3 8 4 6 5 7 6 2 7 1 8 3 9 10 10
REMARK H PARENT 10 11
REMARK Flexibility Score: inf
ROOT
ATOM      1  C   UNL     1      -4.719   1.978  16.868  1.00  0.00     0.039 A 
ATOM      2  C   UNL     1      -5.665   3.017  17.062  1.00  0.00     0.124 A 
ATOM      3  C   UNL     1      -4.533   1.458  15.572  1.00  0.00     0.014 A 
ATOM      4  C   UNL     1      -6.437   3.461  15.981  1.00  0.00     0.047 A 
ATOM      5  C   UNL     1      -5.297   1.928  14.501  1.00  0.00     0.001 A 
ATOM      6  C   UNL     1      -6.254   2.921  14.707  1.00  0.00     0.004 A 
ENDROOT
BRANCH   1   7
ATOM      7  C   UNL     1      -3.945   1.390  17.983  1.00  0.00     0.075 C 
ATOM      8  O   UNL     1      -3.480   2.131  18.889  1.00  0.00    -0.545 OA
ATOM      9  O   UNL     1      -3.663   0.029  18.015  1.00  0.00    -0.545 OA
ENDBRANCH   1   7
BRANCH   2  10
ATOM     10  O   UNL     1      -5.840   3.653  18.292  1.00  0.00    -0.507 OA
ATOM     11  H   UNL     1      -5.977   3.156  19.161  1.00  0.00     0.293 HD
ENDBRANCH   2  10
TORSDOF 2
ENDMDL
MODEL 4
REMARK VINA RESULT:    -3.688      1.884      3.546
REMARK INTER + INTRA:          -4.247
REMARK INTER:                  -4.030
REMARK INTRA:                  -0.217
REMARK UNBOUND:                -0.235
REMARK SMILES O=C([O-])c1ccccc1O
REMARK SMILES IDX 4 1 9 2 5 3 8 4 6 5 7 6 2 7 1 8 3 9 10 10
REMARK H PARENT 10 11
REMARK Flexibility Score: inf
ROOT
ATOM      1  C   UNL     1      -4.613   2.440  17.792  1.00  0.00     0.039 A 
ATOM      2  C   UNL     1      -5.082   1.383  16.971  1.00  0.00     0.124 A 
ATOM      3  C   UNL     1      -5.114   3.739  17.583  1.00  0.00     0.014 A 
ATOM      4  C   UNL     1      -5.983   1.658  15.935  1.00  0.00     0.047 A 
ATOM      5  C   UNL     1      -6.029   3.993  16.559  1.00  0.00     0.001 A 
ATOM      6  C   UNL     1      -6.456   2.956  15.730  1.00  0.00     0.004 A 
ENDROOT
BRANCH   1   7
ATOM      7  C   UNL     1      -3.584   2.238  18.835  1.00  0.00     0.075 C 
ATOM      8  O   UNL     1      -2.875   1.196  18.831  1.00  0.00    -0.545 OA
ATOM      9  O   UNL     1      -3.428   3.154  19.868  1.00  0.00    -0.545 OA
ENDBRANCH   1   7
BRANCH   2  10
ATOM     10  O   UNL     1      -4.711   0.053  17.174  1.00  0.00    -0.507 OA
ATOM     11  H   UNL     1      -5.159  -0.727  16.714  1.00  0.00     0.293 HD
ENDBRANCH   2  10
TORSDOF 2
ENDMDL
MODEL 5
REMARK VINA RESULT:    -3.424      1.323      2.511
REMARK INTER + INTRA:          -3.959
REMARK INTER:                  -3.768
REMARK INTRA:                  -0.191
REMARK UNBOUND:                -0.235
REMARK SMILES O=C([O-])c1ccccc1O
REMARK SMILES IDX 4 1 9 2 5 3 8 4 6 5 7 6 2 7 1 8 3 9 10 10
REMARK H PARENT 10 11
REMARK Flexibility Score: inf
ROOT
ATOM      1  C   UNL     1      -4.531   1.747  16.685  1.00  0.00     0.039 A 
ATOM      2  C   UNL     1      -5.560   2.452  17.360  1.00  0.00     0.124 A 
ATOM      3  C   UNL     1      -3.190   2.001  17.033  1.00  0.00     0.014 A 
ATOM      4  C   UNL     1      -5.226   3.425  18.310  1.00  0.00     0.047 A 
ATOM      5  C   UNL     1      -2.875   2.960  17.998  1.00  0.00     0.001 A 
ATOM      6  C   UNL     1      -3.890   3.677  18.629  1.00  0.00     0.004 A 
ENDROOT
BRANCH   1   7
ATOM      7  C   UNL     1      -4.809   0.783  15.598  1.00  0.00     0.075 C 
ATOM      8  O   UNL     1      -4.382  -0.400  15.678  1.00  0.00    -0.545 OA
ATOM      9  O   UNL     1      -5.484   1.179  14.450  1.00  0.00    -0.545 OA
ENDBRANCH   1   7
BRANCH   2  10
ATOM     10  O   UNL     1      -6.915   2.190  17.145  1.00  0.00    -0.507 OA
ATOM     11  H   UNL     1      -7.422   1.455  17.618  1.00  0.00     0.293 HD
ENDBRANCH   2  10
TORSDOF 2
ENDMDL
MODEL 6
REMARK VINA RESULT:    -3.265      1.792      3.358
REMARK INTER + INTRA:          -3.786
REMARK INTER:                  -3.573
REMARK INTRA:                  -0.214
REMARK UNBOUND:                -0.235
REMARK SMILES O=C([O-])c1ccccc1O
REMARK SMILES IDX 4 1 9 2 5 3 8 4 6 5 7 6 2 7 1 8 3 9 10 10
REMARK H PARENT 10 11
REMARK Flexibility Score: inf
ROOT
ATOM      1  C   UNL     1      -4.841   1.698  16.837  1.00  0.00     0.039 A 
ATOM      2  C   UNL     1      -5.469   1.914  15.584  1.00  0.00     0.124 A 
ATOM      3  C   UNL     1      -4.927   2.700  17.823  1.00  0.00     0.014 A 
ATOM      4  C   UNL     1      -6.105   3.135  15.328  1.00  0.00     0.047 A 
ATOM      5  C   UNL     1      -5.585   3.903  17.560  1.00  0.00     0.001 A 
ATOM      6  C   UNL     1      -6.164   4.125  16.311  1.00  0.00     0.004 A 
ENDROOT
BRANCH   1   7
ATOM      7  C   UNL     1      -4.064   0.476  17.136  1.00  0.00     0.075 C 
ATOM      8  O   UNL     1      -3.602   0.288  18.293  1.00  0.00    -0.545 OA
ATOM      9  O   UNL     1      -3.774  -0.446  16.138  1.00  0.00    -0.545 OA
ENDBRANCH   1   7
BRANCH   2  10
ATOM     10  O   UNL     1      -5.514   0.936  14.589  1.00  0.00    -0.507 OA
ATOM     11  H   UNL     1      -6.367   0.650  14.127  1.00  0.00     0.293 HD
ENDBRANCH   2  10
TORSDOF 2
ENDMDL
MODEL 7
REMARK VINA RESULT:    -2.877      1.925      3.456
REMARK INTER + INTRA:          -3.364
REMARK INTER:                  -3.156
REMARK INTRA:                  -0.209
REMARK UNBOUND:                -0.235
REMARK SMILES O=C([O-])c1ccccc1O
REMARK SMILES IDX 4 1 9 2 5 3 8 4 6 5 7 6 2 7 1 8 3 9 10 10
REMARK H PARENT 10 11
REMARK Flexibility Score: inf
ROOT
ATOM      1  C   UNL     1      -4.582   2.119  17.352  1.00  0.00     0.039 A 
ATOM      2  C   UNL     1      -5.174   1.942  16.075  1.00  0.00     0.124 A 
ATOM      3  C   UNL     1      -3.759   1.100  17.869  1.00  0.00     0.014 A 
ATOM      4  C   UNL     1      -4.981   0.740  15.383  1.00  0.00     0.047 A 
ATOM      5  C   UNL     1      -3.559  -0.084  17.155  1.00  0.00     0.001 A 
ATOM      6  C   UNL     1      -4.177  -0.268  15.919  1.00  0.00     0.004 A 
ENDROOT
BRANCH   1   7
ATOM      7  C   UNL     1      -4.828   3.318  18.182  1.00  0.00     0.075 C 
ATOM      8  O   UNL     1      -5.746   4.124  17.872  1.00  0.00    -0.545 OA
ATOM      9  O   UNL     1      -4.015   3.610  19.271  1.00  0.00    -0.545 OA
ENDBRANCH   1   7
BRANCH   2  10
ATOM     10  O   UNL     1      -5.921   2.941  15.450  1.00  0.00    -0.507 OA
ATOM     11  H   UNL     1      -6.464   2.788  14.611  1.00  0.00     0.293 HD
ENDBRANCH   2  10
TORSDOF 2
ENDMDL
MODEL 8
REMARK VINA RESULT:    -2.597      2.555      3.721
REMARK INTER + INTRA:          -3.059
REMARK INTER:                  -2.836
REMARK INTRA:                  -0.223
REMARK UNBOUND:                -0.235
REMARK SMILES O=C([O-])c1ccccc1O
REMARK SMILES IDX 4 1 9 2 5 3 8 4 6 5 7 6 2 7 1 8 3 9 10 10
REMARK H PARENT 10 11
REMARK Flexibility Score: inf
ROOT
ATOM      1  C   UNL     1      -5.147   2.422  15.790  1.00  0.00     0.039 A 
ATOM      2  C   UNL     1      -3.735   2.503  15.680  1.00  0.00     0.124 A 
ATOM      3  C   UNL     1      -5.944   3.168  14.901  1.00  0.00     0.014 A 
ATOM      4  C   UNL     1      -3.162   3.365  14.737  1.00  0.00     0.047 A 
ATOM      5  C   UNL     1      -5.356   4.006  13.951  1.00  0.00     0.001 A 
ATOM      6  C   UNL     1      -3.968   4.112  13.875  1.00  0.00     0.004 A 
ENDROOT
BRANCH   1   7
ATOM      7  C   UNL     1      -5.817   1.613  16.832  1.00  0.00     0.075 C 
ATOM      8  O   UNL     1      -5.233   0.613  17.329  1.00  0.00    -0.545 OA
ATOM      9  O   UNL     1      -7.117   1.899  17.229  1.00  0.00    -0.545 OA
ENDBRANCH   1   7
BRANCH   2  10
ATOM     10  O   UNL     1      -2.875   1.724  16.456  1.00  0.00    -0.507 OA
ATOM     11  H   UNL     1      -2.076   2.099  16.949  1.00  0.00     0.293 HD
ENDBRANCH   2  10
TORSDOF 2
ENDMDL
