MODEL 1
REMARK VINA RESULT:    -8.850      0.000      0.000
REMARK INTER + INTRA:         -12.919
REMARK INTER:                 -11.178
REMARK INTRA:                  -1.742
REMARK UNBOUND:                -1.742
REMARK SMILES CC(C)[C@H](C)C=C[C@H](C)[C@H]1CC[C@@H]2C3=CC=C4C[C@H](O)CC[C@@]4(C)[C@H]3CC[C@@]21C
REMARK SMILES IDX 8 1 9 2 7 3 6 4 4 5 5 6 2 7 1 8 3 9 10 10 11 11 28 12 12 13
REMARK SMILES IDX 13 14 27 15 29 16 14 17 26 18 25 19 15 20 23 21 16 22 17 23
REMARK SMILES IDX 22 24 24 25 18 26 21 27 19 28 20 29
REMARK H PARENT 20 30
REMARK Flexibility Score: inf
ROOT
ATOM      1  C   UNL     1     132.019 127.532 139.048  1.00  0.00     0.012 C 
ATOM      2  C   UNL     1     130.608 127.978 139.475  1.00  0.00     0.012 C 
ENDROOT
BRANCH   1   3
ATOM      3  C   UNL     1     132.966 128.697 139.260  1.00  0.00    -0.028 C 
ATOM      4  C   UNL     1     133.821 129.178 138.334  1.00  0.00    -0.028 C 
BRANCH   4   5
ATOM      5  C   UNL     1     134.021 128.605 136.942  1.00  0.00     0.011 C 
ATOM      6  C   UNL     1     133.175 129.407 135.938  1.00  0.00     0.012 C 
BRANCH   5   7
ATOM      7  C   UNL     1     135.535 128.543 136.575  1.00  0.00    -0.011 C 
ATOM      8  C   UNL     1     136.388 129.434 137.490  1.00  0.00     0.008 C 
ATOM      9  C   UNL     1     136.103 127.115 136.540  1.00  0.00     0.008 C 
ENDBRANCH   5   7
ENDBRANCH   4   5
ENDBRANCH   1   3
BRANCH   1  10
ATOM     10  C   UNL     1     132.484 126.283 139.868  1.00  0.00     0.002 C 
ATOM     11  C   UNL     1     131.316 125.550 140.530  1.00  0.00     0.005 C 
ATOM     12  C   UNL     1     133.311 125.158 139.123  1.00  0.00    -0.023 C 
ATOM     13  C   UNL     1     131.853 124.175 140.849  1.00  0.00     0.009 C 
ATOM     14  C   UNL     1     132.705 123.810 139.641  1.00  0.00     0.021 C 
ATOM     15  C   UNL     1     134.815 125.304 139.494  1.00  0.00     0.008 C 
ATOM     16  C   UNL     1     133.148 125.202 137.579  1.00  0.00     0.012 C 
ATOM     17  C   UNL     1     133.670 122.666 139.948  1.00  0.00    -0.063 C 
ATOM     18  C   UNL     1     135.624 124.050 139.174  1.00  0.00     0.009 C 
ATOM     19  C   UNL     1     135.170 122.875 140.062  1.00  0.00     0.025 C 
ATOM     20  C   UNL     1     133.149 121.481 140.292  1.00  0.00    -0.000 C 
ATOM     21  C   UNL     1     136.024 121.555 139.851  1.00  0.00    -0.005 C 
ATOM     22  C   UNL     1     133.987 120.328 140.627  1.00  0.00    -0.000 C 
ATOM     23  C   UNL     1     135.317 120.335 140.442  1.00  0.00    -0.061 C 
ATOM     24  C   UNL     1     136.259 121.231 138.344  1.00  0.00     0.014 C 
ATOM     25  C   UNL     1     137.387 121.754 140.569  1.00  0.00     0.017 C 
ATOM     26  C   UNL     1     136.013 119.002 140.320  1.00  0.00     0.063 C 
ATOM     27  C   UNL     1     136.925 119.853 138.101  1.00  0.00     0.033 C 
ATOM     28  C   UNL     1     136.204 118.697 138.824  1.00  0.00     0.118 C 
BRANCH  28  29
ATOM     29  O   UNL     1     136.952 117.520 138.668  1.00  0.00    -0.393 OA
ATOM     30  H   UNL     1     137.796 117.646 139.176  1.00  0.00     0.210 HD
ENDBRANCH  28  29
ENDBRANCH   1  10
TORSDOF 5
ENDMDL
MODEL 2
REMARK VINA RESULT:    -8.462      2.963      8.159
REMARK INTER + INTRA:         -12.429
REMARK INTER:                 -11.571
REMARK INTRA:                  -0.858
REMARK UNBOUND:                -1.742
REMARK SMILES CC(C)[C@H](C)C=C[C@H](C)[C@H]1CC[C@@H]2C3=CC=C4C[C@H](O)CC[C@@]4(C)[C@H]3CC[C@@]21C
REMARK SMILES IDX 8 1 9 2 7 3 6 4 4 5 5 6 2 7 1 8 3 9 10 10 11 11 28 12 12 13
REMARK SMILES IDX 13 14 27 15 29 16 14 17 26 18 25 19 15 20 23 21 16 22 17 23
REMARK SMILES IDX 22 24 24 25 18 26 21 27 19 28 20 29
REMARK H PARENT 20 30
REMARK Flexibility Score: inf
ROOT
ATOM      1  C   UNL     1     137.169 120.219 140.288  1.00  0.00     0.012 C 
ATOM      2  C   UNL     1     136.875 118.823 140.870  1.00  0.00     0.012 C 
ENDROOT
BRANCH   1   3
ATOM      3  C   UNL     1     138.209 120.064 139.196  1.00  0.00    -0.028 C 
ATOM      4  C   UNL     1     138.082 119.267 138.115  1.00  0.00    -0.028 C 
BRANCH   4   5
ATOM      5  C   UNL     1     136.905 118.350 137.833  1.00  0.00     0.011 C 
ATOM      6  C   UNL     1     136.114 118.897 136.632  1.00  0.00     0.012 C 
BRANCH   5   7
ATOM      7  C   UNL     1     137.376 116.876 137.652  1.00  0.00    -0.011 C 
ATOM      8  C   UNL     1     137.157 116.371 136.219  1.00  0.00     0.008 C 
ATOM      9  C   UNL     1     138.831 116.636 138.087  1.00  0.00     0.008 C 
ENDBRANCH   5   7
ENDBRANCH   4   5
ENDBRANCH   1   3
BRANCH   1  10
ATOM     10  C   UNL     1     135.866 120.876 139.724  1.00  0.00     0.002 C 
ATOM     11  C   UNL     1     134.597 120.197 140.241  1.00  0.00     0.005 C 
ATOM     12  C   UNL     1     135.637 122.423 139.966  1.00  0.00    -0.023 C 
ATOM     13  C   UNL     1     133.496 121.204 140.006  1.00  0.00     0.009 C 
ATOM     14  C   UNL     1     134.126 122.545 140.360  1.00  0.00     0.021 C 
ATOM     15  C   UNL     1     135.965 123.197 138.657  1.00  0.00     0.008 C 
ATOM     16  C   UNL     1     136.489 122.991 141.134  1.00  0.00     0.012 C 
ATOM     17  C   UNL     1     133.332 123.717 139.786  1.00  0.00    -0.063 C 
ATOM     18  C   UNL     1     135.393 124.611 138.651  1.00  0.00     0.009 C 
ATOM     19  C   UNL     1     133.851 124.569 138.641  1.00  0.00     0.025 C 
ATOM     20  C   UNL     1     132.069 123.883 140.200  1.00  0.00    -0.000 C 
ATOM     21  C   UNL     1     133.179 126.003 138.546  1.00  0.00    -0.005 C 
ATOM     22  C   UNL     1     131.218 124.962 139.695  1.00  0.00    -0.000 C 
ATOM     23  C   UNL     1     131.699 125.948 138.923  1.00  0.00    -0.061 C 
ATOM     24  C   UNL     1     133.835 127.035 139.512  1.00  0.00     0.014 C 
ATOM     25  C   UNL     1     133.315 126.492 137.077  1.00  0.00     0.017 C 
ATOM     26  C   UNL     1     130.923 127.242 138.876  1.00  0.00     0.063 C 
ATOM     27  C   UNL     1     133.083 128.388 139.580  1.00  0.00     0.033 C 
ATOM     28  C   UNL     1     131.575 128.228 139.861  1.00  0.00     0.118 C 
BRANCH  28  29
ATOM     29  O   UNL     1     130.953 129.482 139.763  1.00  0.00    -0.393 OA
ATOM     30  H   UNL     1     129.994 129.313 139.569  1.00  0.00     0.210 HD
ENDBRANCH  28  29
ENDBRANCH   1  10
TORSDOF 5
ENDMDL
MODEL 3
REMARK VINA RESULT:    -8.283      3.676      7.150
REMARK INTER + INTRA:         -12.203
REMARK INTER:                 -10.337
REMARK INTRA:                  -1.866
REMARK UNBOUND:                -1.742
REMARK SMILES CC(C)[C@H](C)C=C[C@H](C)[C@H]1CC[C@@H]2C3=CC=C4C[C@H](O)CC[C@@]4(C)[C@H]3CC[C@@]21C
REMARK SMILES IDX 8 1 9 2 7 3 6 4 4 5 5 6 2 7 1 8 3 9 10 10 11 11 28 12 12 13
REMARK SMILES IDX 13 14 27 15 29 16 14 17 26 18 25 19 15 20 23 21 16 22 17 23
REMARK SMILES IDX 22 24 24 25 18 26 21 27 19 28 20 29
REMARK H PARENT 20 30
REMARK Flexibility Score: inf
ROOT
ATOM      1  C   UNL     1     130.263 133.097 137.638  1.00  0.00     0.012 C 
ATOM      2  C   UNL     1     130.767 134.073 136.558  1.00  0.00     0.012 C 
ENDROOT
BRANCH   1   3
ATOM      3  C   UNL     1     128.783 133.350 137.849  1.00  0.00    -0.028 C 
ATOM      4  C   UNL     1     128.189 133.507 139.050  1.00  0.00    -0.028 C 
BRANCH   4   5
ATOM      5  C   UNL     1     128.886 133.403 140.395  1.00  0.00     0.011 C 
ATOM      6  C   UNL     1     129.089 134.815 140.971  1.00  0.00     0.012 C 
BRANCH   5   7
ATOM      7  C   UNL     1     128.116 132.443 141.352  1.00  0.00    -0.011 C 
ATOM      8  C   UNL     1     126.935 131.755 140.652  1.00  0.00     0.008 C 
ATOM      9  C   UNL     1     129.015 131.398 142.032  1.00  0.00     0.008 C 
ENDBRANCH   5   7
ENDBRANCH   4   5
ENDBRANCH   1   3
BRANCH   1  10
ATOM     10  C   UNL     1     130.517 131.612 137.213  1.00  0.00     0.002 C 
ATOM     11  C   UNL     1     131.388 131.503 135.961  1.00  0.00     0.005 C 
ATOM     12  C   UNL     1     131.177 130.630 138.264  1.00  0.00    -0.023 C 
ATOM     13  C   UNL     1     131.912 130.087 135.976  1.00  0.00     0.009 C 
ATOM     14  C   UNL     1     132.231 129.816 137.441  1.00  0.00     0.021 C 
ATOM     15  C   UNL     1     130.073 129.716 138.868  1.00  0.00     0.008 C 
ATOM     16  C   UNL     1     131.922 131.372 139.407  1.00  0.00     0.012 C 
ATOM     17  C   UNL     1     132.360 128.321 137.729  1.00  0.00    -0.063 C 
ATOM     18  C   UNL     1     130.644 128.484 139.563  1.00  0.00     0.009 C 
ATOM     19  C   UNL     1     131.328 127.556 138.539  1.00  0.00     0.025 C 
ATOM     20  C   UNL     1     133.329 127.642 137.101  1.00  0.00    -0.000 C 
ATOM     21  C   UNL     1     131.873 126.207 139.171  1.00  0.00    -0.005 C 
ATOM     22  C   UNL     1     133.522 126.203 137.292  1.00  0.00    -0.000 C 
ATOM     23  C   UNL     1     132.859 125.513 138.232  1.00  0.00    -0.061 C 
ATOM     24  C   UNL     1     132.638 126.441 140.509  1.00  0.00     0.014 C 
ATOM     25  C   UNL     1     130.654 125.273 139.414  1.00  0.00     0.017 C 
ATOM     26  C   UNL     1     133.461 124.210 138.699  1.00  0.00     0.063 C 
ATOM     27  C   UNL     1     133.342 125.173 141.052  1.00  0.00     0.033 C 
ATOM     28  C   UNL     1     134.234 124.479 140.002  1.00  0.00     0.118 C 
BRANCH  28  29
ATOM     29  O   UNL     1     134.713 123.271 140.532  1.00  0.00    -0.393 OA
ATOM     30  H   UNL     1     135.514 123.022 139.999  1.00  0.00     0.210 HD
ENDBRANCH  28  29
ENDBRANCH   1  10
TORSDOF 5
ENDMDL
MODEL 4
REMARK VINA RESULT:    -8.061      5.547      8.078
REMARK INTER + INTRA:         -11.923
REMARK INTER:                 -10.491
REMARK INTRA:                  -1.432
REMARK UNBOUND:                -1.742
REMARK SMILES CC(C)[C@H](C)C=C[C@H](C)[C@H]1CC[C@@H]2C3=CC=C4C[C@H](O)CC[C@@]4(C)[C@H]3CC[C@@]21C
REMARK SMILES IDX 8 1 9 2 7 3 6 4 4 5 5 6 2 7 1 8 3 9 10 10 11 11 28 12 12 13
REMARK SMILES IDX 13 14 27 15 29 16 14 17 26 18 25 19 15 20 23 21 16 22 17 23
REMARK SMILES IDX 22 24 24 25 18 26 21 27 19 28 20 29
REMARK H PARENT 20 30
REMARK Flexibility Score: inf
ROOT
ATOM      1  C   UNL     1     129.887 134.009 138.530  1.00  0.00     0.012 C 
ATOM      2  C   UNL     1     128.650 134.359 137.681  1.00  0.00     0.012 C 
ENDROOT
BRANCH   1   3
ATOM      3  C   UNL     1     130.464 135.300 139.076  1.00  0.00    -0.028 C 
ATOM      4  C   UNL     1     131.779 135.546 139.254  1.00  0.00    -0.028 C 
BRANCH   4   5
ATOM      5  C   UNL     1     132.900 134.557 138.989  1.00  0.00     0.011 C 
ATOM      6  C   UNL     1     133.639 134.962 137.702  1.00  0.00     0.012 C 
BRANCH   5   7
ATOM      7  C   UNL     1     133.834 134.426 140.230  1.00  0.00    -0.011 C 
ATOM      8  C   UNL     1     134.582 135.732 140.531  1.00  0.00     0.008 C 
ATOM      9  C   UNL     1     133.115 133.919 141.491  1.00  0.00     0.008 C 
ENDBRANCH   5   7
ENDBRANCH   4   5
ENDBRANCH   1   3
BRANCH   1  10
ATOM     10  C   UNL     1     129.509 133.034 139.693  1.00  0.00     0.002 C 
ATOM     11  C   UNL     1     128.019 133.077 140.032  1.00  0.00     0.005 C 
ATOM     12  C   UNL     1     129.853 131.497 139.530  1.00  0.00    -0.023 C 
ATOM     13  C   UNL     1     127.756 131.796 140.789  1.00  0.00     0.009 C 
ATOM     14  C   UNL     1     128.584 130.747 140.058  1.00  0.00     0.021 C 
ATOM     15  C   UNL     1     131.120 131.168 140.370  1.00  0.00     0.008 C 
ATOM     16  C   UNL     1     130.085 131.078 138.052  1.00  0.00     0.012 C 
ATOM     17  C   UNL     1     128.799 129.496 140.908  1.00  0.00    -0.063 C 
ATOM     18  C   UNL     1     131.292 129.672 140.614  1.00  0.00     0.009 C 
ATOM     19  C   UNL     1     130.150 129.136 141.500  1.00  0.00     0.025 C 
ATOM     20  C   UNL     1     127.719 128.794 141.276  1.00  0.00    -0.000 C 
ATOM     21  C   UNL     1     130.304 127.601 141.873  1.00  0.00    -0.005 C 
ATOM     22  C   UNL     1     127.815 127.594 142.108  1.00  0.00    -0.000 C 
ATOM     23  C   UNL     1     128.993 127.026 142.408  1.00  0.00    -0.061 C 
ATOM     24  C   UNL     1     130.694 126.725 140.644  1.00  0.00     0.014 C 
ATOM     25  C   UNL     1     131.398 127.490 142.971  1.00  0.00     0.017 C 
ATOM     26  C   UNL     1     128.987 125.571 142.808  1.00  0.00     0.063 C 
ATOM     27  C   UNL     1     130.667 125.204 140.932  1.00  0.00     0.033 C 
ATOM     28  C   UNL     1     129.344 124.731 141.570  1.00  0.00     0.118 C 
BRANCH  28  29
ATOM     29  O   UNL     1     129.463 123.379 141.926  1.00  0.00    -0.393 OA
ATOM     30  H   UNL     1     129.643 123.354 142.903  1.00  0.00     0.210 HD
ENDBRANCH  28  29
ENDBRANCH   1  10
TORSDOF 5
ENDMDL
MODEL 5
REMARK VINA RESULT:    -8.046      4.527      9.787
REMARK INTER + INTRA:         -11.904
REMARK INTER:                 -10.293
REMARK INTRA:                  -1.611
REMARK UNBOUND:                -1.742
REMARK SMILES CC(C)[C@H](C)C=C[C@H](C)[C@H]1CC[C@@H]2C3=CC=C4C[C@H](O)CC[C@@]4(C)[C@H]3CC[C@@]21C
REMARK SMILES IDX 8 1 9 2 7 3 6 4 4 5 5 6 2 7 1 8 3 9 10 10 11 11 28 12 12 13
REMARK SMILES IDX 13 14 27 15 29 16 14 17 26 18 25 19 15 20 23 21 16 22 17 23
REMARK SMILES IDX 22 24 24 25 18 26 21 27 19 28 20 29
REMARK H PARENT 20 30
REMARK Flexibility Score: inf
ROOT
ATOM      1  C   UNL     1     134.429 125.624 138.133  1.00  0.00     0.012 C 
ATOM      2  C   UNL     1     135.480 124.874 137.292  1.00  0.00     0.012 C 
ENDROOT
BRANCH   1   3
ATOM      3  C   UNL     1     134.773 125.431 139.598  1.00  0.00    -0.028 C 
ATOM      4  C   UNL     1     134.006 124.774 140.492  1.00  0.00    -0.028 C 
BRANCH   4   5
ATOM      5  C   UNL     1     132.646 124.163 140.202  1.00  0.00     0.011 C 
ATOM      6  C   UNL     1     132.799 122.640 140.041  1.00  0.00     0.012 C 
BRANCH   5   7
ATOM      7  C   UNL     1     131.605 124.575 141.286  1.00  0.00    -0.011 C 
ATOM      8  C   UNL     1     131.903 125.960 141.877  1.00  0.00     0.008 C 
ATOM      9  C   UNL     1     130.149 124.504 140.800  1.00  0.00     0.008 C 
ENDBRANCH   5   7
ENDBRANCH   4   5
ENDBRANCH   1   3
BRANCH   1  10
ATOM     10  C   UNL     1     134.400 127.144 137.766  1.00  0.00     0.002 C 
ATOM     11  C   UNL     1     134.729 127.397 136.294  1.00  0.00     0.005 C 
ATOM     12  C   UNL     1     133.071 127.960 138.040  1.00  0.00    -0.023 C 
ATOM     13  C   UNL     1     134.202 128.785 136.013  1.00  0.00     0.009 C 
ATOM     14  C   UNL     1     132.880 128.849 136.766  1.00  0.00     0.021 C 
ATOM     15  C   UNL     1     133.255 128.813 139.328  1.00  0.00     0.008 C 
ATOM     16  C   UNL     1     131.819 127.053 138.191  1.00  0.00     0.012 C 
ATOM     17  C   UNL     1     132.406 130.288 136.965  1.00  0.00    -0.063 C 
ATOM     18  C   UNL     1     132.219 129.926 139.449  1.00  0.00     0.009 C 
ATOM     19  C   UNL     1     132.409 130.964 138.325  1.00  0.00     0.025 C 
ATOM     20  C   UNL     1     132.144 131.020 135.875  1.00  0.00    -0.000 C 
ATOM     21  C   UNL     1     131.422 132.202 138.433  1.00  0.00    -0.005 C 
ATOM     22  C   UNL     1     131.706 132.414 135.958  1.00  0.00    -0.000 C 
ATOM     23  C   UNL     1     131.375 132.990 137.124  1.00  0.00    -0.061 C 
ATOM     24  C   UNL     1     129.955 131.771 138.734  1.00  0.00     0.014 C 
ATOM     25  C   UNL     1     131.946 133.126 139.568  1.00  0.00     0.017 C 
ATOM     26  C   UNL     1     130.478 134.202 137.076  1.00  0.00     0.063 C 
ATOM     27  C   UNL     1     128.937 132.937 138.658  1.00  0.00     0.033 C 
ATOM     28  C   UNL     1     129.035 133.741 137.346  1.00  0.00     0.118 C 
BRANCH  28  29
ATOM     29  O   UNL     1     128.184 134.855 137.424  1.00  0.00    -0.393 OA
ATOM     30  H   UNL     1     128.682 135.625 137.043  1.00  0.00     0.210 HD
ENDBRANCH  28  29
ENDBRANCH   1  10
TORSDOF 5
ENDMDL
MODEL 6
REMARK VINA RESULT:    -8.015      3.676      8.377
REMARK INTER + INTRA:         -11.865
REMARK INTER:                 -12.073
REMARK INTRA:                   0.208
REMARK UNBOUND:                -1.742
REMARK SMILES CC(C)[C@H](C)C=C[C@H](C)[C@H]1CC[C@@H]2C3=CC=C4C[C@H](O)CC[C@@]4(C)[C@H]3CC[C@@]21C
REMARK SMILES IDX 8 1 9 2 7 3 6 4 4 5 5 6 2 7 1 8 3 9 10 10 11 11 28 12 12 13
REMARK SMILES IDX 13 14 27 15 29 16 14 17 26 18 25 19 15 20 23 21 16 22 17 23
REMARK SMILES IDX 22 24 24 25 18 26 21 27 19 28 20 29
REMARK H PARENT 20 30
REMARK Flexibility Score: inf
ROOT
ATOM      1  C   UNL     1     135.742 122.835 139.604  1.00  0.00     0.012 C 
ATOM      2  C   UNL     1     136.714 123.982 139.938  1.00  0.00     0.012 C 
ENDROOT
BRANCH   1   3
ATOM      3  C   UNL     1     135.891 121.766 140.670  1.00  0.00    -0.028 C 
ATOM      4  C   UNL     1     136.474 120.565 140.483  1.00  0.00    -0.028 C 
BRANCH   4   5
ATOM      5  C   UNL     1     137.032 120.054 139.167  1.00  0.00     0.011 C 
ATOM      6  C   UNL     1     138.262 119.174 139.446  1.00  0.00     0.012 C 
BRANCH   5   7
ATOM      7  C   UNL     1     135.928 119.336 138.332  1.00  0.00    -0.011 C 
ATOM      8  C   UNL     1     136.427 118.934 136.938  1.00  0.00     0.008 C 
ATOM      9  C   UNL     1     135.305 118.126 139.047  1.00  0.00     0.008 C 
ENDBRANCH   5   7
ENDBRANCH   4   5
ENDBRANCH   1   3
BRANCH   1  10
ATOM     10  C   UNL     1     134.266 123.353 139.540  1.00  0.00     0.002 C 
ATOM     11  C   UNL     1     133.255 122.297 139.986  1.00  0.00     0.005 C 
ATOM     12  C   UNL     1     133.891 124.657 140.355  1.00  0.00    -0.023 C 
ATOM     13  C   UNL     1     132.003 123.074 140.317  1.00  0.00     0.009 C 
ATOM     14  C   UNL     1     132.509 124.330 141.015  1.00  0.00     0.021 C 
ATOM     15  C   UNL     1     133.801 125.861 139.373  1.00  0.00     0.008 C 
ATOM     16  C   UNL     1     134.904 124.982 141.486  1.00  0.00     0.012 C 
ATOM     17  C   UNL     1     131.452 125.433 141.041  1.00  0.00    -0.063 C 
ATOM     18  C   UNL     1     133.056 127.051 139.970  1.00  0.00     0.009 C 
ATOM     19  C   UNL     1     131.574 126.696 140.206  1.00  0.00     0.025 C 
ATOM     20  C   UNL     1     130.308 125.192 141.693  1.00  0.00    -0.000 C 
ATOM     21  C   UNL     1     130.709 127.912 140.744  1.00  0.00    -0.005 C 
ATOM     22  C   UNL     1     129.225 126.174 141.759  1.00  0.00    -0.000 C 
ATOM     23  C   UNL     1     129.377 127.433 141.321  1.00  0.00    -0.061 C 
ATOM     24  C   UNL     1     131.423 128.691 141.890  1.00  0.00     0.014 C 
ATOM     25  C   UNL     1     130.436 128.864 139.547  1.00  0.00     0.017 C 
ATOM     26  C   UNL     1     128.442 128.483 141.871  1.00  0.00     0.063 C 
ATOM     27  C   UNL     1     130.530 129.763 142.563  1.00  0.00     0.033 C 
ATOM     28  C   UNL     1     129.163 129.213 143.018  1.00  0.00     0.118 C 
BRANCH  28  29
ATOM     29  O   UNL     1     128.371 130.275 143.482  1.00  0.00    -0.393 OA
ATOM     30  H   UNL     1     128.710 130.513 144.384  1.00  0.00     0.210 HD
ENDBRANCH  28  29
ENDBRANCH   1  10
TORSDOF 5
ENDMDL
MODEL 7
REMARK VINA RESULT:    -7.899      5.887      7.985
REMARK INTER + INTRA:         -11.719
REMARK INTER:                 -10.274
REMARK INTRA:                  -1.445
REMARK UNBOUND:                -1.742
REMARK SMILES CC(C)[C@H](C)C=C[C@H](C)[C@H]1CC[C@@H]2C3=CC=C4C[C@H](O)CC[C@@]4(C)[C@H]3CC[C@@]21C
REMARK SMILES IDX 8 1 9 2 7 3 6 4 4 5 5 6 2 7 1 8 3 9 10 10 11 11 28 12 12 13
REMARK SMILES IDX 13 14 27 15 29 16 14 17 26 18 25 19 15 20 23 21 16 22 17 23
REMARK SMILES IDX 22 24 24 25 18 26 21 27 19 28 20 29
REMARK H PARENT 20 30
REMARK Flexibility Score: inf
ROOT
ATOM      1  C   UNL     1     130.437 126.076 141.027  1.00  0.00     0.012 C 
ATOM      2  C   UNL     1     129.004 126.627 141.160  1.00  0.00     0.012 C 
ENDROOT
BRANCH   1   3
ATOM      3  C   UNL     1     130.753 125.940 139.550  1.00  0.00    -0.028 C 
ATOM      4  C   UNL     1     131.779 125.227 139.042  1.00  0.00    -0.028 C 
BRANCH   4   5
ATOM      5  C   UNL     1     132.822 124.484 139.858  1.00  0.00     0.011 C 
ATOM      6  C   UNL     1     132.404 123.010 139.992  1.00  0.00     0.012 C 
BRANCH   5   7
ATOM      7  C   UNL     1     134.246 124.677 139.254  1.00  0.00    -0.011 C 
ATOM      8  C   UNL     1     134.904 125.979 139.730  1.00  0.00     0.008 C 
ATOM      9  C   UNL     1     135.185 123.484 139.497  1.00  0.00     0.008 C 
ENDBRANCH   5   7
ENDBRANCH   4   5
ENDBRANCH   1   3
BRANCH   1  10
ATOM     10  C   UNL     1     131.467 127.019 141.731  1.00  0.00     0.002 C 
ATOM     11  C   UNL     1     130.959 128.457 141.849  1.00  0.00     0.005 C 
ATOM     12  C   UNL     1     131.968 126.637 143.183  1.00  0.00    -0.023 C 
ATOM     13  C   UNL     1     131.813 129.082 142.926  1.00  0.00     0.009 C 
ATOM     14  C   UNL     1     131.963 127.988 143.975  1.00  0.00     0.021 C 
ATOM     15  C   UNL     1     133.395 126.023 143.083  1.00  0.00     0.008 C 
ATOM     16  C   UNL     1     131.024 125.643 143.912  1.00  0.00     0.012 C 
ATOM     17  C   UNL     1     133.128 128.263 144.924  1.00  0.00    -0.063 C 
ATOM     18  C   UNL     1     134.123 126.005 144.423  1.00  0.00     0.009 C 
ATOM     19  C   UNL     1     134.407 127.443 144.901  1.00  0.00     0.025 C 
ATOM     20  C   UNL     1     133.076 129.368 145.678  1.00  0.00    -0.000 C 
ATOM     21  C   UNL     1     135.241 127.510 146.249  1.00  0.00    -0.005 C 
ATOM     22  C   UNL     1     134.151 129.733 146.603  1.00  0.00    -0.000 C 
ATOM     23  C   UNL     1     135.167 128.901 146.879  1.00  0.00    -0.061 C 
ATOM     24  C   UNL     1     134.713 126.516 147.327  1.00  0.00     0.014 C 
ATOM     25  C   UNL     1     136.721 127.182 145.905  1.00  0.00     0.017 C 
ATOM     26  C   UNL     1     135.918 129.117 148.170  1.00  0.00     0.063 C 
ATOM     27  C   UNL     1     135.383 126.689 148.713  1.00  0.00     0.033 C 
ATOM     28  C   UNL     1     135.355 128.145 149.221  1.00  0.00     0.118 C 
BRANCH  28  29
ATOM     29  O   UNL     1     136.104 128.234 150.405  1.00  0.00    -0.393 OA
ATOM     30  H   UNL     1     135.994 127.369 150.880  1.00  0.00     0.210 HD
ENDBRANCH  28  29
ENDBRANCH   1  10
TORSDOF 5
ENDMDL
MODEL 8
REMARK VINA RESULT:    -7.739      4.910      9.755
REMARK INTER + INTRA:         -11.517
REMARK INTER:                  -9.832
REMARK INTRA:                  -1.685
REMARK UNBOUND:                -1.742
REMARK SMILES CC(C)[C@H](C)C=C[C@H](C)[C@H]1CC[C@@H]2C3=CC=C4C[C@H](O)CC[C@@]4(C)[C@H]3CC[C@@]21C
REMARK SMILES IDX 8 1 9 2 7 3 6 4 4 5 5 6 2 7 1 8 3 9 10 10 11 11 28 12 12 13
REMARK SMILES IDX 13 14 27 15 29 16 14 17 26 18 25 19 15 20 23 21 16 22 17 23
REMARK SMILES IDX 22 24 24 25 18 26 21 27 19 28 20 29
REMARK H PARENT 20 30
REMARK Flexibility Score: inf
ROOT
ATOM      1  C   UNL     1     130.820 125.199 141.436  1.00  0.00     0.012 C 
ATOM      2  C   UNL     1     130.244 124.584 142.726  1.00  0.00     0.012 C 
ENDROOT
BRANCH   1   3
ATOM      3  C   UNL     1     130.964 124.092 140.410  1.00  0.00    -0.028 C 
ATOM      4  C   UNL     1     132.126 123.716 139.837  1.00  0.00    -0.028 C 
BRANCH   4   5
ATOM      5  C   UNL     1     133.476 124.367 140.078  1.00  0.00     0.011 C 
ATOM      6  C   UNL     1     134.590 123.347 139.785  1.00  0.00     0.012 C 
BRANCH   5   7
ATOM      7  C   UNL     1     133.612 125.690 139.265  1.00  0.00    -0.011 C 
ATOM      8  C   UNL     1     134.897 126.454 139.614  1.00  0.00     0.008 C 
ATOM      9  C   UNL     1     133.504 125.492 137.745  1.00  0.00     0.008 C 
ENDBRANCH   5   7
ENDBRANCH   4   5
ENDBRANCH   1   3
BRANCH   1  10
ATOM     10  C   UNL     1     129.892 126.338 140.898  1.00  0.00     0.002 C 
ATOM     11  C   UNL     1     128.647 126.538 141.763  1.00  0.00     0.005 C 
ATOM     12  C   UNL     1     130.505 127.785 140.713  1.00  0.00    -0.023 C 
ATOM     13  C   UNL     1     128.145 127.917 141.407  1.00  0.00     0.009 C 
ATOM     14  C   UNL     1     129.408 128.756 141.265  1.00  0.00     0.021 C 
ATOM     15  C   UNL     1     130.794 128.026 139.203  1.00  0.00     0.008 C 
ATOM     16  C   UNL     1     131.806 128.006 141.533  1.00  0.00     0.012 C 
ATOM     17  C   UNL     1     129.149 130.051 140.496  1.00  0.00    -0.063 C 
ATOM     18  C   UNL     1     130.990 129.502 138.870  1.00  0.00     0.009 C 
ATOM     19  C   UNL     1     129.680 130.283 139.092  1.00  0.00     0.025 C 
ATOM     20  C   UNL     1     128.286 130.930 141.020  1.00  0.00    -0.000 C 
ATOM     21  C   UNL     1     129.777 131.813 138.683  1.00  0.00    -0.005 C 
ATOM     22  C   UNL     1     127.953 132.189 140.351  1.00  0.00    -0.000 C 
ATOM     23  C   UNL     1     128.617 132.618 139.267  1.00  0.00    -0.061 C 
ATOM     24  C   UNL     1     131.081 132.489 139.207  1.00  0.00     0.014 C 
ATOM     25  C   UNL     1     129.726 131.892 137.132  1.00  0.00     0.017 C 
ATOM     26  C   UNL     1     128.574 134.095 138.959  1.00  0.00     0.063 C 
ATOM     27  C   UNL     1     131.117 134.022 138.988  1.00  0.00     0.033 C 
ATOM     28  C   UNL     1     129.857 134.738 139.514  1.00  0.00     0.118 C 
BRANCH  28  29
ATOM     29  O   UNL     1     129.910 136.092 139.147  1.00  0.00    -0.393 OA
ATOM     30  H   UNL     1     130.356 136.132 138.260  1.00  0.00     0.210 HD
ENDBRANCH  28  29
ENDBRANCH   1  10
TORSDOF 5
ENDMDL
