MODEL 1
REMARK VINA RESULT:    -6.391      0.000      0.000
REMARK INTER + INTRA:          -9.926
REMARK INTER:                  -8.632
REMARK INTRA:                  -1.293
REMARK UNBOUND:                -1.293
REMARK SMILES O=c1c(-c2ccc(O)cc2)coc2c([C@H]3O[C@H](CO)[C@H](O)[C@@H](O)[C@@H]3O)c(O)ccc12
REMARK SMILES IDX 3 1 11 2 12 3 13 4 30 5 2 6 1 7 29 8 28 9 26 10 14 11 4 12
REMARK SMILES IDX 5 13 6 14 7 15 10 16 9 17 8 18 15 20 24 21 16 22 22 23 17 24
REMARK SMILES IDX 20 25 25 26 23 28 18 30 19 31 21 33 27 35
REMARK H PARENT 8 19 25 27 23 29 19 32 21 34 27 36
REMARK Flexibility Score: inf
ROOT
ATOM      1  C   UNL     1      39.388  38.948  29.449  1.00  0.00     0.065 A 
ATOM      2  C   UNL     1      39.745  37.622  29.726  1.00  0.00     0.208 A 
ATOM      3  O   UNL     1      40.997  37.301  30.023  1.00  0.00    -0.463 OA
ATOM      4  C   UNL     1      41.984  38.192  30.086  1.00  0.00     0.147 A 
ATOM      5  C   UNL     1      41.710  39.555  29.825  1.00  0.00     0.066 A 
ATOM      6  C   UNL     1      40.393  39.930  29.509  1.00  0.00     0.200 A 
ATOM      7  O   UNL     1      40.108  41.143  29.303  1.00  0.00    -0.288 OA
ATOM      8  C   UNL     1      42.748  40.494  29.888  1.00  0.00     0.020 A 
ATOM      9  C   UNL     1      44.039  40.091  30.217  1.00  0.00     0.047 A 
ATOM     10  C   UNL     1      44.328  38.752  30.493  1.00  0.00     0.125 A 
ATOM     11  C   UNL     1      43.300  37.771  30.411  1.00  0.00     0.069 A 
ENDROOT
BRANCH   1  12
ATOM     12  C   UNL     1      37.981  39.279  29.106  1.00  0.00    -0.011 A 
ATOM     13  C   UNL     1      37.077  39.658  30.111  1.00  0.00     0.013 A 
ATOM     14  C   UNL     1      35.752  39.958  29.790  1.00  0.00     0.047 A 
ATOM     15  C   UNL     1      35.308  39.870  28.464  1.00  0.00     0.115 A 
ATOM     16  C   UNL     1      37.529  39.189  27.777  1.00  0.00     0.013 A 
ATOM     17  C   UNL     1      36.199  39.481  27.461  1.00  0.00     0.047 A 
BRANCH  15  18
ATOM     18  O   UNL     1      33.989  40.170  28.133  1.00  0.00    -0.508 OA
ATOM     19  H   UNL     1      33.544  41.023  28.452  1.00  0.00     0.293 HD
ENDBRANCH  15  18
ENDBRANCH   1  12
BRANCH  11  20
ATOM     20  C   UNL     1      43.563  36.296  30.700  1.00  0.00     0.188 C 
ATOM     21  C   UNL     1      43.651  36.054  32.229  1.00  0.00     0.179 C 
ATOM     22  O   UNL     1      44.735  35.881  30.019  1.00  0.00    -0.362 OA
ATOM     23  C   UNL     1      43.951  34.572  32.515  1.00  0.00     0.177 C 
ATOM     24  C   UNL     1      45.027  34.500  30.204  1.00  0.00     0.176 C 
ATOM     25  C   UNL     1      45.176  34.135  31.704  1.00  0.00     0.177 C 
BRANCH  21  26
ATOM     26  O   UNL     1      42.461  36.448  32.870  1.00  0.00    -0.387 OA
ATOM     27  H   UNL     1      41.938  35.629  33.061  1.00  0.00     0.211 HD
ENDBRANCH  21  26
BRANCH  23  28
ATOM     28  O   UNL     1      44.219  34.390  33.883  1.00  0.00    -0.387 OA
ATOM     29  H   UNL     1      45.158  34.086  33.958  1.00  0.00     0.211 HD
ENDBRANCH  23  28
BRANCH  24  30
ATOM     30  C   UNL     1      44.054  33.595  29.412  1.00  0.00     0.191 C 
BRANCH  30  31
ATOM     31  O   UNL     1      44.680  32.398  29.044  1.00  0.00    -0.394 OA
ATOM     32  H   UNL     1      45.382  32.632  28.385  1.00  0.00     0.210 HD
ENDBRANCH  30  31
ENDBRANCH  24  30
BRANCH  25  33
ATOM     33  O   UNL     1      45.370  32.751  31.856  1.00  0.00    -0.388 OA
ATOM     34  H   UNL     1      45.959  32.448  31.116  1.00  0.00     0.211 HD
ENDBRANCH  25  33
ENDBRANCH  11  20
BRANCH  10  35
ATOM     35  O   UNL     1      45.644  38.452  30.859  1.00  0.00    -0.507 OA
ATOM     36  H   UNL     1      46.080  37.550  30.744  1.00  0.00     0.293 HD
ENDBRANCH  10  35
TORSDOF 9
ENDMDL
MODEL 2
REMARK VINA RESULT:    -6.161      3.738      8.308
REMARK INTER + INTRA:          -9.615
REMARK INTER:                  -8.477
REMARK INTRA:                  -1.138
REMARK UNBOUND:                -1.293
REMARK SMILES O=c1c(-c2ccc(O)cc2)coc2c([C@H]3O[C@H](CO)[C@H](O)[C@@H](O)[C@@H]3O)c(O)ccc12
REMARK SMILES IDX 3 1 11 2 12 3 13 4 30 5 2 6 1 7 29 8 28 9 26 10 14 11 4 12
REMARK SMILES IDX 5 13 6 14 7 15 10 16 9 17 8 18 15 20 24 21 16 22 22 23 17 24
REMARK SMILES IDX 20 25 25 26 23 28 18 30 19 31 21 33 27 35
REMARK H PARENT 8 19 25 27 23 29 19 32 21 34 27 36
REMARK Flexibility Score: inf
ROOT
ATOM      1  C   UNL     1      39.692  38.989  29.555  1.00  0.00     0.065 A 
ATOM      2  C   UNL     1      39.372  37.644  29.327  1.00  0.00     0.208 A 
ATOM      3  O   UNL     1      38.125  37.275  29.070  1.00  0.00    -0.463 OA
ATOM      4  C   UNL     1      37.108  38.132  29.003  1.00  0.00     0.147 A 
ATOM      5  C   UNL     1      37.344  39.510  29.217  1.00  0.00     0.066 A 
ATOM      6  C   UNL     1      38.655  39.937  29.490  1.00  0.00     0.200 A 
ATOM      7  O   UNL     1      38.906  41.163  29.653  1.00  0.00    -0.288 OA
ATOM      8  C   UNL     1      36.275  40.414  29.150  1.00  0.00     0.020 A 
ATOM      9  C   UNL     1      34.991  39.961  28.864  1.00  0.00     0.047 A 
ATOM     10  C   UNL     1      34.739  38.606  28.635  1.00  0.00     0.125 A 
ATOM     11  C   UNL     1      35.799  37.661  28.721  1.00  0.00     0.069 A 
ENDROOT
BRANCH   1  12
ATOM     12  C   UNL     1      41.095  39.375  29.856  1.00  0.00    -0.011 A 
ATOM     13  C   UNL     1      41.638  39.136  31.128  1.00  0.00     0.013 A 
ATOM     14  C   UNL     1      42.953  39.509  31.414  1.00  0.00     0.047 A 
ATOM     15  C   UNL     1      43.738  40.137  30.438  1.00  0.00     0.115 A 
ATOM     16  C   UNL     1      41.887  40.009  28.882  1.00  0.00     0.013 A 
ATOM     17  C   UNL     1      43.200  40.389  29.174  1.00  0.00     0.047 A 
BRANCH  15  18
ATOM     18  O   UNL     1      45.052  40.510  30.713  1.00  0.00    -0.508 OA
ATOM     19  H   UNL     1      45.821  40.208  30.127  1.00  0.00     0.293 HD
ENDBRANCH  15  18
ENDBRANCH   1  12
BRANCH  11  20
ATOM     20  C   UNL     1      35.578  36.170  28.482  1.00  0.00     0.188 C 
ATOM     21  C   UNL     1      35.298  35.900  26.982  1.00  0.00     0.179 C 
ATOM     22  O   UNL     1      34.530  35.706  29.319  1.00  0.00    -0.362 OA
ATOM     23  C   UNL     1      35.040  34.401  26.752  1.00  0.00     0.177 C 
ATOM     24  C   UNL     1      34.290  34.310  29.186  1.00  0.00     0.176 C 
ATOM     25  C   UNL     1      33.960  33.915  27.724  1.00  0.00     0.177 C 
BRANCH  21  26
ATOM     26  O   UNL     1      36.370  36.344  26.183  1.00  0.00    -0.387 OA
ATOM     27  H   UNL     1      36.024  37.054  25.586  1.00  0.00     0.211 HD
ENDBRANCH  21  26
BRANCH  23  28
ATOM     28  O   UNL     1      34.602  34.185  25.434  1.00  0.00    -0.387 OA
ATOM     29  H   UNL     1      34.359  35.068  25.059  1.00  0.00     0.211 HD
ENDBRANCH  23  28
BRANCH  24  30
ATOM     30  C   UNL     1      35.405  33.468  29.847  1.00  0.00     0.191 C 
BRANCH  30  31
ATOM     31  O   UNL     1      34.914  32.216  30.242  1.00  0.00    -0.394 OA
ATOM     32  H   UNL     1      35.017  32.166  31.226  1.00  0.00     0.210 HD
ENDBRANCH  30  31
ENDBRANCH  24  30
BRANCH  25  33
ATOM     33  O   UNL     1      33.820  32.521  27.610  1.00  0.00    -0.388 OA
ATOM     34  H   UNL     1      34.731  32.126  27.622  1.00  0.00     0.211 HD
ENDBRANCH  25  33
ENDBRANCH  11  20
BRANCH  10  35
ATOM     35  O   UNL     1      33.425  38.253  28.309  1.00  0.00    -0.507 OA
ATOM     36  H   UNL     1      32.910  37.500  28.737  1.00  0.00     0.293 HD
ENDBRANCH  10  35
TORSDOF 9
ENDMDL
MODEL 3
REMARK VINA RESULT:    -5.864      6.652      9.876
REMARK INTER + INTRA:          -9.214
REMARK INTER:                  -7.908
REMARK INTRA:                  -1.306
REMARK UNBOUND:                -1.293
REMARK SMILES O=c1c(-c2ccc(O)cc2)coc2c([C@H]3O[C@H](CO)[C@H](O)[C@@H](O)[C@@H]3O)c(O)ccc12
REMARK SMILES IDX 3 1 11 2 12 3 13 4 30 5 2 6 1 7 29 8 28 9 26 10 14 11 4 12
REMARK SMILES IDX 5 13 6 14 7 15 10 16 9 17 8 18 15 20 24 21 16 22 22 23 17 24
REMARK SMILES IDX 20 25 25 26 23 28 18 30 19 31 21 33 27 35
REMARK H PARENT 8 19 25 27 23 29 19 32 21 34 27 36
REMARK Flexibility Score: inf
ROOT
ATOM      1  C   UNL     1      35.890  40.071  31.485  1.00  0.00     0.065 A 
ATOM      2  C   UNL     1      35.191  39.338  32.453  1.00  0.00     0.208 A 
ATOM      3  O   UNL     1      35.060  39.795  33.691  1.00  0.00    -0.463 OA
ATOM      4  C   UNL     1      35.564  40.958  34.097  1.00  0.00     0.147 A 
ATOM      5  C   UNL     1      36.282  41.764  33.182  1.00  0.00     0.066 A 
ATOM      6  C   UNL     1      36.437  41.310  31.861  1.00  0.00     0.200 A 
ATOM      7  O   UNL     1      37.044  42.019  31.011  1.00  0.00    -0.288 OA
ATOM      8  C   UNL     1      36.816  42.987  33.608  1.00  0.00     0.020 A 
ATOM      9  C   UNL     1      36.632  43.413  34.920  1.00  0.00     0.047 A 
ATOM     10  C   UNL     1      35.914  42.640  35.836  1.00  0.00     0.125 A 
ATOM     11  C   UNL     1      35.382  41.381  35.440  1.00  0.00     0.069 A 
ENDROOT
BRANCH   1  12
ATOM     12  C   UNL     1      36.034  39.529  30.109  1.00  0.00    -0.011 A 
ATOM     13  C   UNL     1      35.092  39.851  29.120  1.00  0.00     0.013 A 
ATOM     14  C   UNL     1      35.220  39.334  27.829  1.00  0.00     0.047 A 
ATOM     15  C   UNL     1      36.283  38.477  27.513  1.00  0.00     0.115 A 
ATOM     16  C   UNL     1      37.096  38.666  29.788  1.00  0.00     0.013 A 
ATOM     17  C   UNL     1      37.218  38.142  28.497  1.00  0.00     0.047 A 
BRANCH  15  18
ATOM     18  O   UNL     1      36.422  37.958  26.228  1.00  0.00    -0.508 OA
ATOM     19  H   UNL     1      35.819  38.253  25.471  1.00  0.00     0.293 HD
ENDBRANCH  15  18
ENDBRANCH   1  12
BRANCH  11  20
ATOM     20  C   UNL     1      34.592  40.497  36.400  1.00  0.00     0.188 C 
ATOM     21  C   UNL     1      33.113  40.956  36.464  1.00  0.00     0.179 C 
ATOM     22  O   UNL     1      35.216  40.505  37.675  1.00  0.00    -0.362 OA
ATOM     23  C   UNL     1      32.329  40.085  37.460  1.00  0.00     0.177 C 
ATOM     24  C   UNL     1      34.561  39.668  38.620  1.00  0.00     0.176 C 
ATOM     25  C   UNL     1      33.069  40.052  38.801  1.00  0.00     0.177 C 
BRANCH  21  26
ATOM     26  O   UNL     1      32.516  40.906  35.189  1.00  0.00    -0.387 OA
ATOM     27  H   UNL     1      31.723  40.316  35.253  1.00  0.00     0.211 HD
ENDBRANCH  21  26
BRANCH  23  28
ATOM     28  O   UNL     1      31.044  40.618  37.659  1.00  0.00    -0.387 OA
ATOM     29  H   UNL     1      30.967  41.418  37.080  1.00  0.00     0.211 HD
ENDBRANCH  23  28
BRANCH  24  30
ATOM     30  C   UNL     1      34.810  38.169  38.331  1.00  0.00     0.191 C 
BRANCH  30  31
ATOM     31  O   UNL     1      35.107  37.479  39.514  1.00  0.00    -0.394 OA
ATOM     32  H   UNL     1      35.088  36.514  39.295  1.00  0.00     0.210 HD
ENDBRANCH  30  31
ENDBRANCH  24  30
BRANCH  25  33
ATOM     33  O   UNL     1      32.430  39.150  39.669  1.00  0.00    -0.388 OA
ATOM     34  H   UNL     1      32.036  39.678  40.412  1.00  0.00     0.211 HD
ENDBRANCH  25  33
ENDBRANCH  11  20
BRANCH  10  35
ATOM     35  O   UNL     1      35.743  43.174  37.117  1.00  0.00    -0.507 OA
ATOM     36  H   UNL     1      35.504  42.635  37.935  1.00  0.00     0.293 HD
ENDBRANCH  10  35
TORSDOF 9
ENDMDL
MODEL 4
REMARK VINA RESULT:    -5.817      5.905     10.028
REMARK INTER + INTRA:          -9.151
REMARK INTER:                  -7.794
REMARK INTRA:                  -1.357
REMARK UNBOUND:                -1.293
REMARK SMILES O=c1c(-c2ccc(O)cc2)coc2c([C@H]3O[C@H](CO)[C@H](O)[C@@H](O)[C@@H]3O)c(O)ccc12
REMARK SMILES IDX 3 1 11 2 12 3 13 4 30 5 2 6 1 7 29 8 28 9 26 10 14 11 4 12
REMARK SMILES IDX 5 13 6 14 7 15 10 16 9 17 8 18 15 20 24 21 16 22 22 23 17 24
REMARK SMILES IDX 20 25 25 26 23 28 18 30 19 31 21 33 27 35
REMARK H PARENT 8 19 25 27 23 29 19 32 21 34 27 36
REMARK Flexibility Score: inf
ROOT
ATOM      1  C   UNL     1      37.607  41.985  29.877  1.00  0.00     0.065 A 
ATOM      2  C   UNL     1      38.488  42.877  29.250  1.00  0.00     0.208 A 
ATOM      3  O   UNL     1      38.677  44.098  29.731  1.00  0.00    -0.463 OA
ATOM      4  C   UNL     1      38.065  44.557  30.820  1.00  0.00     0.147 A 
ATOM      5  C   UNL     1      37.162  43.721  31.517  1.00  0.00     0.066 A 
ATOM      6  C   UNL     1      36.941  42.419  31.037  1.00  0.00     0.200 A 
ATOM      7  O   UNL     1      36.166  41.635  31.653  1.00  0.00    -0.288 OA
ATOM      8  C   UNL     1      36.515  44.203  32.662  1.00  0.00     0.020 A 
ATOM      9  C   UNL     1      36.768  45.492  33.120  1.00  0.00     0.047 A 
ATOM     10  C   UNL     1      37.668  46.330  32.455  1.00  0.00     0.125 A 
ATOM     11  C   UNL     1      38.320  45.878  31.274  1.00  0.00     0.069 A 
ENDROOT
BRANCH   1  12
ATOM     12  C   UNL     1      37.403  40.627  29.310  1.00  0.00    -0.011 A 
ATOM     13  C   UNL     1      38.215  39.559  29.723  1.00  0.00     0.013 A 
ATOM     14  C   UNL     1      38.031  38.284  29.183  1.00  0.00     0.047 A 
ATOM     15  C   UNL     1      37.044  38.063  28.213  1.00  0.00     0.115 A 
ATOM     16  C   UNL     1      36.417  40.400  28.334  1.00  0.00     0.013 A 
ATOM     17  C   UNL     1      36.241  39.125  27.788  1.00  0.00     0.047 A 
BRANCH  15  18
ATOM     18  O   UNL     1      36.850  36.795  27.670  1.00  0.00    -0.508 OA
ATOM     19  H   UNL     1      37.630  36.178  27.475  1.00  0.00     0.293 HD
ENDBRANCH  15  18
ENDBRANCH   1  12
BRANCH  11  20
ATOM     20  C   UNL     1      39.309  46.753  30.509  1.00  0.00     0.188 C 
ATOM     21  C   UNL     1      40.719  46.656  31.146  1.00  0.00     0.179 C 
ATOM     22  O   UNL     1      38.827  48.086  30.465  1.00  0.00    -0.362 OA
ATOM     23  C   UNL     1      41.704  47.567  30.393  1.00  0.00     0.177 C 
ATOM     24  C   UNL     1      39.675  48.960  29.729  1.00  0.00     0.176 C 
ATOM     25  C   UNL     1      41.119  48.979  30.295  1.00  0.00     0.177 C 
BRANCH  21  26
ATOM     26  O   UNL     1      41.180  45.325  31.146  1.00  0.00    -0.387 OA
ATOM     27  H   UNL     1      41.878  45.250  31.844  1.00  0.00     0.211 HD
ENDBRANCH  21  26
BRANCH  23  28
ATOM     28  O   UNL     1      42.928  47.625  31.082  1.00  0.00    -0.387 OA
ATOM     29  H   UNL     1      43.587  47.114  30.549  1.00  0.00     0.211 HD
ENDBRANCH  23  28
BRANCH  24  30
ATOM     30  C   UNL     1      39.582  48.707  28.207  1.00  0.00     0.191 C 
BRANCH  30  31
ATOM     31  O   UNL     1      39.780  49.896  27.493  1.00  0.00    -0.394 OA
ATOM     32  H   UNL     1      39.050  50.512  27.754  1.00  0.00     0.210 HD
ENDBRANCH  30  31
ENDBRANCH  24  30
BRANCH  25  33
ATOM     33  O   UNL     1      41.952  49.778  29.493  1.00  0.00    -0.388 OA
ATOM     34  H   UNL     1      42.716  49.215  29.200  1.00  0.00     0.211 HD
ENDBRANCH  25  33
ENDBRANCH  11  20
BRANCH  10  35
ATOM     35  O   UNL     1      37.890  47.591  33.017  1.00  0.00    -0.507 OA
ATOM     36  H   UNL     1      37.262  48.054  33.655  1.00  0.00     0.293 HD
ENDBRANCH  10  35
TORSDOF 9
ENDMDL
MODEL 5
REMARK VINA RESULT:    -5.753      5.766      9.033
REMARK INTER + INTRA:          -9.065
REMARK INTER:                  -8.147
REMARK INTRA:                  -0.918
REMARK UNBOUND:                -1.293
REMARK SMILES O=c1c(-c2ccc(O)cc2)coc2c([C@H]3O[C@H](CO)[C@H](O)[C@@H](O)[C@@H]3O)c(O)ccc12
REMARK SMILES IDX 3 1 11 2 12 3 13 4 30 5 2 6 1 7 29 8 28 9 26 10 14 11 4 12
REMARK SMILES IDX 5 13 6 14 7 15 10 16 9 17 8 18 15 20 24 21 16 22 22 23 17 24
REMARK SMILES IDX 20 25 25 26 23 28 18 30 19 31 21 33 27 35
REMARK H PARENT 8 19 25 27 23 29 19 32 21 34 27 36
REMARK Flexibility Score: inf
ROOT
ATOM      1  C   UNL     1      34.856  40.660  34.752  1.00  0.00     0.065 A 
ATOM      2  C   UNL     1      34.808  39.599  33.838  1.00  0.00     0.208 A 
ATOM      3  O   UNL     1      35.190  39.766  32.579  1.00  0.00    -0.463 OA
ATOM      4  C   UNL     1      35.642  40.923  32.101  1.00  0.00     0.147 A 
ATOM      5  C   UNL     1      35.726  42.046  32.957  1.00  0.00     0.066 A 
ATOM      6  C   UNL     1      35.332  41.903  34.298  1.00  0.00     0.200 A 
ATOM      7  O   UNL     1      35.426  42.875  35.098  1.00  0.00    -0.288 OA
ATOM      8  C   UNL     1      36.199  43.265  32.455  1.00  0.00     0.020 A 
ATOM      9  C   UNL     1      36.594  43.370  31.125  1.00  0.00     0.047 A 
ATOM     10  C   UNL     1      36.533  42.269  30.266  1.00  0.00     0.125 A 
ATOM     11  C   UNL     1      36.033  41.025  30.740  1.00  0.00     0.069 A 
ENDROOT
BRANCH   1  12
ATOM     12  C   UNL     1      34.409  40.449  36.153  1.00  0.00    -0.011 A 
ATOM     13  C   UNL     1      35.328  40.543  37.210  1.00  0.00     0.013 A 
ATOM     14  C   UNL     1      34.911  40.334  38.527  1.00  0.00     0.047 A 
ATOM     15  C   UNL     1      33.575  40.015  38.803  1.00  0.00     0.115 A 
ATOM     16  C   UNL     1      33.071  40.124  36.436  1.00  0.00     0.013 A 
ATOM     17  C   UNL     1      32.658  39.907  37.754  1.00  0.00     0.047 A 
BRANCH  15  18
ATOM     18  O   UNL     1      33.149  39.807  40.113  1.00  0.00    -0.508 OA
ATOM     19  H   UNL     1      33.587  40.282  40.893  1.00  0.00     0.293 HD
ENDBRANCH  15  18
ENDBRANCH   1  12
BRANCH  11  20
ATOM     20  C   UNL     1      35.943  39.793  29.843  1.00  0.00     0.188 C 
ATOM     21  C   UNL     1      37.341  39.146  29.675  1.00  0.00     0.179 C 
ATOM     22  O   UNL     1      35.361  40.153  28.600  1.00  0.00    -0.362 OA
ATOM     23  C   UNL     1      37.251  37.925  28.742  1.00  0.00     0.177 C 
ATOM     24  C   UNL     1      35.202  39.047  27.720  1.00  0.00     0.176 C 
ATOM     25  C   UNL     1      36.548  38.329  27.442  1.00  0.00     0.177 C 
BRANCH  21  26
ATOM     26  O   UNL     1      37.876  38.773  30.923  1.00  0.00    -0.387 OA
ATOM     27  H   UNL     1      37.116  38.594  31.533  1.00  0.00     0.211 HD
ENDBRANCH  21  26
BRANCH  23  28
ATOM     28  O   UNL     1      38.541  37.455  28.439  1.00  0.00    -0.387 OA
ATOM     29  H   UNL     1      38.556  37.250  27.470  1.00  0.00     0.211 HD
ENDBRANCH  23  28
BRANCH  24  30
ATOM     30  C   UNL     1      34.054  38.113  28.168  1.00  0.00     0.191 C 
BRANCH  30  31
ATOM     31  O   UNL     1      32.911  38.855  28.496  1.00  0.00    -0.394 OA
ATOM     32  H   UNL     1      32.473  38.387  29.252  1.00  0.00     0.210 HD
ENDBRANCH  30  31
ENDBRANCH  24  30
BRANCH  25  33
ATOM     33  O   UNL     1      36.344  37.189  26.645  1.00  0.00    -0.388 OA
ATOM     34  H   UNL     1      37.124  37.105  26.036  1.00  0.00     0.211 HD
ENDBRANCH  25  33
ENDBRANCH  11  20
BRANCH  10  35
ATOM     35  O   UNL     1      36.996  42.460  28.960  1.00  0.00    -0.507 OA
ATOM     36  H   UNL     1      37.745  43.084  28.702  1.00  0.00     0.293 HD
ENDBRANCH  10  35
TORSDOF 9
ENDMDL
MODEL 6
REMARK VINA RESULT:    -5.713      5.632     10.624
REMARK INTER + INTRA:          -9.011
REMARK INTER:                  -7.711
REMARK INTRA:                  -1.300
REMARK UNBOUND:                -1.293
REMARK SMILES O=c1c(-c2ccc(O)cc2)coc2c([C@H]3O[C@H](CO)[C@H](O)[C@@H](O)[C@@H]3O)c(O)ccc12
REMARK SMILES IDX 3 1 11 2 12 3 13 4 30 5 2 6 1 7 29 8 28 9 26 10 14 11 4 12
REMARK SMILES IDX 5 13 6 14 7 15 10 16 9 17 8 18 15 20 24 21 16 22 22 23 17 24
REMARK SMILES IDX 20 25 25 26 23 28 18 30 19 31 21 33 27 35
REMARK H PARENT 8 19 25 27 23 29 19 32 21 34 27 36
REMARK Flexibility Score: inf
ROOT
ATOM      1  C   UNL     1      42.288  41.848  28.697  1.00  0.00     0.065 A 
ATOM      2  C   UNL     1      41.467  42.739  29.401  1.00  0.00     0.208 A 
ATOM      3  O   UNL     1      41.143  43.918  28.888  1.00  0.00    -0.463 OA
ATOM      4  C   UNL     1      41.556  44.333  27.693  1.00  0.00     0.147 A 
ATOM      5  C   UNL     1      42.386  43.494  26.913  1.00  0.00     0.066 A 
ATOM      6  C   UNL     1      42.747  42.237  27.425  1.00  0.00     0.200 A 
ATOM      7  O   UNL     1      43.459  41.450  26.741  1.00  0.00    -0.288 OA
ATOM      8  C   UNL     1      42.825  43.931  25.656  1.00  0.00     0.020 A 
ATOM      9  C   UNL     1      42.438  45.176  25.172  1.00  0.00     0.047 A 
ATOM     10  C   UNL     1      41.607  46.014  25.920  1.00  0.00     0.125 A 
ATOM     11  C   UNL     1      41.166  45.610  27.211  1.00  0.00     0.069 A 
ENDROOT
BRANCH   1  12
ATOM     12  C   UNL     1      42.648  40.539  29.300  1.00  0.00    -0.011 A 
ATOM     13  C   UNL     1      41.766  39.451  29.207  1.00  0.00     0.013 A 
ATOM     14  C   UNL     1      42.099  38.223  29.783  1.00  0.00     0.047 A 
ATOM     15  C   UNL     1      43.309  38.070  30.472  1.00  0.00     0.115 A 
ATOM     16  C   UNL     1      43.859  40.381  29.996  1.00  0.00     0.013 A 
ATOM     17  C   UNL     1      44.185  39.153  30.580  1.00  0.00     0.047 A 
BRANCH  15  18
ATOM     18  O   UNL     1      43.651  36.849  31.048  1.00  0.00    -0.508 OA
ATOM     19  H   UNL     1      44.525  36.725  31.546  1.00  0.00     0.293 HD
ENDBRANCH  15  18
ENDBRANCH   1  12
BRANCH  11  20
ATOM     20  C   UNL     1      40.260  46.487  28.070  1.00  0.00     0.188 C 
ATOM     21  C   UNL     1      38.787  46.358  27.606  1.00  0.00     0.179 C 
ATOM     22  O   UNL     1      40.723  47.828  28.031  1.00  0.00    -0.362 OA
ATOM     23  C   UNL     1      37.882  47.271  28.451  1.00  0.00     0.177 C 
ATOM     24  C   UNL     1      39.952  48.706  28.844  1.00  0.00     0.176 C 
ATOM     25  C   UNL     1      38.452  48.693  28.452  1.00  0.00     0.177 C 
BRANCH  21  26
ATOM     26  O   UNL     1      38.351  45.021  27.687  1.00  0.00    -0.387 OA
ATOM     27  H   UNL     1      39.021  44.458  27.222  1.00  0.00     0.211 HD
ENDBRANCH  21  26
BRANCH  23  28
ATOM     28  O   UNL     1      36.585  47.297  27.910  1.00  0.00    -0.387 OA
ATOM     29  H   UNL     1      36.024  46.704  28.471  1.00  0.00     0.211 HD
ENDBRANCH  23  28
BRANCH  24  30
ATOM     30  C   UNL     1      40.228  48.487  30.349  1.00  0.00     0.191 C 
BRANCH  30  31
ATOM     31  O   UNL     1      39.767  49.575  31.102  1.00  0.00    -0.394 OA
ATOM     32  H   UNL     1      39.154  50.088  30.517  1.00  0.00     0.210 HD
ENDBRANCH  30  31
ENDBRANCH  24  30
BRANCH  25  33
ATOM     33  O   UNL     1      37.706  49.497  29.331  1.00  0.00    -0.388 OA
ATOM     34  H   UNL     1      37.978  50.440  29.178  1.00  0.00     0.211 HD
ENDBRANCH  25  33
ENDBRANCH  11  20
BRANCH  10  35
ATOM     35  O   UNL     1      41.235  47.226  25.330  1.00  0.00    -0.507 OA
ATOM     36  H   UNL     1      41.444  48.137  25.709  1.00  0.00     0.293 HD
ENDBRANCH  10  35
TORSDOF 9
ENDMDL
MODEL 7
REMARK VINA RESULT:    -5.705      3.794      8.218
REMARK INTER + INTRA:          -8.999
REMARK INTER:                  -8.633
REMARK INTRA:                  -0.366
REMARK UNBOUND:                -1.293
REMARK SMILES O=c1c(-c2ccc(O)cc2)coc2c([C@H]3O[C@H](CO)[C@H](O)[C@@H](O)[C@@H]3O)c(O)ccc12
REMARK SMILES IDX 3 1 11 2 12 3 13 4 30 5 2 6 1 7 29 8 28 9 26 10 14 11 4 12
REMARK SMILES IDX 5 13 6 14 7 15 10 16 9 17 8 18 15 20 24 21 16 22 22 23 17 24
REMARK SMILES IDX 20 25 25 26 23 28 18 30 19 31 21 33 27 35
REMARK H PARENT 8 19 25 27 23 29 19 32 21 34 27 36
REMARK Flexibility Score: inf
ROOT
ATOM      1  C   UNL     1      39.018  39.184  29.348  1.00  0.00     0.065 A 
ATOM      2  C   UNL     1      38.696  37.894  28.906  1.00  0.00     0.208 A 
ATOM      3  O   UNL     1      37.442  37.560  28.634  1.00  0.00    -0.463 OA
ATOM      4  C   UNL     1      36.419  38.403  28.751  1.00  0.00     0.147 A 
ATOM      5  C   UNL     1      36.655  39.728  29.188  1.00  0.00     0.066 A 
ATOM      6  C   UNL     1      37.973  40.117  29.482  1.00  0.00     0.200 A 
ATOM      7  O   UNL     1      38.224  41.300  29.843  1.00  0.00    -0.288 OA
ATOM      8  C   UNL     1      35.580  40.617  29.314  1.00  0.00     0.020 A 
ATOM      9  C   UNL     1      34.289  40.205  29.001  1.00  0.00     0.047 A 
ATOM     10  C   UNL     1      34.035  38.905  28.554  1.00  0.00     0.125 A 
ATOM     11  C   UNL     1      35.103  37.972  28.440  1.00  0.00     0.069 A 
ENDROOT
BRANCH   1  12
ATOM     12  C   UNL     1      40.429  39.529  29.659  1.00  0.00    -0.011 A 
ATOM     13  C   UNL     1      41.160  40.361  28.798  1.00  0.00     0.013 A 
ATOM     14  C   UNL     1      42.490  40.677  29.083  1.00  0.00     0.047 A 
ATOM     15  C   UNL     1      43.111  40.153  30.225  1.00  0.00     0.115 A 
ATOM     16  C   UNL     1      41.058  39.003  30.801  1.00  0.00     0.013 A 
ATOM     17  C   UNL     1      42.393  39.313  31.080  1.00  0.00     0.047 A 
BRANCH  15  18
ATOM     18  O   UNL     1      44.436  40.464  30.521  1.00  0.00    -0.508 OA
ATOM     19  H   UNL     1      44.890  40.108  31.353  1.00  0.00     0.293 HD
ENDBRANCH  15  18
ENDBRANCH   1  12
BRANCH  11  20
ATOM     20  C   UNL     1      34.881  36.541  27.960  1.00  0.00     0.188 C 
ATOM     21  C   UNL     1      35.179  35.536  29.101  1.00  0.00     0.179 C 
ATOM     22  O   UNL     1      35.672  36.299  26.807  1.00  0.00    -0.362 OA
ATOM     23  C   UNL     1      34.988  34.093  28.602  1.00  0.00     0.177 C 
ATOM     24  C   UNL     1      35.489  34.995  26.270  1.00  0.00     0.176 C 
ATOM     25  C   UNL     1      35.793  33.889  27.315  1.00  0.00     0.177 C 
BRANCH  21  26
ATOM     26  O   UNL     1      34.356  35.784  30.217  1.00  0.00    -0.387 OA
ATOM     27  H   UNL     1      33.902  36.652  30.067  1.00  0.00     0.211 HD
ENDBRANCH  21  26
BRANCH  23  28
ATOM     28  O   UNL     1      35.440  33.184  29.574  1.00  0.00    -0.387 OA
ATOM     29  H   UNL     1      35.852  33.715  30.301  1.00  0.00     0.211 HD
ENDBRANCH  23  28
BRANCH  24  30
ATOM     30  C   UNL     1      34.124  34.851  25.558  1.00  0.00     0.191 C 
BRANCH  30  31
ATOM     31  O   UNL     1      34.286  34.873  24.166  1.00  0.00    -0.394 OA
ATOM     32  H   UNL     1      35.122  34.382  23.968  1.00  0.00     0.210 HD
ENDBRANCH  30  31
ENDBRANCH  24  30
BRANCH  25  33
ATOM     33  O   UNL     1      35.514  32.619  26.783  1.00  0.00    -0.388 OA
ATOM     34  H   UNL     1      35.746  32.641  25.817  1.00  0.00     0.211 HD
ENDBRANCH  25  33
ENDBRANCH  11  20
BRANCH  10  35
ATOM     35  O   UNL     1      32.712  38.599  28.220  1.00  0.00    -0.507 OA
ATOM     36  H   UNL     1      31.911  38.820  28.790  1.00  0.00     0.293 HD
ENDBRANCH  10  35
TORSDOF 9
ENDMDL
MODEL 8
REMARK VINA RESULT:    -5.678      9.675     12.978
REMARK INTER + INTRA:          -8.963
REMARK INTER:                  -7.624
REMARK INTRA:                  -1.339
REMARK UNBOUND:                -1.293
REMARK SMILES O=c1c(-c2ccc(O)cc2)coc2c([C@H]3O[C@H](CO)[C@H](O)[C@@H](O)[C@@H]3O)c(O)ccc12
REMARK SMILES IDX 3 1 11 2 12 3 13 4 30 5 2 6 1 7 29 8 28 9 26 10 14 11 4 12
REMARK SMILES IDX 5 13 6 14 7 15 10 16 9 17 8 18 15 20 24 21 16 22 22 23 17 24
REMARK SMILES IDX 20 25 25 26 23 28 18 30 19 31 21 33 27 35
REMARK H PARENT 8 19 25 27 23 29 19 32 21 34 27 36
REMARK Flexibility Score: inf
ROOT
ATOM      1  C   UNL     1      44.087  42.406  22.587  1.00  0.00     0.065 A 
ATOM      2  C   UNL     1      44.995  43.344  22.078  1.00  0.00     0.208 A 
ATOM      3  O   UNL     1      44.930  44.619  22.436  1.00  0.00    -0.463 OA
ATOM      4  C   UNL     1      44.025  45.093  23.289  1.00  0.00     0.147 A 
ATOM      5  C   UNL     1      43.073  44.213  23.854  1.00  0.00     0.066 A 
ATOM      6  C   UNL     1      43.114  42.854  23.499  1.00  0.00     0.200 A 
ATOM      7  O   UNL     1      42.300  42.036  24.009  1.00  0.00    -0.288 OA
ATOM      8  C   UNL     1      42.117  44.710  24.750  1.00  0.00     0.020 A 
ATOM      9  C   UNL     1      42.112  46.059  25.092  1.00  0.00     0.047 A 
ATOM     10  C   UNL     1      43.053  46.942  24.558  1.00  0.00     0.125 A 
ATOM     11  C   UNL     1      44.019  46.472  23.625  1.00  0.00     0.069 A 
ENDROOT
BRANCH   1  12
ATOM     12  C   UNL     1      44.173  40.986  22.160  1.00  0.00    -0.011 A 
ATOM     13  C   UNL     1      43.501  40.552  21.007  1.00  0.00     0.013 A 
ATOM     14  C   UNL     1      43.572  39.214  20.610  1.00  0.00     0.047 A 
ATOM     15  C   UNL     1      44.303  38.290  21.369  1.00  0.00     0.115 A 
ATOM     16  C   UNL     1      44.902  40.053  22.919  1.00  0.00     0.013 A 
ATOM     17  C   UNL     1      44.964  38.713  22.525  1.00  0.00     0.047 A 
BRANCH  15  18
ATOM     18  O   UNL     1      44.383  36.955  20.980  1.00  0.00    -0.508 OA
ATOM     19  H   UNL     1      44.907  36.673  20.161  1.00  0.00     0.293 HD
ENDBRANCH  15  18
ENDBRANCH   1  12
BRANCH  11  20
ATOM     20  C   UNL     1      45.067  47.395  23.009  1.00  0.00     0.188 C 
ATOM     21  C   UNL     1      46.285  47.536  23.958  1.00  0.00     0.179 C 
ATOM     22  O   UNL     1      44.475  48.646  22.700  1.00  0.00    -0.362 OA
ATOM     23  C   UNL     1      47.323  48.495  23.349  1.00  0.00     0.177 C 
ATOM     24  C   UNL     1      45.380  49.552  22.081  1.00  0.00     0.176 C 
ATOM     25  C   UNL     1      46.636  49.806  22.955  1.00  0.00     0.177 C 
BRANCH  21  26
ATOM     26  O   UNL     1      46.867  46.280  24.218  1.00  0.00    -0.387 OA
ATOM     27  H   UNL     1      47.350  45.999  23.401  1.00  0.00     0.211 HD
ENDBRANCH  21  26
BRANCH  23  28
ATOM     28  O   UNL     1      48.333  48.770  24.288  1.00  0.00    -0.387 OA
ATOM     29  H   UNL     1      48.804  49.584  23.978  1.00  0.00     0.211 HD
ENDBRANCH  23  28
BRANCH  24  30
ATOM     30  C   UNL     1      45.683  49.155  20.618  1.00  0.00     0.191 C 
BRANCH  30  31
ATOM     31  O   UNL     1      46.122  50.264  19.883  1.00  0.00    -0.394 OA
ATOM     32  H   UNL     1      47.038  50.471  20.196  1.00  0.00     0.210 HD
ENDBRANCH  30  31
ENDBRANCH  24  30
BRANCH  25  33
ATOM     33  O   UNL     1      47.550  50.631  22.277  1.00  0.00    -0.388 OA
ATOM     34  H   UNL     1      48.305  50.813  22.896  1.00  0.00     0.211 HD
ENDBRANCH  25  33
ENDBRANCH  11  20
BRANCH  10  35
ATOM     35  O   UNL     1      42.996  48.269  24.997  1.00  0.00    -0.507 OA
ATOM     36  H   UNL     1      42.176  48.853  24.952  1.00  0.00     0.293 HD
ENDBRANCH  10  35
TORSDOF 9
ENDMDL
MODEL 9
REMARK VINA RESULT:    -5.635      9.691     13.170
REMARK INTER + INTRA:          -8.904
REMARK INTER:                  -7.782
REMARK INTRA:                  -1.123
REMARK UNBOUND:                -1.293
REMARK SMILES O=c1c(-c2ccc(O)cc2)coc2c([C@H]3O[C@H](CO)[C@H](O)[C@@H](O)[C@@H]3O)c(O)ccc12
REMARK SMILES IDX 3 1 11 2 12 3 13 4 30 5 2 6 1 7 29 8 28 9 26 10 14 11 4 12
REMARK SMILES IDX 5 13 6 14 7 15 10 16 9 17 8 18 15 20 24 21 16 22 22 23 17 24
REMARK SMILES IDX 20 25 25 26 23 28 18 30 19 31 21 33 27 35
REMARK H PARENT 8 19 25 27 23 29 19 32 21 34 27 36
REMARK Flexibility Score: inf
ROOT
ATOM      1  C   UNL     1      33.734  47.331  35.233  1.00  0.00     0.065 A 
ATOM      2  C   UNL     1      34.084  48.127  34.135  1.00  0.00     0.208 A 
ATOM      3  O   UNL     1      35.133  47.824  33.381  1.00  0.00    -0.463 OA
ATOM      4  C   UNL     1      35.909  46.765  33.600  1.00  0.00     0.147 A 
ATOM      5  C   UNL     1      35.624  45.906  34.687  1.00  0.00     0.066 A 
ATOM      6  C   UNL     1      34.519  46.196  35.505  1.00  0.00     0.200 A 
ATOM      7  O   UNL     1      34.217  45.432  36.463  1.00  0.00    -0.288 OA
ATOM      8  C   UNL     1      36.441  44.792  34.921  1.00  0.00     0.020 A 
ATOM      9  C   UNL     1      37.520  44.526  34.084  1.00  0.00     0.047 A 
ATOM     10  C   UNL     1      37.810  45.353  32.996  1.00  0.00     0.125 A 
ATOM     11  C   UNL     1      37.014  46.506  32.748  1.00  0.00     0.069 A 
ENDROOT
BRANCH   1  12
ATOM     12  C   UNL     1      32.563  47.700  36.070  1.00  0.00    -0.011 A 
ATOM     13  C   UNL     1      31.272  47.294  35.699  1.00  0.00     0.013 A 
ATOM     14  C   UNL     1      30.170  47.650  36.479  1.00  0.00     0.047 A 
ATOM     15  C   UNL     1      30.341  48.428  37.632  1.00  0.00     0.115 A 
ATOM     16  C   UNL     1      32.729  48.484  37.226  1.00  0.00     0.013 A 
ATOM     17  C   UNL     1      31.623  48.846  38.000  1.00  0.00     0.047 A 
BRANCH  15  18
ATOM     18  O   UNL     1      29.249  48.785  38.419  1.00  0.00    -0.508 OA
ATOM     19  H   UNL     1      28.820  49.700  38.344  1.00  0.00     0.293 HD
ENDBRANCH  15  18
ENDBRANCH   1  12
BRANCH  11  20
ATOM     20  C   UNL     1      37.288  47.444  31.576  1.00  0.00     0.188 C 
ATOM     21  C   UNL     1      36.744  46.835  30.259  1.00  0.00     0.179 C 
ATOM     22  O   UNL     1      38.678  47.723  31.507  1.00  0.00    -0.362 OA
ATOM     23  C   UNL     1      37.054  47.767  29.075  1.00  0.00     0.177 C 
ATOM     24  C   UNL     1      39.012  48.628  30.462  1.00  0.00     0.176 C 
ATOM     25  C   UNL     1      38.547  48.111  29.076  1.00  0.00     0.177 C 
BRANCH  21  26
ATOM     26  O   UNL     1      35.358  46.599  30.350  1.00  0.00    -0.387 OA
ATOM     27  H   UNL     1      34.938  47.420  30.711  1.00  0.00     0.211 HD
ENDBRANCH  21  26
BRANCH  23  28
ATOM     28  O   UNL     1      36.732  47.131  27.863  1.00  0.00    -0.387 OA
ATOM     29  H   UNL     1      36.820  46.156  28.014  1.00  0.00     0.211 HD
ENDBRANCH  23  28
BRANCH  24  30
ATOM     30  C   UNL     1      38.576  50.075  30.791  1.00  0.00     0.191 C 
BRANCH  30  31
ATOM     31  O   UNL     1      39.616  50.777  31.414  1.00  0.00    -0.394 OA
ATOM     32  H   UNL     1      39.912  51.475  30.777  1.00  0.00     0.210 HD
ENDBRANCH  30  31
ENDBRANCH  24  30
BRANCH  25  33
ATOM     33  O   UNL     1      38.809  49.068  28.080  1.00  0.00    -0.388 OA
ATOM     34  H   UNL     1      38.647  48.637  27.200  1.00  0.00     0.211 HD
ENDBRANCH  25  33
ENDBRANCH  11  20
BRANCH  10  35
ATOM     35  O   UNL     1      38.886  44.978  32.185  1.00  0.00    -0.507 OA
ATOM     36  H   UNL     1      38.847  44.899  31.180  1.00  0.00     0.293 HD
ENDBRANCH  10  35
TORSDOF 9
ENDMDL
