MODEL 1
REMARK VINA RESULT:     0.000      0.000      0.000
REMARK INTER + INTRA:          -7.225
REMARK INTER:                   0.000
REMARK INTRA:                  -7.225
REMARK UNBOUND:                -7.225
REMARK SMILES CCCCCCCCCCCCCCCCCCCCCCCCCCCCCO
REMARK SMILES IDX 16 1 15 2 14 3 13 4 12 5 11 6 10 7 9 8 8 9 7 10 6 11 5 12
REMARK SMILES IDX 4 13 3 14 2 15 1 16 17 17 18 18 19 19 20 20 21 21 22 22
REMARK SMILES IDX 23 23 24 24 25 25 26 26 27 27 28 28 29 29 30 30
REMARK H PARENT 30 31
REMARK Flexibility Score: inf
ROOT
ATOM      1  C   UNL     1     136.108 143.352 157.357  1.00  0.00     0.000 C 
ENDROOT
BRANCH   1   2
ATOM      2  C   UNL     1     135.033 142.530 158.080  1.00  0.00     0.000 C 
BRANCH   2   3
ATOM      3  C   UNL     1     135.661 141.571 159.101  1.00  0.00     0.000 C 
BRANCH   3   4
ATOM      4  C   UNL     1     136.135 140.278 158.427  1.00  0.00     0.000 C 
BRANCH   4   5
ATOM      5  C   UNL     1     137.574 139.933 158.848  1.00  0.00     0.000 C 
BRANCH   5   6
ATOM      6  C   UNL     1     138.613 140.383 157.807  1.00  0.00     0.000 C 
BRANCH   6   7
ATOM      7  C   UNL     1     139.309 141.700 158.197  1.00  0.00     0.000 C 
BRANCH   7   8
ATOM      8  C   UNL     1     139.628 142.587 156.978  1.00  0.00    -0.000 C 
BRANCH   8   9
ATOM      9  C   UNL     1     140.068 141.822 155.715  1.00  0.00    -0.000 C 
BRANCH   9  10
ATOM     10  C   UNL     1     139.963 142.621 154.403  1.00  0.00    -0.000 C 
BRANCH  10  11
ATOM     11  C   UNL     1     139.265 143.988 154.564  1.00  0.00    -0.000 C 
BRANCH  11  12
ATOM     12  C   UNL     1     138.321 144.312 153.393  1.00  0.00    -0.000 C 
BRANCH  12  13
ATOM     13  C   UNL     1     138.408 143.280 152.257  1.00  0.00    -0.000 C 
BRANCH  13  14
ATOM     14  C   UNL     1     137.157 143.286 151.361  1.00  0.00    -0.000 C 
BRANCH  14  15
ATOM     15  C   UNL     1     135.949 143.952 152.040  1.00  0.00    -0.003 C 
ATOM     16  C   UNL     1     134.630 143.241 151.736  1.00  0.00     0.004 C 
ENDBRANCH  14  15
ENDBRANCH  13  14
ENDBRANCH  12  13
ENDBRANCH  11  12
ENDBRANCH  10  11
ENDBRANCH   9  10
ENDBRANCH   8   9
ENDBRANCH   7   8
ENDBRANCH   6   7
ENDBRANCH   5   6
ENDBRANCH   4   5
ENDBRANCH   3   4
ENDBRANCH   2   3
ENDBRANCH   1   2
BRANCH   1  17
ATOM     17  C   UNL     1     135.793 143.479 155.861  1.00  0.00     0.000 C 
BRANCH  17  18
ATOM     18  C   UNL     1     135.353 142.129 155.276  1.00  0.00     0.000 C 
BRANCH  18  19
ATOM     19  C   UNL     1     136.540 141.227 154.883  1.00  0.00     0.000 C 
BRANCH  19  20
ATOM     20  C   UNL     1     136.373 140.463 153.553  1.00  0.00     0.000 C 
BRANCH  20  21
ATOM     21  C   UNL     1     137.618 139.668 153.117  1.00  0.00     0.000 C 
BRANCH  21  22
ATOM     22  C   UNL     1     138.353 139.017 154.307  1.00  0.00     0.000 C 
BRANCH  22  23
ATOM     23  C   UNL     1     137.841 137.596 154.607  1.00  0.00     0.000 C 
BRANCH  23  24
ATOM     24  C   UNL     1     137.309 137.413 156.044  1.00  0.00     0.000 C 
BRANCH  24  25
ATOM     25  C   UNL     1     135.772 137.423 156.176  1.00  0.00     0.000 C 
BRANCH  25  26
ATOM     26  C   UNL     1     135.035 137.208 154.838  1.00  0.00     0.000 C 
BRANCH  26  27
ATOM     27  C   UNL     1     133.825 138.147 154.681  1.00  0.00     0.002 C 
BRANCH  27  28
ATOM     28  C   UNL     1     133.574 139.005 155.934  1.00  0.00     0.028 C 
BRANCH  28  29
ATOM     29  C   UNL     1     132.232 139.745 155.905  1.00  0.00     0.156 C 
BRANCH  29  30
ATOM     30  O   UNL     1     132.284 140.909 156.688  1.00  0.00    -0.396 OA
ATOM     31  H   UNL     1     133.217 141.247 156.633  1.00  0.00     0.210 HD
ENDBRANCH  29  30
ENDBRANCH  28  29
ENDBRANCH  27  28
ENDBRANCH  26  27
ENDBRANCH  25  26
ENDBRANCH  24  25
ENDBRANCH  23  24
ENDBRANCH  22  23
ENDBRANCH  21  22
ENDBRANCH  20  21
ENDBRANCH  19  20
ENDBRANCH  18  19
ENDBRANCH  17  18
ENDBRANCH   1  17
TORSDOF 28
ENDMDL
MODEL 2
REMARK VINA RESULT:     0.022     10.001     12.997
REMARK INTER + INTRA:          -7.168
REMARK INTER:                   0.000
REMARK INTRA:                  -7.168
REMARK UNBOUND:                -7.225
REMARK SMILES CCCCCCCCCCCCCCCCCCCCCCCCCCCCCO
REMARK SMILES IDX 16 1 15 2 14 3 13 4 12 5 11 6 10 7 9 8 8 9 7 10 6 11 5 12
REMARK SMILES IDX 4 13 3 14 2 15 1 16 17 17 18 18 19 19 20 20 21 21 22 22
REMARK SMILES IDX 23 23 24 24 25 25 26 26 27 27 28 28 29 29 30 30
REMARK H PARENT 30 31
REMARK Flexibility Score: inf
ROOT
ATOM      1  C   UNL     1     132.072 134.873 143.411  1.00  0.00     0.000 C 
ENDROOT
BRANCH   1   2
ATOM      2  C   UNL     1     133.295 135.442 142.681  1.00  0.00     0.000 C 
BRANCH   2   3
ATOM      3  C   UNL     1     134.600 134.977 143.341  1.00  0.00     0.000 C 
BRANCH   3   4
ATOM      4  C   UNL     1     134.797 133.466 143.177  1.00  0.00     0.000 C 
BRANCH   4   5
ATOM      5  C   UNL     1     135.314 132.832 144.480  1.00  0.00     0.000 C 
BRANCH   5   6
ATOM      6  C   UNL     1     135.894 133.876 145.449  1.00  0.00     0.000 C 
BRANCH   6   7
ATOM      7  C   UNL     1     137.137 133.361 146.197  1.00  0.00     0.000 C 
BRANCH   7   8
ATOM      8  C   UNL     1     137.603 134.323 147.308  1.00  0.00    -0.000 C 
BRANCH   8   9
ATOM      9  C   UNL     1     138.679 135.338 146.878  1.00  0.00    -0.000 C 
BRANCH   9  10
ATOM     10  C   UNL     1     138.246 136.815 146.957  1.00  0.00    -0.000 C 
BRANCH  10  11
ATOM     11  C   UNL     1     138.364 137.566 145.614  1.00  0.00    -0.000 C 
BRANCH  11  12
ATOM     12  C   UNL     1     137.685 136.815 144.455  1.00  0.00    -0.000 C 
BRANCH  12  13
ATOM     13  C   UNL     1     138.678 136.381 143.365  1.00  0.00    -0.000 C 
BRANCH  13  14
ATOM     14  C   UNL     1     138.091 135.313 142.427  1.00  0.00    -0.000 C 
BRANCH  14  15
ATOM     15  C   UNL     1     138.553 133.892 142.788  1.00  0.00    -0.003 C 
ATOM     16  C   UNL     1     139.826 133.879 143.635  1.00  0.00     0.004 C 
ENDBRANCH  14  15
ENDBRANCH  13  14
ENDBRANCH  12  13
ENDBRANCH  11  12
ENDBRANCH  10  11
ENDBRANCH   9  10
ENDBRANCH   8   9
ENDBRANCH   7   8
ENDBRANCH   6   7
ENDBRANCH   5   6
ENDBRANCH   4   5
ENDBRANCH   3   4
ENDBRANCH   2   3
ENDBRANCH   1   2
BRANCH   1  17
ATOM     17  C   UNL     1     131.441 135.924 144.334  1.00  0.00     0.000 C 
BRANCH  17  18
ATOM     18  C   UNL     1     131.332 135.397 145.773  1.00  0.00     0.000 C 
BRANCH  18  19
ATOM     19  C   UNL     1     132.075 134.064 145.984  1.00  0.00     0.000 C 
BRANCH  19  20
ATOM     20  C   UNL     1     132.774 133.910 147.352  1.00  0.00     0.000 C 
BRANCH  20  21
ATOM     21  C   UNL     1     132.911 135.224 148.145  1.00  0.00     0.000 C 
BRANCH  21  22
ATOM     22  C   UNL     1     134.382 135.615 148.394  1.00  0.00     0.000 C 
BRANCH  22  23
ATOM     23  C   UNL     1     134.720 137.013 147.840  1.00  0.00     0.000 C 
BRANCH  23  24
ATOM     24  C   UNL     1     134.519 137.147 146.316  1.00  0.00     0.000 C 
BRANCH  24  25
ATOM     25  C   UNL     1     134.291 138.587 145.814  1.00  0.00     0.000 C 
BRANCH  25  26
ATOM     26  C   UNL     1     133.940 138.671 144.315  1.00  0.00     0.000 C 
BRANCH  26  27
ATOM     27  C   UNL     1     135.087 139.267 143.479  1.00  0.00     0.002 C 
BRANCH  27  28
ATOM     28  C   UNL     1     135.323 138.500 142.166  1.00  0.00     0.028 C 
BRANCH  28  29
ATOM     29  C   UNL     1     136.622 138.897 141.455  1.00  0.00     0.156 C 
BRANCH  29  30
ATOM     30  O   UNL     1     136.351 139.632 140.290  1.00  0.00    -0.396 OA
ATOM     31  H   UNL     1     136.395 140.592 140.543  1.00  0.00     0.210 HD
ENDBRANCH  29  30
ENDBRANCH  28  29
ENDBRANCH  27  28
ENDBRANCH  26  27
ENDBRANCH  25  26
ENDBRANCH  24  25
ENDBRANCH  23  24
ENDBRANCH  22  23
ENDBRANCH  21  22
ENDBRANCH  20  21
ENDBRANCH  19  20
ENDBRANCH  18  19
ENDBRANCH  17  18
ENDBRANCH   1  17
TORSDOF 28
ENDMDL
MODEL 3
REMARK VINA RESULT:     0.032      9.154     12.030
REMARK INTER + INTRA:          -7.141
REMARK INTER:                   0.000
REMARK INTRA:                  -7.141
REMARK UNBOUND:                -7.225
REMARK SMILES CCCCCCCCCCCCCCCCCCCCCCCCCCCCCO
REMARK SMILES IDX 16 1 15 2 14 3 13 4 12 5 11 6 10 7 9 8 8 9 7 10 6 11 5 12
REMARK SMILES IDX 4 13 3 14 2 15 1 16 17 17 18 18 19 19 20 20 21 21 22 22
REMARK SMILES IDX 23 23 24 24 25 25 26 26 27 27 28 28 29 29 30 30
REMARK H PARENT 30 31
REMARK Flexibility Score: inf
ROOT
ATOM      1  C   UNL     1     150.051 136.299 150.245  1.00  0.00     0.000 C 
ENDROOT
BRANCH   1   2
ATOM      2  C   UNL     1     150.429 135.788 151.641  1.00  0.00     0.000 C 
BRANCH   2   3
ATOM      3  C   UNL     1     150.323 136.905 152.688  1.00  0.00     0.000 C 
BRANCH   3   4
ATOM      4  C   UNL     1     149.901 136.348 154.053  1.00  0.00     0.000 C 
BRANCH   4   5
ATOM      5  C   UNL     1     149.305 134.936 153.911  1.00  0.00     0.000 C 
BRANCH   5   6
ATOM      6  C   UNL     1     148.730 134.407 155.235  1.00  0.00     0.000 C 
BRANCH   6   7
ATOM      7  C   UNL     1     147.396 133.663 155.045  1.00  0.00     0.000 C 
BRANCH   7   8
ATOM      8  C   UNL     1     147.250 133.056 153.636  1.00  0.00    -0.000 C 
BRANCH   8   9
ATOM      9  C   UNL     1     145.798 132.850 153.165  1.00  0.00    -0.000 C 
BRANCH   9  10
ATOM     10  C   UNL     1     144.751 133.721 153.887  1.00  0.00    -0.000 C 
BRANCH  10  11
ATOM     11  C   UNL     1     143.646 134.260 152.956  1.00  0.00    -0.000 C 
BRANCH  11  12
ATOM     12  C   UNL     1     142.940 135.500 153.533  1.00  0.00    -0.000 C 
BRANCH  12  13
ATOM     13  C   UNL     1     142.926 136.686 152.555  1.00  0.00    -0.000 C 
BRANCH  13  14
ATOM     14  C   UNL     1     142.768 136.240 151.092  1.00  0.00    -0.000 C 
BRANCH  14  15
ATOM     15  C   UNL     1     143.507 137.164 150.110  1.00  0.00    -0.003 C 
ATOM     16  C   UNL     1     143.417 138.639 150.500  1.00  0.00     0.004 C 
ENDBRANCH  14  15
ENDBRANCH  13  14
ENDBRANCH  12  13
ENDBRANCH  11  12
ENDBRANCH  10  11
ENDBRANCH   9  10
ENDBRANCH   8   9
ENDBRANCH   7   8
ENDBRANCH   6   7
ENDBRANCH   5   6
ENDBRANCH   4   5
ENDBRANCH   3   4
ENDBRANCH   2   3
ENDBRANCH   1   2
BRANCH   1  17
ATOM     17  C   UNL     1     149.250 135.245 149.470  1.00  0.00     0.000 C 
BRANCH  17  18
ATOM     18  C   UNL     1     148.119 134.668 150.335  1.00  0.00     0.000 C 
BRANCH  18  19
ATOM     19  C   UNL     1     146.875 135.576 150.384  1.00  0.00     0.000 C 
BRANCH  19  20
ATOM     20  C   UNL     1     146.551 136.173 151.771  1.00  0.00     0.000 C 
BRANCH  20  21
ATOM     21  C   UNL     1     146.832 137.683 151.893  1.00  0.00     0.000 C 
BRANCH  21  22
ATOM     22  C   UNL     1     146.588 138.218 153.319  1.00  0.00     0.000 C 
BRANCH  22  23
ATOM     23  C   UNL     1     146.199 137.102 154.306  1.00  0.00     0.000 C 
BRANCH  23  24
ATOM     24  C   UNL     1     146.595 137.396 155.769  1.00  0.00     0.000 C 
BRANCH  24  25
ATOM     25  C   UNL     1     145.877 136.530 156.824  1.00  0.00     0.000 C 
BRANCH  25  26
ATOM     26  C   UNL     1     144.339 136.573 156.718  1.00  0.00     0.000 C 
BRANCH  26  27
ATOM     27  C   UNL     1     143.776 137.985 156.960  1.00  0.00     0.002 C 
BRANCH  27  28
ATOM     28  C   UNL     1     142.923 138.492 155.784  1.00  0.00     0.028 C 
BRANCH  28  29
ATOM     29  C   UNL     1     143.522 139.715 155.082  1.00  0.00     0.156 C 
BRANCH  29  30
ATOM     30  O   UNL     1     144.582 140.253 155.828  1.00  0.00    -0.396 OA
ATOM     31  H   UNL     1     144.552 139.816 156.720  1.00  0.00     0.210 HD
ENDBRANCH  29  30
ENDBRANCH  28  29
ENDBRANCH  27  28
ENDBRANCH  26  27
ENDBRANCH  25  26
ENDBRANCH  24  25
ENDBRANCH  23  24
ENDBRANCH  22  23
ENDBRANCH  21  22
ENDBRANCH  20  21
ENDBRANCH  19  20
ENDBRANCH  18  19
ENDBRANCH  17  18
ENDBRANCH   1  17
TORSDOF 28
ENDMDL
MODEL 4
REMARK VINA RESULT:     0.037      5.892      9.199
REMARK INTER + INTRA:          -7.128
REMARK INTER:                   0.000
REMARK INTRA:                  -7.128
REMARK UNBOUND:                -7.225
REMARK SMILES CCCCCCCCCCCCCCCCCCCCCCCCCCCCCO
REMARK SMILES IDX 16 1 15 2 14 3 13 4 12 5 11 6 10 7 9 8 8 9 7 10 6 11 5 12
REMARK SMILES IDX 4 13 3 14 2 15 1 16 17 17 18 18 19 19 20 20 21 21 22 22
REMARK SMILES IDX 23 23 24 24 25 25 26 26 27 27 28 28 29 29 30 30
REMARK H PARENT 30 31
REMARK Flexibility Score: inf
ROOT
ATOM      1  C   UNL     1     144.437 140.748 155.922  1.00  0.00     0.000 C 
ENDROOT
BRANCH   1   2
ATOM      2  C   UNL     1     145.498 139.809 156.509  1.00  0.00     0.000 C 
BRANCH   2   3
ATOM      3  C   UNL     1     145.157 138.340 156.222  1.00  0.00     0.000 C 
BRANCH   3   4
ATOM      4  C   UNL     1     146.330 137.621 155.546  1.00  0.00     0.000 C 
BRANCH   4   5
ATOM      5  C   UNL     1     147.422 138.621 155.126  1.00  0.00     0.000 C 
BRANCH   5   6
ATOM      6  C   UNL     1     147.566 138.725 153.599  1.00  0.00     0.000 C 
BRANCH   6   7
ATOM      7  C   UNL     1     146.740 137.662 152.853  1.00  0.00     0.000 C 
BRANCH   7   8
ATOM      8  C   UNL     1     145.690 138.279 151.909  1.00  0.00    -0.000 C 
BRANCH   8   9
ATOM      9  C   UNL     1     144.265 137.714 152.063  1.00  0.00    -0.000 C 
BRANCH   9  10
ATOM     10  C   UNL     1     144.181 136.349 152.772  1.00  0.00    -0.000 C 
BRANCH  10  11
ATOM     11  C   UNL     1     143.138 136.303 153.908  1.00  0.00    -0.000 C 
BRANCH  11  12
ATOM     12  C   UNL     1     142.266 137.570 153.959  1.00  0.00    -0.000 C 
BRANCH  12  13
ATOM     13  C   UNL     1     141.319 137.592 155.170  1.00  0.00    -0.000 C 
BRANCH  13  14
ATOM     14  C   UNL     1     141.326 138.948 155.896  1.00  0.00    -0.000 C 
BRANCH  14  15
ATOM     15  C   UNL     1     139.913 139.424 156.271  1.00  0.00    -0.003 C 
ATOM     16  C   UNL     1     138.864 139.059 155.219  1.00  0.00     0.004 C 
ENDBRANCH  14  15
ENDBRANCH  13  14
ENDBRANCH  12  13
ENDBRANCH  11  12
ENDBRANCH  10  11
ENDBRANCH   9  10
ENDBRANCH   8   9
ENDBRANCH   7   8
ENDBRANCH   6   7
ENDBRANCH   5   6
ENDBRANCH   4   5
ENDBRANCH   3   4
ENDBRANCH   2   3
ENDBRANCH   1   2
BRANCH   1  17
ATOM     17  C   UNL     1     144.321 140.571 154.403  1.00  0.00     0.000 C 
BRANCH  17  18
ATOM     18  C   UNL     1     145.170 141.614 153.661  1.00  0.00     0.000 C 
BRANCH  18  19
ATOM     19  C   UNL     1     144.933 143.051 154.165  1.00  0.00     0.000 C 
BRANCH  19  20
ATOM     20  C   UNL     1     144.243 143.995 153.157  1.00  0.00     0.000 C 
BRANCH  20  21
ATOM     21  C   UNL     1     142.760 144.278 153.466  1.00  0.00     0.000 C 
BRANCH  21  22
ATOM     22  C   UNL     1     142.300 143.645 154.795  1.00  0.00     0.000 C 
BRANCH  22  23
ATOM     23  C   UNL     1     141.219 142.568 154.589  1.00  0.00     0.000 C 
BRANCH  23  24
ATOM     24  C   UNL     1     140.892 142.285 153.108  1.00  0.00     0.000 C 
BRANCH  24  25
ATOM     25  C   UNL     1     140.895 140.793 152.714  1.00  0.00     0.000 C 
BRANCH  25  26
ATOM     26  C   UNL     1     141.893 140.453 151.589  1.00  0.00     0.000 C 
BRANCH  26  27
ATOM     27  C   UNL     1     142.392 141.708 150.851  1.00  0.00     0.002 C 
BRANCH  27  28
ATOM     28  C   UNL     1     143.811 141.534 150.281  1.00  0.00     0.028 C 
BRANCH  28  29
ATOM     29  C   UNL     1     143.930 140.371 149.290  1.00  0.00     0.156 C 
BRANCH  29  30
ATOM     30  O   UNL     1     144.717 140.730 148.185  1.00  0.00    -0.396 OA
ATOM     31  H   UNL     1     144.110 140.748 147.399  1.00  0.00     0.210 HD
ENDBRANCH  29  30
ENDBRANCH  28  29
ENDBRANCH  27  28
ENDBRANCH  26  27
ENDBRANCH  25  26
ENDBRANCH  24  25
ENDBRANCH  23  24
ENDBRANCH  22  23
ENDBRANCH  21  22
ENDBRANCH  20  21
ENDBRANCH  19  20
ENDBRANCH  18  19
ENDBRANCH  17  18
ENDBRANCH   1  17
TORSDOF 28
ENDMDL
MODEL 5
REMARK VINA RESULT:     0.045      9.273     13.079
REMARK INTER + INTRA:          -7.107
REMARK INTER:                   0.000
REMARK INTRA:                  -7.107
REMARK UNBOUND:                -7.225
REMARK SMILES CCCCCCCCCCCCCCCCCCCCCCCCCCCCCO
REMARK SMILES IDX 16 1 15 2 14 3 13 4 12 5 11 6 10 7 9 8 8 9 7 10 6 11 5 12
REMARK SMILES IDX 4 13 3 14 2 15 1 16 17 17 18 18 19 19 20 20 21 21 22 22
REMARK SMILES IDX 23 23 24 24 25 25 26 26 27 27 28 28 29 29 30 30
REMARK H PARENT 30 31
REMARK Flexibility Score: inf
ROOT
ATOM      1  C   UNL     1     134.055 138.923 140.382  1.00  0.00     0.000 C 
ENDROOT
BRANCH   1   2
ATOM      2  C   UNL     1     132.967 139.304 141.394  1.00  0.00     0.000 C 
BRANCH   2   3
ATOM      3  C   UNL     1     132.427 138.064 142.121  1.00  0.00     0.000 C 
BRANCH   3   4
ATOM      4  C   UNL     1     132.349 138.298 143.634  1.00  0.00     0.000 C 
BRANCH   4   5
ATOM      5  C   UNL     1     132.894 137.086 144.408  1.00  0.00     0.000 C 
BRANCH   5   6
ATOM      6  C   UNL     1     133.598 137.492 145.713  1.00  0.00     0.000 C 
BRANCH   6   7
ATOM      7  C   UNL     1     132.978 138.746 146.354  1.00  0.00     0.000 C 
BRANCH   7   8
ATOM      8  C   UNL     1     133.931 139.439 147.347  1.00  0.00    -0.000 C 
BRANCH   8   9
ATOM      9  C   UNL     1     135.412 139.038 147.215  1.00  0.00    -0.000 C 
BRANCH   9  10
ATOM     10  C   UNL     1     136.404 140.216 147.186  1.00  0.00    -0.000 C 
BRANCH  10  11
ATOM     11  C   UNL     1     135.724 141.599 147.256  1.00  0.00    -0.000 C 
BRANCH  11  12
ATOM     12  C   UNL     1     136.126 142.515 146.087  1.00  0.00    -0.000 C 
BRANCH  12  13
ATOM     13  C   UNL     1     134.972 143.410 145.608  1.00  0.00    -0.000 C 
BRANCH  13  14
ATOM     14  C   UNL     1     133.615 142.688 145.645  1.00  0.00    -0.000 C 
BRANCH  14  15
ATOM     15  C   UNL     1     133.365 141.834 144.391  1.00  0.00    -0.003 C 
ATOM     16  C   UNL     1     131.946 141.985 143.842  1.00  0.00     0.004 C 
ENDBRANCH  14  15
ENDBRANCH  13  14
ENDBRANCH  12  13
ENDBRANCH  11  12
ENDBRANCH  10  11
ENDBRANCH   9  10
ENDBRANCH   8   9
ENDBRANCH   7   8
ENDBRANCH   6   7
ENDBRANCH   5   6
ENDBRANCH   4   5
ENDBRANCH   3   4
ENDBRANCH   2   3
ENDBRANCH   1   2
BRANCH   1  17
ATOM     17  C   UNL     1     134.593 137.512 140.654  1.00  0.00     0.000 C 
BRANCH  17  18
ATOM     18  C   UNL     1     136.026 137.567 141.203  1.00  0.00     0.000 C 
BRANCH  18  19
ATOM     19  C   UNL     1     136.130 137.096 142.666  1.00  0.00     0.000 C 
BRANCH  19  20
ATOM     20  C   UNL     1     136.645 138.156 143.664  1.00  0.00     0.000 C 
BRANCH  20  21
ATOM     21  C   UNL     1     135.930 139.517 143.568  1.00  0.00     0.000 C 
BRANCH  21  22
ATOM     22  C   UNL     1     136.885 140.663 143.175  1.00  0.00     0.000 C 
BRANCH  22  23
ATOM     23  C   UNL     1     136.578 141.230 141.777  1.00  0.00     0.000 C 
BRANCH  23  24
ATOM     24  C   UNL     1     135.822 142.575 141.800  1.00  0.00     0.000 C 
BRANCH  24  25
ATOM     25  C   UNL     1     134.543 142.617 140.939  1.00  0.00     0.000 C 
BRANCH  25  26
ATOM     26  C   UNL     1     133.727 143.915 141.107  1.00  0.00     0.000 C 
BRANCH  26  27
ATOM     27  C   UNL     1     134.264 144.800 142.246  1.00  0.00     0.002 C 
BRANCH  27  28
ATOM     28  C   UNL     1     133.139 145.475 143.051  1.00  0.00     0.028 C 
BRANCH  28  29
ATOM     29  C   UNL     1     133.646 146.552 144.018  1.00  0.00     0.156 C 
BRANCH  29  30
ATOM     30  O   UNL     1     135.038 146.701 143.918  1.00  0.00    -0.396 OA
ATOM     31  H   UNL     1     135.324 146.172 143.127  1.00  0.00     0.210 HD
ENDBRANCH  29  30
ENDBRANCH  28  29
ENDBRANCH  27  28
ENDBRANCH  26  27
ENDBRANCH  25  26
ENDBRANCH  24  25
ENDBRANCH  23  24
ENDBRANCH  22  23
ENDBRANCH  21  22
ENDBRANCH  20  21
ENDBRANCH  19  20
ENDBRANCH  18  19
ENDBRANCH  17  18
ENDBRANCH   1  17
TORSDOF 28
ENDMDL
MODEL 6
REMARK VINA RESULT:     0.050      4.408      7.264
REMARK INTER + INTRA:          -7.094
REMARK INTER:                   0.000
REMARK INTRA:                  -7.094
REMARK UNBOUND:                -7.225
REMARK SMILES CCCCCCCCCCCCCCCCCCCCCCCCCCCCCO
REMARK SMILES IDX 16 1 15 2 14 3 13 4 12 5 11 6 10 7 9 8 8 9 7 10 6 11 5 12
REMARK SMILES IDX 4 13 3 14 2 15 1 16 17 17 18 18 19 19 20 20 21 21 22 22
REMARK SMILES IDX 23 23 24 24 25 25 26 26 27 27 28 28 29 29 30 30
REMARK H PARENT 30 31
REMARK Flexibility Score: inf
ROOT
ATOM      1  C   UNL     1     140.033 141.941 151.501  1.00  0.00     0.000 C 
ENDROOT
BRANCH   1   2
ATOM      2  C   UNL     1     140.740 142.748 152.598  1.00  0.00     0.000 C 
BRANCH   2   3
ATOM      3  C   UNL     1     142.009 142.034 153.081  1.00  0.00     0.000 C 
BRANCH   3   4
ATOM      4  C   UNL     1     142.070 140.596 152.554  1.00  0.00     0.000 C 
BRANCH   4   5
ATOM      5  C   UNL     1     142.770 139.668 153.563  1.00  0.00     0.000 C 
BRANCH   5   6
ATOM      6  C   UNL     1     142.653 138.185 153.175  1.00  0.00     0.000 C 
BRANCH   6   7
ATOM      7  C   UNL     1     141.717 137.960 151.974  1.00  0.00     0.000 C 
BRANCH   7   8
ATOM      8  C   UNL     1     140.379 137.310 152.377  1.00  0.00    -0.000 C 
BRANCH   8   9
ATOM      9  C   UNL     1     139.122 138.094 151.953  1.00  0.00    -0.000 C 
BRANCH   9  10
ATOM     10  C   UNL     1     138.236 138.576 153.117  1.00  0.00    -0.000 C 
BRANCH  10  11
ATOM     11  C   UNL     1     138.990 139.432 154.157  1.00  0.00    -0.000 C 
BRANCH  11  12
ATOM     12  C   UNL     1     138.234 140.722 154.519  1.00  0.00    -0.000 C 
BRANCH  12  13
ATOM     13  C   UNL     1     136.745 140.666 154.143  1.00  0.00    -0.000 C 
BRANCH  13  14
ATOM     14  C   UNL     1     136.140 142.063 153.929  1.00  0.00    -0.000 C 
BRANCH  14  15
ATOM     15  C   UNL     1     137.209 143.132 153.647  1.00  0.00    -0.003 C 
ATOM     16  C   UNL     1     136.747 144.182 152.636  1.00  0.00     0.004 C 
ENDBRANCH  14  15
ENDBRANCH  13  14
ENDBRANCH  12  13
ENDBRANCH  11  12
ENDBRANCH  10  11
ENDBRANCH   9  10
ENDBRANCH   8   9
ENDBRANCH   7   8
ENDBRANCH   6   7
ENDBRANCH   5   6
ENDBRANCH   4   5
ENDBRANCH   3   4
ENDBRANCH   2   3
ENDBRANCH   1   2
BRANCH   1  17
ATOM     17  C   UNL     1     139.553 142.855 150.366  1.00  0.00     0.000 C 
BRANCH  17  18
ATOM     18  C   UNL     1     138.266 142.309 149.729  1.00  0.00     0.000 C 
BRANCH  18  19
ATOM     19  C   UNL     1     137.667 141.120 150.505  1.00  0.00     0.000 C 
BRANCH  19  20
ATOM     20  C   UNL     1     136.130 140.997 150.436  1.00  0.00     0.000 C 
BRANCH  20  21
ATOM     21  C   UNL     1     135.602 139.556 150.573  1.00  0.00     0.000 C 
BRANCH  21  22
ATOM     22  C   UNL     1     136.275 138.581 149.585  1.00  0.00     0.000 C 
BRANCH  22  23
ATOM     23  C   UNL     1     135.874 138.855 148.124  1.00  0.00     0.000 C 
BRANCH  23  24
ATOM     24  C   UNL     1     137.062 139.217 147.206  1.00  0.00     0.000 C 
BRANCH  24  25
ATOM     25  C   UNL     1     138.411 138.588 147.610  1.00  0.00     0.000 C 
BRANCH  25  26
ATOM     26  C   UNL     1     139.581 139.592 147.628  1.00  0.00     0.000 C 
BRANCH  26  27
ATOM     27  C   UNL     1     140.513 139.382 148.835  1.00  0.00     0.002 C 
BRANCH  27  28
ATOM     28  C   UNL     1     141.796 140.228 148.747  1.00  0.00     0.028 C 
BRANCH  28  29
ATOM     29  C   UNL     1     143.079 139.392 148.810  1.00  0.00     0.156 C 
BRANCH  29  30
ATOM     30  O   UNL     1     144.022 139.984 149.665  1.00  0.00    -0.396 OA
ATOM     31  H   UNL     1     143.681 139.863 150.590  1.00  0.00     0.210 HD
ENDBRANCH  29  30
ENDBRANCH  28  29
ENDBRANCH  27  28
ENDBRANCH  26  27
ENDBRANCH  25  26
ENDBRANCH  24  25
ENDBRANCH  23  24
ENDBRANCH  22  23
ENDBRANCH  21  22
ENDBRANCH  20  21
ENDBRANCH  19  20
ENDBRANCH  18  19
ENDBRANCH  17  18
ENDBRANCH   1  17
TORSDOF 28
ENDMDL
MODEL 7
REMARK VINA RESULT:     0.054      7.612     11.087
REMARK INTER + INTRA:          -7.084
REMARK INTER:                   0.000
REMARK INTRA:                  -7.084
REMARK UNBOUND:                -7.225
REMARK SMILES CCCCCCCCCCCCCCCCCCCCCCCCCCCCCO
REMARK SMILES IDX 16 1 15 2 14 3 13 4 12 5 11 6 10 7 9 8 8 9 7 10 6 11 5 12
REMARK SMILES IDX 4 13 3 14 2 15 1 16 17 17 18 18 19 19 20 20 21 21 22 22
REMARK SMILES IDX 23 23 24 24 25 25 26 26 27 27 28 28 29 29 30 30
REMARK H PARENT 30 31
REMARK Flexibility Score: inf
ROOT
ATOM      1  C   UNL     1     147.009 139.075 151.978  1.00  0.00     0.000 C 
ENDROOT
BRANCH   1   2
ATOM      2  C   UNL     1     147.317 140.195 152.979  1.00  0.00     0.000 C 
BRANCH   2   3
ATOM      3  C   UNL     1     148.830 140.360 153.179  1.00  0.00     0.000 C 
BRANCH   3   4
ATOM      4  C   UNL     1     149.179 141.788 153.613  1.00  0.00     0.000 C 
BRANCH   4   5
ATOM      5  C   UNL     1     148.231 142.810 152.961  1.00  0.00     0.000 C 
BRANCH   5   6
ATOM      6  C   UNL     1     147.560 143.730 153.994  1.00  0.00     0.000 C 
BRANCH   6   7
ATOM      7  C   UNL     1     146.023 143.682 153.917  1.00  0.00     0.000 C 
BRANCH   7   8
ATOM      8  C   UNL     1     145.394 142.903 155.089  1.00  0.00    -0.000 C 
BRANCH   8   9
ATOM      9  C   UNL     1     146.377 142.502 156.205  1.00  0.00    -0.000 C 
BRANCH   9  10
ATOM     10  C   UNL     1     146.470 140.988 156.475  1.00  0.00    -0.000 C 
BRANCH  10  11
ATOM     11  C   UNL     1     147.888 140.514 156.857  1.00  0.00    -0.000 C 
BRANCH  11  12
ATOM     12  C   UNL     1     148.099 139.012 156.596  1.00  0.00    -0.000 C 
BRANCH  12  13
ATOM     13  C   UNL     1     146.799 138.287 156.213  1.00  0.00    -0.000 C 
BRANCH  13  14
ATOM     14  C   UNL     1     147.031 137.174 155.176  1.00  0.00    -0.000 C 
BRANCH  14  15
ATOM     15  C   UNL     1     148.518 136.989 154.833  1.00  0.00    -0.003 C 
ATOM     16  C   UNL     1     148.736 136.168 153.561  1.00  0.00     0.004 C 
ENDBRANCH  14  15
ENDBRANCH  13  14
ENDBRANCH  12  13
ENDBRANCH  11  12
ENDBRANCH  10  11
ENDBRANCH   9  10
ENDBRANCH   8   9
ENDBRANCH   7   8
ENDBRANCH   6   7
ENDBRANCH   5   6
ENDBRANCH   4   5
ENDBRANCH   3   4
ENDBRANCH   2   3
ENDBRANCH   1   2
BRANCH   1  17
ATOM     17  C   UNL     1     148.178 138.867 151.005  1.00  0.00     0.000 C 
BRANCH  17  18
ATOM     18  C   UNL     1     147.851 139.449 149.622  1.00  0.00     0.000 C 
BRANCH  18  19
ATOM     19  C   UNL     1     148.516 140.816 149.371  1.00  0.00     0.000 C 
BRANCH  19  20
ATOM     20  C   UNL     1     147.593 142.040 149.554  1.00  0.00     0.000 C 
BRANCH  20  21
ATOM     21  C   UNL     1     146.089 141.723 149.443  1.00  0.00     0.000 C 
BRANCH  21  22
ATOM     22  C   UNL     1     145.271 142.315 150.608  1.00  0.00     0.000 C 
BRANCH  22  23
ATOM     23  C   UNL     1     144.228 141.324 151.157  1.00  0.00     0.000 C 
BRANCH  23  24
ATOM     24  C   UNL     1     143.230 141.953 152.152  1.00  0.00     0.000 C 
BRANCH  24  25
ATOM     25  C   UNL     1     142.736 141.007 153.265  1.00  0.00     0.000 C 
BRANCH  25  26
ATOM     26  C   UNL     1     143.753 139.912 153.643  1.00  0.00     0.000 C 
BRANCH  26  27
ATOM     27  C   UNL     1     143.437 139.266 155.005  1.00  0.00     0.002 C 
BRANCH  27  28
ATOM     28  C   UNL     1     142.862 140.273 156.018  1.00  0.00     0.028 C 
BRANCH  28  29
ATOM     29  C   UNL     1     141.563 139.796 156.677  1.00  0.00     0.156 C 
BRANCH  29  30
ATOM     30  O   UNL     1     141.423 138.405 156.562  1.00  0.00    -0.396 OA
ATOM     31  H   UNL     1     140.482 138.194 156.803  1.00  0.00     0.210 HD
ENDBRANCH  29  30
ENDBRANCH  28  29
ENDBRANCH  27  28
ENDBRANCH  26  27
ENDBRANCH  25  26
ENDBRANCH  24  25
ENDBRANCH  23  24
ENDBRANCH  22  23
ENDBRANCH  21  22
ENDBRANCH  20  21
ENDBRANCH  19  20
ENDBRANCH  18  19
ENDBRANCH  17  18
ENDBRANCH   1  17
TORSDOF 28
ENDMDL
MODEL 8
REMARK VINA RESULT:     0.055      2.524      6.235
REMARK INTER + INTRA:          -7.082
REMARK INTER:                   0.000
REMARK INTRA:                  -7.082
REMARK UNBOUND:                -7.225
REMARK SMILES CCCCCCCCCCCCCCCCCCCCCCCCCCCCCO
REMARK SMILES IDX 16 1 15 2 14 3 13 4 12 5 11 6 10 7 9 8 8 9 7 10 6 11 5 12
REMARK SMILES IDX 4 13 3 14 2 15 1 16 17 17 18 18 19 19 20 20 21 21 22 22
REMARK SMILES IDX 23 23 24 24 25 25 26 26 27 27 28 28 29 29 30 30
REMARK H PARENT 30 31
REMARK Flexibility Score: inf
ROOT
ATOM      1  C   UNL     1     137.026 142.484 152.822  1.00  0.00     0.000 C 
ENDROOT
BRANCH   1   2
ATOM      2  C   UNL     1     138.196 141.722 152.186  1.00  0.00     0.000 C 
BRANCH   2   3
ATOM      3  C   UNL     1     139.400 142.647 151.958  1.00  0.00     0.000 C 
BRANCH   3   4
ATOM      4  C   UNL     1     140.721 141.901 152.181  1.00  0.00     0.000 C 
BRANCH   4   5
ATOM      5  C   UNL     1     140.473 140.514 152.797  1.00  0.00     0.000 C 
BRANCH   5   6
ATOM      6  C   UNL     1     141.754 139.894 153.381  1.00  0.00     0.000 C 
BRANCH   6   7
ATOM      7  C   UNL     1     141.468 138.957 154.568  1.00  0.00     0.000 C 
BRANCH   7   8
ATOM      8  C   UNL     1     139.994 138.512 154.633  1.00  0.00    -0.000 C 
BRANCH   8   9
ATOM      9  C   UNL     1     139.289 138.794 155.973  1.00  0.00    -0.000 C 
BRANCH   9  10
ATOM     10  C   UNL     1     140.100 139.649 156.966  1.00  0.00    -0.000 C 
BRANCH  10  11
ATOM     11  C   UNL     1     139.490 141.043 157.224  1.00  0.00    -0.000 C 
BRANCH  11  12
ATOM     12  C   UNL     1     138.897 141.673 155.952  1.00  0.00    -0.000 C 
BRANCH  12  13
ATOM     13  C   UNL     1     139.561 143.010 155.585  1.00  0.00    -0.000 C 
BRANCH  13  14
ATOM     14  C   UNL     1     140.870 143.247 156.357  1.00  0.00    -0.000 C 
BRANCH  14  15
ATOM     15  C   UNL     1     142.117 142.963 155.503  1.00  0.00    -0.003 C 
ATOM     16  C   UNL     1     143.076 141.972 156.164  1.00  0.00     0.004 C 
ENDBRANCH  14  15
ENDBRANCH  13  14
ENDBRANCH  12  13
ENDBRANCH  11  12
ENDBRANCH  10  11
ENDBRANCH   9  10
ENDBRANCH   8   9
ENDBRANCH   7   8
ENDBRANCH   6   7
ENDBRANCH   5   6
ENDBRANCH   4   5
ENDBRANCH   3   4
ENDBRANCH   2   3
ENDBRANCH   1   2
BRANCH   1  17
ATOM     17  C   UNL     1     136.077 141.526 153.555  1.00  0.00     0.000 C 
BRANCH  17  18
ATOM     18  C   UNL     1     136.617 140.088 153.524  1.00  0.00     0.000 C 
BRANCH  18  19
ATOM     19  C   UNL     1     135.970 139.178 154.586  1.00  0.00     0.000 C 
BRANCH  19  20
ATOM     20  C   UNL     1     135.223 139.918 155.718  1.00  0.00     0.000 C 
BRANCH  20  21
ATOM     21  C   UNL     1     135.883 139.788 157.104  1.00  0.00     0.000 C 
BRANCH  21  22
ATOM     22  C   UNL     1     135.812 141.096 157.919  1.00  0.00     0.000 C 
BRANCH  22  23
ATOM     23  C   UNL     1     135.147 142.242 157.134  1.00  0.00     0.000 C 
BRANCH  23  24
ATOM     24  C   UNL     1     135.976 143.543 157.105  1.00  0.00     0.000 C 
BRANCH  24  25
ATOM     25  C   UNL     1     135.786 144.408 155.842  1.00  0.00     0.000 C 
BRANCH  25  26
ATOM     26  C   UNL     1     136.911 145.440 155.624  1.00  0.00     0.000 C 
BRANCH  26  27
ATOM     27  C   UNL     1     136.966 145.945 154.171  1.00  0.00     0.002 C 
BRANCH  27  28
ATOM     28  C   UNL     1     138.388 145.902 153.583  1.00  0.00     0.028 C 
BRANCH  28  29
ATOM     29  C   UNL     1     138.443 146.276 152.097  1.00  0.00     0.156 C 
BRANCH  29  30
ATOM     30  O   UNL     1     137.281 146.960 151.709  1.00  0.00    -0.396 OA
ATOM     31  H   UNL     1     137.509 147.928 151.708  1.00  0.00     0.210 HD
ENDBRANCH  29  30
ENDBRANCH  28  29
ENDBRANCH  27  28
ENDBRANCH  26  27
ENDBRANCH  25  26
ENDBRANCH  24  25
ENDBRANCH  23  24
ENDBRANCH  22  23
ENDBRANCH  21  22
ENDBRANCH  20  21
ENDBRANCH  19  20
ENDBRANCH  18  19
ENDBRANCH  17  18
ENDBRANCH   1  17
TORSDOF 28
ENDMDL
MODEL 9
REMARK VINA RESULT:     0.055      8.932     12.435
REMARK INTER + INTRA:          -7.082
REMARK INTER:                   0.000
REMARK INTRA:                  -7.082
REMARK UNBOUND:                -7.225
REMARK SMILES CCCCCCCCCCCCCCCCCCCCCCCCCCCCCO
REMARK SMILES IDX 16 1 15 2 14 3 13 4 12 5 11 6 10 7 9 8 8 9 7 10 6 11 5 12
REMARK SMILES IDX 4 13 3 14 2 15 1 16 17 17 18 18 19 19 20 20 21 21 22 22
REMARK SMILES IDX 23 23 24 24 25 25 26 26 27 27 28 28 29 29 30 30
REMARK H PARENT 30 31
REMARK Flexibility Score: inf
ROOT
ATOM      1  C   UNL     1     136.720 137.332 141.069  1.00  0.00     0.000 C 
ENDROOT
BRANCH   1   2
ATOM      2  C   UNL     1     135.632 137.713 142.081  1.00  0.00     0.000 C 
BRANCH   2   3
ATOM      3  C   UNL     1     135.112 136.476 142.827  1.00  0.00     0.000 C 
BRANCH   3   4
ATOM      4  C   UNL     1     135.019 136.737 144.334  1.00  0.00     0.000 C 
BRANCH   4   5
ATOM      5  C   UNL     1     135.560 135.540 145.136  1.00  0.00     0.000 C 
BRANCH   5   6
ATOM      6  C   UNL     1     136.278 135.973 146.424  1.00  0.00     0.000 C 
BRANCH   6   7
ATOM      7  C   UNL     1     135.647 137.224 147.061  1.00  0.00     0.000 C 
BRANCH   7   8
ATOM      8  C   UNL     1     136.597 137.934 148.045  1.00  0.00    -0.000 C 
BRANCH   8   9
ATOM      9  C   UNL     1     138.077 137.525 147.929  1.00  0.00    -0.000 C 
BRANCH   9  10
ATOM     10  C   UNL     1     139.072 138.699 147.861  1.00  0.00    -0.000 C 
BRANCH  10  11
ATOM     11  C   UNL     1     138.398 140.086 147.925  1.00  0.00    -0.000 C 
BRANCH  11  12
ATOM     12  C   UNL     1     138.778 140.983 146.735  1.00  0.00    -0.000 C 
BRANCH  12  13
ATOM     13  C   UNL     1     137.622 141.886 146.277  1.00  0.00    -0.000 C 
BRANCH  13  14
ATOM     14  C   UNL     1     136.265 141.162 146.302  1.00  0.00    -0.000 C 
BRANCH  14  15
ATOM     15  C   UNL     1     136.042 140.285 145.059  1.00  0.00    -0.003 C 
ATOM     16  C   UNL     1     134.626 140.404 144.494  1.00  0.00     0.004 C 
ENDBRANCH  14  15
ENDBRANCH  13  14
ENDBRANCH  12  13
ENDBRANCH  11  12
ENDBRANCH  10  11
ENDBRANCH   9  10
ENDBRANCH   8   9
ENDBRANCH   7   8
ENDBRANCH   6   7
ENDBRANCH   5   6
ENDBRANCH   4   5
ENDBRANCH   3   4
ENDBRANCH   2   3
ENDBRANCH   1   2
BRANCH   1  17
ATOM     17  C   UNL     1     137.258 135.921 141.340  1.00  0.00     0.000 C 
BRANCH  17  18
ATOM     18  C   UNL     1     138.689 135.977 141.898  1.00  0.00     0.000 C 
BRANCH  18  19
ATOM     19  C   UNL     1     138.780 135.529 143.369  1.00  0.00     0.000 C 
BRANCH  19  20
ATOM     20  C   UNL     1     139.300 136.600 144.352  1.00  0.00     0.000 C 
BRANCH  20  21
ATOM     21  C   UNL     1     138.585 137.960 144.243  1.00  0.00     0.000 C 
BRANCH  21  22
ATOM     22  C   UNL     1     139.543 139.103 143.847  1.00  0.00     0.000 C 
BRANCH  22  23
ATOM     23  C   UNL     1     139.247 139.656 142.441  1.00  0.00     0.000 C 
BRANCH  23  24
ATOM     24  C   UNL     1     138.503 141.008 142.444  1.00  0.00     0.000 C 
BRANCH  24  25
ATOM     25  C   UNL     1     137.218 141.047 141.593  1.00  0.00     0.000 C 
BRANCH  25  26
ATOM     26  C   UNL     1     136.423 142.361 141.732  1.00  0.00     0.000 C 
BRANCH  26  27
ATOM     27  C   UNL     1     136.940 143.238 142.887  1.00  0.00     0.002 C 
BRANCH  27  28
ATOM     28  C   UNL     1     135.801 143.904 143.679  1.00  0.00     0.028 C 
BRANCH  28  29
ATOM     29  C   UNL     1     136.289 144.983 144.653  1.00  0.00     0.156 C 
BRANCH  29  30
ATOM     30  O   UNL     1     137.677 145.161 144.551  1.00  0.00    -0.396 OA
ATOM     31  H   UNL     1     137.971 144.643 143.755  1.00  0.00     0.210 HD
ENDBRANCH  29  30
ENDBRANCH  28  29
ENDBRANCH  27  28
ENDBRANCH  26  27
ENDBRANCH  25  26
ENDBRANCH  24  25
ENDBRANCH  23  24
ENDBRANCH  22  23
ENDBRANCH  21  22
ENDBRANCH  20  21
ENDBRANCH  19  20
ENDBRANCH  18  19
ENDBRANCH  17  18
ENDBRANCH   1  17
TORSDOF 28
ENDMDL
