MODEL 1
REMARK VINA RESULT:    -4.340      0.000      0.000
REMARK INTER + INTRA:          -4.692
REMARK INTER:                  -4.594
REMARK INTRA:                  -0.098
REMARK UNBOUND:                -0.098
REMARK SMILES C=C(C)[C@@H]1CC=C(C)C(=O)C1
REMARK SMILES IDX 8 1 7 2 6 3 5 4 4 5 11 6 9 7 10 8 2 9 1 10 3 11
REMARK H PARENT
REMARK Flexibility Score: inf
ROOT
ATOM      1  C   UNL     1     166.217 201.611 301.033  1.00  0.00     0.048 C 
ATOM      2  C   UNL     1     165.928 200.997 302.376  1.00  0.00    -0.012 C 
ATOM      3  C   UNL     1     165.250 201.699 303.301  1.00  0.00    -0.019 C 
ATOM      4  C   UNL     1     164.919 201.125 304.653  1.00  0.00     0.036 C 
ATOM      5  C   UNL     1     166.015 200.152 305.127  1.00  0.00     0.025 C 
ATOM      6  C   UNL     1     166.251 199.057 304.071  1.00  0.00     0.089 C 
ATOM      7  C   UNL     1     166.497 199.670 302.720  1.00  0.00     0.158 C 
ATOM      8  O   UNL     1     167.164 199.025 301.865  1.00  0.00    -0.295 OA
ENDROOT
BRANCH   5   9
ATOM      9  C   UNL     1     165.688 199.557 306.490  1.00  0.00    -0.077 C 
ATOM     10  C   UNL     1     166.100 198.325 306.832  1.00  0.00     0.008 C 
ATOM     11  C   UNL     1     164.886 200.352 307.489  1.00  0.00     0.039 C 
ENDBRANCH   5   9
TORSDOF 1
ENDMDL
MODEL 2
REMARK VINA RESULT:    -4.257      1.852      4.805
REMARK INTER + INTRA:          -4.604
REMARK INTER:                  -4.506
REMARK INTRA:                  -0.098
REMARK UNBOUND:                -0.098
REMARK SMILES C=C(C)[C@@H]1CC=C(C)C(=O)C1
REMARK SMILES IDX 8 1 7 2 6 3 5 4 4 5 11 6 9 7 10 8 2 9 1 10 3 11
REMARK H PARENT
REMARK Flexibility Score: inf
ROOT
ATOM      1  C   UNL     1     165.643 199.745 306.859  1.00  0.00     0.048 C 
ATOM      2  C   UNL     1     165.768 199.829 305.362  1.00  0.00    -0.012 C 
ATOM      3  C   UNL     1     166.603 199.000 304.714  1.00  0.00    -0.019 C 
ATOM      4  C   UNL     1     166.753 199.029 303.215  1.00  0.00     0.036 C 
ATOM      5  C   UNL     1     166.561 200.455 302.666  1.00  0.00     0.025 C 
ATOM      6  C   UNL     1     165.209 201.028 303.129  1.00  0.00     0.089 C 
ATOM      7  C   UNL     1     165.065 200.906 304.621  1.00  0.00     0.158 C 
ATOM      8  O   UNL     1     164.308 201.707 305.233  1.00  0.00    -0.295 OA
ENDROOT
BRANCH   5   9
ATOM      9  C   UNL     1     166.701 200.498 301.150  1.00  0.00    -0.077 C 
ATOM     10  C   UNL     1     166.098 201.451 300.419  1.00  0.00     0.008 C 
ATOM     11  C   UNL     1     167.527 199.458 300.438  1.00  0.00     0.039 C 
ENDBRANCH   5   9
TORSDOF 1
ENDMDL
MODEL 3
REMARK VINA RESULT:    -4.234      1.826      4.711
REMARK INTER + INTRA:          -4.579
REMARK INTER:                  -4.484
REMARK INTRA:                  -0.095
REMARK UNBOUND:                -0.098
REMARK SMILES C=C(C)[C@@H]1CC=C(C)C(=O)C1
REMARK SMILES IDX 8 1 7 2 6 3 5 4 4 5 11 6 9 7 10 8 2 9 1 10 3 11
REMARK H PARENT
REMARK Flexibility Score: inf
ROOT
ATOM      1  C   UNL     1     165.660 199.686 306.795  1.00  0.00     0.048 C 
ATOM      2  C   UNL     1     165.780 199.793 305.299  1.00  0.00    -0.012 C 
ATOM      3  C   UNL     1     166.612 198.973 304.634  1.00  0.00    -0.019 C 
ATOM      4  C   UNL     1     166.757 199.026 303.136  1.00  0.00     0.036 C 
ATOM      5  C   UNL     1     166.567 200.462 302.610  1.00  0.00     0.025 C 
ATOM      6  C   UNL     1     165.217 201.029 303.087  1.00  0.00     0.089 C 
ATOM      7  C   UNL     1     165.078 200.884 304.577  1.00  0.00     0.158 C 
ATOM      8  O   UNL     1     164.324 201.677 305.204  1.00  0.00    -0.295 OA
ENDROOT
BRANCH   5   9
ATOM      9  C   UNL     1     166.702 200.528 301.095  1.00  0.00    -0.077 C 
ATOM     10  C   UNL     1     167.454 199.642 300.421  1.00  0.00     0.008 C 
ATOM     11  C   UNL     1     165.984 201.603 300.319  1.00  0.00     0.039 C 
ENDBRANCH   5   9
TORSDOF 1
ENDMDL
MODEL 4
REMARK VINA RESULT:    -3.973      1.748      3.162
REMARK INTER + INTRA:          -4.303
REMARK INTER:                  -4.208
REMARK INTRA:                  -0.095
REMARK UNBOUND:                -0.098
REMARK SMILES C=C(C)[C@@H]1CC=C(C)C(=O)C1
REMARK SMILES IDX 8 1 7 2 6 3 5 4 4 5 11 6 9 7 10 8 2 9 1 10 3 11
REMARK H PARENT
REMARK Flexibility Score: inf
ROOT
ATOM      1  C   UNL     1     167.753 200.215 299.099  1.00  0.00     0.048 C 
ATOM      2  C   UNL     1     167.256 200.420 300.504  1.00  0.00    -0.012 C 
ATOM      3  C   UNL     1     167.016 199.357 301.291  1.00  0.00    -0.019 C 
ATOM      4  C   UNL     1     166.535 199.507 302.710  1.00  0.00     0.036 C 
ATOM      5  C   UNL     1     165.640 200.752 302.864  1.00  0.00     0.025 C 
ATOM      6  C   UNL     1     166.380 202.006 302.363  1.00  0.00     0.089 C 
ATOM      7  C   UNL     1     166.914 201.786 300.975  1.00  0.00     0.158 C 
ATOM      8  O   UNL     1     167.105 202.781 300.225  1.00  0.00    -0.295 OA
ENDROOT
BRANCH   5   9
ATOM      9  C   UNL     1     165.154 200.921 304.297  1.00  0.00    -0.077 C 
ATOM     10  C   UNL     1     164.267 201.875 304.627  1.00  0.00     0.008 C 
ATOM     11  C   UNL     1     165.667 200.009 305.382  1.00  0.00     0.039 C 
ENDBRANCH   5   9
TORSDOF 1
ENDMDL
MODEL 5
REMARK VINA RESULT:    -3.943      1.491      4.425
REMARK INTER + INTRA:          -4.271
REMARK INTER:                  -4.177
REMARK INTRA:                  -0.094
REMARK UNBOUND:                -0.098
REMARK SMILES C=C(C)[C@@H]1CC=C(C)C(=O)C1
REMARK SMILES IDX 8 1 7 2 6 3 5 4 4 5 11 6 9 7 10 8 2 9 1 10 3 11
REMARK H PARENT
REMARK Flexibility Score: inf
ROOT
ATOM      1  C   UNL     1     166.116 199.430 305.946  1.00  0.00     0.048 C 
ATOM      2  C   UNL     1     165.792 200.124 304.651  1.00  0.00    -0.012 C 
ATOM      3  C   UNL     1     164.931 201.156 304.642  1.00  0.00    -0.019 C 
ATOM      4  C   UNL     1     164.586 201.896 303.377  1.00  0.00     0.036 C 
ATOM      5  C   UNL     1     164.616 200.956 302.158  1.00  0.00     0.025 C 
ATOM      6  C   UNL     1     165.979 200.246 302.065  1.00  0.00     0.089 C 
ATOM      7  C   UNL     1     166.324 199.589 303.372  1.00  0.00     0.158 C 
ATOM      8  O   UNL     1     167.104 198.598 303.375  1.00  0.00    -0.295 OA
ENDROOT
BRANCH   5   9
ATOM      9  C   UNL     1     164.277 201.694 300.869  1.00  0.00    -0.077 C 
ATOM     10  C   UNL     1     165.227 202.316 300.149  1.00  0.00     0.008 C 
ATOM     11  C   UNL     1     162.854 201.739 300.377  1.00  0.00     0.039 C 
ENDBRANCH   5   9
TORSDOF 1
ENDMDL
MODEL 6
REMARK VINA RESULT:    -3.883     17.459     20.282
REMARK INTER + INTRA:          -4.208
REMARK INTER:                  -4.112
REMARK INTRA:                  -0.096
REMARK UNBOUND:                -0.098
REMARK SMILES C=C(C)[C@@H]1CC=C(C)C(=O)C1
REMARK SMILES IDX 8 1 7 2 6 3 5 4 4 5 11 6 9 7 10 8 2 9 1 10 3 11
REMARK H PARENT
REMARK Flexibility Score: inf
ROOT
ATOM      1  C   UNL     1     167.240 182.875 318.964  1.00  0.00     0.048 C 
ATOM      2  C   UNL     1     167.638 183.693 317.766  1.00  0.00    -0.012 C 
ATOM      3  C   UNL     1     167.631 183.135 316.543  1.00  0.00    -0.019 C 
ATOM      4  C   UNL     1     168.003 183.914 315.309  1.00  0.00     0.036 C 
ATOM      5  C   UNL     1     169.070 184.979 315.624  1.00  0.00     0.025 C 
ATOM      6  C   UNL     1     168.591 185.892 316.768  1.00  0.00     0.089 C 
ATOM      7  C   UNL     1     168.154 185.073 317.951  1.00  0.00     0.158 C 
ATOM      8  O   UNL     1     168.194 185.586 319.102  1.00  0.00    -0.295 OA
ENDROOT
BRANCH   5   9
ATOM      9  C   UNL     1     169.449 185.780 314.386  1.00  0.00    -0.077 C 
ATOM     10  C   UNL     1     169.124 187.079 314.268  1.00  0.00     0.008 C 
ATOM     11  C   UNL     1     170.201 185.120 313.260  1.00  0.00     0.039 C 
ENDBRANCH   5   9
TORSDOF 1
ENDMDL
MODEL 7
REMARK VINA RESULT:    -3.790      1.476      2.707
REMARK INTER + INTRA:          -4.109
REMARK INTER:                  -4.013
REMARK INTRA:                  -0.096
REMARK UNBOUND:                -0.098
REMARK SMILES C=C(C)[C@@H]1CC=C(C)C(=O)C1
REMARK SMILES IDX 8 1 7 2 6 3 5 4 4 5 11 6 9 7 10 8 2 9 1 10 3 11
REMARK H PARENT
REMARK Flexibility Score: inf
ROOT
ATOM      1  C   UNL     1     167.978 202.024 299.045  1.00  0.00     0.048 C 
ATOM      2  C   UNL     1     167.213 201.712 300.303  1.00  0.00    -0.012 C 
ATOM      3  C   UNL     1     166.776 202.713 301.085  1.00  0.00    -0.019 C 
ATOM      4  C   UNL     1     165.991 202.457 302.345  1.00  0.00     0.036 C 
ATOM      5  C   UNL     1     166.430 201.141 303.014  1.00  0.00     0.025 C 
ATOM      6  C   UNL     1     166.326 199.974 302.015  1.00  0.00     0.089 C 
ATOM      7  C   UNL     1     167.054 200.303 300.741  1.00  0.00     0.158 C 
ATOM      8  O   UNL     1     167.495 199.363 300.025  1.00  0.00    -0.295 OA
ENDROOT
BRANCH   5   9
ATOM      9  C   UNL     1     165.637 200.865 304.285  1.00  0.00    -0.077 C 
ATOM     10  C   UNL     1     164.537 201.574 304.591  1.00  0.00     0.008 C 
ATOM     11  C   UNL     1     166.081 199.779 305.231  1.00  0.00     0.039 C 
ENDBRANCH   5   9
TORSDOF 1
ENDMDL
MODEL 8
REMARK VINA RESULT:    -3.737      2.307      4.901
REMARK INTER + INTRA:          -4.053
REMARK INTER:                  -3.959
REMARK INTRA:                  -0.094
REMARK UNBOUND:                -0.098
REMARK SMILES C=C(C)[C@@H]1CC=C(C)C(=O)C1
REMARK SMILES IDX 8 1 7 2 6 3 5 4 4 5 11 6 9 7 10 8 2 9 1 10 3 11
REMARK H PARENT
REMARK Flexibility Score: inf
ROOT
ATOM      1  C   UNL     1     164.347 201.790 304.472  1.00  0.00     0.048 C 
ATOM      2  C   UNL     1     165.326 201.441 303.384  1.00  0.00    -0.012 C 
ATOM      3  C   UNL     1     165.877 202.416 302.642  1.00  0.00    -0.019 C 
ATOM      4  C   UNL     1     166.875 202.123 301.553  1.00  0.00     0.036 C 
ATOM      5  C   UNL     1     166.583 200.767 300.882  1.00  0.00     0.025 C 
ATOM      6  C   UNL     1     166.529 199.650 301.940  1.00  0.00     0.089 C 
ATOM      7  C   UNL     1     165.583 200.017 303.050  1.00  0.00     0.158 C 
ATOM      8  O   UNL     1     165.039 199.100 303.722  1.00  0.00    -0.295 OA
ENDROOT
BRANCH   5   9
ATOM      9  C   UNL     1     167.591 200.454 299.784  1.00  0.00    -0.077 C 
ATOM     10  C   UNL     1     167.944 201.378 298.875  1.00  0.00     0.008 C 
ATOM     11  C   UNL     1     168.214 199.085 299.700  1.00  0.00     0.039 C 
ENDBRANCH   5   9
TORSDOF 1
ENDMDL
MODEL 9
REMARK VINA RESULT:    -3.578      2.465      4.923
REMARK INTER + INTRA:          -3.885
REMARK INTER:                  -3.789
REMARK INTRA:                  -0.095
REMARK UNBOUND:                -0.098
REMARK SMILES C=C(C)[C@@H]1CC=C(C)C(=O)C1
REMARK SMILES IDX 8 1 7 2 6 3 5 4 4 5 11 6 9 7 10 8 2 9 1 10 3 11
REMARK H PARENT
REMARK Flexibility Score: inf
ROOT
ATOM      1  C   UNL     1     164.226 201.785 304.445  1.00  0.00     0.048 C 
ATOM      2  C   UNL     1     164.997 201.197 303.295  1.00  0.00    -0.012 C 
ATOM      3  C   UNL     1     165.701 200.065 303.470  1.00  0.00    -0.019 C 
ATOM      4  C   UNL     1     166.475 199.424 302.349  1.00  0.00     0.036 C 
ATOM      5  C   UNL     1     167.022 200.485 301.375  1.00  0.00     0.025 C 
ATOM      6  C   UNL     1     165.878 201.378 300.860  1.00  0.00     0.089 C 
ATOM      7  C   UNL     1     165.081 201.932 302.008  1.00  0.00     0.158 C 
ATOM      8  O   UNL     1     164.450 203.012 301.853  1.00  0.00    -0.295 OA
ENDROOT
BRANCH   5   9
ATOM      9  C   UNL     1     167.800 199.850 300.230  1.00  0.00    -0.077 C 
ATOM     10  C   UNL     1     168.468 198.696 300.395  1.00  0.00     0.008 C 
ATOM     11  C   UNL     1     167.832 200.516 298.879  1.00  0.00     0.039 C 
ENDBRANCH   5   9
TORSDOF 1
ENDMDL
