MODEL 1
REMARK VINA RESULT:    -3.388      0.000      0.000
REMARK INTER + INTRA:          -6.657
REMARK INTER:                  -5.368
REMARK INTRA:                  -1.289
REMARK UNBOUND:                -1.289
REMARK SMILES CCCCCCCCCCCC(=O)[O-]
REMARK SMILES IDX 7 1 8 2 9 3 10 4 11 5 12 6 13 7 14 8 6 9 5 10 4 11 3 12 2 13
REMARK SMILES IDX 1 14
REMARK H PARENT
REMARK Flexibility Score: inf
ROOT
ATOM      1  C   UNL     1     -43.624 -38.237  15.086  1.00  0.00     0.000 C 
ENDROOT
BRANCH   1   2
ATOM      2  C   UNL     1     -44.113 -38.004  16.523  1.00  0.00     0.000 C 
BRANCH   2   3
ATOM      3  C   UNL     1     -45.626 -38.232  16.632  1.00  0.00     0.000 C 
BRANCH   3   4
ATOM      4  C   UNL     1     -46.069 -38.292  18.102  1.00  0.00     0.006 C 
BRANCH   4   5
ATOM      5  C   UNL     1     -45.831 -36.964  18.834  1.00  0.00     0.053 C 
BRANCH   5   6
ATOM      6  C   UNL     1     -44.917 -37.135  20.007  1.00  0.00     0.041 C 
ATOM      7  O   UNL     1     -43.741 -36.686  19.967  1.00  0.00    -0.550 OA
ATOM      8  O   UNL     1     -45.374 -37.763  21.159  1.00  0.00    -0.550 OA
ENDBRANCH   5   6
ENDBRANCH   4   5
ENDBRANCH   3   4
ENDBRANCH   2   3
ENDBRANCH   1   2
BRANCH   1   9
ATOM      9  C   UNL     1     -44.763 -38.185  14.052  1.00  0.00     0.000 C 
BRANCH   9  10
ATOM     10  C   UNL     1     -44.636 -37.071  12.993  1.00  0.00    -0.000 C 
BRANCH  10  11
ATOM     11  C   UNL     1     -45.793 -36.055  12.967  1.00  0.00    -0.000 C 
BRANCH  11  12
ATOM     12  C   UNL     1     -45.494 -34.789  13.788  1.00  0.00    -0.000 C 
BRANCH  12  13
ATOM     13  C   UNL     1     -46.016 -34.885  15.230  1.00  0.00    -0.003 C 
ATOM     14  C   UNL     1     -45.023 -34.339  16.257  1.00  0.00     0.004 C 
ENDBRANCH  12  13
ENDBRANCH  11  12
ENDBRANCH  10  11
ENDBRANCH   9  10
ENDBRANCH   1   9
TORSDOF 10
ENDMDL
MODEL 2
REMARK VINA RESULT:    -3.077      2.929      5.716
REMARK INTER + INTRA:          -6.165
REMARK INTER:                  -5.544
REMARK INTRA:                  -0.621
REMARK UNBOUND:                -1.289
REMARK SMILES CCCCCCCCCCCC(=O)[O-]
REMARK SMILES IDX 7 1 8 2 9 3 10 4 11 5 12 6 13 7 14 8 6 9 5 10 4 11 3 12 2 13
REMARK SMILES IDX 1 14
REMARK H PARENT
REMARK Flexibility Score: inf
ROOT
ATOM      1  C   UNL     1     -44.581 -37.453  15.550  1.00  0.00     0.000 C 
ENDROOT
BRANCH   1   2
ATOM      2  C   UNL     1     -43.885 -38.204  14.404  1.00  0.00     0.000 C 
BRANCH   2   3
ATOM      3  C   UNL     1     -44.639 -38.009  13.083  1.00  0.00     0.000 C 
BRANCH   3   4
ATOM      4  C   UNL     1     -45.667 -36.874  13.199  1.00  0.00     0.006 C 
BRANCH   4   5
ATOM      5  C   UNL     1     -45.224 -35.611  12.448  1.00  0.00     0.053 C 
BRANCH   5   6
ATOM      6  C   UNL     1     -45.529 -34.368  13.226  1.00  0.00     0.041 C 
ATOM      7  O   UNL     1     -45.894 -34.446  14.429  1.00  0.00    -0.550 OA
ATOM      8  O   UNL     1     -45.380 -33.122  12.631  1.00  0.00    -0.550 OA
ENDBRANCH   5   6
ENDBRANCH   4   5
ENDBRANCH   3   4
ENDBRANCH   2   3
ENDBRANCH   1   2
BRANCH   1   9
ATOM      9  C   UNL     1     -44.432 -38.164  16.907  1.00  0.00     0.000 C 
BRANCH   9  10
ATOM     10  C   UNL     1     -45.755 -38.442  17.650  1.00  0.00    -0.000 C 
BRANCH  10  11
ATOM     11  C   UNL     1     -46.125 -37.419  18.739  1.00  0.00    -0.000 C 
BRANCH  11  12
ATOM     12  C   UNL     1     -44.897 -36.701  19.325  1.00  0.00    -0.000 C 
BRANCH  12  13
ATOM     13  C   UNL     1     -44.808 -36.839  20.853  1.00  0.00    -0.003 C 
ATOM     14  C   UNL     1     -45.763 -37.896  21.409  1.00  0.00     0.004 C 
ENDBRANCH  12  13
ENDBRANCH  11  12
ENDBRANCH  10  11
ENDBRANCH   9  10
ENDBRANCH   1   9
TORSDOF 10
ENDMDL
MODEL 3
REMARK VINA RESULT:    -3.061      1.555      2.157
REMARK INTER + INTRA:          -6.139
REMARK INTER:                  -5.230
REMARK INTRA:                  -0.909
REMARK UNBOUND:                -1.289
REMARK SMILES CCCCCCCCCCCC(=O)[O-]
REMARK SMILES IDX 7 1 8 2 9 3 10 4 11 5 12 6 13 7 14 8 6 9 5 10 4 11 3 12 2 13
REMARK SMILES IDX 1 14
REMARK H PARENT
REMARK Flexibility Score: inf
ROOT
ATOM      1  C   UNL     1     -45.081 -38.239  13.454  1.00  0.00     0.000 C 
ENDROOT
BRANCH   1   2
ATOM      2  C   UNL     1     -44.125 -37.614  14.481  1.00  0.00     0.000 C 
BRANCH   2   3
ATOM      3  C   UNL     1     -44.283 -38.278  15.854  1.00  0.00     0.000 C 
BRANCH   3   4
ATOM      4  C   UNL     1     -45.603 -37.860  16.518  1.00  0.00     0.006 C 
BRANCH   4   5
ATOM      5  C   UNL     1     -45.558 -36.419  17.043  1.00  0.00     0.053 C 
BRANCH   5   6
ATOM      6  C   UNL     1     -45.444 -36.376  18.535  1.00  0.00     0.041 C 
ATOM      7  O   UNL     1     -45.245 -37.434  19.188  1.00  0.00    -0.550 OA
ATOM      8  O   UNL     1     -45.527 -35.161  19.204  1.00  0.00    -0.550 OA
ENDBRANCH   5   6
ENDBRANCH   4   5
ENDBRANCH   3   4
ENDBRANCH   2   3
ENDBRANCH   1   2
BRANCH   1   9
ATOM      9  C   UNL     1     -46.020 -37.206  12.805  1.00  0.00     0.000 C 
BRANCH   9  10
ATOM     10  C   UNL     1     -45.323 -35.949  12.245  1.00  0.00    -0.000 C 
BRANCH  10  11
ATOM     11  C   UNL     1     -45.998 -34.611  12.601  1.00  0.00    -0.000 C 
BRANCH  11  12
ATOM     12  C   UNL     1     -45.704 -34.159  14.042  1.00  0.00    -0.000 C 
BRANCH  12  13
ATOM     13  C   UNL     1     -45.687 -32.629  14.188  1.00  0.00    -0.003 C 
ATOM     14  C   UNL     1     -44.648 -31.960  13.287  1.00  0.00     0.004 C 
ENDBRANCH  12  13
ENDBRANCH  11  12
ENDBRANCH  10  11
ENDBRANCH   9  10
ENDBRANCH   1   9
TORSDOF 10
ENDMDL
MODEL 4
REMARK VINA RESULT:    -3.013      3.010      5.277
REMARK INTER + INTRA:          -6.063
REMARK INTER:                  -5.292
REMARK INTRA:                  -0.771
REMARK UNBOUND:                -1.289
REMARK SMILES CCCCCCCCCCCC(=O)[O-]
REMARK SMILES IDX 7 1 8 2 9 3 10 4 11 5 12 6 13 7 14 8 6 9 5 10 4 11 3 12 2 13
REMARK SMILES IDX 1 14
REMARK H PARENT
REMARK Flexibility Score: inf
ROOT
ATOM      1  C   UNL     1     -44.233 -37.852  13.690  1.00  0.00     0.000 C 
ENDROOT
BRANCH   1   2
ATOM      2  C   UNL     1     -45.437 -37.179  13.015  1.00  0.00     0.000 C 
BRANCH   2   3
ATOM      3  C   UNL     1     -45.014 -35.893  12.293  1.00  0.00     0.000 C 
BRANCH   3   4
ATOM      4  C   UNL     1     -45.914 -34.715  12.694  1.00  0.00     0.006 C 
BRANCH   4   5
ATOM      5  C   UNL     1     -45.731 -34.320  14.165  1.00  0.00     0.053 C 
BRANCH   5   6
ATOM      6  C   UNL     1     -45.393 -32.869  14.311  1.00  0.00     0.041 C 
ATOM      7  O   UNL     1     -44.684 -32.292  13.445  1.00  0.00    -0.550 OA
ATOM      8  O   UNL     1     -45.887 -32.144  15.388  1.00  0.00    -0.550 OA
ENDBRANCH   5   6
ENDBRANCH   4   5
ENDBRANCH   3   4
ENDBRANCH   2   3
ENDBRANCH   1   2
BRANCH   1   9
ATOM      9  C   UNL     1     -44.468 -38.136  15.184  1.00  0.00     0.000 C 
BRANCH   9  10
ATOM     10  C   UNL     1     -45.917 -37.932  15.670  1.00  0.00    -0.000 C 
BRANCH  10  11
ATOM     11  C   UNL     1     -46.073 -37.675  17.180  1.00  0.00    -0.000 C 
BRANCH  11  12
ATOM     12  C   UNL     1     -44.725 -37.491  17.897  1.00  0.00    -0.000 C 
BRANCH  12  13
ATOM     13  C   UNL     1     -44.882 -36.893  19.304  1.00  0.00    -0.003 C 
ATOM     14  C   UNL     1     -43.547 -36.490  19.929  1.00  0.00     0.004 C 
ENDBRANCH  12  13
ENDBRANCH  11  12
ENDBRANCH  10  11
ENDBRANCH   9  10
ENDBRANCH   1   9
TORSDOF 10
ENDMDL
MODEL 5
REMARK VINA RESULT:    -3.003      2.934      4.587
REMARK INTER + INTRA:          -6.047
REMARK INTER:                  -4.957
REMARK INTRA:                  -1.091
REMARK UNBOUND:                -1.289
REMARK SMILES CCCCCCCCCCCC(=O)[O-]
REMARK SMILES IDX 7 1 8 2 9 3 10 4 11 5 12 6 13 7 14 8 6 9 5 10 4 11 3 12 2 13
REMARK SMILES IDX 1 14
REMARK H PARENT
REMARK Flexibility Score: inf
ROOT
ATOM      1  C   UNL     1     -44.534 -37.205  18.354  1.00  0.00     0.000 C 
ENDROOT
BRANCH   1   2
ATOM      2  C   UNL     1     -45.792 -36.360  18.603  1.00  0.00     0.000 C 
BRANCH   2   3
ATOM      3  C   UNL     1     -45.477 -34.863  18.501  1.00  0.00     0.000 C 
BRANCH   3   4
ATOM      4  C   UNL     1     -44.800 -34.534  17.162  1.00  0.00     0.006 C 
BRANCH   4   5
ATOM      5  C   UNL     1     -45.680 -33.649  16.269  1.00  0.00     0.053 C 
BRANCH   5   6
ATOM      6  C   UNL     1     -44.861 -32.703  15.447  1.00  0.00     0.041 C 
ATOM      7  O   UNL     1     -43.999 -31.968  15.995  1.00  0.00    -0.550 OA
ATOM      8  O   UNL     1     -45.027 -32.657  14.069  1.00  0.00    -0.550 OA
ENDBRANCH   5   6
ENDBRANCH   4   5
ENDBRANCH   3   4
ENDBRANCH   2   3
ENDBRANCH   1   2
BRANCH   1   9
ATOM      9  C   UNL     1     -44.697 -38.189  17.181  1.00  0.00     0.000 C 
BRANCH   9  10
ATOM     10  C   UNL     1     -46.092 -38.199  16.524  1.00  0.00    -0.000 C 
BRANCH  10  11
ATOM     11  C   UNL     1     -46.124 -37.780  15.043  1.00  0.00    -0.000 C 
BRANCH  11  12
ATOM     12  C   UNL     1     -44.855 -37.025  14.610  1.00  0.00    -0.000 C 
BRANCH  12  13
ATOM     13  C   UNL     1     -44.596 -37.128  13.098  1.00  0.00    -0.003 C 
ATOM     14  C   UNL     1     -44.812 -35.802  12.369  1.00  0.00     0.004 C 
ENDBRANCH  12  13
ENDBRANCH  11  12
ENDBRANCH  10  11
ENDBRANCH   9  10
ENDBRANCH   1   9
TORSDOF 10
ENDMDL
MODEL 6
REMARK VINA RESULT:    -2.994      1.951      2.896
REMARK INTER + INTRA:          -6.034
REMARK INTER:                  -5.134
REMARK INTRA:                  -0.899
REMARK UNBOUND:                -1.289
REMARK SMILES CCCCCCCCCCCC(=O)[O-]
REMARK SMILES IDX 7 1 8 2 9 3 10 4 11 5 12 6 13 7 14 8 6 9 5 10 4 11 3 12 2 13
REMARK SMILES IDX 1 14
REMARK H PARENT
REMARK Flexibility Score: inf
ROOT
ATOM      1  C   UNL     1     -44.621 -36.352  12.621  1.00  0.00     0.000 C 
ENDROOT
BRANCH   1   2
ATOM      2  C   UNL     1     -44.739 -37.706  13.336  1.00  0.00     0.000 C 
BRANCH   2   3
ATOM      3  C   UNL     1     -46.099 -37.843  14.032  1.00  0.00     0.000 C 
BRANCH   3   4
ATOM      4  C   UNL     1     -45.933 -37.887  15.558  1.00  0.00     0.006 C 
BRANCH   4   5
ATOM      5  C   UNL     1     -45.865 -36.483  16.174  1.00  0.00     0.053 C 
BRANCH   5   6
ATOM      6  C   UNL     1     -44.951 -36.442  17.359  1.00  0.00     0.041 C 
ATOM      7  O   UNL     1     -44.539 -35.339  17.806  1.00  0.00    -0.550 OA
ATOM      8  O   UNL     1     -44.578 -37.621  17.991  1.00  0.00    -0.550 OA
ENDBRANCH   5   6
ENDBRANCH   4   5
ENDBRANCH   3   4
ENDBRANCH   2   3
ENDBRANCH   1   2
BRANCH   1   9
ATOM      9  C   UNL     1     -45.988 -35.765  12.223  1.00  0.00     0.000 C 
BRANCH   9  10
ATOM     10  C   UNL     1     -46.121 -34.239  12.399  1.00  0.00    -0.000 C 
BRANCH  10  11
ATOM     11  C   UNL     1     -45.862 -33.716  13.824  1.00  0.00    -0.000 C 
BRANCH  11  12
ATOM     12  C   UNL     1     -45.445 -32.236  13.850  1.00  0.00    -0.000 C 
BRANCH  12  13
ATOM     13  C   UNL     1     -44.632 -31.875  15.104  1.00  0.00    -0.003 C 
ATOM     14  C   UNL     1     -45.374 -32.192  16.402  1.00  0.00     0.004 C 
ENDBRANCH  12  13
ENDBRANCH  11  12
ENDBRANCH  10  11
ENDBRANCH   9  10
ENDBRANCH   1   9
TORSDOF 10
ENDMDL
MODEL 7
REMARK VINA RESULT:    -2.988      1.568      3.212
REMARK INTER + INTRA:          -6.024
REMARK INTER:                  -5.174
REMARK INTRA:                  -0.850
REMARK UNBOUND:                -1.289
REMARK SMILES CCCCCCCCCCCC(=O)[O-]
REMARK SMILES IDX 7 1 8 2 9 3 10 4 11 5 12 6 13 7 14 8 6 9 5 10 4 11 3 12 2 13
REMARK SMILES IDX 1 14
REMARK H PARENT
REMARK Flexibility Score: inf
ROOT
ATOM      1  C   UNL     1     -44.815 -32.946  15.451  1.00  0.00     0.000 C 
ENDROOT
BRANCH   1   2
ATOM      2  C   UNL     1     -45.222 -33.611  16.774  1.00  0.00     0.000 C 
BRANCH   2   3
ATOM      3  C   UNL     1     -44.611 -35.013  16.895  1.00  0.00     0.000 C 
BRANCH   3   4
ATOM      4  C   UNL     1     -45.414 -35.880  17.876  1.00  0.00     0.006 C 
BRANCH   4   5
ATOM      5  C   UNL     1     -44.591 -37.056  18.419  1.00  0.00     0.053 C 
BRANCH   5   6
ATOM      6  C   UNL     1     -44.140 -36.814  19.826  1.00  0.00     0.041 C 
ATOM      7  O   UNL     1     -43.103 -36.136  20.052  1.00  0.00    -0.550 OA
ATOM      8  O   UNL     1     -44.882 -37.310  20.889  1.00  0.00    -0.550 OA
ENDBRANCH   5   6
ENDBRANCH   4   5
ENDBRANCH   3   4
ENDBRANCH   2   3
ENDBRANCH   1   2
BRANCH   1   9
ATOM      9  C   UNL     1     -45.916 -33.025  14.379  1.00  0.00     0.000 C 
BRANCH   9  10
ATOM     10  C   UNL     1     -45.433 -33.438  12.973  1.00  0.00    -0.000 C 
BRANCH  10  11
ATOM     11  C   UNL     1     -46.025 -34.753  12.435  1.00  0.00    -0.000 C 
BRANCH  11  12
ATOM     12  C   UNL     1     -44.991 -35.890  12.368  1.00  0.00    -0.000 C 
BRANCH  12  13
ATOM     13  C   UNL     1     -44.891 -36.673  13.687  1.00  0.00    -0.003 C 
ATOM     14  C   UNL     1     -45.952 -37.766  13.809  1.00  0.00     0.004 C 
ENDBRANCH  12  13
ENDBRANCH  11  12
ENDBRANCH  10  11
ENDBRANCH   9  10
ENDBRANCH   1   9
TORSDOF 10
ENDMDL
MODEL 8
REMARK VINA RESULT:    -2.977      9.087     12.114
REMARK INTER + INTRA:          -6.006
REMARK INTER:                  -5.150
REMARK INTRA:                  -0.856
REMARK UNBOUND:                -1.289
REMARK SMILES CCCCCCCCCCCC(=O)[O-]
REMARK SMILES IDX 7 1 8 2 9 3 10 4 11 5 12 6 13 7 14 8 6 9 5 10 4 11 3 12 2 13
REMARK SMILES IDX 1 14
REMARK H PARENT
REMARK Flexibility Score: inf
ROOT
ATOM      1  C   UNL     1     -41.395 -32.525  27.448  1.00  0.00     0.000 C 
ENDROOT
BRANCH   1   2
ATOM      2  C   UNL     1     -42.408 -33.668  27.290  1.00  0.00     0.000 C 
BRANCH   2   3
ATOM      3  C   UNL     1     -43.832 -33.122  27.128  1.00  0.00     0.000 C 
BRANCH   3   4
ATOM      4  C   UNL     1     -43.855 -31.920  26.171  1.00  0.00     0.006 C 
BRANCH   4   5
ATOM      5  C   UNL     1     -44.330 -32.308  24.765  1.00  0.00     0.053 C 
BRANCH   5   6
ATOM      6  C   UNL     1     -43.185 -32.688  23.878  1.00  0.00     0.041 C 
ATOM      7  O   UNL     1     -43.303 -33.637  23.060  1.00  0.00    -0.550 OA
ATOM      8  O   UNL     1     -41.996 -31.971  23.933  1.00  0.00    -0.550 OA
ENDBRANCH   5   6
ENDBRANCH   4   5
ENDBRANCH   3   4
ENDBRANCH   2   3
ENDBRANCH   1   2
BRANCH   1   9
ATOM      9  C   UNL     1     -40.281 -32.849  28.459  1.00  0.00     0.000 C 
BRANCH   9  10
ATOM     10  C   UNL     1     -38.846 -32.577  27.962  1.00  0.00    -0.000 C 
BRANCH  10  11
ATOM     11  C   UNL     1     -37.979 -33.830  27.740  1.00  0.00    -0.000 C 
BRANCH  11  12
ATOM     12  C   UNL     1     -37.875 -34.229  26.258  1.00  0.00    -0.000 C 
BRANCH  12  13
ATOM     13  C   UNL     1     -37.805 -33.010  25.324  1.00  0.00    -0.003 C 
ATOM     14  C   UNL     1     -38.690 -33.160  24.087  1.00  0.00     0.004 C 
ENDBRANCH  12  13
ENDBRANCH  11  12
ENDBRANCH  10  11
ENDBRANCH   9  10
ENDBRANCH   1   9
TORSDOF 10
ENDMDL
MODEL 9
REMARK VINA RESULT:    -2.969      3.277      4.863
REMARK INTER + INTRA:          -5.993
REMARK INTER:                  -4.754
REMARK INTRA:                  -1.239
REMARK UNBOUND:                -1.289
REMARK SMILES CCCCCCCCCCCC(=O)[O-]
REMARK SMILES IDX 7 1 8 2 9 3 10 4 11 5 12 6 13 7 14 8 6 9 5 10 4 11 3 12 2 13
REMARK SMILES IDX 1 14
REMARK H PARENT
REMARK Flexibility Score: inf
ROOT
ATOM      1  C   UNL     1     -44.295 -37.414  18.415  1.00  0.00     0.000 C 
ENDROOT
BRANCH   1   2
ATOM      2  C   UNL     1     -44.622 -38.246  17.166  1.00  0.00     0.000 C 
BRANCH   2   3
ATOM      3  C   UNL     1     -46.066 -38.004  16.708  1.00  0.00     0.000 C 
BRANCH   3   4
ATOM      4  C   UNL     1     -46.106 -37.502  15.257  1.00  0.00     0.006 C 
BRANCH   4   5
ATOM      5  C   UNL     1     -44.721 -37.074  14.753  1.00  0.00     0.053 C 
BRANCH   5   6
ATOM      6  C   UNL     1     -44.635 -37.127  13.259  1.00  0.00     0.041 C 
ATOM      7  O   UNL     1     -44.854 -36.094  12.574  1.00  0.00    -0.550 OA
ATOM      8  O   UNL     1     -44.280 -38.311  12.625  1.00  0.00    -0.550 OA
ENDBRANCH   5   6
ENDBRANCH   4   5
ENDBRANCH   3   4
ENDBRANCH   2   3
ENDBRANCH   1   2
BRANCH   1   9
ATOM      9  C   UNL     1     -45.539 -36.759  19.040  1.00  0.00     0.000 C 
BRANCH   9  10
ATOM     10  C   UNL     1     -45.503 -35.218  19.112  1.00  0.00    -0.000 C 
BRANCH  10  11
ATOM     11  C   UNL     1     -45.979 -34.490  17.842  1.00  0.00    -0.000 C 
BRANCH  11  12
ATOM     12  C   UNL     1     -44.815 -34.018  16.954  1.00  0.00    -0.000 C 
BRANCH  12  13
ATOM     13  C   UNL     1     -45.289 -33.505  15.585  1.00  0.00    -0.003 C 
ATOM     14  C   UNL     1     -44.748 -32.115  15.252  1.00  0.00     0.004 C 
ENDBRANCH  12  13
ENDBRANCH  11  12
ENDBRANCH  10  11
ENDBRANCH   9  10
ENDBRANCH   1   9
TORSDOF 10
ENDMDL
