MODEL 1
REMARK VINA RESULT:    -5.640      0.000      0.000
REMARK INTER + INTRA:          -6.134
REMARK INTER:                  -6.134
REMARK INTRA:                   0.000
REMARK UNBOUND:                 0.000
REMARK SMILES Cc1cc(O)c2c(c1)C(=O)c1cc(O)cc(O)c1C2=O
REMARK SMILES IDX 1 1 2 2 8 3 7 4 6 5 4 6 3 7 19 8 20 9 18 10 11 11 9 12 10 13
REMARK SMILES IDX 12 14 13 15 15 16 16 17 5 18 17 20 14 22
REMARK H PARENT 5 19 17 21 14 23
REMARK Flexibility Score: inf
ROOT
ATOM      1  C   UNL     1      20.216  -7.507 -33.371  1.00  0.00     0.044 C 
ATOM      2  C   UNL     1      19.188  -6.690 -32.642  1.00  0.00    -0.047 A 
ATOM      3  C   UNL     1      17.945  -7.247 -32.323  1.00  0.00     0.016 A 
ATOM      4  C   UNL     1      16.959  -6.477 -31.681  1.00  0.00     0.038 A 
ATOM      5  C   UNL     1      17.213  -5.120 -31.377  1.00  0.00     0.076 A 
ATOM      6  C   UNL     1      18.492  -4.576 -31.661  1.00  0.00     0.127 A 
ATOM      7  C   UNL     1      19.449  -5.354 -32.319  1.00  0.00     0.050 A 
ATOM      8  C   UNL     1      16.098  -4.304 -30.833  1.00  0.00     0.201 C 
ATOM      9  O   UNL     1      16.051  -3.067 -31.073  1.00  0.00    -0.288 OA
ATOM     10  C   UNL     1      14.946  -4.971 -30.173  1.00  0.00     0.076 A 
ATOM     11  C   UNL     1      14.697  -6.328 -30.480  1.00  0.00     0.041 A 
ATOM     12  C   UNL     1      15.658  -7.084 -31.318  1.00  0.00     0.194 C 
ATOM     13  O   UNL     1      15.376  -8.254 -31.702  1.00  0.00    -0.289 OA
ATOM     14  C   UNL     1      13.540  -6.955 -29.985  1.00  0.00     0.059 A 
ATOM     15  C   UNL     1      12.643  -6.252 -29.177  1.00  0.00     0.120 A 
ATOM     16  C   UNL     1      12.907  -4.925 -28.840  1.00  0.00     0.093 A 
ATOM     17  C   UNL     1      14.060  -4.284 -29.303  1.00  0.00     0.131 A 
ENDROOT
BRANCH   6  18
ATOM     18  O   UNL     1      18.864  -3.283 -31.283  1.00  0.00    -0.507 OA
ATOM     19  H   UNL     1      18.534  -2.449 -31.748  1.00  0.00     0.293 HD
ENDBRANCH   6  18
BRANCH  17  20
ATOM     20  O   UNL     1      14.304  -2.986 -28.848  1.00  0.00    -0.507 OA
ATOM     21  H   UNL     1      13.757  -2.533 -28.130  1.00  0.00     0.293 HD
ENDBRANCH  17  20
BRANCH  15  22
ATOM     22  O   UNL     1      11.489  -6.866 -28.695  1.00  0.00    -0.508 OA
ATOM     23  H   UNL     1      10.580  -6.684 -29.107  1.00  0.00     0.293 HD
ENDBRANCH  15  22
TORSDOF 3
ENDMDL
MODEL 2
REMARK VINA RESULT:    -5.560      2.935      6.478
REMARK INTER + INTRA:          -6.048
REMARK INTER:                  -6.048
REMARK INTRA:                   0.000
REMARK UNBOUND:                 0.000
REMARK SMILES Cc1cc(O)c2c(c1)C(=O)c1cc(O)cc(O)c1C2=O
REMARK SMILES IDX 1 1 2 2 8 3 7 4 6 5 4 6 3 7 19 8 20 9 18 10 11 11 9 12 10 13
REMARK SMILES IDX 12 14 13 15 15 16 16 17 5 18 17 20 14 22
REMARK H PARENT 5 19 17 21 14 23
REMARK Flexibility Score: inf
ROOT
ATOM      1  C   UNL     1      11.273  -7.014 -34.067  1.00  0.00     0.044 C 
ATOM      2  C   UNL     1      12.689  -7.010 -33.568  1.00  0.00    -0.047 A 
ATOM      3  C   UNL     1      13.753  -7.141 -34.468  1.00  0.00     0.016 A 
ATOM      4  C   UNL     1      15.080  -7.182 -34.007  1.00  0.00     0.038 A 
ATOM      5  C   UNL     1      15.346  -7.119 -32.621  1.00  0.00     0.076 A 
ATOM      6  C   UNL     1      14.267  -6.940 -31.717  1.00  0.00     0.127 A 
ATOM      7  C   UNL     1      12.953  -6.922 -32.197  1.00  0.00     0.050 A 
ATOM      8  C   UNL     1      16.747  -7.314 -32.166  1.00  0.00     0.201 C 
ATOM      9  O   UNL     1      16.974  -7.827 -31.038  1.00  0.00    -0.288 OA
ATOM     10  C   UNL     1      17.869  -7.082 -33.111  1.00  0.00     0.076 A 
ATOM     11  C   UNL     1      17.598  -7.146 -34.497  1.00  0.00     0.041 A 
ATOM     12  C   UNL     1      16.201  -7.288 -34.970  1.00  0.00     0.194 C 
ATOM     13  O   UNL     1      15.966  -7.476 -36.196  1.00  0.00    -0.289 OA
ATOM     14  C   UNL     1      18.655  -7.069 -35.420  1.00  0.00     0.059 A 
ATOM     15  C   UNL     1      19.972  -6.914 -34.979  1.00  0.00     0.120 A 
ATOM     16  C   UNL     1      20.238  -6.810 -33.614  1.00  0.00     0.093 A 
ATOM     17  C   UNL     1      19.202  -6.863 -32.676  1.00  0.00     0.131 A 
ENDROOT
BRANCH   6  18
ATOM     18  O   UNL     1      14.453  -6.746 -30.347  1.00  0.00    -0.507 OA
ATOM     19  H   UNL     1      13.793  -7.051 -29.644  1.00  0.00     0.293 HD
ENDBRANCH   6  18
BRANCH  17  20
ATOM     20  O   UNL     1      19.535  -6.659 -31.334  1.00  0.00    -0.507 OA
ATOM     21  H   UNL     1      20.464  -6.796 -30.962  1.00  0.00     0.293 HD
ENDBRANCH  17  20
BRANCH  15  22
ATOM     22  O   UNL     1      21.024  -6.850 -35.890  1.00  0.00    -0.508 OA
ATOM     23  H   UNL     1      21.318  -5.970 -36.299  1.00  0.00     0.293 HD
ENDBRANCH  15  22
TORSDOF 3
ENDMDL
MODEL 3
REMARK VINA RESULT:    -5.494      3.422      6.716
REMARK INTER + INTRA:          -5.975
REMARK INTER:                  -5.975
REMARK INTRA:                   0.000
REMARK UNBOUND:                 0.000
REMARK SMILES Cc1cc(O)c2c(c1)C(=O)c1cc(O)cc(O)c1C2=O
REMARK SMILES IDX 1 1 2 2 8 3 7 4 6 5 4 6 3 7 19 8 20 9 18 10 11 11 9 12 10 13
REMARK SMILES IDX 12 14 13 15 15 16 16 17 5 18 17 20 14 22
REMARK H PARENT 5 19 17 21 14 23
REMARK Flexibility Score: inf
ROOT
ATOM      1  C   UNL     1      13.847  -9.703 -29.279  1.00  0.00     0.044 C 
ATOM      2  C   UNL     1      14.288  -9.194 -30.621  1.00  0.00    -0.047 A 
ATOM      3  C   UNL     1      15.511  -8.529 -30.755  1.00  0.00     0.016 A 
ATOM      4  C   UNL     1      15.913  -8.011 -31.998  1.00  0.00     0.038 A 
ATOM      5  C   UNL     1      15.063  -8.135 -33.120  1.00  0.00     0.076 A 
ATOM      6  C   UNL     1      13.844  -8.851 -32.988  1.00  0.00     0.127 A 
ATOM      7  C   UNL     1      13.456  -9.341 -31.737  1.00  0.00     0.050 A 
ATOM      8  C   UNL     1      15.455  -7.447 -34.376  1.00  0.00     0.201 C 
ATOM      9  O   UNL     1      14.566  -7.033 -35.168  1.00  0.00    -0.288 OA
ATOM     10  C   UNL     1      16.877  -7.081 -34.605  1.00  0.00     0.076 A 
ATOM     11  C   UNL     1      17.723  -6.958 -33.480  1.00  0.00     0.041 A 
ATOM     12  C   UNL     1      17.224  -7.337 -32.136  1.00  0.00     0.194 C 
ATOM     13  O   UNL     1      17.929  -7.107 -31.115  1.00  0.00    -0.289 OA
ATOM     14  C   UNL     1      19.035  -6.480 -33.641  1.00  0.00     0.059 A 
ATOM     15  C   UNL     1      19.515  -6.141 -34.909  1.00  0.00     0.120 A 
ATOM     16  C   UNL     1      18.696  -6.300 -36.026  1.00  0.00     0.093 A 
ATOM     17  C   UNL     1      17.394  -6.792 -35.895  1.00  0.00     0.131 A 
ENDROOT
BRANCH   6  18
ATOM     18  O   UNL     1      13.008  -9.124 -34.073  1.00  0.00    -0.507 OA
ATOM     19  H   UNL     1      12.243  -8.525 -34.353  1.00  0.00     0.293 HD
ENDBRANCH   6  18
BRANCH  17  20
ATOM     20  O   UNL     1      16.665  -7.011 -37.067  1.00  0.00    -0.507 OA
ATOM     21  H   UNL     1      16.104  -6.302 -37.516  1.00  0.00     0.293 HD
ENDBRANCH  17  20
BRANCH  15  22
ATOM     22  O   UNL     1      20.811  -5.655 -35.072  1.00  0.00    -0.508 OA
ATOM     23  H   UNL     1      21.618  -6.188 -34.769  1.00  0.00     0.293 HD
ENDBRANCH  15  22
TORSDOF 3
ENDMDL
MODEL 4
REMARK VINA RESULT:    -5.414      2.763      6.767
REMARK INTER + INTRA:          -5.889
REMARK INTER:                  -5.889
REMARK INTRA:                   0.000
REMARK UNBOUND:                 0.000
REMARK SMILES Cc1cc(O)c2c(c1)C(=O)c1cc(O)cc(O)c1C2=O
REMARK SMILES IDX 1 1 2 2 8 3 7 4 6 5 4 6 3 7 19 8 20 9 18 10 11 11 9 12 10 13
REMARK SMILES IDX 12 14 13 15 15 16 16 17 5 18 17 20 14 22
REMARK H PARENT 5 19 17 21 14 23
REMARK Flexibility Score: inf
ROOT
ATOM      1  C   UNL     1      13.176  -7.471 -29.392  1.00  0.00     0.044 C 
ATOM      2  C   UNL     1      13.912  -7.472 -30.700  1.00  0.00    -0.047 A 
ATOM      3  C   UNL     1      15.273  -7.147 -30.741  1.00  0.00     0.016 A 
ATOM      4  C   UNL     1      15.961  -7.102 -31.966  1.00  0.00     0.038 A 
ATOM      5  C   UNL     1      15.270  -7.359 -33.172  1.00  0.00     0.076 A 
ATOM      6  C   UNL     1      13.903  -7.733 -33.119  1.00  0.00     0.127 A 
ATOM      7  C   UNL     1      13.233  -7.752 -31.891  1.00  0.00     0.050 A 
ATOM      8  C   UNL     1      15.996  -7.158 -34.452  1.00  0.00     0.201 C 
ATOM      9  O   UNL     1      15.362  -6.809 -35.484  1.00  0.00    -0.288 OA
ATOM     10  C   UNL     1      17.481  -7.181 -34.471  1.00  0.00     0.076 A 
ATOM     11  C   UNL     1      18.168  -6.923 -33.263  1.00  0.00     0.041 A 
ATOM     12  C   UNL     1      17.409  -6.788 -31.996  1.00  0.00     0.194 C 
ATOM     13  O   UNL     1      18.002  -6.431 -30.941  1.00  0.00    -0.289 OA
ATOM     14  C   UNL     1      19.568  -6.800 -33.267  1.00  0.00     0.059 A 
ATOM     15  C   UNL     1      20.289  -6.946 -34.455  1.00  0.00     0.120 A 
ATOM     16  C   UNL     1      19.618  -7.241 -35.641  1.00  0.00     0.093 A 
ATOM     17  C   UNL     1      18.228  -7.388 -35.660  1.00  0.00     0.131 A 
ENDROOT
BRANCH   6  18
ATOM     18  O   UNL     1      13.181  -8.121 -34.250  1.00  0.00    -0.507 OA
ATOM     19  H   UNL     1      13.285  -9.022 -34.696  1.00  0.00     0.293 HD
ENDBRANCH   6  18
BRANCH  17  20
ATOM     20  O   UNL     1      17.635  -7.773 -36.866  1.00  0.00    -0.507 OA
ATOM     21  H   UNL     1      18.139  -8.223 -37.617  1.00  0.00     0.293 HD
ENDBRANCH  17  20
BRANCH  15  22
ATOM     22  O   UNL     1      21.676  -6.813 -34.466  1.00  0.00    -0.508 OA
ATOM     23  H   UNL     1      22.213  -6.796 -33.606  1.00  0.00     0.293 HD
ENDBRANCH  15  22
TORSDOF 3
ENDMDL
MODEL 5
REMARK VINA RESULT:    -5.354      3.976      7.159
REMARK INTER + INTRA:          -5.824
REMARK INTER:                  -5.824
REMARK INTRA:                   0.000
REMARK UNBOUND:                 0.000
REMARK SMILES Cc1cc(O)c2c(c1)C(=O)c1cc(O)cc(O)c1C2=O
REMARK SMILES IDX 1 1 2 2 8 3 7 4 6 5 4 6 3 7 19 8 20 9 18 10 11 11 9 12 10 13
REMARK SMILES IDX 12 14 13 15 15 16 16 17 5 18 17 20 14 22
REMARK H PARENT 5 19 17 21 14 23
REMARK Flexibility Score: inf
ROOT
ATOM      1  C   UNL     1      14.905  -8.147 -31.233  1.00  0.00     0.044 C 
ATOM      2  C   UNL     1      16.084  -7.661 -32.024  1.00  0.00    -0.047 A 
ATOM      3  C   UNL     1      15.979  -7.487 -33.409  1.00  0.00     0.016 A 
ATOM      4  C   UNL     1      17.090  -7.076 -34.165  1.00  0.00     0.038 A 
ATOM      5  C   UNL     1      18.334  -6.861 -33.529  1.00  0.00     0.076 A 
ATOM      6  C   UNL     1      18.422  -6.995 -32.120  1.00  0.00     0.127 A 
ATOM      7  C   UNL     1      17.309  -7.425 -31.390  1.00  0.00     0.050 A 
ATOM      8  C   UNL     1      19.516  -6.571 -34.381  1.00  0.00     0.201 C 
ATOM      9  O   UNL     1      20.664  -6.927 -34.003  1.00  0.00    -0.288 OA
ATOM     10  C   UNL     1      19.323  -6.038 -35.755  1.00  0.00     0.076 A 
ATOM     11  C   UNL     1      18.078  -6.254 -36.386  1.00  0.00     0.041 A 
ATOM     12  C   UNL     1      16.961  -6.863 -35.625  1.00  0.00     0.194 C 
ATOM     13  O   UNL     1      15.891  -7.177 -36.219  1.00  0.00    -0.289 OA
ATOM     14  C   UNL     1      17.903  -5.888 -37.731  1.00  0.00     0.059 A 
ATOM     15  C   UNL     1      18.947  -5.294 -38.446  1.00  0.00     0.120 A 
ATOM     16  C   UNL     1      20.164  -5.042 -37.814  1.00  0.00     0.093 A 
ATOM     17  C   UNL     1      20.357  -5.380 -36.471  1.00  0.00     0.131 A 
ENDROOT
BRANCH   6  18
ATOM     18  O   UNL     1      19.579  -6.683 -31.402  1.00  0.00    -0.507 OA
ATOM     19  H   UNL     1      19.644  -6.741 -30.395  1.00  0.00     0.293 HD
ENDBRANCH   6  18
BRANCH  17  20
ATOM     20  O   UNL     1      21.570  -5.013 -35.881  1.00  0.00    -0.507 OA
ATOM     21  H   UNL     1      21.938  -4.073 -35.899  1.00  0.00     0.293 HD
ENDBRANCH  17  20
BRANCH  15  22
ATOM     22  O   UNL     1      18.782  -4.940 -39.783  1.00  0.00    -0.508 OA
ATOM     23  H   UNL     1      19.571  -4.675 -40.362  1.00  0.00     0.293 HD
ENDBRANCH  15  22
TORSDOF 3
ENDMDL
MODEL 6
REMARK VINA RESULT:    -5.319      3.373      4.019
REMARK INTER + INTRA:          -5.786
REMARK INTER:                  -5.786
REMARK INTRA:                   0.000
REMARK UNBOUND:                 0.000
REMARK SMILES Cc1cc(O)c2c(c1)C(=O)c1cc(O)cc(O)c1C2=O
REMARK SMILES IDX 1 1 2 2 8 3 7 4 6 5 4 6 3 7 19 8 20 9 18 10 11 11 9 12 10 13
REMARK SMILES IDX 12 14 13 15 15 16 16 17 5 18 17 20 14 22
REMARK H PARENT 5 19 17 21 14 23
REMARK Flexibility Score: inf
ROOT
ATOM      1  C   UNL     1      19.389  -5.318 -36.790  1.00  0.00     0.044 C 
ATOM      2  C   UNL     1      18.742  -5.971 -35.603  1.00  0.00    -0.047 A 
ATOM      3  C   UNL     1      17.369  -6.238 -35.607  1.00  0.00     0.016 A 
ATOM      4  C   UNL     1      16.747  -6.809 -34.484  1.00  0.00     0.038 A 
ATOM      5  C   UNL     1      17.507  -7.092 -33.326  1.00  0.00     0.076 A 
ATOM      6  C   UNL     1      18.906  -6.861 -33.344  1.00  0.00     0.127 A 
ATOM      7  C   UNL     1      19.501  -6.274 -34.466  1.00  0.00     0.050 A 
ATOM      8  C   UNL     1      16.787  -7.555 -32.112  1.00  0.00     0.201 C 
ATOM      9  O   UNL     1      17.245  -7.282 -30.970  1.00  0.00    -0.288 OA
ATOM     10  C   UNL     1      15.441  -8.171 -32.240  1.00  0.00     0.076 A 
ATOM     11  C   UNL     1      14.686  -7.885 -33.399  1.00  0.00     0.041 A 
ATOM     12  C   UNL     1      15.298  -7.118 -34.510  1.00  0.00     0.194 C 
ATOM     13  O   UNL     1      14.590  -6.750 -35.488  1.00  0.00    -0.289 OA
ATOM     14  C   UNL     1      13.357  -8.334 -33.496  1.00  0.00     0.059 A 
ATOM     15  C   UNL     1      12.782  -9.076 -32.460  1.00  0.00     0.120 A 
ATOM     16  C   UNL     1      13.539  -9.394 -31.333  1.00  0.00     0.093 A 
ATOM     17  C   UNL     1      14.868  -8.975 -31.221  1.00  0.00     0.131 A 
ENDROOT
BRANCH   6  18
ATOM     18  O   UNL     1      19.746  -7.226 -32.289  1.00  0.00    -0.507 OA
ATOM     19  H   UNL     1      20.625  -6.767 -32.091  1.00  0.00     0.293 HD
ENDBRANCH   6  18
BRANCH  17  20
ATOM     20  O   UNL     1      15.590  -9.409 -30.106  1.00  0.00    -0.507 OA
ATOM     21  H   UNL     1      15.161  -9.810 -29.284  1.00  0.00     0.293 HD
ENDBRANCH  17  20
BRANCH  15  22
ATOM     22  O   UNL     1      11.462  -9.512 -32.546  1.00  0.00    -0.508 OA
ATOM     23  H   UNL     1      11.012  -9.994 -31.776  1.00  0.00     0.293 HD
ENDBRANCH  15  22
TORSDOF 3
ENDMDL
MODEL 7
REMARK VINA RESULT:    -5.274      3.977      5.671
REMARK INTER + INTRA:          -5.736
REMARK INTER:                  -5.736
REMARK INTRA:                   0.000
REMARK UNBOUND:                 0.000
REMARK SMILES Cc1cc(O)c2c(c1)C(=O)c1cc(O)cc(O)c1C2=O
REMARK SMILES IDX 1 1 2 2 8 3 7 4 6 5 4 6 3 7 19 8 20 9 18 10 11 11 9 12 10 13
REMARK SMILES IDX 12 14 13 15 15 16 16 17 5 18 17 20 14 22
REMARK H PARENT 5 19 17 21 14 23
REMARK Flexibility Score: inf
ROOT
ATOM      1  C   UNL     1      18.973  -6.509 -32.328  1.00  0.00     0.044 C 
ATOM      2  C   UNL     1      17.605  -7.126 -32.349  1.00  0.00    -0.047 A 
ATOM      3  C   UNL     1      16.837  -7.095 -33.518  1.00  0.00     0.016 A 
ATOM      4  C   UNL     1      15.537  -7.630 -33.536  1.00  0.00     0.038 A 
ATOM      5  C   UNL     1      14.987  -8.182 -32.357  1.00  0.00     0.076 A 
ATOM      6  C   UNL     1      15.787  -8.252 -31.187  1.00  0.00     0.127 A 
ATOM      7  C   UNL     1      17.070  -7.694 -31.187  1.00  0.00     0.050 A 
ATOM      8  C   UNL     1      13.562  -8.602 -32.378  1.00  0.00     0.201 C 
ATOM      9  O   UNL     1      12.877  -8.547 -31.321  1.00  0.00    -0.288 OA
ATOM     10  C   UNL     1      12.900  -8.903 -33.673  1.00  0.00     0.076 A 
ATOM     11  C   UNL     1      13.454  -8.350 -34.849  1.00  0.00     0.041 A 
ATOM     12  C   UNL     1      14.744  -7.622 -34.787  1.00  0.00     0.194 C 
ATOM     13  O   UNL     1      15.176  -7.017 -35.807  1.00  0.00    -0.289 OA
ATOM     14  C   UNL     1      12.781  -8.496 -36.075  1.00  0.00     0.059 A 
ATOM     15  C   UNL     1      11.575  -9.199 -36.142  1.00  0.00     0.120 A 
ATOM     16  C   UNL     1      11.047  -9.780 -34.989  1.00  0.00     0.093 A 
ATOM     17  C   UNL     1      11.707  -9.666 -33.762  1.00  0.00     0.131 A 
ENDROOT
BRANCH   6  18
ATOM     18  O   UNL     1      15.364  -8.889 -30.019  1.00  0.00    -0.507 OA
ATOM     19  H   UNL     1      15.967  -9.467 -29.448  1.00  0.00     0.293 HD
ENDBRANCH   6  18
BRANCH  17  20
ATOM     20  O   UNL     1      11.165 -10.352 -32.672  1.00  0.00    -0.507 OA
ATOM     21  H   UNL     1      10.289 -10.105 -32.236  1.00  0.00     0.293 HD
ENDBRANCH  17  20
BRANCH  15  22
ATOM     22  O   UNL     1      10.898  -9.336 -37.352  1.00  0.00    -0.508 OA
ATOM     23  H   UNL     1      11.298  -9.851 -38.127  1.00  0.00     0.293 HD
ENDBRANCH  15  22
TORSDOF 3
ENDMDL
MODEL 8
REMARK VINA RESULT:    -5.012      1.523      3.427
REMARK INTER + INTRA:          -5.451
REMARK INTER:                  -5.451
REMARK INTRA:                   0.000
REMARK UNBOUND:                 0.000
REMARK SMILES Cc1cc(O)c2c(c1)C(=O)c1cc(O)cc(O)c1C2=O
REMARK SMILES IDX 1 1 2 2 8 3 7 4 6 5 4 6 3 7 19 8 20 9 18 10 11 11 9 12 10 13
REMARK SMILES IDX 12 14 13 15 15 16 16 17 5 18 17 20 14 22
REMARK H PARENT 5 19 17 21 14 23
REMARK Flexibility Score: inf
ROOT
ATOM      1  C   UNL     1      19.878  -1.875 -32.143  1.00  0.00     0.044 C 
ATOM      2  C   UNL     1      19.072  -3.133 -31.995  1.00  0.00    -0.047 A 
ATOM      3  C   UNL     1      17.920  -3.141 -31.200  1.00  0.00     0.016 A 
ATOM      4  C   UNL     1      17.184  -4.324 -31.019  1.00  0.00     0.038 A 
ATOM      5  C   UNL     1      17.621  -5.525 -31.622  1.00  0.00     0.076 A 
ATOM      6  C   UNL     1      18.763  -5.500 -32.464  1.00  0.00     0.127 A 
ATOM      7  C   UNL     1      19.492  -4.316 -32.613  1.00  0.00     0.050 A 
ATOM      8  C   UNL     1      16.900  -6.781 -31.288  1.00  0.00     0.201 C 
ATOM      9  O   UNL     1      17.519  -7.879 -31.293  1.00  0.00    -0.288 OA
ATOM     10  C   UNL     1      15.511  -6.718 -30.767  1.00  0.00     0.076 A 
ATOM     11  C   UNL     1      15.077  -5.515 -30.165  1.00  0.00     0.041 A 
ATOM     12  C   UNL     1      15.948  -4.316 -30.201  1.00  0.00     0.194 C 
ATOM     13  O   UNL     1      15.623  -3.281 -29.555  1.00  0.00    -0.289 OA
ATOM     14  C   UNL     1      13.821  -5.461 -29.538  1.00  0.00     0.059 A 
ATOM     15  C   UNL     1      12.988  -6.583 -29.520  1.00  0.00     0.120 A 
ATOM     16  C   UNL     1      13.396  -7.759 -30.149  1.00  0.00     0.093 A 
ATOM     17  C   UNL     1      14.633  -7.833 -30.796  1.00  0.00     0.131 A 
ENDROOT
BRANCH   6  18
ATOM     18  O   UNL     1      19.189  -6.613 -33.193  1.00  0.00    -0.507 OA
ATOM     19  H   UNL     1      20.036  -7.125 -32.985  1.00  0.00     0.293 HD
ENDBRANCH   6  18
BRANCH  17  20
ATOM     20  O   UNL     1      14.933  -9.013 -31.481  1.00  0.00    -0.507 OA
ATOM     21  H   UNL     1      14.780  -9.935 -31.099  1.00  0.00     0.293 HD
ENDBRANCH  17  20
BRANCH  15  22
ATOM     22  O   UNL     1      11.746  -6.536 -28.889  1.00  0.00    -0.508 OA
ATOM     23  H   UNL     1      11.140  -7.348 -28.853  1.00  0.00     0.293 HD
ENDBRANCH  15  22
TORSDOF 3
ENDMDL
MODEL 9
REMARK VINA RESULT:    -4.972      1.382      3.514
REMARK INTER + INTRA:          -5.408
REMARK INTER:                  -5.408
REMARK INTRA:                   0.000
REMARK UNBOUND:                 0.000
REMARK SMILES Cc1cc(O)c2c(c1)C(=O)c1cc(O)cc(O)c1C2=O
REMARK SMILES IDX 1 1 2 2 8 3 7 4 6 5 4 6 3 7 19 8 20 9 18 10 11 11 9 12 10 13
REMARK SMILES IDX 12 14 13 15 15 16 16 17 5 18 17 20 14 22
REMARK H PARENT 5 19 17 21 14 23
REMARK Flexibility Score: inf
ROOT
ATOM      1  C   UNL     1      19.513  -6.320 -32.395  1.00  0.00     0.044 C 
ATOM      2  C   UNL     1      18.073  -6.367 -31.971  1.00  0.00    -0.047 A 
ATOM      3  C   UNL     1      17.574  -5.421 -31.069  1.00  0.00     0.016 A 
ATOM      4  C   UNL     1      16.239  -5.482 -30.633  1.00  0.00     0.038 A 
ATOM      5  C   UNL     1      15.397  -6.523 -31.086  1.00  0.00     0.076 A 
ATOM      6  C   UNL     1      15.896  -7.451 -32.036  1.00  0.00     0.127 A 
ATOM      7  C   UNL     1      17.233  -7.383 -32.441  1.00  0.00     0.050 A 
ATOM      8  C   UNL     1      14.042  -6.638 -30.489  1.00  0.00     0.201 C 
ATOM      9  O   UNL     1      13.495  -7.770 -30.390  1.00  0.00    -0.288 OA
ATOM     10  C   UNL     1      13.416  -5.456 -29.842  1.00  0.00     0.076 A 
ATOM     11  C   UNL     1      14.262  -4.418 -29.391  1.00  0.00     0.041 A 
ATOM     12  C   UNL     1      15.711  -4.458 -29.702  1.00  0.00     0.194 C 
ATOM     13  O   UNL     1      16.489  -3.604 -29.192  1.00  0.00    -0.289 OA
ATOM     14  C   UNL     1      13.724  -3.350 -28.653  1.00  0.00     0.059 A 
ATOM     15  C   UNL     1      12.356  -3.298 -28.375  1.00  0.00     0.120 A 
ATOM     16  C   UNL     1      11.513  -4.300 -28.854  1.00  0.00     0.093 A 
ATOM     17  C   UNL     1      12.020  -5.363 -29.608  1.00  0.00     0.131 A 
ENDROOT
BRANCH   6  18
ATOM     18  O   UNL     1      15.096  -8.433 -32.625  1.00  0.00    -0.507 OA
ATOM     19  H   UNL     1      14.100  -8.509 -32.470  1.00  0.00     0.293 HD
ENDBRANCH   6  18
BRANCH  17  20
ATOM     20  O   UNL     1      11.103  -6.279 -30.131  1.00  0.00    -0.507 OA
ATOM     21  H   UNL     1      10.274  -6.580 -29.640  1.00  0.00     0.293 HD
ENDBRANCH  17  20
BRANCH  15  22
ATOM     22  O   UNL     1      11.820  -2.247 -27.633  1.00  0.00    -0.508 OA
ATOM     23  H   UNL     1      11.163  -2.412 -26.879  1.00  0.00     0.293 HD
ENDBRANCH  15  22
TORSDOF 3
ENDMDL
