MODEL 1
REMARK VINA RESULT:    -5.428      0.000      0.000
REMARK INTER + INTRA:          -6.285
REMARK INTER:                  -6.063
REMARK INTRA:                  -0.222
REMARK UNBOUND:                -0.222
REMARK SMILES O=C([O-])c1ccccc1C(=O)[O-]
REMARK SMILES IDX 4 1 9 2 5 3 8 4 6 5 7 6 2 7 1 8 3 9 10 10 11 11 12 12
REMARK H PARENT
REMARK Flexibility Score: inf
ROOT
ATOM      1  C   UNL     1      20.426  15.705  51.911  1.00  0.00     0.006 A 
ATOM      2  C   UNL     1      20.367  15.471  53.313  1.00  0.00     0.006 A 
ATOM      3  C   UNL     1      19.245  16.040  51.224  1.00  0.00     0.010 A 
ATOM      4  C   UNL     1      19.143  15.645  53.986  1.00  0.00     0.010 A 
ATOM      5  C   UNL     1      18.038  16.186  51.908  1.00  0.00     0.001 A 
ATOM      6  C   UNL     1      17.989  16.000  53.286  1.00  0.00     0.001 A 
ENDROOT
BRANCH   1   7
ATOM      7  C   UNL     1      21.692  15.680  51.142  1.00  0.00     0.072 C 
ATOM      8  O   UNL     1      22.120  14.607  50.641  1.00  0.00    -0.545 OA
ATOM      9  O   UNL     1      22.457  16.834  51.021  1.00  0.00    -0.545 OA
ENDBRANCH   1   7
BRANCH   2  10
ATOM     10  C   UNL     1      21.528  14.980  54.092  1.00  0.00     0.072 C 
ATOM     11  O   UNL     1      21.699  13.744  54.264  1.00  0.00    -0.545 OA
ATOM     12  O   UNL     1      22.478  15.867  54.584  1.00  0.00    -0.545 OA
ENDBRANCH   2  10
TORSDOF 2
ENDMDL
MODEL 2
REMARK VINA RESULT:    -5.393      0.095      3.004
REMARK INTER + INTRA:          -6.245
REMARK INTER:                  -6.025
REMARK INTRA:                  -0.221
REMARK UNBOUND:                -0.222
REMARK SMILES O=C([O-])c1ccccc1C(=O)[O-]
REMARK SMILES IDX 4 1 9 2 5 3 8 4 6 5 7 6 2 7 1 8 3 9 10 10 11 11 12 12
REMARK H PARENT
REMARK Flexibility Score: inf
ROOT
ATOM      1  C   UNL     1      20.365  15.451  53.290  1.00  0.00     0.006 A 
ATOM      2  C   UNL     1      20.413  15.695  51.890  1.00  0.00     0.006 A 
ATOM      3  C   UNL     1      19.155  15.656  53.979  1.00  0.00     0.010 A 
ATOM      4  C   UNL     1      19.234  16.072  51.219  1.00  0.00     0.010 A 
ATOM      5  C   UNL     1      18.004  16.051  53.297  1.00  0.00     0.001 A 
ATOM      6  C   UNL     1      18.040  16.248  51.919  1.00  0.00     0.001 A 
ENDROOT
BRANCH   1   7
ATOM      7  C   UNL     1      21.516  14.921  54.056  1.00  0.00     0.072 C 
ATOM      8  O   UNL     1      21.602  13.692  54.323  1.00  0.00    -0.545 OA
ATOM      9  O   UNL     1      22.485  15.787  54.549  1.00  0.00    -0.545 OA
ENDBRANCH   1   7
BRANCH   2  10
ATOM     10  C   UNL     1      21.672  15.640  51.110  1.00  0.00     0.072 C 
ATOM     11  O   UNL     1      22.390  16.668  50.991  1.00  0.00    -0.545 OA
ATOM     12  O   UNL     1      22.112  14.443  50.559  1.00  0.00    -0.545 OA
ENDBRANCH   2  10
TORSDOF 2
ENDMDL
MODEL 3
REMARK VINA RESULT:    -5.026      2.252      3.575
REMARK INTER + INTRA:          -5.836
REMARK INTER:                  -5.733
REMARK INTRA:                  -0.102
REMARK UNBOUND:                -0.222
REMARK SMILES O=C([O-])c1ccccc1C(=O)[O-]
REMARK SMILES IDX 4 1 9 2 5 3 8 4 6 5 7 6 2 7 1 8 3 9 10 10 11 11 12 12
REMARK H PARENT
REMARK Flexibility Score: inf
ROOT
ATOM      1  C   UNL     1      22.498  16.511  52.810  1.00  0.00     0.006 A 
ATOM      2  C   UNL     1      21.313  15.725  52.793  1.00  0.00     0.006 A 
ATOM      3  C   UNL     1      23.406  16.356  53.874  1.00  0.00     0.010 A 
ATOM      4  C   UNL     1      21.111  14.768  53.805  1.00  0.00     0.010 A 
ATOM      5  C   UNL     1      23.175  15.416  54.878  1.00  0.00     0.001 A 
ATOM      6  C   UNL     1      22.036  14.616  54.838  1.00  0.00     0.001 A 
ENDROOT
BRANCH   1   7
ATOM      7  C   UNL     1      22.863  17.444  51.719  1.00  0.00     0.072 C 
ATOM      8  O   UNL     1      23.251  17.009  50.602  1.00  0.00    -0.545 OA
ATOM      9  O   UNL     1      22.846  18.816  51.939  1.00  0.00    -0.545 OA
ENDBRANCH   1   7
BRANCH   2  10
ATOM     10  C   UNL     1      20.239  15.919  51.791  1.00  0.00     0.072 C 
ATOM     11  O   UNL     1      20.367  15.456  50.626  1.00  0.00    -0.545 OA
ATOM     12  O   UNL     1      19.051  16.551  52.138  1.00  0.00    -0.545 OA
ENDBRANCH   2  10
TORSDOF 2
ENDMDL
MODEL 4
REMARK VINA RESULT:    -5.024      2.237      3.879
REMARK INTER + INTRA:          -5.833
REMARK INTER:                  -5.671
REMARK INTRA:                  -0.162
REMARK UNBOUND:                -0.222
REMARK SMILES O=C([O-])c1ccccc1C(=O)[O-]
REMARK SMILES IDX 4 1 9 2 5 3 8 4 6 5 7 6 2 7 1 8 3 9 10 10 11 11 12 12
REMARK H PARENT
REMARK Flexibility Score: inf
ROOT
ATOM      1  C   UNL     1      21.298  15.721  52.829  1.00  0.00     0.006 A 
ATOM      2  C   UNL     1      22.496  16.487  52.843  1.00  0.00     0.006 A 
ATOM      3  C   UNL     1      21.073  14.782  53.853  1.00  0.00     0.010 A 
ATOM      4  C   UNL     1      23.394  16.332  53.916  1.00  0.00     0.010 A 
ATOM      5  C   UNL     1      21.988  14.631  54.895  1.00  0.00     0.001 A 
ATOM      6  C   UNL     1      23.140  15.411  54.933  1.00  0.00     0.001 A 
ENDROOT
BRANCH   1   7
ATOM      7  C   UNL     1      20.231  15.911  51.818  1.00  0.00     0.072 C 
ATOM      8  O   UNL     1      19.161  16.506  52.116  1.00  0.00    -0.545 OA
ATOM      9  O   UNL     1      20.373  15.375  50.544  1.00  0.00    -0.545 OA
ENDBRANCH   1   7
BRANCH   2  10
ATOM     10  C   UNL     1      22.879  17.394  51.736  1.00  0.00     0.072 C 
ATOM     11  O   UNL     1      22.871  18.642  51.908  1.00  0.00    -0.545 OA
ATOM     12  O   UNL     1      23.317  16.883  50.520  1.00  0.00    -0.545 OA
ENDBRANCH   2  10
TORSDOF 2
ENDMDL
MODEL 5
REMARK VINA RESULT:    -4.828      3.027      3.819
REMARK INTER + INTRA:          -5.614
REMARK INTER:                  -5.458
REMARK INTRA:                  -0.156
REMARK UNBOUND:                -0.222
REMARK SMILES O=C([O-])c1ccccc1C(=O)[O-]
REMARK SMILES IDX 4 1 9 2 5 3 8 4 6 5 7 6 2 7 1 8 3 9 10 10 11 11 12 12
REMARK H PARENT
REMARK Flexibility Score: inf
ROOT
ATOM      1  C   UNL     1      19.020  15.988  52.148  1.00  0.00     0.006 A 
ATOM      2  C   UNL     1      18.824  15.491  53.466  1.00  0.00     0.006 A 
ATOM      3  C   UNL     1      20.333  16.175  51.677  1.00  0.00     0.010 A 
ATOM      4  C   UNL     1      19.945  15.138  54.240  1.00  0.00     0.010 A 
ATOM      5  C   UNL     1      21.430  15.839  52.469  1.00  0.00     0.001 A 
ATOM      6  C   UNL     1      21.238  15.312  53.743  1.00  0.00     0.001 A 
ENDROOT
BRANCH   1   7
ATOM      7  C   UNL     1      17.903  16.256  51.212  1.00  0.00     0.072 C 
ATOM      8  O   UNL     1      17.205  15.313  50.756  1.00  0.00    -0.545 OA
ATOM      9  O   UNL     1      17.656  17.552  50.775  1.00  0.00    -0.545 OA
ENDBRANCH   1   7
BRANCH   2  10
ATOM     10  C   UNL     1      17.484  15.394  54.094  1.00  0.00     0.072 C 
ATOM     11  O   UNL     1      16.997  16.382  54.704  1.00  0.00    -0.545 OA
ATOM     12  O   UNL     1      16.722  14.240  53.960  1.00  0.00    -0.545 OA
ENDBRANCH   2  10
TORSDOF 2
ENDMDL
MODEL 6
REMARK VINA RESULT:    -4.766      3.103      4.799
REMARK INTER + INTRA:          -5.545
REMARK INTER:                  -5.382
REMARK INTRA:                  -0.163
REMARK UNBOUND:                -0.222
REMARK SMILES O=C([O-])c1ccccc1C(=O)[O-]
REMARK SMILES IDX 4 1 9 2 5 3 8 4 6 5 7 6 2 7 1 8 3 9 10 10 11 11 12 12
REMARK H PARENT
REMARK Flexibility Score: inf
ROOT
ATOM      1  C   UNL     1      18.624  15.409  53.517  1.00  0.00     0.006 A 
ATOM      2  C   UNL     1      18.966  15.946  52.246  1.00  0.00     0.006 A 
ATOM      3  C   UNL     1      19.653  15.006  54.389  1.00  0.00     0.010 A 
ATOM      4  C   UNL     1      20.324  16.121  51.919  1.00  0.00     0.010 A 
ATOM      5  C   UNL     1      20.992  15.168  54.035  1.00  0.00     0.001 A 
ATOM      6  C   UNL     1      21.327  15.734  52.809  1.00  0.00     0.001 A 
ENDROOT
BRANCH   1   7
ATOM      7  C   UNL     1      17.227  15.315  54.004  1.00  0.00     0.072 C 
ATOM      8  O   UNL     1      16.735  16.221  54.727  1.00  0.00    -0.545 OA
ATOM      9  O   UNL     1      16.464  14.188  53.721  1.00  0.00    -0.545 OA
ENDBRANCH   1   7
BRANCH   2  10
ATOM     10  C   UNL     1      17.953  16.267  51.213  1.00  0.00     0.072 C 
ATOM     11  O   UNL     1      17.319  15.343  50.638  1.00  0.00    -0.545 OA
ATOM     12  O   UNL     1      17.639  17.588  50.914  1.00  0.00    -0.545 OA
ENDBRANCH   2  10
TORSDOF 2
ENDMDL
MODEL 7
REMARK VINA RESULT:    -4.613      2.102      4.326
REMARK INTER + INTRA:          -5.375
REMARK INTER:                  -5.152
REMARK INTRA:                  -0.222
REMARK UNBOUND:                -0.222
REMARK SMILES O=C([O-])c1ccccc1C(=O)[O-]
REMARK SMILES IDX 4 1 9 2 5 3 8 4 6 5 7 6 2 7 1 8 3 9 10 10 11 11 12 12
REMARK H PARENT
REMARK Flexibility Score: inf
ROOT
ATOM      1  C   UNL     1      22.319  15.917  53.176  1.00  0.00     0.006 A 
ATOM      2  C   UNL     1      22.119  16.180  51.793  1.00  0.00     0.006 A 
ATOM      3  C   UNL     1      23.287  16.656  53.880  1.00  0.00     0.010 A 
ATOM      4  C   UNL     1      22.849  17.216  51.180  1.00  0.00     0.010 A 
ATOM      5  C   UNL     1      24.015  17.664  53.247  1.00  0.00     0.001 A 
ATOM      6  C   UNL     1      23.789  17.951  51.904  1.00  0.00     0.001 A 
ENDROOT
BRANCH   1   7
ATOM      7  C   UNL     1      21.502  14.943  53.938  1.00  0.00     0.072 C 
ATOM      8  O   UNL     1      21.945  13.791  54.192  1.00  0.00    -0.545 OA
ATOM      9  O   UNL     1      20.207  15.269  54.324  1.00  0.00    -0.545 OA
ENDBRANCH   1   7
BRANCH   2  10
ATOM     10  C   UNL     1      21.223  15.361  50.943  1.00  0.00     0.072 C 
ATOM     11  O   UNL     1      21.619  14.256  50.485  1.00  0.00    -0.545 OA
ATOM     12  O   UNL     1      19.916  15.763  50.697  1.00  0.00    -0.545 OA
ENDBRANCH   2  10
TORSDOF 2
ENDMDL
MODEL 8
REMARK VINA RESULT:    -4.573      2.087      3.349
REMARK INTER + INTRA:          -5.329
REMARK INTER:                  -5.108
REMARK INTRA:                  -0.222
REMARK UNBOUND:                -0.222
REMARK SMILES O=C([O-])c1ccccc1C(=O)[O-]
REMARK SMILES IDX 4 1 9 2 5 3 8 4 6 5 7 6 2 7 1 8 3 9 10 10 11 11 12 12
REMARK H PARENT
REMARK Flexibility Score: inf
ROOT
ATOM      1  C   UNL     1      22.108  16.199  51.807  1.00  0.00     0.006 A 
ATOM      2  C   UNL     1      22.320  15.914  53.184  1.00  0.00     0.006 A 
ATOM      3  C   UNL     1      22.830  17.248  51.206  1.00  0.00     0.010 A 
ATOM      4  C   UNL     1      23.292  16.644  53.893  1.00  0.00     0.010 A 
ATOM      5  C   UNL     1      23.774  17.972  51.934  1.00  0.00     0.001 A 
ATOM      6  C   UNL     1      24.013  17.665  53.271  1.00  0.00     0.001 A 
ENDROOT
BRANCH   1   7
ATOM      7  C   UNL     1      21.208  15.397  50.946  1.00  0.00     0.072 C 
ATOM      8  O   UNL     1      20.029  15.776  50.717  1.00  0.00    -0.545 OA
ATOM      9  O   UNL     1      21.636  14.177  50.435  1.00  0.00    -0.545 OA
ENDBRANCH   1   7
BRANCH   2  10
ATOM     10  C   UNL     1      21.508  14.925  53.931  1.00  0.00     0.072 C 
ATOM     11  O   UNL     1      21.999  13.808  54.243  1.00  0.00    -0.545 OA
ATOM     12  O   UNL     1      20.222  15.239  54.355  1.00  0.00    -0.545 OA
ENDBRANCH   2  10
TORSDOF 2
ENDMDL
MODEL 9
REMARK VINA RESULT:    -3.839      2.521      3.286
REMARK INTER + INTRA:          -4.510
REMARK INTER:                  -5.219
REMARK INTRA:                   0.708
REMARK UNBOUND:                -0.222
REMARK SMILES O=C([O-])c1ccccc1C(=O)[O-]
REMARK SMILES IDX 4 1 9 2 5 3 8 4 6 5 7 6 2 7 1 8 3 9 10 10 11 11 12 12
REMARK H PARENT
REMARK Flexibility Score: inf
ROOT
ATOM      1  C   UNL     1      17.266  15.739  52.050  1.00  0.00     0.006 A 
ATOM      2  C   UNL     1      17.925  15.475  53.282  1.00  0.00     0.006 A 
ATOM      3  C   UNL     1      15.906  15.405  51.916  1.00  0.00     0.010 A 
ATOM      4  C   UNL     1      17.183  14.947  54.356  1.00  0.00     0.010 A 
ATOM      5  C   UNL     1      15.196  14.862  52.986  1.00  0.00     0.001 A 
ATOM      6  C   UNL     1      15.829  14.643  54.206  1.00  0.00     0.001 A 
ENDROOT
BRANCH   1   7
ATOM      7  C   UNL     1      17.928  16.419  50.911  1.00  0.00     0.072 C 
ATOM      8  O   UNL     1      17.601  17.589  50.582  1.00  0.00    -0.545 OA
ATOM      9  O   UNL     1      18.874  15.742  50.150  1.00  0.00    -0.545 OA
ENDBRANCH   1   7
BRANCH   2  10
ATOM     10  C   UNL     1      19.383  15.665  53.468  1.00  0.00     0.072 C 
ATOM     11  O   UNL     1      19.999  15.018  54.356  1.00  0.00    -0.545 OA
ATOM     12  O   UNL     1      20.101  16.504  52.624  1.00  0.00    -0.545 OA
ENDBRANCH   2  10
TORSDOF 2
ENDMDL
