MODEL 1
REMARK VINA RESULT:    -2.002      0.000      0.000
REMARK INTER + INTRA:          -2.668
REMARK INTER:                  -2.588
REMARK INTRA:                  -0.081
REMARK UNBOUND:                -0.081
REMARK SMILES C=CC(=O)CCCCC
REMARK SMILES IDX 6 1 7 2 8 3 9 4 5 5 3 6 4 7 2 8 1 9
REMARK H PARENT
REMARK Flexibility Score: inf
ROOT
ATOM      1  C   UNL     1      32.610  23.129  28.834  1.00  0.00     0.008 C 
ENDROOT
BRANCH   1   2
ATOM      2  C   UNL     1      31.462  23.569  27.912  1.00  0.00     0.000 C 
BRANCH   2   3
ATOM      3  C   UNL     1      30.178  22.756  28.138  1.00  0.00    -0.003 C 
ATOM      4  C   UNL     1      30.080  21.598  27.150  1.00  0.00     0.004 C 
ENDBRANCH   2   3
ENDBRANCH   1   2
BRANCH   1   5
ATOM      5  C   UNL     1      33.828  24.058  28.745  1.00  0.00     0.080 C 
BRANCH   5   6
ATOM      6  C   UNL     1      34.876  23.463  27.852  1.00  0.00     0.155 C 
ATOM      7  O   UNL     1      34.523  22.748  26.875  1.00  0.00    -0.295 OA
BRANCH   6   8
ATOM      8  C   UNL     1      36.307  23.680  28.144  1.00  0.00     0.039 C 
ATOM      9  C   UNL     1      37.027  22.824  28.868  1.00  0.00     0.012 C 
ENDBRANCH   6   8
ENDBRANCH   5   6
ENDBRANCH   1   5
TORSDOF 5
ENDMDL
MODEL 2
REMARK VINA RESULT:    -1.899      1.518      2.069
REMARK INTER + INTRA:          -2.535
REMARK INTER:                  -2.281
REMARK INTRA:                  -0.254
REMARK UNBOUND:                -0.081
REMARK SMILES C=CC(=O)CCCCC
REMARK SMILES IDX 6 1 7 2 8 3 9 4 5 5 3 6 4 7 2 8 1 9
REMARK H PARENT
REMARK Flexibility Score: inf
ROOT
ATOM      1  C   UNL     1      31.785  22.147  27.935  1.00  0.00     0.008 C 
ENDROOT
BRANCH   1   2
ATOM      2  C   UNL     1      30.347  22.690  27.958  1.00  0.00     0.000 C 
BRANCH   2   3
ATOM      3  C   UNL     1      30.217  23.987  28.771  1.00  0.00    -0.003 C 
ATOM      4  C   UNL     1      30.747  23.800  30.190  1.00  0.00     0.004 C 
ENDBRANCH   2   3
ENDBRANCH   1   2
BRANCH   1   5
ATOM      5  C   UNL     1      32.682  22.895  26.940  1.00  0.00     0.080 C 
BRANCH   5   6
ATOM      6  C   UNL     1      33.930  23.376  27.619  1.00  0.00     0.155 C 
ATOM      7  O   UNL     1      33.871  23.770  28.816  1.00  0.00    -0.295 OA
BRANCH   6   8
ATOM      8  C   UNL     1      35.205  23.427  26.875  1.00  0.00     0.039 C 
ATOM      9  C   UNL     1      36.369  23.088  27.426  1.00  0.00     0.012 C 
ENDBRANCH   6   8
ENDBRANCH   5   6
ENDBRANCH   1   5
TORSDOF 5
ENDMDL
MODEL 3
REMARK VINA RESULT:    -1.508      2.587      4.689
REMARK INTER + INTRA:          -2.030
REMARK INTER:                  -1.719
REMARK INTRA:                  -0.311
REMARK UNBOUND:                -0.081
REMARK SMILES C=CC(=O)CCCCC
REMARK SMILES IDX 6 1 7 2 8 3 9 4 5 5 3 6 4 7 2 8 1 9
REMARK H PARENT
REMARK Flexibility Score: inf
ROOT
ATOM      1  C   UNL     1      31.863  22.105  27.946  1.00  0.00     0.008 C 
ENDROOT
BRANCH   1   2
ATOM      2  C   UNL     1      32.198  23.156  26.875  1.00  0.00     0.000 C 
BRANCH   2   3
ATOM      3  C   UNL     1      33.452  23.974  27.221  1.00  0.00    -0.003 C 
ATOM      4  C   UNL     1      34.688  23.082  27.287  1.00  0.00     0.004 C 
ENDBRANCH   2   3
ENDBRANCH   1   2
BRANCH   1   5
ATOM      5  C   UNL     1      30.390  22.148  28.374  1.00  0.00     0.080 C 
BRANCH   5   6
ATOM      6  C   UNL     1      30.078  23.451  29.048  1.00  0.00     0.155 C 
ATOM      7  O   UNL     1      29.083  24.124  28.662  1.00  0.00    -0.295 OA
BRANCH   6   8
ATOM      8  C   UNL     1      30.956  23.958  30.122  1.00  0.00     0.039 C 
ATOM      9  C   UNL     1      30.549  24.069  31.385  1.00  0.00     0.012 C 
ENDBRANCH   6   8
ENDBRANCH   5   6
ENDBRANCH   1   5
TORSDOF 5
ENDMDL
MODEL 4
REMARK VINA RESULT:    -1.202     21.252     23.021
REMARK INTER + INTRA:          -1.635
REMARK INTER:                  -1.455
REMARK INTRA:                  -0.179
REMARK UNBOUND:                -0.081
REMARK SMILES C=CC(=O)CCCCC
REMARK SMILES IDX 6 1 7 2 8 3 9 4 5 5 3 6 4 7 2 8 1 9
REMARK H PARENT
REMARK Flexibility Score: inf
ROOT
ATOM      1  C   UNL     1      20.308  22.544  45.932  1.00  0.00     0.008 C 
ENDROOT
BRANCH   1   2
ATOM      2  C   UNL     1      21.679  22.447  46.620  1.00  0.00     0.000 C 
BRANCH   2   3
ATOM      3  C   UNL     1      22.830  22.261  45.620  1.00  0.00    -0.003 C 
ATOM      4  C   UNL     1      24.130  22.847  46.164  1.00  0.00     0.004 C 
ENDBRANCH   2   3
ENDBRANCH   1   2
BRANCH   1   5
ATOM      5  C   UNL     1      19.164  22.787  46.926  1.00  0.00     0.080 C 
BRANCH   5   6
ATOM      6  C   UNL     1      18.114  23.664  46.312  1.00  0.00     0.155 C 
ATOM      7  O   UNL     1      17.175  24.103  47.032  1.00  0.00    -0.295 OA
BRANCH   6   8
ATOM      8  C   UNL     1      18.158  23.972  44.869  1.00  0.00     0.039 C 
ATOM      9  C   UNL     1      17.059  24.065  44.123  1.00  0.00     0.012 C 
ENDBRANCH   6   8
ENDBRANCH   5   6
ENDBRANCH   1   5
TORSDOF 5
ENDMDL
MODEL 5
REMARK VINA RESULT:    -1.184      1.713      4.823
REMARK INTER + INTRA:          -1.611
REMARK INTER:                  -1.341
REMARK INTRA:                  -0.270
REMARK UNBOUND:                -0.081
REMARK SMILES C=CC(=O)CCCCC
REMARK SMILES IDX 6 1 7 2 8 3 9 4 5 5 3 6 4 7 2 8 1 9
REMARK H PARENT
REMARK Flexibility Score: inf
ROOT
ATOM      1  C   UNL     1      33.791  23.853  27.323  1.00  0.00     0.008 C 
ENDROOT
BRANCH   1   2
ATOM      2  C   UNL     1      35.293  23.589  27.129  1.00  0.00     0.000 C 
BRANCH   2   3
ATOM      3  C   UNL     1      36.046  23.447  28.461  1.00  0.00    -0.003 C 
ATOM      4  C   UNL     1      37.125  22.373  28.370  1.00  0.00     0.004 C 
ENDBRANCH   2   3
ENDBRANCH   1   2
BRANCH   1   5
ATOM      5  C   UNL     1      33.324  23.576  28.758  1.00  0.00     0.080 C 
BRANCH   5   6
ATOM      6  C   UNL     1      31.941  22.992  28.755  1.00  0.00     0.155 C 
ATOM      7  O   UNL     1      31.104  23.382  29.613  1.00  0.00    -0.295 OA
BRANCH   6   8
ATOM      8  C   UNL     1      31.585  21.940  27.782  1.00  0.00     0.039 C 
ATOM      9  C   UNL     1      30.370  21.845  27.245  1.00  0.00     0.012 C 
ENDBRANCH   6   8
ENDBRANCH   5   6
ENDBRANCH   1   5
TORSDOF 5
ENDMDL
MODEL 6
REMARK VINA RESULT:    -0.865      2.562      3.359
REMARK INTER + INTRA:          -1.199
REMARK INTER:                  -0.971
REMARK INTRA:                  -0.228
REMARK UNBOUND:                -0.081
REMARK SMILES C=CC(=O)CCCCC
REMARK SMILES IDX 6 1 7 2 8 3 9 4 5 5 3 6 4 7 2 8 1 9
REMARK H PARENT
REMARK Flexibility Score: inf
ROOT
ATOM      1  C   UNL     1      31.803  24.113  30.183  1.00  0.00     0.008 C 
ENDROOT
BRANCH   1   2
ATOM      2  C   UNL     1      30.298  24.120  30.494  1.00  0.00     0.000 C 
BRANCH   2   3
ATOM      3  C   UNL     1      30.006  24.117  32.002  1.00  0.00    -0.003 C 
ATOM      4  C   UNL     1      31.299  24.125  32.811  1.00  0.00     0.004 C 
ENDBRANCH   2   3
ENDBRANCH   1   2
BRANCH   1   5
ATOM      5  C   UNL     1      32.233  22.885  29.370  1.00  0.00     0.080 C 
BRANCH   5   6
ATOM      6  C   UNL     1      32.444  23.257  27.932  1.00  0.00     0.155 C 
ATOM      7  O   UNL     1      31.442  23.435  27.185  1.00  0.00    -0.295 OA
BRANCH   6   8
ATOM      8  C   UNL     1      33.812  23.367  27.389  1.00  0.00     0.039 C 
ATOM      9  C   UNL     1      34.868  23.630  28.158  1.00  0.00     0.012 C 
ENDBRANCH   6   8
ENDBRANCH   5   6
ENDBRANCH   1   5
TORSDOF 5
ENDMDL
MODEL 7
REMARK VINA RESULT:    -0.638      3.135      4.033
REMARK INTER + INTRA:          -0.905
REMARK INTER:                  -1.867
REMARK INTRA:                   0.962
REMARK UNBOUND:                -0.081
REMARK SMILES C=CC(=O)CCCCC
REMARK SMILES IDX 6 1 7 2 8 3 9 4 5 5 3 6 4 7 2 8 1 9
REMARK H PARENT
REMARK Flexibility Score: inf
ROOT
ATOM      1  C   UNL     1      31.436  23.255  27.055  1.00  0.00     0.008 C 
ENDROOT
BRANCH   1   2
ATOM      2  C   UNL     1      32.032  21.839  27.095  1.00  0.00     0.000 C 
BRANCH   2   3
ATOM      3  C   UNL     1      30.963  20.753  27.289  1.00  0.00    -0.003 C 
ATOM      4  C   UNL     1      29.584  21.261  26.881  1.00  0.00     0.004 C 
ENDBRANCH   2   3
ENDBRANCH   1   2
BRANCH   1   5
ATOM      5  C   UNL     1      30.418  23.500  28.177  1.00  0.00     0.080 C 
BRANCH   5   6
ATOM      6  C   UNL     1      31.123  23.751  29.477  1.00  0.00     0.155 C 
ATOM      7  O   UNL     1      32.384  23.737  29.510  1.00  0.00    -0.295 OA
BRANCH   6   8
ATOM      8  C   UNL     1      30.343  23.966  30.712  1.00  0.00     0.039 C 
ATOM      9  C   UNL     1      30.918  24.125  31.903  1.00  0.00     0.012 C 
ENDBRANCH   6   8
ENDBRANCH   5   6
ENDBRANCH   1   5
TORSDOF 5
ENDMDL
MODEL 8
REMARK VINA RESULT:    -0.255     17.085     17.937
REMARK INTER + INTRA:          -0.410
REMARK INTER:                  -0.419
REMARK INTRA:                   0.009
REMARK UNBOUND:                -0.081
REMARK SMILES C=CC(=O)CCCCC
REMARK SMILES IDX 6 1 7 2 8 3 9 4 5 5 3 6 4 7 2 8 1 9
REMARK H PARENT
REMARK Flexibility Score: inf
ROOT
ATOM      1  C   UNL     1      35.076  12.456  41.134  1.00  0.00     0.008 C 
ENDROOT
BRANCH   1   2
ATOM      2  C   UNL     1      34.844  12.971  42.564  1.00  0.00     0.000 C 
BRANCH   2   3
ATOM      3  C   UNL     1      35.897  14.001  43.000  1.00  0.00    -0.003 C 
ATOM      4  C   UNL     1      35.240  15.308  43.431  1.00  0.00     0.004 C 
ENDBRANCH   2   3
ENDBRANCH   1   2
BRANCH   1   5
ATOM      5  C   UNL     1      33.769  12.270  40.353  1.00  0.00     0.080 C 
BRANCH   5   6
ATOM      6  C   UNL     1      33.042  11.048  40.831  1.00  0.00     0.155 C 
ATOM      7  O   UNL     1      32.465  11.070  41.952  1.00  0.00    -0.295 OA
BRANCH   6   8
ATOM      8  C   UNL     1      33.044   9.819  40.012  1.00  0.00     0.039 C 
ATOM      9  C   UNL     1      34.160   9.148  39.731  1.00  0.00     0.012 C 
ENDBRANCH   6   8
ENDBRANCH   5   6
ENDBRANCH   1   5
TORSDOF 5
ENDMDL
MODEL 9
REMARK VINA RESULT:    -0.239      1.682      2.306
REMARK INTER + INTRA:          -0.390
REMARK INTER:                  -0.262
REMARK INTRA:                  -0.129
REMARK UNBOUND:                -0.081
REMARK SMILES C=CC(=O)CCCCC
REMARK SMILES IDX 6 1 7 2 8 3 9 4 5 5 3 6 4 7 2 8 1 9
REMARK H PARENT
REMARK Flexibility Score: inf
ROOT
ATOM      1  C   UNL     1      31.286  21.895  28.285  1.00  0.00     0.008 C 
ENDROOT
BRANCH   1   2
ATOM      2  C   UNL     1      30.028  22.222  27.464  1.00  0.00     0.000 C 
BRANCH   2   3
ATOM      3  C   UNL     1      29.364  20.969  26.875  1.00  0.00    -0.003 C 
ATOM      4  C   UNL     1      27.873  20.936  27.195  1.00  0.00     0.004 C 
ENDBRANCH   2   3
ENDBRANCH   1   2
BRANCH   1   5
ATOM      5  C   UNL     1      32.543  22.586  27.740  1.00  0.00     0.080 C 
BRANCH   5   6
ATOM      6  C   UNL     1      33.144  23.480  28.784  1.00  0.00     0.155 C 
ATOM      7  O   UNL     1      32.504  23.705  29.848  1.00  0.00    -0.295 OA
BRANCH   6   8
ATOM      8  C   UNL     1      34.450  24.125  28.544  1.00  0.00     0.039 C 
ATOM      9  C   UNL     1      35.527  23.440  28.162  1.00  0.00     0.012 C 
ENDBRANCH   6   8
ENDBRANCH   5   6
ENDBRANCH   1   5
TORSDOF 5
ENDMDL
