MODEL 1
REMARK VINA RESULT:    -6.695      0.000      0.000
REMARK INTER + INTRA:          -7.049
REMARK INTER:                  -7.086
REMARK INTRA:                   0.037
REMARK UNBOUND:                 0.037
REMARK SMILES C=C(C)[C@@H]1CC=C(C)C(=O)C1
REMARK SMILES IDX 8 1 7 2 6 3 5 4 4 5 11 6 9 7 10 8 2 9 1 10 3 11
REMARK H PARENT
REMARK Flexibility Score: inf
ROOT
ATOM      1  C   UNL     1      16.512  26.124   4.454  1.00  0.00     0.048 C 
ATOM      2  C   UNL     1      17.991  25.926   4.640  1.00  0.00    -0.012 C 
ATOM      3  C   UNL     1      18.683  25.185   3.761  1.00  0.00    -0.019 C 
ATOM      4  C   UNL     1      20.155  24.937   3.931  1.00  0.00     0.036 C 
ATOM      5  C   UNL     1      20.880  26.184   4.475  1.00  0.00     0.025 C 
ATOM      6  C   UNL     1      20.213  26.658   5.788  1.00  0.00     0.089 C 
ATOM      7  C   UNL     1      18.707  26.661   5.712  1.00  0.00     0.158 C 
ATOM      8  O   UNL     1      18.054  27.297   6.583  1.00  0.00    -0.295 OA
ENDROOT
BRANCH   5   9
ATOM      9  C   UNL     1      21.027  27.256   3.391  1.00  0.00    -0.077 C 
ATOM     10  C   UNL     1      22.096  27.209   2.578  1.00  0.00     0.008 C 
ATOM     11  C   UNL     1      20.029  28.369   3.169  1.00  0.00     0.039 C 
ENDBRANCH   5   9
TORSDOF 1
ENDMDL
MODEL 2
REMARK VINA RESULT:    -6.100      1.908      4.146
REMARK INTER + INTRA:          -6.420
REMARK INTER:                  -6.340
REMARK INTRA:                  -0.080
REMARK UNBOUND:                 0.037
REMARK SMILES C=C(C)[C@@H]1CC=C(C)C(=O)C1
REMARK SMILES IDX 8 1 7 2 6 3 5 4 4 5 11 6 9 7 10 8 2 9 1 10 3 11
REMARK H PARENT
REMARK Flexibility Score: inf
ROOT
ATOM      1  C   UNL     1      21.068  26.079   4.069  1.00  0.00     0.048 C 
ATOM      2  C   UNL     1      19.610  25.737   4.204  1.00  0.00    -0.012 C 
ATOM      3  C   UNL     1      19.243  24.612   4.836  1.00  0.00    -0.019 C 
ATOM      4  C   UNL     1      17.798  24.219   4.963  1.00  0.00     0.036 C 
ATOM      5  C   UNL     1      16.896  25.446   5.200  1.00  0.00     0.025 C 
ATOM      6  C   UNL     1      17.120  26.494   4.083  1.00  0.00     0.089 C 
ATOM      7  C   UNL     1      18.578  26.707   3.764  1.00  0.00     0.158 C 
ATOM      8  O   UNL     1      18.914  27.728   3.104  1.00  0.00    -0.295 OA
ENDROOT
BRANCH   5   9
ATOM      9  C   UNL     1      17.041  25.973   6.630  1.00  0.00    -0.077 C 
ATOM     10  C   UNL     1      16.419  25.317   7.625  1.00  0.00     0.008 C 
ATOM     11  C   UNL     1      17.857  27.190   7.000  1.00  0.00     0.039 C 
ENDBRANCH   5   9
TORSDOF 1
ENDMDL
MODEL 3
REMARK VINA RESULT:    -6.075      1.549      2.401
REMARK INTER + INTRA:          -6.393
REMARK INTER:                  -6.782
REMARK INTRA:                   0.389
REMARK UNBOUND:                 0.037
REMARK SMILES C=C(C)[C@@H]1CC=C(C)C(=O)C1
REMARK SMILES IDX 8 1 7 2 6 3 5 4 4 5 11 6 9 7 10 8 2 9 1 10 3 11
REMARK H PARENT
REMARK Flexibility Score: inf
ROOT
ATOM      1  C   UNL     1      17.768  24.311   5.619  1.00  0.00     0.048 C 
ATOM      2  C   UNL     1      18.384  25.614   5.192  1.00  0.00    -0.012 C 
ATOM      3  C   UNL     1      19.399  26.137   5.897  1.00  0.00    -0.019 C 
ATOM      4  C   UNL     1      20.019  27.454   5.521  1.00  0.00     0.036 C 
ATOM      5  C   UNL     1      20.108  27.621   3.992  1.00  0.00     0.025 C 
ATOM      6  C   UNL     1      18.712  27.431   3.353  1.00  0.00     0.089 C 
ATOM      7  C   UNL     1      17.965  26.249   3.918  1.00  0.00     0.158 C 
ATOM      8  O   UNL     1      16.965  25.805   3.292  1.00  0.00    -0.295 OA
ENDROOT
BRANCH   5   9
ATOM      9  C   UNL     1      21.222  26.751   3.403  1.00  0.00    -0.077 C 
ATOM     10  C   UNL     1      22.148  27.330   2.620  1.00  0.00     0.008 C 
ATOM     11  C   UNL     1      21.352  25.266   3.657  1.00  0.00     0.039 C 
ENDBRANCH   5   9
TORSDOF 1
ENDMDL
MODEL 4
REMARK VINA RESULT:    -5.748      1.799      2.827
REMARK INTER + INTRA:          -6.047
REMARK INTER:                  -5.821
REMARK INTRA:                  -0.225
REMARK UNBOUND:                 0.037
REMARK SMILES C=C(C)[C@@H]1CC=C(C)C(=O)C1
REMARK SMILES IDX 8 1 7 2 6 3 5 4 4 5 11 6 9 7 10 8 2 9 1 10 3 11
REMARK H PARENT
REMARK Flexibility Score: inf
ROOT
ATOM      1  C   UNL     1      14.875  26.387   5.501  1.00  0.00     0.048 C 
ATOM      2  C   UNL     1      16.151  25.803   4.962  1.00  0.00    -0.012 C 
ATOM      3  C   UNL     1      16.800  26.420   3.963  1.00  0.00    -0.019 C 
ATOM      4  C   UNL     1      18.061  25.850   3.376  1.00  0.00     0.036 C 
ATOM      5  C   UNL     1      18.950  25.209   4.459  1.00  0.00     0.025 C 
ATOM      6  C   UNL     1      18.146  24.152   5.252  1.00  0.00     0.089 C 
ATOM      7  C   UNL     1      16.764  24.626   5.625  1.00  0.00     0.158 C 
ATOM      8  O   UNL     1      16.125  23.999   6.513  1.00  0.00    -0.295 OA
ENDROOT
BRANCH   5   9
ATOM      9  C   UNL     1      19.644  26.277   5.309  1.00  0.00    -0.077 C 
ATOM     10  C   UNL     1      20.331  27.251   4.688  1.00  0.00     0.008 C 
ATOM     11  C   UNL     1      19.594  26.313   6.820  1.00  0.00     0.039 C 
ENDBRANCH   5   9
TORSDOF 1
ENDMDL
MODEL 5
REMARK VINA RESULT:    -5.743      1.975      3.313
REMARK INTER + INTRA:          -6.042
REMARK INTER:                  -6.195
REMARK INTRA:                   0.153
REMARK UNBOUND:                 0.037
REMARK SMILES C=C(C)[C@@H]1CC=C(C)C(=O)C1
REMARK SMILES IDX 8 1 7 2 6 3 5 4 4 5 11 6 9 7 10 8 2 9 1 10 3 11
REMARK H PARENT
REMARK Flexibility Score: inf
ROOT
ATOM      1  C   UNL     1      15.581  24.510   7.192  1.00  0.00     0.048 C 
ATOM      2  C   UNL     1      16.467  25.453   6.428  1.00  0.00    -0.012 C 
ATOM      3  C   UNL     1      17.607  25.896   6.980  1.00  0.00    -0.019 C 
ATOM      4  C   UNL     1      18.502  26.865   6.261  1.00  0.00     0.036 C 
ATOM      5  C   UNL     1      18.561  26.569   4.750  1.00  0.00     0.025 C 
ATOM      6  C   UNL     1      17.132  26.545   4.157  1.00  0.00     0.089 C 
ATOM      7  C   UNL     1      16.154  25.783   5.016  1.00  0.00     0.158 C 
ATOM      8  O   UNL     1      15.050  25.433   4.517  1.00  0.00    -0.295 OA
ENDROOT
BRANCH   5   9
ATOM      9  C   UNL     1      19.410  25.328   4.462  1.00  0.00    -0.077 C 
ATOM     10  C   UNL     1      20.701  25.493   4.126  1.00  0.00     0.008 C 
ATOM     11  C   UNL     1      18.886  23.912   4.542  1.00  0.00     0.039 C 
ENDBRANCH   5   9
TORSDOF 1
ENDMDL
MODEL 6
REMARK VINA RESULT:    -5.690      1.587      2.081
REMARK INTER + INTRA:          -5.986
REMARK INTER:                  -6.550
REMARK INTRA:                   0.564
REMARK UNBOUND:                 0.037
REMARK SMILES C=C(C)[C@@H]1CC=C(C)C(=O)C1
REMARK SMILES IDX 8 1 7 2 6 3 5 4 4 5 11 6 9 7 10 8 2 9 1 10 3 11
REMARK H PARENT
REMARK Flexibility Score: inf
ROOT
ATOM      1  C   UNL     1      15.643  25.433   6.791  1.00  0.00     0.048 C 
ATOM      2  C   UNL     1      17.065  25.333   6.315  1.00  0.00    -0.012 C 
ATOM      3  C   UNL     1      17.356  24.616   5.220  1.00  0.00    -0.019 C 
ATOM      4  C   UNL     1      18.770  24.465   4.733  1.00  0.00     0.036 C 
ATOM      5  C   UNL     1      19.574  25.768   4.915  1.00  0.00     0.025 C 
ATOM      6  C   UNL     1      19.511  26.230   6.390  1.00  0.00     0.089 C 
ATOM      7  C   UNL     1      18.124  26.137   6.975  1.00  0.00     0.158 C 
ATOM      8  O   UNL     1      17.873  26.752   8.047  1.00  0.00    -0.295 OA
ENDROOT
BRANCH   5   9
ATOM      9  C   UNL     1      19.164  26.820   3.881  1.00  0.00    -0.077 C 
ATOM     10  C   UNL     1      17.944  26.736   3.323  1.00  0.00     0.008 C 
ATOM     11  C   UNL     1      20.050  27.967   3.452  1.00  0.00     0.039 C 
ENDBRANCH   5   9
TORSDOF 1
ENDMDL
MODEL 7
REMARK VINA RESULT:    -5.662      2.013      4.544
REMARK INTER + INTRA:          -5.956
REMARK INTER:                  -5.759
REMARK INTRA:                  -0.197
REMARK UNBOUND:                 0.037
REMARK SMILES C=C(C)[C@@H]1CC=C(C)C(=O)C1
REMARK SMILES IDX 8 1 7 2 6 3 5 4 4 5 11 6 9 7 10 8 2 9 1 10 3 11
REMARK H PARENT
REMARK Flexibility Score: inf
ROOT
ATOM      1  C   UNL     1      19.907  24.682   4.119  1.00  0.00     0.048 C 
ATOM      2  C   UNL     1      18.719  25.469   4.598  1.00  0.00    -0.012 C 
ATOM      3  C   UNL     1      17.492  25.175   4.140  1.00  0.00    -0.019 C 
ATOM      4  C   UNL     1      16.286  25.961   4.570  1.00  0.00     0.036 C 
ATOM      5  C   UNL     1      16.369  26.359   6.056  1.00  0.00     0.025 C 
ATOM      6  C   UNL     1      17.688  27.120   6.330  1.00  0.00     0.089 C 
ATOM      7  C   UNL     1      18.884  26.474   5.676  1.00  0.00     0.158 C 
ATOM      8  O   UNL     1      20.039  26.807   6.056  1.00  0.00    -0.295 OA
ENDROOT
BRANCH   5   9
ATOM      9  C   UNL     1      16.106  25.157   6.968  1.00  0.00    -0.077 C 
ATOM     10  C   UNL     1      16.686  25.127   8.180  1.00  0.00     0.008 C 
ATOM     11  C   UNL     1      15.216  23.994   6.591  1.00  0.00     0.039 C 
ENDBRANCH   5   9
TORSDOF 1
ENDMDL
MODEL 8
REMARK VINA RESULT:    -5.585     17.204     18.990
REMARK INTER + INTRA:          -5.874
REMARK INTER:                  -5.648
REMARK INTRA:                  -0.226
REMARK UNBOUND:                 0.037
REMARK SMILES C=C(C)[C@@H]1CC=C(C)C(=O)C1
REMARK SMILES IDX 8 1 7 2 6 3 5 4 4 5 11 6 9 7 10 8 2 9 1 10 3 11
REMARK H PARENT
REMARK Flexibility Score: inf
ROOT
ATOM      1  C   UNL     1      31.022  13.782  -6.585  1.00  0.00     0.048 C 
ATOM      2  C   UNL     1      31.477  15.210  -6.478  1.00  0.00    -0.012 C 
ATOM      3  C   UNL     1      30.616  16.208  -6.726  1.00  0.00    -0.019 C 
ATOM      4  C   UNL     1      31.042  17.648  -6.662  1.00  0.00     0.036 C 
ATOM      5  C   UNL     1      32.038  17.892  -5.512  1.00  0.00     0.025 C 
ATOM      6  C   UNL     1      33.244  16.931  -5.639  1.00  0.00     0.089 C 
ATOM      7  C   UNL     1      32.835  15.517  -5.966  1.00  0.00     0.158 C 
ATOM      8  O   UNL     1      33.672  14.588  -5.803  1.00  0.00    -0.295 OA
ENDROOT
BRANCH   5   9
ATOM      9  C   UNL     1      31.331  17.878  -4.154  1.00  0.00    -0.077 C 
ATOM     10  C   UNL     1      30.246  18.654  -3.983  1.00  0.00     0.008 C 
ATOM     11  C   UNL     1      31.773  17.029  -2.984  1.00  0.00     0.039 C 
ENDBRANCH   5   9
TORSDOF 1
ENDMDL
MODEL 9
REMARK VINA RESULT:    -5.501      1.842      3.940
REMARK INTER + INTRA:          -5.786
REMARK INTER:                  -5.941
REMARK INTRA:                   0.155
REMARK UNBOUND:                 0.037
REMARK SMILES C=C(C)[C@@H]1CC=C(C)C(=O)C1
REMARK SMILES IDX 8 1 7 2 6 3 5 4 4 5 11 6 9 7 10 8 2 9 1 10 3 11
REMARK H PARENT
REMARK Flexibility Score: inf
ROOT
ATOM      1  C   UNL     1      21.240  27.884   3.194  1.00  0.00     0.048 C 
ATOM      2  C   UNL     1      20.496  27.029   4.182  1.00  0.00    -0.012 C 
ATOM      3  C   UNL     1      19.755  27.604   5.140  1.00  0.00    -0.019 C 
ATOM      4  C   UNL     1      19.025  26.784   6.166  1.00  0.00     0.036 C 
ATOM      5  C   UNL     1      18.444  25.495   5.552  1.00  0.00     0.025 C 
ATOM      6  C   UNL     1      19.563  24.689   4.849  1.00  0.00     0.089 C 
ATOM      7  C   UNL     1      20.471  25.555   4.013  1.00  0.00     0.158 C 
ATOM      8  O   UNL     1      21.223  25.005   3.163  1.00  0.00    -0.295 OA
ENDROOT
BRANCH   5   9
ATOM      9  C   UNL     1      17.215  25.797   4.690  1.00  0.00    -0.077 C 
ATOM     10  C   UNL     1      17.340  25.762   3.352  1.00  0.00     0.008 C 
ATOM     11  C   UNL     1      15.852  26.126   5.254  1.00  0.00     0.039 C 
ENDBRANCH   5   9
TORSDOF 1
ENDMDL
