MODEL 1
REMARK VINA RESULT:    -4.595      0.000      0.000
REMARK INTER + INTRA:          -5.243
REMARK INTER:                  -5.266
REMARK INTRA:                   0.023
REMARK UNBOUND:                 0.023
REMARK SMILES CC(C)[C@@H]([NH3+])C(=O)[O-]
REMARK SMILES IDX 4 1 5 2 6 6 7 7 8 8 2 9 1 10 3 11
REMARK H PARENT 5 3 5 4 5 5
REMARK Flexibility Score: inf
ROOT
ATOM      1  C   UNL     1      -9.222  -1.190  63.633  1.00  0.00     0.230 C 
ENDROOT
BRANCH   1   2
ATOM      2  N   UNL     1      -8.112  -0.324  64.056  1.00  0.00    -0.350 N 
ATOM      3  H   UNL     1      -8.149  -0.192  65.093  1.00  0.00     0.345 HD
ATOM      4  H   UNL     1      -7.198  -0.774  63.820  1.00  0.00     0.345 HD
ATOM      5  H   UNL     1      -8.162   0.614  63.599  1.00  0.00     0.345 HD
ENDBRANCH   1   2
BRANCH   1   6
ATOM      6  C   UNL     1     -10.016  -0.534  62.527  1.00  0.00     0.099 C 
ATOM      7  O   UNL     1      -9.448   0.252  61.725  1.00  0.00    -0.544 OA
ATOM      8  O   UNL     1     -11.381  -0.768  62.402  1.00  0.00    -0.544 OA
ENDBRANCH   1   6
BRANCH   1   9
ATOM      9  C   UNL     1      -8.727  -2.617  63.251  1.00  0.00     0.047 C 
ATOM     10  C   UNL     1      -9.864  -3.639  63.076  1.00  0.00     0.014 C 
ATOM     11  C   UNL     1      -7.699  -3.143  64.265  1.00  0.00     0.014 C 
ENDBRANCH   1   9
TORSDOF 3
ENDMDL
MODEL 2
REMARK VINA RESULT:    -3.911      7.139      7.967
REMARK INTER + INTRA:          -4.459
REMARK INTER:                  -4.415
REMARK INTRA:                  -0.044
REMARK UNBOUND:                 0.023
REMARK SMILES CC(C)[C@@H]([NH3+])C(=O)[O-]
REMARK SMILES IDX 4 1 5 2 6 6 7 7 8 8 2 9 1 10 3 11
REMARK H PARENT 5 3 5 4 5 5
REMARK Flexibility Score: inf
ROOT
ATOM      1  C   UNL     1     -11.876  -2.648  56.940  1.00  0.00     0.230 C 
ENDROOT
BRANCH   1   2
ATOM      2  N   UNL     1     -12.534  -1.561  57.678  1.00  0.00    -0.350 N 
ATOM      3  H   UNL     1     -13.355  -1.215  57.130  1.00  0.00     0.345 HD
ATOM      4  H   UNL     1     -12.885  -1.915  58.598  1.00  0.00     0.345 HD
ATOM      5  H   UNL     1     -11.883  -0.761  57.843  1.00  0.00     0.345 HD
ENDBRANCH   1   2
BRANCH   1   6
ATOM      6  C   UNL     1     -12.279  -3.992  57.501  1.00  0.00     0.099 C 
ATOM      7  O   UNL     1     -11.446  -4.935  57.536  1.00  0.00    -0.544 OA
ATOM      8  O   UNL     1     -13.575  -4.210  57.957  1.00  0.00    -0.544 OA
ENDBRANCH   1   6
BRANCH   1   9
ATOM      9  C   UNL     1     -12.128  -2.539  55.406  1.00  0.00     0.047 C 
ATOM     10  C   UNL     1     -10.846  -2.323  54.583  1.00  0.00     0.014 C 
ATOM     11  C   UNL     1     -13.151  -1.438  55.084  1.00  0.00     0.014 C 
ENDBRANCH   1   9
TORSDOF 3
ENDMDL
MODEL 3
REMARK VINA RESULT:    -3.908      3.902      4.475
REMARK INTER + INTRA:          -4.457
REMARK INTER:                  -4.380
REMARK INTRA:                  -0.077
REMARK UNBOUND:                 0.023
REMARK SMILES CC(C)[C@@H]([NH3+])C(=O)[O-]
REMARK SMILES IDX 4 1 5 2 6 6 7 7 8 8 2 9 1 10 3 11
REMARK H PARENT 5 3 5 4 5 5
REMARK Flexibility Score: inf
ROOT
ATOM      1  C   UNL     1      -7.778  -3.876  63.474  1.00  0.00     0.230 C 
ENDROOT
BRANCH   1   2
ATOM      2  N   UNL     1      -7.851  -2.723  64.382  1.00  0.00    -0.350 N 
ATOM      3  H   UNL     1      -8.828  -2.623  64.742  1.00  0.00     0.345 HD
ATOM      4  H   UNL     1      -7.219  -2.873  65.202  1.00  0.00     0.345 HD
ATOM      5  H   UNL     1      -7.582  -1.837  63.899  1.00  0.00     0.345 HD
ENDBRANCH   1   2
BRANCH   1   6
ATOM      6  C   UNL     1      -6.657  -4.804  63.882  1.00  0.00     0.099 C 
ATOM      7  O   UNL     1      -5.688  -5.000  63.103  1.00  0.00    -0.544 OA
ATOM      8  O   UNL     1      -6.698  -5.471  65.102  1.00  0.00    -0.544 OA
ENDBRANCH   1   6
BRANCH   1   9
ATOM      9  C   UNL     1      -9.150  -4.607  63.358  1.00  0.00     0.047 C 
ATOM     10  C   UNL     1      -9.114  -5.848  62.449  1.00  0.00     0.014 C 
ATOM     11  C   UNL     1     -10.257  -3.647  62.894  1.00  0.00     0.014 C 
ENDBRANCH   1   9
TORSDOF 3
ENDMDL
MODEL 4
REMARK VINA RESULT:    -3.897      6.541      7.350
REMARK INTER + INTRA:          -4.444
REMARK INTER:                  -4.380
REMARK INTRA:                  -0.064
REMARK UNBOUND:                 0.023
REMARK SMILES CC(C)[C@@H]([NH3+])C(=O)[O-]
REMARK SMILES IDX 4 1 5 2 6 6 7 7 8 8 2 9 1 10 3 11
REMARK H PARENT 5 3 5 4 5 5
REMARK Flexibility Score: inf
ROOT
ATOM      1  C   UNL     1     -12.378  -4.154  57.448  1.00  0.00     0.230 C 
ENDROOT
BRANCH   1   2
ATOM      2  N   UNL     1     -11.052  -4.766  57.607  1.00  0.00    -0.350 N 
ATOM      3  H   UNL     1     -10.336  -4.177  57.122  1.00  0.00     0.345 HD
ATOM      4  H   UNL     1     -10.799  -4.812  58.621  1.00  0.00     0.345 HD
ATOM      5  H   UNL     1     -11.022  -5.728  57.202  1.00  0.00     0.345 HD
ENDBRANCH   1   2
BRANCH   1   6
ATOM      6  C   UNL     1     -13.118  -4.138  58.765  1.00  0.00     0.099 C 
ATOM      7  O   UNL     1     -12.684  -3.445  59.723  1.00  0.00    -0.544 OA
ATOM      8  O   UNL     1     -14.265  -4.905  58.942  1.00  0.00    -0.544 OA
ENDBRANCH   1   6
BRANCH   1   9
ATOM      9  C   UNL     1     -12.287  -2.743  56.793  1.00  0.00     0.047 C 
ATOM     10  C   UNL     1     -13.614  -2.259  56.182  1.00  0.00     0.014 C 
ATOM     11  C   UNL     1     -11.172  -2.687  55.737  1.00  0.00     0.014 C 
ENDBRANCH   1   9
TORSDOF 3
ENDMDL
MODEL 5
REMARK VINA RESULT:    -3.889      8.609      9.160
REMARK INTER + INTRA:          -4.434
REMARK INTER:                  -4.382
REMARK INTRA:                  -0.052
REMARK UNBOUND:                 0.023
REMARK SMILES CC(C)[C@@H]([NH3+])C(=O)[O-]
REMARK SMILES IDX 4 1 5 2 6 6 7 7 8 8 2 9 1 10 3 11
REMARK H PARENT 5 3 5 4 5 5
REMARK Flexibility Score: inf
ROOT
ATOM      1  C   UNL     1     -13.563  -1.781  55.026  1.00  0.00     0.230 C 
ENDROOT
BRANCH   1   2
ATOM      2  N   UNL     1     -14.711  -1.184  55.721  1.00  0.00    -0.350 N 
ATOM      3  H   UNL     1     -14.941  -0.261  55.285  1.00  0.00     0.345 HD
ATOM      4  H   UNL     1     -15.548  -1.804  55.627  1.00  0.00     0.345 HD
ATOM      5  H   UNL     1     -14.509  -1.032  56.735  1.00  0.00     0.345 HD
ENDBRANCH   1   2
BRANCH   1   6
ATOM      6  C   UNL     1     -13.148  -0.926  53.851  1.00  0.00     0.099 C 
ATOM      7  O   UNL     1     -12.808   0.273  54.035  1.00  0.00    -0.544 OA
ATOM      8  O   UNL     1     -13.164  -1.440  52.559  1.00  0.00    -0.544 OA
ENDBRANCH   1   6
BRANCH   1   9
ATOM      9  C   UNL     1     -12.384  -2.072  56.003  1.00  0.00     0.047 C 
ATOM     10  C   UNL     1     -11.061  -2.410  55.292  1.00  0.00     0.014 C 
ATOM     11  C   UNL     1     -12.745  -3.185  56.999  1.00  0.00     0.014 C 
ENDBRANCH   1   9
TORSDOF 3
ENDMDL
MODEL 6
REMARK VINA RESULT:    -3.747      9.004      9.694
REMARK INTER + INTRA:          -4.272
REMARK INTER:                  -4.232
REMARK INTRA:                  -0.040
REMARK UNBOUND:                 0.023
REMARK SMILES CC(C)[C@@H]([NH3+])C(=O)[O-]
REMARK SMILES IDX 4 1 5 2 6 6 7 7 8 8 2 9 1 10 3 11
REMARK H PARENT 5 3 5 4 5 5
REMARK Flexibility Score: inf
ROOT
ATOM      1  C   UNL     1     -12.836  -1.176  54.502  1.00  0.00     0.230 C 
ENDROOT
BRANCH   1   2
ATOM      2  N   UNL     1     -13.509  -0.396  53.454  1.00  0.00    -0.350 N 
ATOM      3  H   UNL     1     -12.841  -0.220  52.668  1.00  0.00     0.345 HD
ATOM      4  H   UNL     1     -14.321  -0.934  53.073  1.00  0.00     0.345 HD
ATOM      5  H   UNL     1     -13.846   0.524  53.817  1.00  0.00     0.345 HD
ENDBRANCH   1   2
BRANCH   1   6
ATOM      6  C   UNL     1     -13.842  -1.709  55.496  1.00  0.00     0.099 C 
ATOM      7  O   UNL     1     -15.014  -1.250  55.513  1.00  0.00    -0.544 OA
ATOM      8  O   UNL     1     -13.479  -2.687  56.416  1.00  0.00    -0.544 OA
ENDBRANCH   1   6
BRANCH   1   9
ATOM      9  C   UNL     1     -11.936  -2.297  53.900  1.00  0.00     0.047 C 
ATOM     10  C   UNL     1     -10.528  -2.357  54.518  1.00  0.00     0.014 C 
ATOM     11  C   UNL     1     -11.834  -2.171  52.372  1.00  0.00     0.014 C 
ENDBRANCH   1   9
TORSDOF 3
ENDMDL
MODEL 7
REMARK VINA RESULT:    -3.713      6.548      7.182
REMARK INTER + INTRA:          -4.233
REMARK INTER:                  -4.170
REMARK INTRA:                  -0.062
REMARK UNBOUND:                 0.023
REMARK SMILES CC(C)[C@@H]([NH3+])C(=O)[O-]
REMARK SMILES IDX 4 1 5 2 6 6 7 7 8 8 2 9 1 10 3 11
REMARK H PARENT 5 3 5 4 5 5
REMARK Flexibility Score: inf
ROOT
ATOM      1  C   UNL     1     -11.908  -4.312  57.977  1.00  0.00     0.230 C 
ENDROOT
BRANCH   1   2
ATOM      2  N   UNL     1     -11.144  -5.509  57.596  1.00  0.00    -0.350 N 
ATOM      3  H   UNL     1     -11.793  -6.224  57.195  1.00  0.00     0.345 HD
ATOM      4  H   UNL     1     -10.439  -5.264  56.864  1.00  0.00     0.345 HD
ATOM      5  H   UNL     1     -10.654  -5.928  58.418  1.00  0.00     0.345 HD
ENDBRANCH   1   2
BRANCH   1   6
ATOM      6  C   UNL     1     -12.084  -3.394  56.790  1.00  0.00     0.099 C 
ATOM      7  O   UNL     1     -13.227  -2.956  56.497  1.00  0.00    -0.544 OA
ATOM      8  O   UNL     1     -10.996  -3.047  55.996  1.00  0.00    -0.544 OA
ENDBRANCH   1   6
BRANCH   1   9
ATOM      9  C   UNL     1     -13.261  -4.684  58.655  1.00  0.00     0.047 C 
ATOM     10  C   UNL     1     -13.403  -4.143  60.088  1.00  0.00     0.014 C 
ATOM     11  C   UNL     1     -13.496  -6.202  58.640  1.00  0.00     0.014 C 
ENDBRANCH   1   9
TORSDOF 3
ENDMDL
MODEL 8
REMARK VINA RESULT:    -3.623      5.676      6.503
REMARK INTER + INTRA:          -4.129
REMARK INTER:                  -4.194
REMARK INTRA:                   0.065
REMARK UNBOUND:                 0.023
REMARK SMILES CC(C)[C@@H]([NH3+])C(=O)[O-]
REMARK SMILES IDX 4 1 5 2 6 6 7 7 8 8 2 9 1 10 3 11
REMARK H PARENT 5 3 5 4 5 5
REMARK Flexibility Score: inf
ROOT
ATOM      1  C   UNL     1     -13.473  -4.111  59.050  1.00  0.00     0.230 C 
ENDROOT
BRANCH   1   2
ATOM      2  N   UNL     1     -14.198  -5.318  59.471  1.00  0.00    -0.350 N 
ATOM      3  H   UNL     1     -13.855  -6.139  58.921  1.00  0.00     0.345 HD
ATOM      4  H   UNL     1     -14.017  -5.509  60.483  1.00  0.00     0.345 HD
ATOM      5  H   UNL     1     -15.227  -5.221  59.318  1.00  0.00     0.345 HD
ENDBRANCH   1   2
BRANCH   1   6
ATOM      6  C   UNL     1     -12.678  -3.539  60.201  1.00  0.00     0.099 C 
ATOM      7  O   UNL     1     -12.188  -4.307  61.070  1.00  0.00    -0.544 OA
ATOM      8  O   UNL     1     -12.503  -2.165  60.328  1.00  0.00    -0.544 OA
ENDBRANCH   1   6
BRANCH   1   9
ATOM      9  C   UNL     1     -12.598  -4.373  57.787  1.00  0.00     0.047 C 
ATOM     10  C   UNL     1     -11.309  -5.160  58.082  1.00  0.00     0.014 C 
ATOM     11  C   UNL     1     -12.260  -3.063  57.059  1.00  0.00     0.014 C 
ENDBRANCH   1   9
TORSDOF 3
ENDMDL
MODEL 9
REMARK VINA RESULT:    -3.577      7.678      8.223
REMARK INTER + INTRA:          -4.077
REMARK INTER:                  -4.014
REMARK INTRA:                  -0.064
REMARK UNBOUND:                 0.023
REMARK SMILES CC(C)[C@@H]([NH3+])C(=O)[O-]
REMARK SMILES IDX 4 1 5 2 6 6 7 7 8 8 2 9 1 10 3 11
REMARK H PARENT 5 3 5 4 5 5
REMARK Flexibility Score: inf
ROOT
ATOM      1  C   UNL     1     -13.096  -2.366  55.663  1.00  0.00     0.230 C 
ENDROOT
BRANCH   1   2
ATOM      2  N   UNL     1     -14.345  -1.644  55.945  1.00  0.00    -0.350 N 
ATOM      3  H   UNL     1     -14.122  -0.702  56.339  1.00  0.00     0.345 HD
ATOM      4  H   UNL     1     -14.885  -1.505  55.060  1.00  0.00     0.345 HD
ATOM      5  H   UNL     1     -14.940  -2.161  56.632  1.00  0.00     0.345 HD
ENDBRANCH   1   2
BRANCH   1   6
ATOM      6  C   UNL     1     -12.253  -1.601  54.670  1.00  0.00     0.099 C 
ATOM      7  O   UNL     1     -11.089  -1.997  54.396  1.00  0.00    -0.544 OA
ATOM      8  O   UNL     1     -12.739  -0.444  54.071  1.00  0.00    -0.544 OA
ENDBRANCH   1   6
BRANCH   1   9
ATOM      9  C   UNL     1     -12.321  -2.708  56.971  1.00  0.00     0.047 C 
ATOM     10  C   UNL     1     -12.890  -3.921  57.727  1.00  0.00     0.014 C 
ATOM     11  C   UNL     1     -12.243  -1.493  57.909  1.00  0.00     0.014 C 
ENDBRANCH   1   9
TORSDOF 3
ENDMDL
