MODEL 1
REMARK VINA RESULT:    -2.118      0.000      0.000
REMARK INTER + INTRA:          -1.997
REMARK INTER:                  -2.241
REMARK INTRA:                   0.244
REMARK UNBOUND:                 0.244
REMARK SMILES C=C1CC[C@@H](C(C)C)[C@H]2C=C(C)CC[C@H]12
REMARK SMILES IDX 12 1 11 2 10 3 9 4 15 5 14 6 13 7 2 8 1 9 3 10 4 11 5 12
REMARK SMILES IDX 6 13 7 14 8 15
REMARK H PARENT
REMARK Flexibility Score: inf
ROOT
ATOM      1  C   UNL     1     147.247 148.747 130.114  1.00  0.00     0.039 C 
ATOM      2  C   UNL     1     146.908 147.572 130.989  1.00  0.00    -0.077 C 
ATOM      3  C   UNL     1     145.829 146.820 130.687  1.00  0.00    -0.024 C 
ATOM      4  C   UNL     1     145.447 145.585 131.476  1.00  0.00     0.022 C 
ATOM      5  C   UNL     1     146.015 145.610 132.917  1.00  0.00     0.022 C 
ATOM      6  C   UNL     1     147.515 145.950 132.861  1.00  0.00     0.013 C 
ATOM      7  C   UNL     1     147.717 147.344 132.252  1.00  0.00     0.031 C 
ATOM      8  C   UNL     1     145.660 144.302 133.604  1.00  0.00    -0.074 C 
ATOM      9  C   UNL     1     146.565 143.452 134.125  1.00  0.00     0.008 C 
ATOM     10  C   UNL     1     144.189 143.976 133.665  1.00  0.00     0.031 C 
ATOM     11  C   UNL     1     143.582 143.994 132.256  1.00  0.00     0.009 C 
ATOM     12  C   UNL     1     143.917 145.266 131.416  1.00  0.00    -0.001 C 
ENDROOT
BRANCH  12  13
ATOM     13  C   UNL     1     142.938 146.489 131.578  1.00  0.00    -0.014 C 
ATOM     14  C   UNL     1     143.424 147.498 132.631  1.00  0.00     0.007 C 
ATOM     15  C   UNL     1     142.556 147.224 130.286  1.00  0.00     0.007 C 
ENDBRANCH  12  13
TORSDOF 1
ENDMDL
MODEL 2
REMARK VINA RESULT:    -2.051      1.795      4.708
REMARK INTER + INTRA:          -1.927
REMARK INTER:                  -2.178
REMARK INTRA:                   0.252
REMARK UNBOUND:                 0.244
REMARK SMILES C=C1CC[C@@H](C(C)C)[C@H]2C=C(C)CC[C@H]12
REMARK SMILES IDX 12 1 11 2 10 3 9 4 15 5 14 6 13 7 2 8 1 9 3 10 4 11 5 12
REMARK SMILES IDX 6 13 7 14 8 15
REMARK H PARENT
REMARK Flexibility Score: inf
ROOT
ATOM      1  C   UNL     1     143.500 142.002 130.126  1.00  0.00     0.039 C 
ATOM      2  C   UNL     1     143.845 143.178 130.999  1.00  0.00    -0.077 C 
ATOM      3  C   UNL     1     144.928 143.923 130.695  1.00  0.00    -0.024 C 
ATOM      4  C   UNL     1     145.317 145.158 131.480  1.00  0.00     0.022 C 
ATOM      5  C   UNL     1     144.750 145.140 132.922  1.00  0.00     0.022 C 
ATOM      6  C   UNL     1     143.248 144.807 132.867  1.00  0.00     0.013 C 
ATOM      7  C   UNL     1     143.039 143.412 132.262  1.00  0.00     0.031 C 
ATOM      8  C   UNL     1     145.111 146.448 133.605  1.00  0.00    -0.074 C 
ATOM      9  C   UNL     1     144.210 147.303 134.125  1.00  0.00     0.008 C 
ATOM     10  C   UNL     1     146.584 146.767 133.665  1.00  0.00     0.031 C 
ATOM     11  C   UNL     1     147.190 146.742 132.255  1.00  0.00     0.009 C 
ATOM     12  C   UNL     1     146.848 145.470 131.418  1.00  0.00    -0.001 C 
ENDROOT
BRANCH  12  13
ATOM     13  C   UNL     1     147.822 144.243 131.583  1.00  0.00    -0.014 C 
ATOM     14  C   UNL     1     147.314 143.221 132.615  1.00  0.00     0.007 C 
ATOM     15  C   UNL     1     148.224 143.523 130.289  1.00  0.00     0.007 C 
ENDBRANCH  12  13
TORSDOF 1
ENDMDL
MODEL 3
REMARK VINA RESULT:    -1.866      1.678      3.302
REMARK INTER + INTRA:          -1.730
REMARK INTER:                  -2.026
REMARK INTRA:                   0.295
REMARK UNBOUND:                 0.244
REMARK SMILES C=C1CC[C@@H](C(C)C)[C@H]2C=C(C)CC[C@H]12
REMARK SMILES IDX 12 1 11 2 10 3 9 4 15 5 14 6 13 7 2 8 1 9 3 10 4 11 5 12
REMARK SMILES IDX 6 13 7 14 8 15
REMARK H PARENT
REMARK Flexibility Score: inf
ROOT
ATOM      1  C   UNL     1     142.017 147.326 130.374  1.00  0.00     0.039 C 
ATOM      2  C   UNL     1     143.214 146.888 131.173  1.00  0.00    -0.077 C 
ATOM      3  C   UNL     1     143.939 145.834 130.742  1.00  0.00    -0.024 C 
ATOM      4  C   UNL     1     145.192 145.360 131.448  1.00  0.00     0.022 C 
ATOM      5  C   UNL     1     145.222 145.783 132.937  1.00  0.00     0.022 C 
ATOM      6  C   UNL     1     144.903 147.285 133.040  1.00  0.00     0.013 C 
ATOM      7  C   UNL     1     143.494 147.564 132.501  1.00  0.00     0.031 C 
ATOM      8  C   UNL     1     146.545 145.346 133.543  1.00  0.00    -0.074 C 
ATOM      9  C   UNL     1     147.425 146.185 134.122  1.00  0.00     0.008 C 
ATOM     10  C   UNL     1     146.850 143.873 133.448  1.00  0.00     0.031 C 
ATOM     11  C   UNL     1     146.777 143.408 131.987  1.00  0.00     0.009 C 
ATOM     12  C   UNL     1     145.485 143.840 131.227  1.00  0.00    -0.001 C 
ENDROOT
BRANCH  12  13
ATOM     13  C   UNL     1     144.253 142.865 131.332  1.00  0.00    -0.014 C 
ATOM     14  C   UNL     1     143.210 143.340 132.358  1.00  0.00     0.007 C 
ATOM     15  C   UNL     1     143.560 142.508 130.010  1.00  0.00     0.007 C 
ENDBRANCH  12  13
TORSDOF 1
ENDMDL
MODEL 4
REMARK VINA RESULT:    -1.816      1.804      3.518
REMARK INTER + INTRA:          -1.678
REMARK INTER:                  -1.978
REMARK INTRA:                   0.300
REMARK UNBOUND:                 0.244
REMARK SMILES C=C1CC[C@@H](C(C)C)[C@H]2C=C(C)CC[C@H]12
REMARK SMILES IDX 12 1 11 2 10 3 9 4 15 5 14 6 13 7 2 8 1 9 3 10 4 11 5 12
REMARK SMILES IDX 6 13 7 14 8 15
REMARK H PARENT
REMARK Flexibility Score: inf
ROOT
ATOM      1  C   UNL     1     148.407 142.484 132.244  1.00  0.00     0.039 C 
ATOM      2  C   UNL     1     147.541 143.669 132.573  1.00  0.00    -0.077 C 
ATOM      3  C   UNL     1     146.212 143.489 132.718  1.00  0.00    -0.024 C 
ATOM      4  C   UNL     1     145.272 144.611 133.107  1.00  0.00     0.022 C 
ATOM      5  C   UNL     1     145.846 146.006 132.755  1.00  0.00     0.022 C 
ATOM      6  C   UNL     1     147.288 146.105 133.284  1.00  0.00     0.013 C 
ATOM      7  C   UNL     1     148.172 145.048 132.607  1.00  0.00     0.031 C 
ATOM      8  C   UNL     1     144.885 147.070 133.256  1.00  0.00    -0.074 C 
ATOM      9  C   UNL     1     145.220 148.043 134.124  1.00  0.00     0.008 C 
ATOM     10  C   UNL     1     143.475 146.976 132.728  1.00  0.00     0.031 C 
ATOM     11  C   UNL     1     142.893 145.585 133.014  1.00  0.00     0.009 C 
ATOM     12  C   UNL     1     143.810 144.393 132.596  1.00  0.00    -0.001 C 
ENDROOT
BRANCH  12  13
ATOM     13  C   UNL     1     143.652 143.875 131.117  1.00  0.00    -0.014 C 
ATOM     14  C   UNL     1     144.760 144.399 130.188  1.00  0.00     0.007 C 
ATOM     15  C   UNL     1     143.499 142.358 130.946  1.00  0.00     0.007 C 
ENDBRANCH  12  13
TORSDOF 1
ENDMDL
MODEL 5
REMARK VINA RESULT:    -1.807      1.208      3.682
REMARK INTER + INTRA:          -1.669
REMARK INTER:                  -1.920
REMARK INTRA:                   0.252
REMARK UNBOUND:                 0.244
REMARK SMILES C=C1CC[C@@H](C(C)C)[C@H]2C=C(C)CC[C@H]12
REMARK SMILES IDX 12 1 11 2 10 3 9 4 15 5 14 6 13 7 2 8 1 9 3 10 4 11 5 12
REMARK SMILES IDX 6 13 7 14 8 15
REMARK H PARENT
REMARK Flexibility Score: inf
ROOT
ATOM      1  C   UNL     1     142.330 148.290 132.248  1.00  0.00     0.039 C 
ATOM      2  C   UNL     1     143.181 147.094 132.576  1.00  0.00    -0.077 C 
ATOM      3  C   UNL     1     144.512 147.260 132.728  1.00  0.00    -0.024 C 
ATOM      4  C   UNL     1     145.437 146.126 133.118  1.00  0.00     0.022 C 
ATOM      5  C   UNL     1     144.850 144.739 132.757  1.00  0.00     0.022 C 
ATOM      6  C   UNL     1     143.405 144.653 133.278  1.00  0.00     0.013 C 
ATOM      7  C   UNL     1     142.536 145.722 132.601  1.00  0.00     0.031 C 
ATOM      8  C   UNL     1     145.797 143.662 133.258  1.00  0.00    -0.074 C 
ATOM      9  C   UNL     1     145.447 142.689 134.121  1.00  0.00     0.008 C 
ATOM     10  C   UNL     1     147.210 143.743 132.739  1.00  0.00     0.031 C 
ATOM     11  C   UNL     1     147.806 145.126 133.034  1.00  0.00     0.009 C 
ATOM     12  C   UNL     1     146.905 146.330 132.616  1.00  0.00    -0.001 C 
ENDROOT
BRANCH  12  13
ATOM     13  C   UNL     1     147.076 146.852 131.140  1.00  0.00    -0.014 C 
ATOM     14  C   UNL     1     146.039 146.249 130.177  1.00  0.00     0.007 C 
ATOM     15  C   UNL     1     147.127 148.376 130.965  1.00  0.00     0.007 C 
ENDBRANCH  12  13
TORSDOF 1
ENDMDL
MODEL 6
REMARK VINA RESULT:    -1.803      1.435      3.819
REMARK INTER + INTRA:          -1.664
REMARK INTER:                  -1.379
REMARK INTRA:                  -0.284
REMARK UNBOUND:                 0.244
REMARK SMILES C=C1CC[C@@H](C(C)C)[C@H]2C=C(C)CC[C@H]12
REMARK SMILES IDX 12 1 11 2 10 3 9 4 15 5 14 6 13 7 2 8 1 9 3 10 4 11 5 12
REMARK SMILES IDX 6 13 7 14 8 15
REMARK H PARENT
REMARK Flexibility Score: inf
ROOT
ATOM      1  C   UNL     1     148.397 142.603 131.888  1.00  0.00     0.039 C 
ATOM      2  C   UNL     1     147.114 143.328 132.191  1.00  0.00    -0.077 C 
ATOM      3  C   UNL     1     146.706 144.312 131.362  1.00  0.00    -0.024 C 
ATOM      4  C   UNL     1     145.400 145.054 131.555  1.00  0.00     0.022 C 
ATOM      5  C   UNL     1     144.906 145.001 133.022  1.00  0.00     0.022 C 
ATOM      6  C   UNL     1     144.944 143.543 133.513  1.00  0.00     0.013 C 
ATOM      7  C   UNL     1     146.385 143.015 133.484  1.00  0.00     0.031 C 
ATOM      8  C   UNL     1     143.555 145.691 133.106  1.00  0.00    -0.074 C 
ATOM      9  C   UNL     1     142.431 145.099 133.554  1.00  0.00     0.008 C 
ATOM     10  C   UNL     1     143.522 147.122 132.632  1.00  0.00     0.031 C 
ATOM     11  C   UNL     1     144.056 147.218 131.197  1.00  0.00     0.009 C 
ATOM     12  C   UNL     1     145.420 146.499 130.957  1.00  0.00    -0.001 C 
ENDROOT
BRANCH  12  13
ATOM     13  C   UNL     1     146.717 147.352 131.225  1.00  0.00    -0.014 C 
ATOM     14  C   UNL     1     146.939 148.439 130.160  1.00  0.00     0.007 C 
ATOM     15  C   UNL     1     146.846 147.960 132.628  1.00  0.00     0.007 C 
ENDBRANCH  12  13
TORSDOF 1
ENDMDL
MODEL 7
REMARK VINA RESULT:    -1.768      1.422      3.822
REMARK INTER + INTRA:          -1.627
REMARK INTER:                  -1.910
REMARK INTRA:                   0.283
REMARK UNBOUND:                 0.244
REMARK SMILES C=C1CC[C@@H](C(C)C)[C@H]2C=C(C)CC[C@H]12
REMARK SMILES IDX 12 1 11 2 10 3 9 4 15 5 14 6 13 7 2 8 1 9 3 10 4 11 5 12
REMARK SMILES IDX 6 13 7 14 8 15
REMARK H PARENT
REMARK Flexibility Score: inf
ROOT
ATOM      1  C   UNL     1     142.490 142.310 131.870  1.00  0.00     0.039 C 
ATOM      2  C   UNL     1     143.661 143.156 132.292  1.00  0.00    -0.077 C 
ATOM      3  C   UNL     1     143.469 144.471 132.525  1.00  0.00    -0.024 C 
ATOM      4  C   UNL     1     144.574 145.385 133.010  1.00  0.00     0.022 C 
ATOM      5  C   UNL     1     145.981 144.843 132.658  1.00  0.00     0.022 C 
ATOM      6  C   UNL     1     146.074 143.368 133.088  1.00  0.00     0.013 C 
ATOM      7  C   UNL     1     145.042 142.530 132.321  1.00  0.00     0.031 C 
ATOM      8  C   UNL     1     147.026 145.771 133.255  1.00  0.00    -0.074 C 
ATOM      9  C   UNL     1     147.976 145.379 134.125  1.00  0.00     0.008 C 
ATOM     10  C   UNL     1     146.938 147.213 132.825  1.00  0.00     0.031 C 
ATOM     11  C   UNL     1     145.536 147.769 133.112  1.00  0.00     0.009 C 
ATOM     12  C   UNL     1     144.362 146.879 132.597  1.00  0.00    -0.001 C 
ENDROOT
BRANCH  12  13
ATOM     13  C   UNL     1     143.884 147.138 131.119  1.00  0.00    -0.014 C 
ATOM     14  C   UNL     1     144.470 146.123 130.123  1.00  0.00     0.007 C 
ATOM     15  C   UNL     1     142.369 147.260 130.911  1.00  0.00     0.007 C 
ENDBRANCH  12  13
TORSDOF 1
ENDMDL
MODEL 8
REMARK VINA RESULT:    -1.758      1.628      3.299
REMARK INTER + INTRA:          -1.616
REMARK INTER:                  -1.948
REMARK INTRA:                   0.332
REMARK UNBOUND:                 0.244
REMARK SMILES C=C1CC[C@@H](C(C)C)[C@H]2C=C(C)CC[C@H]12
REMARK SMILES IDX 12 1 11 2 10 3 9 4 15 5 14 6 13 7 2 8 1 9 3 10 4 11 5 12
REMARK SMILES IDX 6 13 7 14 8 15
REMARK H PARENT
REMARK Flexibility Score: inf
ROOT
ATOM      1  C   UNL     1     148.134 148.550 131.862  1.00  0.00     0.039 C 
ATOM      2  C   UNL     1     146.983 147.680 132.286  1.00  0.00    -0.077 C 
ATOM      3  C   UNL     1     147.205 146.370 132.526  1.00  0.00    -0.024 C 
ATOM      4  C   UNL     1     146.121 145.433 133.014  1.00  0.00     0.022 C 
ATOM      5  C   UNL     1     144.702 145.941 132.657  1.00  0.00     0.022 C 
ATOM      6  C   UNL     1     144.574 147.415 133.079  1.00  0.00     0.013 C 
ATOM      7  C   UNL     1     145.587 148.273 132.310  1.00  0.00     0.031 C 
ATOM      8  C   UNL     1     143.679 144.991 133.257  1.00  0.00    -0.074 C 
ATOM      9  C   UNL     1     142.717 145.365 134.124  1.00  0.00     0.008 C 
ATOM     10  C   UNL     1     143.801 143.549 132.836  1.00  0.00     0.031 C 
ATOM     11  C   UNL     1     145.214 143.028 133.128  1.00  0.00     0.009 C 
ATOM     12  C   UNL     1     146.368 143.942 132.610  1.00  0.00    -0.001 C 
ENDROOT
BRANCH  12  13
ATOM     13  C   UNL     1     146.855 143.687 131.134  1.00  0.00    -0.014 C 
ATOM     14  C   UNL     1     146.336 144.749 130.150  1.00  0.00     0.007 C 
ATOM     15  C   UNL     1     148.365 143.492 130.945  1.00  0.00     0.007 C 
ENDBRANCH  12  13
TORSDOF 1
ENDMDL
MODEL 9
REMARK VINA RESULT:    -1.435      1.598      4.506
REMARK INTER + INTRA:          -1.274
REMARK INTER:                  -1.590
REMARK INTRA:                   0.315
REMARK UNBOUND:                 0.244
REMARK SMILES C=C1CC[C@@H](C(C)C)[C@H]2C=C(C)CC[C@H]12
REMARK SMILES IDX 12 1 11 2 10 3 9 4 15 5 14 6 13 7 2 8 1 9 3 10 4 11 5 12
REMARK SMILES IDX 6 13 7 14 8 15
REMARK H PARENT
REMARK Flexibility Score: inf
ROOT
ATOM      1  C   UNL     1     143.481 142.365 129.958  1.00  0.00     0.039 C 
ATOM      2  C   UNL     1     144.275 143.611 130.244  1.00  0.00    -0.077 C 
ATOM      3  C   UNL     1     145.229 143.575 131.197  1.00  0.00    -0.024 C 
ATOM      4  C   UNL     1     146.116 144.761 131.511  1.00  0.00     0.022 C 
ATOM      5  C   UNL     1     145.470 146.105 131.090  1.00  0.00     0.022 C 
ATOM      6  C   UNL     1     144.968 145.989 129.640  1.00  0.00     0.013 C 
ATOM      7  C   UNL     1     143.893 144.898 129.539  1.00  0.00     0.031 C 
ATOM      8  C   UNL     1     146.458 147.227 131.359  1.00  0.00    -0.074 C 
ATOM      9  C   UNL     1     146.912 148.076 130.417  1.00  0.00     0.008 C 
ATOM     10  C   UNL     1     146.941 147.343 132.782  1.00  0.00     0.031 C 
ATOM     11  C   UNL     1     147.541 146.011 133.250  1.00  0.00     0.009 C 
ATOM     12  C   UNL     1     146.647 144.761 132.982  1.00  0.00    -0.001 C 
ENDROOT
BRANCH  12  13
ATOM     13  C   UNL     1     145.604 144.393 134.104  1.00  0.00    -0.014 C 
ATOM     14  C   UNL     1     144.399 145.348 134.125  1.00  0.00     0.007 C 
ATOM     15  C   UNL     1     145.119 142.937 134.125  1.00  0.00     0.007 C 
ENDBRANCH  12  13
TORSDOF 1
ENDMDL
