MODEL 1
REMARK VINA RESULT:    -8.322      0.000      0.000
REMARK INTER + INTRA:         -10.078
REMARK INTER:                 -10.024
REMARK INTRA:                  -0.054
REMARK UNBOUND:                -0.054
REMARK SMILES O=c1c(O)c(-c2ccc(O)c(O)c2)oc2cc(O)cc(O)c12
REMARK SMILES IDX 5 1 3 2 2 3 1 4 22 5 20 6 19 7 17 8 16 9 15 10 14 11 6 12
REMARK SMILES IDX 7 13 8 14 9 15 13 16 11 17 10 18 12 20 4 22 21 24 18 26
REMARK H PARENT 10 19 12 21 4 23 21 25 18 27
REMARK Flexibility Score: inf
ROOT
ATOM      1  C   UNL     1     -32.500   5.554   1.440  1.00  0.00     0.180 A 
ATOM      2  C   UNL     1     -31.768   4.509   0.849  1.00  0.00     0.208 A 
ATOM      3  C   UNL     1     -30.386   4.668   0.662  1.00  0.00     0.238 A 
ATOM      4  O   UNL     1     -29.726   3.709   0.183  1.00  0.00    -0.285 OA
ATOM      5  C   UNL     1     -29.756   5.874   1.052  1.00  0.00     0.111 A 
ATOM      6  C   UNL     1     -28.368   6.158   0.873  1.00  0.00     0.134 A 
ATOM      7  C   UNL     1     -27.828   7.331   1.415  1.00  0.00     0.093 A 
ATOM      8  C   UNL     1     -28.638   8.260   2.074  1.00  0.00     0.123 A 
ATOM      9  C   UNL     1     -30.004   8.019   2.201  1.00  0.00     0.094 A 
ATOM     10  C   UNL     1     -30.566   6.841   1.702  1.00  0.00     0.146 A 
ATOM     11  O   UNL     1     -31.870   6.646   1.855  1.00  0.00    -0.452 OA
ENDROOT
BRANCH   1  12
ATOM     12  C   UNL     1     -33.964   5.471   1.647  1.00  0.00     0.025 A 
ATOM     13  C   UNL     1     -34.802   6.430   1.058  1.00  0.00     0.016 A 
ATOM     14  C   UNL     1     -36.187   6.356   1.223  1.00  0.00     0.051 A 
ATOM     15  C   UNL     1     -36.757   5.319   1.965  1.00  0.00     0.157 A 
ATOM     16  C   UNL     1     -34.541   4.415   2.377  1.00  0.00     0.062 A 
ATOM     17  C   UNL     1     -35.931   4.339   2.542  1.00  0.00     0.158 A 
BRANCH  15  18
ATOM     18  O   UNL     1     -38.143   5.273   2.116  1.00  0.00    -0.504 OA
ATOM     19  H   UNL     1     -38.591   5.404   3.014  1.00  0.00     0.293 HD
ENDBRANCH  15  18
BRANCH  17  20
ATOM     20  O   UNL     1     -36.494   3.293   3.272  1.00  0.00    -0.504 OA
ATOM     21  H   UNL     1     -37.498   3.194   3.371  1.00  0.00     0.293 HD
ENDBRANCH  17  20
ENDBRANCH   1  12
BRANCH   2  22
ATOM     22  O   UNL     1     -32.407   3.318   0.491  1.00  0.00    -0.502 OA
ATOM     23  H   UNL     1     -32.514   2.544   1.136  1.00  0.00     0.293 HD
ENDBRANCH   2  22
BRANCH   6  24
ATOM     24  O   UNL     1     -27.491   5.342   0.152  1.00  0.00    -0.507 OA
ATOM     25  H   UNL     1     -26.572   5.617  -0.157  1.00  0.00     0.293 HD
ENDBRANCH   6  24
BRANCH   8  26
ATOM     26  O   UNL     1     -28.095   9.432   2.596  1.00  0.00    -0.508 OA
ATOM     27  H   UNL     1     -28.683  10.198   2.902  1.00  0.00     0.293 HD
ENDBRANCH   8  26
TORSDOF 6
ENDMDL
MODEL 2
REMARK VINA RESULT:    -8.112      2.336      7.504
REMARK INTER + INTRA:          -9.826
REMARK INTER:                  -9.585
REMARK INTRA:                  -0.240
REMARK UNBOUND:                -0.054
REMARK SMILES O=c1c(O)c(-c2ccc(O)c(O)c2)oc2cc(O)cc(O)c12
REMARK SMILES IDX 5 1 3 2 2 3 1 4 22 5 20 6 19 7 17 8 16 9 15 10 14 11 6 12
REMARK SMILES IDX 7 13 8 14 9 15 13 16 11 17 10 18 12 20 4 22 21 24 18 26
REMARK H PARENT 10 19 12 21 4 23 21 25 18 27
REMARK Flexibility Score: inf
ROOT
ATOM      1  C   UNL     1     -29.989   7.641   1.820  1.00  0.00     0.180 A 
ATOM      2  C   UNL     1     -30.391   7.848   3.151  1.00  0.00     0.208 A 
ATOM      3  C   UNL     1     -31.732   7.624   3.500  1.00  0.00     0.238 A 
ATOM      4  O   UNL     1     -32.074   7.759   4.704  1.00  0.00    -0.285 OA
ATOM      5  C   UNL     1     -32.658   7.211   2.512  1.00  0.00     0.111 A 
ATOM      6  C   UNL     1     -34.049   6.992   2.746  1.00  0.00     0.134 A 
ATOM      7  C   UNL     1     -34.846   6.459   1.725  1.00  0.00     0.093 A 
ATOM      8  C   UNL     1     -34.314   6.197   0.459  1.00  0.00     0.123 A 
ATOM      9  C   UNL     1     -32.971   6.463   0.205  1.00  0.00     0.094 A 
ATOM     10  C   UNL     1     -32.143   6.961   1.214  1.00  0.00     0.146 A 
ATOM     11  O   UNL     1     -30.866   7.190   0.931  1.00  0.00    -0.452 OA
ENDROOT
BRANCH   1  12
ATOM     12  C   UNL     1     -28.599   7.880   1.371  1.00  0.00     0.025 A 
ATOM     13  C   UNL     1     -28.123   9.196   1.263  1.00  0.00     0.016 A 
ATOM     14  C   UNL     1     -26.809   9.443   0.862  1.00  0.00     0.051 A 
ATOM     15  C   UNL     1     -25.944   8.382   0.578  1.00  0.00     0.157 A 
ATOM     16  C   UNL     1     -27.722   6.812   1.105  1.00  0.00     0.062 A 
ATOM     17  C   UNL     1     -26.400   7.059   0.704  1.00  0.00     0.158 A 
BRANCH  15  18
ATOM     18  O   UNL     1     -24.637   8.659   0.177  1.00  0.00    -0.504 OA
ATOM     19  H   UNL     1     -24.433   9.250  -0.619  1.00  0.00     0.293 HD
ENDBRANCH  15  18
BRANCH  17  20
ATOM     20  O   UNL     1     -25.540   5.995   0.437  1.00  0.00    -0.504 OA
ATOM     21  H   UNL     1     -25.308   5.308   1.146  1.00  0.00     0.293 HD
ENDBRANCH  17  20
ENDBRANCH   1  12
BRANCH   2  22
ATOM     22  O   UNL     1     -29.456   8.236   4.116  1.00  0.00    -0.502 OA
ATOM     23  H   UNL     1     -28.711   7.624   4.427  1.00  0.00     0.293 HD
ENDBRANCH   2  22
BRANCH   6  24
ATOM     24  O   UNL     1     -34.698   7.308   3.944  1.00  0.00    -0.507 OA
ATOM     25  H   UNL     1     -35.500   6.818   4.310  1.00  0.00     0.293 HD
ENDBRANCH   6  24
BRANCH   8  26
ATOM     26  O   UNL     1     -35.117   5.681  -0.555  1.00  0.00    -0.508 OA
ATOM     27  H   UNL     1     -35.516   6.278  -1.270  1.00  0.00     0.293 HD
ENDBRANCH   8  26
TORSDOF 6
ENDMDL
MODEL 3
REMARK VINA RESULT:    -7.735      2.008      7.210
REMARK INTER + INTRA:          -9.371
REMARK INTER:                  -9.433
REMARK INTRA:                   0.062
REMARK UNBOUND:                -0.054
REMARK SMILES O=c1c(O)c(-c2ccc(O)c(O)c2)oc2cc(O)cc(O)c12
REMARK SMILES IDX 5 1 3 2 2 3 1 4 22 5 20 6 19 7 17 8 16 9 15 10 14 11 6 12
REMARK SMILES IDX 7 13 8 14 9 15 13 16 11 17 10 18 12 20 4 22 21 24 18 26
REMARK H PARENT 10 19 12 21 4 23 21 25 18 27
REMARK Flexibility Score: inf
ROOT
ATOM      1  C   UNL     1     -29.470   7.085   1.291  1.00  0.00     0.180 A 
ATOM      2  C   UNL     1     -29.524   5.736   0.898  1.00  0.00     0.208 A 
ATOM      3  C   UNL     1     -30.740   5.044   1.007  1.00  0.00     0.238 A 
ATOM      4  O   UNL     1     -30.797   3.852   0.604  1.00  0.00    -0.285 OA
ATOM      5  C   UNL     1     -31.882   5.703   1.522  1.00  0.00     0.111 A 
ATOM      6  C   UNL     1     -33.156   5.087   1.713  1.00  0.00     0.134 A 
ATOM      7  C   UNL     1     -34.249   5.868   2.106  1.00  0.00     0.093 A 
ATOM      8  C   UNL     1     -34.100   7.231   2.377  1.00  0.00     0.123 A 
ATOM      9  C   UNL     1     -32.848   7.828   2.250  1.00  0.00     0.094 A 
ATOM     10  C   UNL     1     -31.746   7.082   1.825  1.00  0.00     0.146 A 
ATOM     11  O   UNL     1     -30.574   7.693   1.707  1.00  0.00    -0.452 OA
ENDROOT
BRANCH   1  12
ATOM     12  C   UNL     1     -28.218   7.873   1.228  1.00  0.00     0.025 A 
ATOM     13  C   UNL     1     -27.808   8.610   2.350  1.00  0.00     0.016 A 
ATOM     14  C   UNL     1     -26.619   9.343   2.319  1.00  0.00     0.051 A 
ATOM     15  C   UNL     1     -25.816   9.341   1.176  1.00  0.00     0.157 A 
ATOM     16  C   UNL     1     -27.398   7.854   0.085  1.00  0.00     0.062 A 
ATOM     17  C   UNL     1     -26.203   8.589   0.054  1.00  0.00     0.158 A 
BRANCH  15  18
ATOM     18  O   UNL     1     -24.636  10.085   1.173  1.00  0.00    -0.504 OA
ATOM     19  H   UNL     1     -24.518  10.908   1.750  1.00  0.00     0.293 HD
ENDBRANCH  15  18
BRANCH  17  20
ATOM     20  O   UNL     1     -25.399   8.570  -1.085  1.00  0.00    -0.504 OA
ATOM     21  H   UNL     1     -24.431   8.273  -1.047  1.00  0.00     0.293 HD
ENDBRANCH  17  20
ENDBRANCH   1  12
BRANCH   2  22
ATOM     22  O   UNL     1     -28.389   5.110   0.372  1.00  0.00    -0.502 OA
ATOM     23  H   UNL     1     -27.547   4.965   0.916  1.00  0.00     0.293 HD
ENDBRANCH   2  22
BRANCH   6  24
ATOM     24  O   UNL     1     -33.391   3.717   1.560  1.00  0.00    -0.507 OA
ATOM     25  H   UNL     1     -32.777   2.988   1.888  1.00  0.00     0.293 HD
ENDBRANCH   6  24
BRANCH   8  26
ATOM     26  O   UNL     1     -35.189   7.999   2.783  1.00  0.00    -0.508 OA
ATOM     27  H   UNL     1     -36.122   7.824   2.428  1.00  0.00     0.293 HD
ENDBRANCH   8  26
TORSDOF 6
ENDMDL
MODEL 4
REMARK VINA RESULT:    -7.691      1.804      6.628
REMARK INTER + INTRA:          -9.318
REMARK INTER:                  -8.984
REMARK INTRA:                  -0.335
REMARK UNBOUND:                -0.054
REMARK SMILES O=c1c(O)c(-c2ccc(O)c(O)c2)oc2cc(O)cc(O)c12
REMARK SMILES IDX 5 1 3 2 2 3 1 4 22 5 20 6 19 7 17 8 16 9 15 10 14 11 6 12
REMARK SMILES IDX 7 13 8 14 9 15 13 16 11 17 10 18 12 20 4 22 21 24 18 26
REMARK H PARENT 10 19 12 21 4 23 21 25 18 27
REMARK Flexibility Score: inf
ROOT
ATOM      1  C   UNL     1     -31.564   5.366   0.541  1.00  0.00     0.180 A 
ATOM      2  C   UNL     1     -32.153   4.089   0.533  1.00  0.00     0.208 A 
ATOM      3  C   UNL     1     -33.452   3.935   1.042  1.00  0.00     0.238 A 
ATOM      4  O   UNL     1     -33.995   2.801   0.984  1.00  0.00    -0.285 OA
ATOM      5  C   UNL     1     -34.140   5.056   1.567  1.00  0.00     0.111 A 
ATOM      6  C   UNL     1     -35.445   5.008   2.146  1.00  0.00     0.134 A 
ATOM      7  C   UNL     1     -36.081   6.199   2.514  1.00  0.00     0.093 A 
ATOM      8  C   UNL     1     -35.434   7.431   2.385  1.00  0.00     0.123 A 
ATOM      9  C   UNL     1     -34.138   7.481   1.878  1.00  0.00     0.094 A 
ATOM     10  C   UNL     1     -33.491   6.313   1.467  1.00  0.00     0.146 A 
ATOM     11  O   UNL     1     -32.260   6.408   0.979  1.00  0.00    -0.452 OA
ENDROOT
BRANCH   1  12
ATOM     12  C   UNL     1     -30.190   5.602   0.043  1.00  0.00     0.025 A 
ATOM     13  C   UNL     1     -29.996   6.002  -1.288  1.00  0.00     0.016 A 
ATOM     14  C   UNL     1     -28.710   6.252  -1.771  1.00  0.00     0.051 A 
ATOM     15  C   UNL     1     -27.600   6.120  -0.932  1.00  0.00     0.157 A 
ATOM     16  C   UNL     1     -29.075   5.491   0.894  1.00  0.00     0.062 A 
ATOM     17  C   UNL     1     -27.782   5.743   0.410  1.00  0.00     0.158 A 
BRANCH  15  18
ATOM     18  O   UNL     1     -26.328   6.373  -1.443  1.00  0.00    -0.504 OA
ATOM     19  H   UNL     1     -26.159   6.484  -2.435  1.00  0.00     0.293 HD
ENDBRANCH  15  18
BRANCH  17  20
ATOM     20  O   UNL     1     -26.682   5.625   1.257  1.00  0.00    -0.504 OA
ATOM     21  H   UNL     1     -26.735   5.107   2.127  1.00  0.00     0.293 HD
ENDBRANCH  17  20
ENDBRANCH   1  12
BRANCH   2  22
ATOM     22  O   UNL     1     -31.464   3.000  -0.010  1.00  0.00    -0.502 OA
ATOM     23  H   UNL     1     -30.486   3.049  -0.267  1.00  0.00     0.293 HD
ENDBRANCH   2  22
BRANCH   6  24
ATOM     24  O   UNL     1     -36.141   3.822   2.403  1.00  0.00    -0.507 OA
ATOM     25  H   UNL     1     -36.170   3.027   1.785  1.00  0.00     0.293 HD
ENDBRANCH   6  24
BRANCH   8  26
ATOM     26  O   UNL     1     -36.068   8.610   2.769  1.00  0.00    -0.508 OA
ATOM     27  H   UNL     1     -37.045   8.778   2.561  1.00  0.00     0.293 HD
ENDBRANCH   8  26
TORSDOF 6
ENDMDL
MODEL 5
REMARK VINA RESULT:    -7.671      1.782      2.194
REMARK INTER + INTRA:          -9.295
REMARK INTER:                  -9.204
REMARK INTRA:                  -0.090
REMARK UNBOUND:                -0.054
REMARK SMILES O=c1c(O)c(-c2ccc(O)c(O)c2)oc2cc(O)cc(O)c12
REMARK SMILES IDX 5 1 3 2 2 3 1 4 22 5 20 6 19 7 17 8 16 9 15 10 14 11 6 12
REMARK SMILES IDX 7 13 8 14 9 15 13 16 11 17 10 18 12 20 4 22 21 24 18 26
REMARK H PARENT 10 19 12 21 4 23 21 25 18 27
REMARK Flexibility Score: inf
ROOT
ATOM      1  C   UNL     1     -31.184   6.768   1.437  1.00  0.00     0.180 A 
ATOM      2  C   UNL     1     -30.551   5.555   1.113  1.00  0.00     0.208 A 
ATOM      3  C   UNL     1     -29.170   5.556   0.860  1.00  0.00     0.238 A 
ATOM      4  O   UNL     1     -28.598   4.459   0.623  1.00  0.00    -0.285 OA
ATOM      5  C   UNL     1     -28.443   6.769   0.918  1.00  0.00     0.111 A 
ATOM      6  C   UNL     1     -27.047   6.892   0.641  1.00  0.00     0.134 A 
ATOM      7  C   UNL     1     -26.406   8.118   0.857  1.00  0.00     0.093 A 
ATOM      8  C   UNL     1     -27.123   9.241   1.278  1.00  0.00     0.123 A 
ATOM      9  C   UNL     1     -28.495   9.145   1.493  1.00  0.00     0.094 A 
ATOM     10  C   UNL     1     -29.157   7.926   1.321  1.00  0.00     0.146 A 
ATOM     11  O   UNL     1     -30.463   7.877   1.549  1.00  0.00    -0.452 OA
ENDROOT
BRANCH   1  12
ATOM     12  C   UNL     1     -32.640   6.851   1.694  1.00  0.00     0.025 A 
ATOM     13  C   UNL     1     -33.100   7.447   2.878  1.00  0.00     0.016 A 
ATOM     14  C   UNL     1     -34.470   7.556   3.129  1.00  0.00     0.051 A 
ATOM     15  C   UNL     1     -35.400   7.086   2.198  1.00  0.00     0.157 A 
ATOM     16  C   UNL     1     -33.577   6.398   0.747  1.00  0.00     0.062 A 
ATOM     17  C   UNL     1     -34.953   6.508   0.998  1.00  0.00     0.158 A 
BRANCH  15  18
ATOM     18  O   UNL     1     -36.761   7.205   2.478  1.00  0.00    -0.504 OA
ATOM     19  H   UNL     1     -37.164   6.867   3.342  1.00  0.00     0.293 HD
ENDBRANCH  15  18
BRANCH  17  20
ATOM     20  O   UNL     1     -35.875   6.050   0.057  1.00  0.00    -0.504 OA
ATOM     21  H   UNL     1     -35.712   5.205  -0.477  1.00  0.00     0.293 HD
ENDBRANCH  17  20
ENDBRANCH   1  12
BRANCH   2  22
ATOM     22  O   UNL     1     -31.283   4.365   1.083  1.00  0.00    -0.502 OA
ATOM     23  H   UNL     1     -32.235   4.321   0.740  1.00  0.00     0.293 HD
ENDBRANCH   2  22
BRANCH   6  24
ATOM     24  O   UNL     1     -26.259   5.856   0.129  1.00  0.00    -0.507 OA
ATOM     25  H   UNL     1     -26.283   5.534  -0.826  1.00  0.00     0.293 HD
ENDBRANCH   6  24
BRANCH   8  26
ATOM     26  O   UNL     1     -26.479  10.461   1.474  1.00  0.00    -0.508 OA
ATOM     27  H   UNL     1     -25.591  10.520   1.957  1.00  0.00     0.293 HD
ENDBRANCH   8  26
TORSDOF 6
ENDMDL
MODEL 6
REMARK VINA RESULT:    -7.630      1.560      6.822
REMARK INTER + INTRA:          -9.246
REMARK INTER:                  -9.252
REMARK INTRA:                   0.006
REMARK UNBOUND:                -0.054
REMARK SMILES O=c1c(O)c(-c2ccc(O)c(O)c2)oc2cc(O)cc(O)c12
REMARK SMILES IDX 5 1 3 2 2 3 1 4 22 5 20 6 19 7 17 8 16 9 15 10 14 11 6 12
REMARK SMILES IDX 7 13 8 14 9 15 13 16 11 17 10 18 12 20 4 22 21 24 18 26
REMARK H PARENT 10 19 12 21 4 23 21 25 18 27
REMARK Flexibility Score: inf
ROOT
ATOM      1  C   UNL     1     -30.721   6.760   1.177  1.00  0.00     0.180 A 
ATOM      2  C   UNL     1     -30.845   5.412   0.797  1.00  0.00     0.208 A 
ATOM      3  C   UNL     1     -32.090   4.778   0.935  1.00  0.00     0.238 A 
ATOM      4  O   UNL     1     -32.209   3.587   0.543  1.00  0.00    -0.285 OA
ATOM      5  C   UNL     1     -33.190   5.493   1.465  1.00  0.00     0.111 A 
ATOM      6  C   UNL     1     -34.487   4.938   1.685  1.00  0.00     0.134 A 
ATOM      7  C   UNL     1     -35.536   5.772   2.091  1.00  0.00     0.093 A 
ATOM      8  C   UNL     1     -35.318   7.129   2.348  1.00  0.00     0.123 A 
ATOM      9  C   UNL     1     -34.043   7.666   2.193  1.00  0.00     0.094 A 
ATOM     10  C   UNL     1     -32.985   6.866   1.753  1.00  0.00     0.146 A 
ATOM     11  O   UNL     1     -31.788   7.422   1.608  1.00  0.00    -0.452 OA
ENDROOT
BRANCH   1  12
ATOM     12  C   UNL     1     -29.436   7.489   1.084  1.00  0.00     0.025 A 
ATOM     13  C   UNL     1     -28.742   7.515  -0.136  1.00  0.00     0.016 A 
ATOM     14  C   UNL     1     -27.540   8.215  -0.251  1.00  0.00     0.051 A 
ATOM     15  C   UNL     1     -27.019   8.912   0.842  1.00  0.00     0.157 A 
ATOM     16  C   UNL     1     -28.922   8.209   2.178  1.00  0.00     0.062 A 
ATOM     17  C   UNL     1     -27.715   8.914   2.063  1.00  0.00     0.158 A 
BRANCH  15  18
ATOM     18  O   UNL     1     -25.814   9.600   0.698  1.00  0.00    -0.504 OA
ATOM     19  H   UNL     1     -24.932   9.120   0.570  1.00  0.00     0.293 HD
ENDBRANCH  15  18
BRANCH  17  20
ATOM     20  O   UNL     1     -27.209   9.619   3.155  1.00  0.00    -0.504 OA
ATOM     21  H   UNL     1     -27.398  10.606   3.283  1.00  0.00     0.293 HD
ENDBRANCH  17  20
ENDBRANCH   1  12
BRANCH   2  22
ATOM     22  O   UNL     1     -29.750   4.730   0.256  1.00  0.00    -0.502 OA
ATOM     23  H   UNL     1     -29.753   4.361  -0.687  1.00  0.00     0.293 HD
ENDBRANCH   2  22
BRANCH   6  24
ATOM     24  O   UNL     1     -34.788   3.579   1.548  1.00  0.00    -0.507 OA
ATOM     25  H   UNL     1     -35.709   3.209   1.373  1.00  0.00     0.293 HD
ENDBRANCH   6  24
BRANCH   8  26
ATOM     26  O   UNL     1     -36.364   7.949   2.767  1.00  0.00    -0.508 OA
ATOM     27  H   UNL     1     -36.383   8.937   2.546  1.00  0.00     0.293 HD
ENDBRANCH   8  26
TORSDOF 6
ENDMDL
MODEL 7
REMARK VINA RESULT:    -7.576      1.770      2.932
REMARK INTER + INTRA:          -9.180
REMARK INTER:                  -8.871
REMARK INTRA:                  -0.310
REMARK UNBOUND:                -0.054
REMARK SMILES O=c1c(O)c(-c2ccc(O)c(O)c2)oc2cc(O)cc(O)c12
REMARK SMILES IDX 5 1 3 2 2 3 1 4 22 5 20 6 19 7 17 8 16 9 15 10 14 11 6 12
REMARK SMILES IDX 7 13 8 14 9 15 13 16 11 17 10 18 12 20 4 22 21 24 18 26
REMARK H PARENT 10 19 12 21 4 23 21 25 18 27
REMARK Flexibility Score: inf
ROOT
ATOM      1  C   UNL     1     -32.843   6.918   2.369  1.00  0.00     0.180 A 
ATOM      2  C   UNL     1     -32.314   7.520   3.524  1.00  0.00     0.208 A 
ATOM      3  C   UNL     1     -30.984   7.971   3.508  1.00  0.00     0.238 A 
ATOM      4  O   UNL     1     -30.532   8.558   4.526  1.00  0.00    -0.285 OA
ATOM      5  C   UNL     1     -30.196   7.799   2.345  1.00  0.00     0.111 A 
ATOM      6  C   UNL     1     -28.825   8.182   2.232  1.00  0.00     0.134 A 
ATOM      7  C   UNL     1     -28.181   8.085   0.992  1.00  0.00     0.093 A 
ATOM      8  C   UNL     1     -28.840   7.558  -0.122  1.00  0.00     0.123 A 
ATOM      9  C   UNL     1     -30.158   7.126  -0.006  1.00  0.00     0.094 A 
ATOM     10  C   UNL     1     -30.839   7.244   1.209  1.00  0.00     0.146 A 
ATOM     11  O   UNL     1     -32.099   6.832   1.273  1.00  0.00    -0.452 OA
ENDROOT
BRANCH   1  12
ATOM     12  C   UNL     1     -34.228   6.397   2.317  1.00  0.00     0.025 A 
ATOM     13  C   UNL     1     -35.283   7.268   2.007  1.00  0.00     0.016 A 
ATOM     14  C   UNL     1     -36.594   6.793   1.931  1.00  0.00     0.051 A 
ATOM     15  C   UNL     1     -36.870   5.440   2.148  1.00  0.00     0.157 A 
ATOM     16  C   UNL     1     -34.504   5.031   2.513  1.00  0.00     0.062 A 
ATOM     17  C   UNL     1     -35.820   4.552   2.436  1.00  0.00     0.158 A 
BRANCH  15  18
ATOM     18  O   UNL     1     -38.190   4.995   2.068  1.00  0.00    -0.504 OA
ATOM     19  H   UNL     1     -38.630   4.773   1.185  1.00  0.00     0.293 HD
ENDBRANCH  15  18
BRANCH  17  20
ATOM     20  O   UNL     1     -36.086   3.199   2.638  1.00  0.00    -0.504 OA
ATOM     21  H   UNL     1     -36.686   2.676   2.011  1.00  0.00     0.293 HD
ENDBRANCH  17  20
ENDBRANCH   1  12
BRANCH   2  22
ATOM     22  O   UNL     1     -33.117   7.700   4.655  1.00  0.00    -0.502 OA
ATOM     23  H   UNL     1     -33.308   8.614   5.046  1.00  0.00     0.293 HD
ENDBRANCH   2  22
BRANCH   6  24
ATOM     24  O   UNL     1     -28.049   8.633   3.305  1.00  0.00    -0.507 OA
ATOM     25  H   UNL     1     -27.049   8.532   3.373  1.00  0.00     0.293 HD
ENDBRANCH   6  24
BRANCH   8  26
ATOM     26  O   UNL     1     -28.186   7.449  -1.348  1.00  0.00    -0.508 OA
ATOM     27  H   UNL     1     -28.379   8.089  -2.109  1.00  0.00     0.293 HD
ENDBRANCH   8  26
TORSDOF 6
ENDMDL
MODEL 8
REMARK VINA RESULT:    -7.571      1.980      7.383
REMARK INTER + INTRA:          -9.174
REMARK INTER:                  -8.948
REMARK INTRA:                  -0.226
REMARK UNBOUND:                -0.054
REMARK SMILES O=c1c(O)c(-c2ccc(O)c(O)c2)oc2cc(O)cc(O)c12
REMARK SMILES IDX 5 1 3 2 2 3 1 4 22 5 20 6 19 7 17 8 16 9 15 10 14 11 6 12
REMARK SMILES IDX 7 13 8 14 9 15 13 16 11 17 10 18 12 20 4 22 21 24 18 26
REMARK H PARENT 10 19 12 21 4 23 21 25 18 27
REMARK Flexibility Score: inf
ROOT
ATOM      1  C   UNL     1     -30.038   6.768   1.158  1.00  0.00     0.180 A 
ATOM      2  C   UNL     1     -30.386   7.773   2.078  1.00  0.00     0.208 A 
ATOM      3  C   UNL     1     -31.618   7.685   2.746  1.00  0.00     0.238 A 
ATOM      4  O   UNL     1     -31.901   8.558   3.609  1.00  0.00    -0.285 OA
ATOM      5  C   UNL     1     -32.491   6.604   2.476  1.00  0.00     0.111 A 
ATOM      6  C   UNL     1     -33.780   6.437   3.066  1.00  0.00     0.134 A 
ATOM      7  C   UNL     1     -34.504   5.262   2.825  1.00  0.00     0.093 A 
ATOM      8  C   UNL     1     -34.012   4.279   1.963  1.00  0.00     0.123 A 
ATOM      9  C   UNL     1     -32.782   4.461   1.336  1.00  0.00     0.094 A 
ATOM     10  C   UNL     1     -32.020   5.606   1.585  1.00  0.00     0.146 A 
ATOM     11  O   UNL     1     -30.848   5.733   0.976  1.00  0.00    -0.452 OA
ENDROOT
BRANCH   1  12
ATOM     12  C   UNL     1     -28.768   6.805   0.397  1.00  0.00     0.025 A 
ATOM     13  C   UNL     1     -28.789   7.132  -0.968  1.00  0.00     0.016 A 
ATOM     14  C   UNL     1     -27.601   7.194  -1.699  1.00  0.00     0.051 A 
ATOM     15  C   UNL     1     -26.374   6.944  -1.078  1.00  0.00     0.157 A 
ATOM     16  C   UNL     1     -27.531   6.575   1.026  1.00  0.00     0.062 A 
ATOM     17  C   UNL     1     -26.336   6.637   0.293  1.00  0.00     0.158 A 
BRANCH  15  18
ATOM     18  O   UNL     1     -25.204   7.009  -1.835  1.00  0.00    -0.504 OA
ATOM     19  H   UNL     1     -25.040   6.399  -2.625  1.00  0.00     0.293 HD
ENDBRANCH  15  18
BRANCH  17  20
ATOM     20  O   UNL     1     -25.115   6.402   0.923  1.00  0.00    -0.504 OA
ATOM     21  H   UNL     1     -24.506   5.645   0.633  1.00  0.00     0.293 HD
ENDBRANCH  17  20
ENDBRANCH   1  12
BRANCH   2  22
ATOM     22  O   UNL     1     -29.499   8.820   2.346  1.00  0.00    -0.502 OA
ATOM     23  H   UNL     1     -29.418   9.241   3.264  1.00  0.00     0.293 HD
ENDBRANCH   2  22
BRANCH   6  24
ATOM     24  O   UNL     1     -34.403   7.399   3.868  1.00  0.00    -0.507 OA
ATOM     25  H   UNL     1     -34.624   7.279   4.843  1.00  0.00     0.293 HD
ENDBRANCH   6  24
BRANCH   8  26
ATOM     26  O   UNL     1     -34.745   3.120   1.715  1.00  0.00    -0.508 OA
ATOM     27  H   UNL     1     -35.580   3.134   1.143  1.00  0.00     0.293 HD
ENDBRANCH   8  26
TORSDOF 6
ENDMDL
MODEL 9
REMARK VINA RESULT:    -7.485      1.840      7.164
REMARK INTER + INTRA:          -9.071
REMARK INTER:                  -8.749
REMARK INTRA:                  -0.322
REMARK UNBOUND:                -0.054
REMARK SMILES O=c1c(O)c(-c2ccc(O)c(O)c2)oc2cc(O)cc(O)c12
REMARK SMILES IDX 5 1 3 2 2 3 1 4 22 5 20 6 19 7 17 8 16 9 15 10 14 11 6 12
REMARK SMILES IDX 7 13 8 14 9 15 13 16 11 17 10 18 12 20 4 22 21 24 18 26
REMARK H PARENT 10 19 12 21 4 23 21 25 18 27
REMARK Flexibility Score: inf
ROOT
ATOM      1  C   UNL     1     -31.732   5.846   0.828  1.00  0.00     0.180 A 
ATOM      2  C   UNL     1     -32.372   7.045   1.185  1.00  0.00     0.208 A 
ATOM      3  C   UNL     1     -33.666   6.992   1.728  1.00  0.00     0.238 A 
ATOM      4  O   UNL     1     -34.212   8.065   2.096  1.00  0.00    -0.285 OA
ATOM      5  C   UNL     1     -34.310   5.742   1.891  1.00  0.00     0.111 A 
ATOM      6  C   UNL     1     -35.636   5.573   2.394  1.00  0.00     0.134 A 
ATOM      7  C   UNL     1     -36.123   4.283   2.636  1.00  0.00     0.093 A 
ATOM      8  C   UNL     1     -35.357   3.155   2.333  1.00  0.00     0.123 A 
ATOM      9  C   UNL     1     -34.085   3.309   1.786  1.00  0.00     0.094 A 
ATOM     10  C   UNL     1     -33.557   4.584   1.567  1.00  0.00     0.146 A 
ATOM     11  O   UNL     1     -32.336   4.686   1.055  1.00  0.00    -0.452 OA
ENDROOT
BRANCH   1  12
ATOM     12  C   UNL     1     -30.379   5.823   0.228  1.00  0.00     0.025 A 
ATOM     13  C   UNL     1     -30.236   5.964  -1.161  1.00  0.00     0.016 A 
ATOM     14  C   UNL     1     -28.967   5.968  -1.744  1.00  0.00     0.051 A 
ATOM     15  C   UNL     1     -27.823   5.846  -0.951  1.00  0.00     0.157 A 
ATOM     16  C   UNL     1     -29.226   5.722   1.028  1.00  0.00     0.062 A 
ATOM     17  C   UNL     1     -27.951   5.727   0.443  1.00  0.00     0.158 A 
BRANCH  15  18
ATOM     18  O   UNL     1     -26.569   5.850  -1.563  1.00  0.00    -0.504 OA
ATOM     19  H   UNL     1     -26.107   6.708  -1.838  1.00  0.00     0.293 HD
ENDBRANCH  15  18
BRANCH  17  20
ATOM     20  O   UNL     1     -26.813   5.621   1.242  1.00  0.00    -0.504 OA
ATOM     21  H   UNL     1     -26.871   5.644   2.254  1.00  0.00     0.293 HD
ENDBRANCH  17  20
ENDBRANCH   1  12
BRANCH   2  22
ATOM     22  O   UNL     1     -31.709   8.268   1.035  1.00  0.00    -0.502 OA
ATOM     23  H   UNL     1     -32.152   9.155   1.243  1.00  0.00     0.293 HD
ENDBRANCH   2  22
BRANCH   6  24
ATOM     24  O   UNL     1     -36.516   6.630   2.642  1.00  0.00    -0.507 OA
ATOM     25  H   UNL     1     -36.252   7.602   2.680  1.00  0.00     0.293 HD
ENDBRANCH   6  24
BRANCH   8  26
ATOM     26  O   UNL     1     -35.856   1.874   2.562  1.00  0.00    -0.508 OA
ATOM     27  H   UNL     1     -36.456   1.411   1.889  1.00  0.00     0.293 HD
ENDBRANCH   8  26
TORSDOF 6
ENDMDL
