MODEL 1
REMARK VINA RESULT:    -5.133      0.000      0.000
REMARK INTER + INTRA:         -17.760
REMARK INTER:                 -13.536
REMARK INTRA:                  -4.224
REMARK UNBOUND:                -4.224
REMARK SMILES CCCCCCCCCCCCCCCCCCCCCCCCCCCCCC(=O)[O-]
REMARK SMILES IDX 16 1 17 2 18 3 19 4 20 5 21 6 22 7 23 8 24 9 25 10 26 11
REMARK SMILES IDX 27 12 28 13 29 14 30 15 31 16 32 17 15 18 14 19 13 20 12 21
REMARK SMILES IDX 11 22 10 23 9 24 8 25 7 26 6 27 5 28 4 29 3 30 2 31 1 32
REMARK H PARENT
REMARK Flexibility Score: inf
ROOT
ATOM      1  C   UNL     1      10.997 -15.337  15.073  1.00  0.00     0.000 C 
ENDROOT
BRANCH   1   2
ATOM      2  C   UNL     1      12.097 -14.927  16.061  1.00  0.00     0.000 C 
BRANCH   2   3
ATOM      3  C   UNL     1      13.481 -15.346  15.552  1.00  0.00     0.000 C 
BRANCH   3   4
ATOM      4  C   UNL     1      13.996 -16.573  16.315  1.00  0.00     0.000 C 
BRANCH   4   5
ATOM      5  C   UNL     1      14.015 -17.814  15.412  1.00  0.00     0.000 C 
BRANCH   5   6
ATOM      6  C   UNL     1      14.042 -17.470  13.912  1.00  0.00     0.000 C 
BRANCH   6   7
ATOM      7  C   UNL     1      15.444 -17.425  13.275  1.00  0.00     0.000 C 
BRANCH   7   8
ATOM      8  C   UNL     1      15.746 -16.092  12.574  1.00  0.00     0.000 C 
BRANCH   8   9
ATOM      9  C   UNL     1      16.607 -15.185  13.465  1.00  0.00     0.000 C 
BRANCH   9  10
ATOM     10  C   UNL     1      16.511 -13.700  13.077  1.00  0.00     0.000 C 
BRANCH  10  11
ATOM     11  C   UNL     1      15.066 -13.172  13.109  1.00  0.00     0.000 C 
BRANCH  11  12
ATOM     12  C   UNL     1      14.923 -11.867  13.912  1.00  0.00     0.000 C 
BRANCH  12  13
ATOM     13  C   UNL     1      13.687 -11.790  14.830  1.00  0.00     0.006 C 
BRANCH  13  14
ATOM     14  C   UNL     1      13.170 -10.358  15.066  1.00  0.00     0.053 C 
BRANCH  14  15
ATOM     15  C   UNL     1      11.681 -10.304  15.236  1.00  0.00     0.041 C 
ATOM     16  O   UNL     1      10.992 -11.355  15.146  1.00  0.00    -0.550 OA
ATOM     17  O   UNL     1      11.046  -9.081  15.426  1.00  0.00    -0.550 OA
ENDBRANCH  14  15
ENDBRANCH  13  14
ENDBRANCH  12  13
ENDBRANCH  11  12
ENDBRANCH  10  11
ENDBRANCH   9  10
ENDBRANCH   8   9
ENDBRANCH   7   8
ENDBRANCH   6   7
ENDBRANCH   5   6
ENDBRANCH   4   5
ENDBRANCH   3   4
ENDBRANCH   2   3
ENDBRANCH   1   2
BRANCH   1  18
ATOM     18  C   UNL     1      11.528 -15.329  13.631  1.00  0.00     0.000 C 
BRANCH  18  19
ATOM     19  C   UNL     1      10.559 -15.993  12.641  1.00  0.00     0.000 C 
BRANCH  19  20
ATOM     20  C   UNL     1      11.012 -15.842  11.177  1.00  0.00     0.000 C 
BRANCH  20  21
ATOM     21  C   UNL     1      12.505 -16.189  10.987  1.00  0.00     0.000 C 
BRANCH  21  22
ATOM     22  C   UNL     1      12.968 -16.196   9.516  1.00  0.00     0.000 C 
BRANCH  22  23
ATOM     23  C   UNL     1      13.741 -17.452   9.083  1.00  0.00     0.000 C 
BRANCH  23  24
ATOM     24  C   UNL     1      12.890 -18.423   8.249  1.00  0.00    -0.000 C 
BRANCH  24  25
ATOM     25  C   UNL     1      12.167 -19.433   9.152  1.00  0.00    -0.000 C 
BRANCH  25  26
ATOM     26  C   UNL     1      10.676 -19.580   8.803  1.00  0.00    -0.000 C 
BRANCH  26  27
ATOM     27  C   UNL     1      10.288 -19.089   7.395  1.00  0.00    -0.000 C 
BRANCH  27  28
ATOM     28  C   UNL     1       8.838 -18.585   7.255  1.00  0.00    -0.000 C 
BRANCH  28  29
ATOM     29  C   UNL     1       8.690 -17.057   7.135  1.00  0.00    -0.000 C 
BRANCH  29  30
ATOM     30  C   UNL     1       9.970 -16.301   7.520  1.00  0.00    -0.000 C 
BRANCH  30  31
ATOM     31  C   UNL     1      10.391 -15.334   6.406  1.00  0.00    -0.003 C 
ATOM     32  C   UNL     1       9.559 -15.551   5.145  1.00  0.00     0.004 C 
ENDBRANCH  30  31
ENDBRANCH  29  30
ENDBRANCH  28  29
ENDBRANCH  27  28
ENDBRANCH  26  27
ENDBRANCH  25  26
ENDBRANCH  24  25
ENDBRANCH  23  24
ENDBRANCH  22  23
ENDBRANCH  21  22
ENDBRANCH  20  21
ENDBRANCH  19  20
ENDBRANCH  18  19
ENDBRANCH   1  18
TORSDOF 28
ENDMDL
MODEL 2
REMARK VINA RESULT:    -4.974      1.921      4.995
REMARK INTER + INTRA:         -17.339
REMARK INTER:                 -12.930
REMARK INTRA:                  -4.409
REMARK UNBOUND:                -4.224
REMARK SMILES CCCCCCCCCCCCCCCCCCCCCCCCCCCCCC(=O)[O-]
REMARK SMILES IDX 16 1 17 2 18 3 19 4 20 5 21 6 22 7 23 8 24 9 25 10 26 11
REMARK SMILES IDX 27 12 28 13 29 14 30 15 31 16 32 17 15 18 14 19 13 20 12 21
REMARK SMILES IDX 11 22 10 23 9 24 8 25 7 26 6 27 5 28 4 29 3 30 2 31 1 32
REMARK H PARENT
REMARK Flexibility Score: inf
ROOT
ATOM      1  C   UNL     1      11.778 -17.540   9.187  1.00  0.00     0.000 C 
ENDROOT
BRANCH   1   2
ATOM      2  C   UNL     1      13.034 -17.058   9.925  1.00  0.00     0.000 C 
BRANCH   2   3
ATOM      3  C   UNL     1      12.665 -16.270  11.187  1.00  0.00     0.000 C 
BRANCH   3   4
ATOM      4  C   UNL     1      11.150 -16.046  11.269  1.00  0.00     0.000 C 
BRANCH   4   5
ATOM      5  C   UNL     1      10.664 -16.089  12.724  1.00  0.00     0.000 C 
BRANCH   5   6
ATOM      6  C   UNL     1      11.552 -15.274  13.683  1.00  0.00     0.000 C 
BRANCH   6   7
ATOM      7  C   UNL     1      12.043 -16.036  14.929  1.00  0.00     0.000 C 
BRANCH   7   8
ATOM      8  C   UNL     1      12.897 -17.265  14.586  1.00  0.00     0.000 C 
BRANCH   8   9
ATOM      9  C   UNL     1      14.248 -17.217  15.316  1.00  0.00     0.000 C 
BRANCH   9  10
ATOM     10  C   UNL     1      15.422 -17.667  14.431  1.00  0.00     0.000 C 
BRANCH  10  11
ATOM     11  C   UNL     1      15.568 -16.811  13.161  1.00  0.00     0.000 C 
BRANCH  11  12
ATOM     12  C   UNL     1      16.085 -15.391  13.451  1.00  0.00     0.000 C 
BRANCH  12  13
ATOM     13  C   UNL     1      15.006 -14.291  13.487  1.00  0.00     0.006 C 
BRANCH  13  14
ATOM     14  C   UNL     1      15.150 -13.309  14.665  1.00  0.00     0.053 C 
BRANCH  14  15
ATOM     15  C   UNL     1      14.250 -12.117  14.537  1.00  0.00     0.041 C 
ATOM     16  O   UNL     1      13.008 -12.238  14.712  1.00  0.00    -0.550 OA
ATOM     17  O   UNL     1      14.773 -10.887  14.155  1.00  0.00    -0.550 OA
ENDBRANCH  14  15
ENDBRANCH  13  14
ENDBRANCH  12  13
ENDBRANCH  11  12
ENDBRANCH  10  11
ENDBRANCH   9  10
ENDBRANCH   8   9
ENDBRANCH   7   8
ENDBRANCH   6   7
ENDBRANCH   5   6
ENDBRANCH   4   5
ENDBRANCH   3   4
ENDBRANCH   2   3
ENDBRANCH   1   2
BRANCH   1  18
ATOM     18  C   UNL     1      12.099 -18.747   8.292  1.00  0.00     0.000 C 
BRANCH  18  19
ATOM     19  C   UNL     1      10.912 -19.162   7.410  1.00  0.00     0.000 C 
BRANCH  19  20
ATOM     20  C   UNL     1       9.584 -18.532   7.869  1.00  0.00     0.000 C 
BRANCH  20  21
ATOM     21  C   UNL     1       8.376 -19.056   7.061  1.00  0.00     0.000 C 
BRANCH  21  22
ATOM     22  C   UNL     1       8.740 -20.106   5.993  1.00  0.00     0.000 C 
BRANCH  22  23
ATOM     23  C   UNL     1       8.027 -19.934   4.641  1.00  0.00     0.000 C 
BRANCH  23  24
ATOM     24  C   UNL     1       6.681 -19.202   4.762  1.00  0.00    -0.000 C 
BRANCH  24  25
ATOM     25  C   UNL     1       6.517 -18.168   3.639  1.00  0.00    -0.000 C 
BRANCH  25  26
ATOM     26  C   UNL     1       7.678 -18.199   2.630  1.00  0.00    -0.000 C 
BRANCH  26  27
ATOM     27  C   UNL     1       8.444 -16.870   2.483  1.00  0.00    -0.000 C 
BRANCH  27  28
ATOM     28  C   UNL     1       9.905 -16.899   2.976  1.00  0.00    -0.000 C 
BRANCH  28  29
ATOM     29  C   UNL     1      10.076 -16.924   4.505  1.00  0.00    -0.000 C 
BRANCH  29  30
ATOM     30  C   UNL     1       9.133 -15.950   5.227  1.00  0.00    -0.000 C 
BRANCH  30  31
ATOM     31  C   UNL     1       9.907 -14.748   5.782  1.00  0.00    -0.003 C 
ATOM     32  C   UNL     1      11.188 -15.194   6.482  1.00  0.00     0.004 C 
ENDBRANCH  30  31
ENDBRANCH  29  30
ENDBRANCH  28  29
ENDBRANCH  27  28
ENDBRANCH  26  27
ENDBRANCH  25  26
ENDBRANCH  24  25
ENDBRANCH  23  24
ENDBRANCH  22  23
ENDBRANCH  21  22
ENDBRANCH  20  21
ENDBRANCH  19  20
ENDBRANCH  18  19
ENDBRANCH   1  18
TORSDOF 28
ENDMDL
MODEL 3
REMARK VINA RESULT:    -4.938      2.774      9.212
REMARK INTER + INTRA:         -17.246
REMARK INTER:                 -13.077
REMARK INTRA:                  -4.169
REMARK UNBOUND:                -4.224
REMARK SMILES CCCCCCCCCCCCCCCCCCCCCCCCCCCCCC(=O)[O-]
REMARK SMILES IDX 16 1 17 2 18 3 19 4 20 5 21 6 22 7 23 8 24 9 25 10 26 11
REMARK SMILES IDX 27 12 28 13 29 14 30 15 31 16 32 17 15 18 14 19 13 20 12 21
REMARK SMILES IDX 11 22 10 23 9 24 8 25 7 26 6 27 5 28 4 29 3 30 2 31 1 32
REMARK H PARENT
REMARK Flexibility Score: inf
ROOT
ATOM      1  C   UNL     1      13.014 -18.120   8.866  1.00  0.00     0.000 C 
ENDROOT
BRANCH   1   2
ATOM      2  C   UNL     1      12.048 -19.255   8.499  1.00  0.00     0.000 C 
BRANCH   2   3
ATOM      3  C   UNL     1      10.595 -18.861   8.791  1.00  0.00     0.000 C 
BRANCH   3   4
ATOM      4  C   UNL     1       9.621 -19.894   8.211  1.00  0.00     0.000 C 
BRANCH   4   5
ATOM      5  C   UNL     1       8.603 -19.226   7.276  1.00  0.00     0.000 C 
BRANCH   5   6
ATOM      6  C   UNL     1       8.181 -20.126   6.100  1.00  0.00     0.000 C 
BRANCH   6   7
ATOM      7  C   UNL     1       6.930 -19.659   5.332  1.00  0.00     0.000 C 
BRANCH   7   8
ATOM      8  C   UNL     1       7.221 -19.293   3.869  1.00  0.00     0.000 C 
BRANCH   8   9
ATOM      9  C   UNL     1       6.772 -17.857   3.562  1.00  0.00     0.000 C 
BRANCH   9  10
ATOM     10  C   UNL     1       7.950 -16.877   3.433  1.00  0.00     0.000 C 
BRANCH  10  11
ATOM     11  C   UNL     1       8.395 -16.304   4.790  1.00  0.00     0.000 C 
BRANCH  11  12
ATOM     12  C   UNL     1       9.869 -15.863   4.801  1.00  0.00     0.000 C 
BRANCH  12  13
ATOM     13  C   UNL     1      10.734 -16.480   5.917  1.00  0.00     0.006 C 
BRANCH  13  14
ATOM     14  C   UNL     1      11.073 -15.506   7.060  1.00  0.00     0.053 C 
BRANCH  14  15
ATOM     15  C   UNL     1      12.469 -14.966   6.963  1.00  0.00     0.041 C 
ATOM     16  O   UNL     1      12.825 -13.993   7.679  1.00  0.00    -0.550 OA
ATOM     17  O   UNL     1      13.357 -15.495   6.032  1.00  0.00    -0.550 OA
ENDBRANCH  14  15
ENDBRANCH  13  14
ENDBRANCH  12  13
ENDBRANCH  11  12
ENDBRANCH  10  11
ENDBRANCH   9  10
ENDBRANCH   8   9
ENDBRANCH   7   8
ENDBRANCH   6   7
ENDBRANCH   5   6
ENDBRANCH   4   5
ENDBRANCH   3   4
ENDBRANCH   2   3
ENDBRANCH   1   2
BRANCH   1  18
ATOM     18  C   UNL     1      12.835 -17.705  10.334  1.00  0.00     0.000 C 
BRANCH  18  19
ATOM     19  C   UNL     1      12.578 -16.198  10.495  1.00  0.00     0.000 C 
BRANCH  19  20
ATOM     20  C   UNL     1      11.081 -15.864  10.627  1.00  0.00     0.000 C 
BRANCH  20  21
ATOM     21  C   UNL     1      10.616 -15.828  12.099  1.00  0.00     0.000 C 
BRANCH  21  22
ATOM     22  C   UNL     1      11.764 -15.691  13.120  1.00  0.00     0.000 C 
BRANCH  22  23
ATOM     23  C   UNL     1      11.491 -14.720  14.281  1.00  0.00     0.000 C 
BRANCH  23  24
ATOM     24  C   UNL     1      11.390 -15.426  15.643  1.00  0.00    -0.000 C 
BRANCH  24  25
ATOM     25  C   UNL     1      12.582 -15.059  16.539  1.00  0.00    -0.000 C 
BRANCH  25  26
ATOM     26  C   UNL     1      13.854 -15.850  16.188  1.00  0.00    -0.000 C 
BRANCH  26  27
ATOM     27  C   UNL     1      13.612 -17.304  15.744  1.00  0.00    -0.000 C 
BRANCH  27  28
ATOM     28  C   UNL     1      14.839 -18.019  15.144  1.00  0.00    -0.000 C 
BRANCH  28  29
ATOM     29  C   UNL     1      15.787 -17.115  14.335  1.00  0.00    -0.000 C 
BRANCH  29  30
ATOM     30  C   UNL     1      15.257 -16.802  12.928  1.00  0.00    -0.000 C 
BRANCH  30  31
ATOM     31  C   UNL     1      15.875 -15.508  12.384  1.00  0.00    -0.003 C 
ATOM     32  C   UNL     1      15.106 -14.284  12.873  1.00  0.00     0.004 C 
ENDBRANCH  30  31
ENDBRANCH  29  30
ENDBRANCH  28  29
ENDBRANCH  27  28
ENDBRANCH  26  27
ENDBRANCH  25  26
ENDBRANCH  24  25
ENDBRANCH  23  24
ENDBRANCH  22  23
ENDBRANCH  21  22
ENDBRANCH  20  21
ENDBRANCH  19  20
ENDBRANCH  18  19
ENDBRANCH   1  18
TORSDOF 28
ENDMDL
MODEL 4
REMARK VINA RESULT:    -4.924      2.768      5.133
REMARK INTER + INTRA:         -17.209
REMARK INTER:                 -12.709
REMARK INTRA:                  -4.500
REMARK UNBOUND:                -4.224
REMARK SMILES CCCCCCCCCCCCCCCCCCCCCCCCCCCCCC(=O)[O-]
REMARK SMILES IDX 16 1 17 2 18 3 19 4 20 5 21 6 22 7 23 8 24 9 25 10 26 11
REMARK SMILES IDX 27 12 28 13 29 14 30 15 31 16 32 17 15 18 14 19 13 20 12 21
REMARK SMILES IDX 11 22 10 23 9 24 8 25 7 26 6 27 5 28 4 29 3 30 2 31 1 32
REMARK H PARENT
REMARK Flexibility Score: inf
ROOT
ATOM      1  C   UNL     1      11.993 -16.094  10.818  1.00  0.00     0.000 C 
ENDROOT
BRANCH   1   2
ATOM      2  C   UNL     1      10.760 -15.812  11.687  1.00  0.00     0.000 C 
BRANCH   2   3
ATOM      3  C   UNL     1      11.024 -16.170  13.154  1.00  0.00     0.000 C 
BRANCH   3   4
ATOM      4  C   UNL     1      11.273 -14.906  13.988  1.00  0.00     0.000 C 
BRANCH   4   5
ATOM      5  C   UNL     1      11.069 -15.185  15.484  1.00  0.00     0.000 C 
BRANCH   5   6
ATOM      6  C   UNL     1      12.283 -14.785  16.344  1.00  0.00     0.000 C 
BRANCH   6   7
ATOM      7  C   UNL     1      13.226 -15.942  16.724  1.00  0.00     0.000 C 
BRANCH   7   8
ATOM      8  C   UNL     1      14.315 -16.203  15.673  1.00  0.00     0.000 C 
BRANCH   8   9
ATOM      9  C   UNL     1      14.245 -17.648  15.155  1.00  0.00     0.000 C 
BRANCH   9  10
ATOM     10  C   UNL     1      14.085 -17.728  13.628  1.00  0.00     0.000 C 
BRANCH  10  11
ATOM     11  C   UNL     1      15.386 -17.393  12.878  1.00  0.00     0.000 C 
BRANCH  11  12
ATOM     12  C   UNL     1      15.338 -16.025  12.175  1.00  0.00     0.000 C 
BRANCH  12  13
ATOM     13  C   UNL     1      16.217 -15.899  10.916  1.00  0.00     0.006 C 
BRANCH  13  14
ATOM     14  C   UNL     1      15.429 -15.590   9.629  1.00  0.00     0.053 C 
BRANCH  14  15
ATOM     15  C   UNL     1      15.275 -14.119   9.386  1.00  0.00     0.041 C 
ATOM     16  O   UNL     1      14.682 -13.705   8.355  1.00  0.00    -0.550 OA
ATOM     17  O   UNL     1      15.846 -13.204  10.264  1.00  0.00    -0.550 OA
ENDBRANCH  14  15
ENDBRANCH  13  14
ENDBRANCH  12  13
ENDBRANCH  11  12
ENDBRANCH  10  11
ENDBRANCH   9  10
ENDBRANCH   8   9
ENDBRANCH   7   8
ENDBRANCH   6   7
ENDBRANCH   5   6
ENDBRANCH   4   5
ENDBRANCH   3   4
ENDBRANCH   2   3
ENDBRANCH   1   2
BRANCH   1  18
ATOM     18  C   UNL     1      11.931 -17.510  10.225  1.00  0.00     0.000 C 
BRANCH  18  19
ATOM     19  C   UNL     1      11.812 -17.504   8.693  1.00  0.00     0.000 C 
BRANCH  19  20
ATOM     20  C   UNL     1      12.181 -16.143   8.075  1.00  0.00     0.000 C 
BRANCH  20  21
ATOM     21  C   UNL     1      11.092 -15.622   7.112  1.00  0.00     0.000 C 
BRANCH  21  22
ATOM     22  C   UNL     1       9.686 -16.193   7.381  1.00  0.00     0.000 C 
BRANCH  22  23
ATOM     23  C   UNL     1       8.770 -16.279   6.149  1.00  0.00     0.000 C 
BRANCH  23  24
ATOM     24  C   UNL     1       9.473 -15.858   4.848  1.00  0.00    -0.000 C 
BRANCH  24  25
ATOM     25  C   UNL     1       8.889 -16.606   3.642  1.00  0.00    -0.000 C 
BRANCH  25  26
ATOM     26  C   UNL     1       7.378 -16.862   3.778  1.00  0.00    -0.000 C 
BRANCH  26  27
ATOM     27  C   UNL     1       6.944 -18.322   3.550  1.00  0.00    -0.000 C 
BRANCH  27  28
ATOM     28  C   UNL     1       6.729 -19.148   4.834  1.00  0.00    -0.000 C 
BRANCH  28  29
ATOM     29  C   UNL     1       7.870 -20.122   5.181  1.00  0.00    -0.000 C 
BRANCH  29  30
ATOM     30  C   UNL     1       8.414 -19.921   6.603  1.00  0.00    -0.000 C 
BRANCH  30  31
ATOM     31  C   UNL     1       9.943 -19.800   6.593  1.00  0.00    -0.003 C 
ATOM     32  C   UNL     1      10.468 -19.578   5.177  1.00  0.00     0.004 C 
ENDBRANCH  30  31
ENDBRANCH  29  30
ENDBRANCH  28  29
ENDBRANCH  27  28
ENDBRANCH  26  27
ENDBRANCH  25  26
ENDBRANCH  24  25
ENDBRANCH  23  24
ENDBRANCH  22  23
ENDBRANCH  21  22
ENDBRANCH  20  21
ENDBRANCH  19  20
ENDBRANCH  18  19
ENDBRANCH   1  18
TORSDOF 28
ENDMDL
MODEL 5
REMARK VINA RESULT:    -4.913      2.755      5.899
REMARK INTER + INTRA:         -17.180
REMARK INTER:                 -13.107
REMARK INTRA:                  -4.072
REMARK UNBOUND:                -4.224
REMARK SMILES CCCCCCCCCCCCCCCCCCCCCCCCCCCCCC(=O)[O-]
REMARK SMILES IDX 16 1 17 2 18 3 19 4 20 5 21 6 22 7 23 8 24 9 25 10 26 11
REMARK SMILES IDX 27 12 28 13 29 14 30 15 31 16 32 17 15 18 14 19 13 20 12 21
REMARK SMILES IDX 11 22 10 23 9 24 8 25 7 26 6 27 5 28 4 29 3 30 2 31 1 32
REMARK H PARENT
REMARK Flexibility Score: inf
ROOT
ATOM      1  C   UNL     1      10.638 -16.348   8.945  1.00  0.00     0.000 C 
ENDROOT
BRANCH   1   2
ATOM      2  C   UNL     1      12.039 -15.929   9.411  1.00  0.00     0.000 C 
BRANCH   2   3
ATOM      3  C   UNL     1      12.298 -16.380  10.854  1.00  0.00     0.000 C 
BRANCH   3   4
ATOM      4  C   UNL     1      10.995 -16.403  11.662  1.00  0.00     0.000 C 
BRANCH   4   5
ATOM      5  C   UNL     1      10.998 -15.314  12.745  1.00  0.00     0.000 C 
BRANCH   5   6
ATOM      6  C   UNL     1      11.082 -15.883  14.174  1.00  0.00     0.000 C 
BRANCH   6   7
ATOM      7  C   UNL     1      11.375 -14.846  15.275  1.00  0.00     0.000 C 
BRANCH   7   8
ATOM      8  C   UNL     1      12.856 -14.800  15.680  1.00  0.00     0.000 C 
BRANCH   8   9
ATOM      9  C   UNL     1      13.196 -15.937  16.655  1.00  0.00     0.000 C 
BRANCH   9  10
ATOM     10  C   UNL     1      14.356 -16.818  16.163  1.00  0.00     0.000 C 
BRANCH  10  11
ATOM     11  C   UNL     1      13.918 -17.826  15.085  1.00  0.00     0.000 C 
BRANCH  11  12
ATOM     12  C   UNL     1      14.428 -17.460  13.681  1.00  0.00     0.000 C 
BRANCH  12  13
ATOM     13  C   UNL     1      15.588 -16.446  13.642  1.00  0.00     0.006 C 
BRANCH  13  14
ATOM     14  C   UNL     1      15.381 -15.294  12.642  1.00  0.00     0.053 C 
BRANCH  14  15
ATOM     15  C   UNL     1      15.882 -15.625  11.268  1.00  0.00     0.041 C 
ATOM     16  O   UNL     1      16.127 -14.706  10.442  1.00  0.00    -0.550 OA
ATOM     17  O   UNL     1      16.014 -16.953  10.876  1.00  0.00    -0.550 OA
ENDBRANCH  14  15
ENDBRANCH  13  14
ENDBRANCH  12  13
ENDBRANCH  11  12
ENDBRANCH  10  11
ENDBRANCH   9  10
ENDBRANCH   8   9
ENDBRANCH   7   8
ENDBRANCH   6   7
ENDBRANCH   5   6
ENDBRANCH   4   5
ENDBRANCH   3   4
ENDBRANCH   2   3
ENDBRANCH   1   2
BRANCH   1  18
ATOM     18  C   UNL     1      10.547 -16.334   7.411  1.00  0.00     0.000 C 
BRANCH  18  19
ATOM     19  C   UNL     1       9.106 -16.497   6.903  1.00  0.00     0.000 C 
BRANCH  19  20
ATOM     20  C   UNL     1       8.774 -15.539   5.745  1.00  0.00     0.000 C 
BRANCH  20  21
ATOM     21  C   UNL     1       8.511 -16.290   4.421  1.00  0.00     0.000 C 
BRANCH  21  22
ATOM     22  C   UNL     1       8.545 -17.826   4.549  1.00  0.00     0.000 C 
BRANCH  22  23
ATOM     23  C   UNL     1       7.192 -18.527   4.341  1.00  0.00     0.000 C 
BRANCH  23  24
ATOM     24  C   UNL     1       6.863 -19.538   5.451  1.00  0.00    -0.000 C 
BRANCH  24  25
ATOM     25  C   UNL     1       7.691 -20.821   5.286  1.00  0.00    -0.000 C 
BRANCH  25  26
ATOM     26  C   UNL     1       8.629 -21.079   6.478  1.00  0.00    -0.000 C 
BRANCH  26  27
ATOM     27  C   UNL     1       8.672 -19.950   7.525  1.00  0.00    -0.000 C 
BRANCH  27  28
ATOM     28  C   UNL     1       9.237 -20.356   8.901  1.00  0.00    -0.000 C 
BRANCH  28  29
ATOM     29  C   UNL     1      10.709 -19.974   9.139  1.00  0.00    -0.000 C 
BRANCH  29  30
ATOM     30  C   UNL     1      11.687 -21.088   8.735  1.00  0.00    -0.000 C 
BRANCH  30  31
ATOM     31  C   UNL     1      12.639 -20.609   7.632  1.00  0.00    -0.003 C 
ATOM     32  C   UNL     1      13.126 -19.189   7.904  1.00  0.00     0.004 C 
ENDBRANCH  30  31
ENDBRANCH  29  30
ENDBRANCH  28  29
ENDBRANCH  27  28
ENDBRANCH  26  27
ENDBRANCH  25  26
ENDBRANCH  24  25
ENDBRANCH  23  24
ENDBRANCH  22  23
ENDBRANCH  21  22
ENDBRANCH  20  21
ENDBRANCH  19  20
ENDBRANCH  18  19
ENDBRANCH   1  18
TORSDOF 28
ENDMDL
MODEL 6
REMARK VINA RESULT:    -4.899      3.381      9.272
REMARK INTER + INTRA:         -17.142
REMARK INTER:                 -12.806
REMARK INTRA:                  -4.336
REMARK UNBOUND:                -4.224
REMARK SMILES CCCCCCCCCCCCCCCCCCCCCCCCCCCCCC(=O)[O-]
REMARK SMILES IDX 16 1 17 2 18 3 19 4 20 5 21 6 22 7 23 8 24 9 25 10 26 11
REMARK SMILES IDX 27 12 28 13 29 14 30 15 31 16 32 17 15 18 14 19 13 20 12 21
REMARK SMILES IDX 11 22 10 23 9 24 8 25 7 26 6 27 5 28 4 29 3 30 2 31 1 32
REMARK H PARENT
REMARK Flexibility Score: inf
ROOT
ATOM      1  C   UNL     1      11.952 -19.083   8.309  1.00  0.00     0.000 C 
ENDROOT
BRANCH   1   2
ATOM      2  C   UNL     1      10.446 -19.071   8.606  1.00  0.00     0.000 C 
BRANCH   2   3
ATOM      3  C   UNL     1       9.720 -18.040   7.734  1.00  0.00     0.000 C 
BRANCH   3   4
ATOM      4  C   UNL     1       8.490 -18.663   7.061  1.00  0.00     0.000 C 
BRANCH   4   5
ATOM      5  C   UNL     1       8.889 -19.860   6.186  1.00  0.00     0.000 C 
BRANCH   5   6
ATOM      6  C   UNL     1       7.933 -20.088   5.000  1.00  0.00     0.000 C 
BRANCH   6   7
ATOM      7  C   UNL     1       6.769 -19.084   4.895  1.00  0.00     0.000 C 
BRANCH   7   8
ATOM      8  C   UNL     1       6.826 -18.225   3.623  1.00  0.00     0.000 C 
BRANCH   8   9
ATOM      9  C   UNL     1       7.509 -16.877   3.899  1.00  0.00     0.000 C 
BRANCH   9  10
ATOM     10  C   UNL     1       8.816 -16.697   3.110  1.00  0.00     0.000 C 
BRANCH  10  11
ATOM     11  C   UNL     1       9.987 -16.246   3.999  1.00  0.00     0.000 C 
BRANCH  11  12
ATOM     12  C   UNL     1       9.531 -15.442   5.229  1.00  0.00     0.000 C 
BRANCH  12  13
ATOM     13  C   UNL     1      10.665 -14.926   6.138  1.00  0.00     0.006 C 
BRANCH  13  14
ATOM     14  C   UNL     1      11.268 -13.583   5.686  1.00  0.00     0.053 C 
BRANCH  14  15
ATOM     15  C   UNL     1      12.665 -13.726   5.161  1.00  0.00     0.041 C 
ATOM     16  O   UNL     1      13.357 -12.703   4.909  1.00  0.00    -0.550 OA
ATOM     17  O   UNL     1      13.180 -14.987   4.884  1.00  0.00    -0.550 OA
ENDBRANCH  14  15
ENDBRANCH  13  14
ENDBRANCH  12  13
ENDBRANCH  11  12
ENDBRANCH  10  11
ENDBRANCH   9  10
ENDBRANCH   8   9
ENDBRANCH   7   8
ENDBRANCH   6   7
ENDBRANCH   5   6
ENDBRANCH   4   5
ENDBRANCH   3   4
ENDBRANCH   2   3
ENDBRANCH   1   2
BRANCH   1  18
ATOM     18  C   UNL     1      12.318 -17.986   7.297  1.00  0.00     0.000 C 
BRANCH  18  19
ATOM     19  C   UNL     1      13.612 -17.246   7.670  1.00  0.00     0.000 C 
BRANCH  19  20
ATOM     20  C   UNL     1      13.348 -15.956   8.467  1.00  0.00     0.000 C 
BRANCH  20  21
ATOM     21  C   UNL     1      13.034 -16.239   9.953  1.00  0.00     0.000 C 
BRANCH  21  22
ATOM     22  C   UNL     1      14.057 -17.157  10.650  1.00  0.00     0.000 C 
BRANCH  22  23
ATOM     23  C   UNL     1      14.064 -17.078  12.186  1.00  0.00     0.000 C 
BRANCH  23  24
ATOM     24  C   UNL     1      15.055 -16.036  12.729  1.00  0.00    -0.000 C 
BRANCH  24  25
ATOM     25  C   UNL     1      15.726 -16.538  14.015  1.00  0.00    -0.000 C 
BRANCH  25  26
ATOM     26  C   UNL     1      15.100 -17.840  14.543  1.00  0.00    -0.000 C 
BRANCH  26  27
ATOM     27  C   UNL     1      13.916 -17.645  15.509  1.00  0.00    -0.000 C 
BRANCH  27  28
ATOM     28  C   UNL     1      13.924 -16.318  16.294  1.00  0.00    -0.000 C 
BRANCH  28  29
ATOM     29  C   UNL     1      12.805 -15.331  15.915  1.00  0.00    -0.000 C 
BRANCH  29  30
ATOM     30  C   UNL     1      11.739 -15.959  15.005  1.00  0.00    -0.000 C 
BRANCH  30  31
ATOM     31  C   UNL     1      11.412 -15.034  13.826  1.00  0.00    -0.003 C 
ATOM     32  C   UNL     1      10.660 -15.784  12.730  1.00  0.00     0.004 C 
ENDBRANCH  30  31
ENDBRANCH  29  30
ENDBRANCH  28  29
ENDBRANCH  27  28
ENDBRANCH  26  27
ENDBRANCH  25  26
ENDBRANCH  24  25
ENDBRANCH  23  24
ENDBRANCH  22  23
ENDBRANCH  21  22
ENDBRANCH  20  21
ENDBRANCH  19  20
ENDBRANCH  18  19
ENDBRANCH   1  18
TORSDOF 28
ENDMDL
MODEL 7
REMARK VINA RESULT:    -4.893      2.513      6.377
REMARK INTER + INTRA:         -17.128
REMARK INTER:                 -11.624
REMARK INTRA:                  -5.503
REMARK UNBOUND:                -4.224
REMARK SMILES CCCCCCCCCCCCCCCCCCCCCCCCCCCCCC(=O)[O-]
REMARK SMILES IDX 16 1 17 2 18 3 19 4 20 5 21 6 22 7 23 8 24 9 25 10 26 11
REMARK SMILES IDX 27 12 28 13 29 14 30 15 31 16 32 17 15 18 14 19 13 20 12 21
REMARK SMILES IDX 11 22 10 23 9 24 8 25 7 26 6 27 5 28 4 29 3 30 2 31 1 32
REMARK H PARENT
REMARK Flexibility Score: inf
ROOT
ATOM      1  C   UNL     1       9.201 -18.146   7.207  1.00  0.00     0.000 C 
ENDROOT
BRANCH   1   2
ATOM      2  C   UNL     1       9.869 -18.539   5.883  1.00  0.00     0.000 C 
BRANCH   2   3
ATOM      3  C   UNL     1      10.598 -19.883   6.010  1.00  0.00     0.000 C 
BRANCH   3   4
ATOM      4  C   UNL     1      10.532 -20.407   7.449  1.00  0.00     0.000 C 
BRANCH   4   5
ATOM      5  C   UNL     1      11.938 -20.543   8.052  1.00  0.00     0.000 C 
BRANCH   5   6
ATOM      6  C   UNL     1      12.940 -19.520   7.485  1.00  0.00     0.000 C 
BRANCH   6   7
ATOM      7  C   UNL     1      13.061 -18.209   8.286  1.00  0.00     0.000 C 
BRANCH   7   8
ATOM      8  C   UNL     1      12.347 -18.264   9.645  1.00  0.00     0.000 C 
BRANCH   8   9
ATOM      9  C   UNL     1      11.429 -17.047   9.833  1.00  0.00     0.000 C 
BRANCH   9  10
ATOM     10  C   UNL     1      12.157 -15.838  10.442  1.00  0.00     0.000 C 
BRANCH  10  11
ATOM     11  C   UNL     1      12.969 -16.204  11.696  1.00  0.00     0.000 C 
BRANCH  11  12
ATOM     12  C   UNL     1      12.083 -16.610  12.887  1.00  0.00     0.000 C 
BRANCH  12  13
ATOM     13  C   UNL     1      11.127 -15.515  13.401  1.00  0.00     0.006 C 
BRANCH  13  14
ATOM     14  C   UNL     1      11.137 -15.343  14.932  1.00  0.00     0.053 C 
BRANCH  14  15
ATOM     15  C   UNL     1      11.899 -14.128  15.371  1.00  0.00     0.041 C 
ATOM     16  O   UNL     1      11.360 -13.282  16.133  1.00  0.00    -0.550 OA
ATOM     17  O   UNL     1      13.180 -13.895  14.883  1.00  0.00    -0.550 OA
ENDBRANCH  14  15
ENDBRANCH  13  14
ENDBRANCH  12  13
ENDBRANCH  11  12
ENDBRANCH  10  11
ENDBRANCH   9  10
ENDBRANCH   8   9
ENDBRANCH   7   8
ENDBRANCH   6   7
ENDBRANCH   5   6
ENDBRANCH   4   5
ENDBRANCH   3   4
ENDBRANCH   2   3
ENDBRANCH   1   2
BRANCH   1  18
ATOM     18  C   UNL     1       8.776 -16.670   7.187  1.00  0.00     0.000 C 
BRANCH  18  19
ATOM     19  C   UNL     1       8.960 -16.021   5.807  1.00  0.00     0.000 C 
BRANCH  19  20
ATOM     20  C   UNL     1       9.855 -14.769   5.855  1.00  0.00     0.000 C 
BRANCH  20  21
ATOM     21  C   UNL     1      11.190 -15.030   6.585  1.00  0.00     0.000 C 
BRANCH  21  22
ATOM     22  C   UNL     1      12.241 -15.770   5.733  1.00  0.00     0.000 C 
BRANCH  22  23
ATOM     23  C   UNL     1      12.796 -14.968   4.544  1.00  0.00     0.000 C 
BRANCH  23  24
ATOM     24  C   UNL     1      12.355 -15.532   3.183  1.00  0.00    -0.000 C 
BRANCH  24  25
ATOM     25  C   UNL     1      12.150 -17.051   3.260  1.00  0.00    -0.000 C 
BRANCH  25  26
ATOM     26  C   UNL     1      10.869 -17.514   2.543  1.00  0.00    -0.000 C 
BRANCH  26  27
ATOM     27  C   UNL     1       9.830 -16.405   2.294  1.00  0.00    -0.000 C 
BRANCH  27  28
ATOM     28  C   UNL     1       8.359 -16.863   2.352  1.00  0.00    -0.000 C 
BRANCH  28  29
ATOM     29  C   UNL     1       8.112 -18.319   1.917  1.00  0.00    -0.000 C 
BRANCH  29  30
ATOM     30  C   UNL     1       7.645 -19.216   3.073  1.00  0.00    -0.000 C 
BRANCH  30  31
ATOM     31  C   UNL     1       6.633 -18.483   3.961  1.00  0.00    -0.003 C 
ATOM     32  C   UNL     1       6.295 -19.302   5.203  1.00  0.00     0.004 C 
ENDBRANCH  30  31
ENDBRANCH  29  30
ENDBRANCH  28  29
ENDBRANCH  27  28
ENDBRANCH  26  27
ENDBRANCH  25  26
ENDBRANCH  24  25
ENDBRANCH  23  24
ENDBRANCH  22  23
ENDBRANCH  21  22
ENDBRANCH  20  21
ENDBRANCH  19  20
ENDBRANCH  18  19
ENDBRANCH   1  18
TORSDOF 28
ENDMDL
MODEL 8
REMARK VINA RESULT:    -4.856      2.900      9.062
REMARK INTER + INTRA:         -17.029
REMARK INTER:                 -12.920
REMARK INTRA:                  -4.108
REMARK UNBOUND:                -4.224
REMARK SMILES CCCCCCCCCCCCCCCCCCCCCCCCCCCCCC(=O)[O-]
REMARK SMILES IDX 16 1 17 2 18 3 19 4 20 5 21 6 22 7 23 8 24 9 25 10 26 11
REMARK SMILES IDX 27 12 28 13 29 14 30 15 31 16 32 17 15 18 14 19 13 20 12 21
REMARK SMILES IDX 11 22 10 23 9 24 8 25 7 26 6 27 5 28 4 29 3 30 2 31 1 32
REMARK H PARENT
REMARK Flexibility Score: inf
ROOT
ATOM      1  C   UNL     1      11.436 -17.081  10.227  1.00  0.00     0.000 C 
ENDROOT
BRANCH   1   2
ATOM      2  C   UNL     1      12.601 -17.868   9.612  1.00  0.00     0.000 C 
BRANCH   2   3
ATOM      3  C   UNL     1      12.090 -19.023   8.742  1.00  0.00     0.000 C 
BRANCH   3   4
ATOM      4  C   UNL     1      10.557 -19.054   8.720  1.00  0.00     0.000 C 
BRANCH   4   5
ATOM      5  C   UNL     1      10.033 -19.393   7.317  1.00  0.00     0.000 C 
BRANCH   5   6
ATOM      6  C   UNL     1       8.504 -19.257   7.194  1.00  0.00     0.000 C 
BRANCH   6   7
ATOM      7  C   UNL     1       7.888 -19.899   5.936  1.00  0.00     0.000 C 
BRANCH   7   8
ATOM      8  C   UNL     1       6.842 -19.006   5.253  1.00  0.00     0.000 C 
BRANCH   8   9
ATOM      9  C   UNL     1       7.360 -18.485   3.904  1.00  0.00     0.000 C 
BRANCH   9  10
ATOM     10  C   UNL     1       7.591 -16.965   3.899  1.00  0.00     0.000 C 
BRANCH  10  11
ATOM     11  C   UNL     1       8.913 -16.564   4.578  1.00  0.00     0.000 C 
BRANCH  11  12
ATOM     12  C   UNL     1       8.703 -15.778   5.883  1.00  0.00     0.000 C 
BRANCH  12  13
ATOM     13  C   UNL     1       9.880 -15.824   6.878  1.00  0.00     0.006 C 
BRANCH  13  14
ATOM     14  C   UNL     1      11.143 -15.092   6.389  1.00  0.00     0.053 C 
BRANCH  14  15
ATOM     15  C   UNL     1      12.355 -15.976   6.380  1.00  0.00     0.041 C 
ATOM     16  O   UNL     1      12.328 -17.084   5.781  1.00  0.00    -0.550 OA
ATOM     17  O   UNL     1      13.491 -15.607   7.091  1.00  0.00    -0.550 OA
ENDBRANCH  14  15
ENDBRANCH  13  14
ENDBRANCH  12  13
ENDBRANCH  11  12
ENDBRANCH  10  11
ENDBRANCH   9  10
ENDBRANCH   8   9
ENDBRANCH   7   8
ENDBRANCH   6   7
ENDBRANCH   5   6
ENDBRANCH   4   5
ENDBRANCH   3   4
ENDBRANCH   2   3
ENDBRANCH   1   2
BRANCH   1  18
ATOM     18  C   UNL     1      11.937 -16.132  11.327  1.00  0.00     0.000 C 
BRANCH  18  19
ATOM     19  C   UNL     1      11.450 -16.540  12.726  1.00  0.00     0.000 C 
BRANCH  19  20
ATOM     20  C   UNL     1      11.075 -15.329  13.599  1.00  0.00     0.000 C 
BRANCH  20  21
ATOM     21  C   UNL     1      11.421 -15.550  15.088  1.00  0.00     0.000 C 
BRANCH  21  22
ATOM     22  C   UNL     1      12.896 -15.271  15.441  1.00  0.00     0.000 C 
BRANCH  22  23
ATOM     23  C   UNL     1      13.605 -16.397  16.211  1.00  0.00     0.000 C 
BRANCH  23  24
ATOM     24  C   UNL     1      13.790 -17.673  15.375  1.00  0.00    -0.000 C 
BRANCH  24  25
ATOM     25  C   UNL     1      15.169 -17.690  14.700  1.00  0.00    -0.000 C 
BRANCH  25  26
ATOM     26  C   UNL     1      15.084 -17.522  13.172  1.00  0.00    -0.000 C 
BRANCH  26  27
ATOM     27  C   UNL     1      15.376 -16.099  12.660  1.00  0.00    -0.000 C 
BRANCH  27  28
ATOM     28  C   UNL     1      16.058 -15.164  13.680  1.00  0.00    -0.000 C 
BRANCH  28  29
ATOM     29  C   UNL     1      16.344 -13.741  13.168  1.00  0.00    -0.000 C 
BRANCH  29  30
ATOM     30  C   UNL     1      16.193 -12.672  14.262  1.00  0.00    -0.000 C 
BRANCH  30  31
ATOM     31  C   UNL     1      14.956 -11.801  14.010  1.00  0.00    -0.003 C 
ATOM     32  C   UNL     1      15.309 -10.574  13.174  1.00  0.00     0.004 C 
ENDBRANCH  30  31
ENDBRANCH  29  30
ENDBRANCH  28  29
ENDBRANCH  27  28
ENDBRANCH  26  27
ENDBRANCH  25  26
ENDBRANCH  24  25
ENDBRANCH  23  24
ENDBRANCH  22  23
ENDBRANCH  21  22
ENDBRANCH  20  21
ENDBRANCH  19  20
ENDBRANCH  18  19
ENDBRANCH   1  18
TORSDOF 28
ENDMDL
MODEL 9
REMARK VINA RESULT:    -4.826      1.966      4.181
REMARK INTER + INTRA:         -16.950
REMARK INTER:                 -12.064
REMARK INTRA:                  -4.886
REMARK UNBOUND:                -4.224
REMARK SMILES CCCCCCCCCCCCCCCCCCCCCCCCCCCCCC(=O)[O-]
REMARK SMILES IDX 16 1 17 2 18 3 19 4 20 5 21 6 22 7 23 8 24 9 25 10 26 11
REMARK SMILES IDX 27 12 28 13 29 14 30 15 31 16 32 17 15 18 14 19 13 20 12 21
REMARK SMILES IDX 11 22 10 23 9 24 8 25 7 26 6 27 5 28 4 29 3 30 2 31 1 32
REMARK H PARENT
REMARK Flexibility Score: inf
ROOT
ATOM      1  C   UNL     1      11.040 -15.770  10.938  1.00  0.00     0.000 C 
ENDROOT
BRANCH   1   2
ATOM      2  C   UNL     1      10.542 -15.557  12.373  1.00  0.00     0.000 C 
BRANCH   2   3
ATOM      3  C   UNL     1      11.502 -16.186  13.391  1.00  0.00     0.000 C 
BRANCH   3   4
ATOM      4  C   UNL     1      11.439 -15.444  14.732  1.00  0.00     0.000 C 
BRANCH   4   5
ATOM      5  C   UNL     1      12.605 -15.855  15.643  1.00  0.00     0.000 C 
BRANCH   5   6
ATOM      6  C   UNL     1      13.321 -17.133  15.170  1.00  0.00     0.000 C 
BRANCH   6   7
ATOM      7  C   UNL     1      14.811 -17.228  15.549  1.00  0.00     0.000 C 
BRANCH   7   8
ATOM      8  C   UNL     1      15.714 -17.593  14.361  1.00  0.00     0.000 C 
BRANCH   8   9
ATOM      9  C   UNL     1      14.902 -17.679  13.060  1.00  0.00     0.000 C 
BRANCH   9  10
ATOM     10  C   UNL     1      15.488 -16.814  11.932  1.00  0.00     0.000 C 
BRANCH  10  11
ATOM     11  C   UNL     1      15.947 -15.431  12.423  1.00  0.00     0.000 C 
BRANCH  11  12
ATOM     12  C   UNL     1      14.775 -14.470  12.690  1.00  0.00     0.000 C 
BRANCH  12  13
ATOM     13  C   UNL     1      15.144 -13.165  13.423  1.00  0.00     0.006 C 
BRANCH  13  14
ATOM     14  C   UNL     1      14.473 -13.008  14.800  1.00  0.00     0.053 C 
BRANCH  14  15
ATOM     15  C   UNL     1      13.533 -11.841  14.854  1.00  0.00     0.041 C 
ATOM     16  O   UNL     1      12.327 -12.012  15.174  1.00  0.00    -0.550 OA
ATOM     17  O   UNL     1      13.972 -10.575  14.484  1.00  0.00    -0.550 OA
ENDBRANCH  14  15
ENDBRANCH  13  14
ENDBRANCH  12  13
ENDBRANCH  11  12
ENDBRANCH  10  11
ENDBRANCH   9  10
ENDBRANCH   8   9
ENDBRANCH   7   8
ENDBRANCH   6   7
ENDBRANCH   5   6
ENDBRANCH   4   5
ENDBRANCH   3   4
ENDBRANCH   2   3
ENDBRANCH   1   2
BRANCH   1  18
ATOM     18  C   UNL     1      12.000 -16.968  10.865  1.00  0.00     0.000 C 
BRANCH  18  19
ATOM     19  C   UNL     1      12.085 -17.571   9.454  1.00  0.00     0.000 C 
BRANCH  19  20
ATOM     20  C   UNL     1      10.879 -18.466   9.119  1.00  0.00     0.000 C 
BRANCH  20  21
ATOM     21  C   UNL     1      10.560 -18.478   7.607  1.00  0.00     0.000 C 
BRANCH  21  22
ATOM     22  C   UNL     1       9.178 -17.896   7.249  1.00  0.00     0.000 C 
BRANCH  22  23
ATOM     23  C   UNL     1       9.155 -16.378   7.003  1.00  0.00     0.000 C 
BRANCH  23  24
ATOM     24  C   UNL     1       9.983 -15.956   5.778  1.00  0.00    -0.000 C 
BRANCH  24  25
ATOM     25  C   UNL     1      10.217 -14.439   5.771  1.00  0.00    -0.000 C 
BRANCH  25  26
ATOM     26  C   UNL     1      11.704 -14.067   5.903  1.00  0.00    -0.000 C 
BRANCH  26  27
ATOM     27  C   UNL     1      12.513 -14.959   6.864  1.00  0.00    -0.000 C 
BRANCH  27  28
ATOM     28  C   UNL     1      12.871 -14.308   8.215  1.00  0.00    -0.000 C 
BRANCH  28  29
ATOM     29  C   UNL     1      14.366 -14.349   8.581  1.00  0.00    -0.000 C 
BRANCH  29  30
ATOM     30  C   UNL     1      15.271 -13.837   7.450  1.00  0.00    -0.000 C 
BRANCH  30  31
ATOM     31  C   UNL     1      15.326 -12.305   7.443  1.00  0.00    -0.003 C 
ATOM     32  C   UNL     1      14.622 -11.734   6.216  1.00  0.00     0.004 C 
ENDBRANCH  30  31
ENDBRANCH  29  30
ENDBRANCH  28  29
ENDBRANCH  27  28
ENDBRANCH  26  27
ENDBRANCH  25  26
ENDBRANCH  24  25
ENDBRANCH  23  24
ENDBRANCH  22  23
ENDBRANCH  21  22
ENDBRANCH  20  21
ENDBRANCH  19  20
ENDBRANCH  18  19
ENDBRANCH   1  18
TORSDOF 28
ENDMDL
