MODEL 1
REMARK VINA RESULT:    -4.271      0.000      0.000
REMARK INTER + INTRA:          -6.053
REMARK INTER:                  -5.769
REMARK INTRA:                  -0.285
REMARK UNBOUND:                -0.285
REMARK SMILES CCCCCCCC(=O)[O-]
REMARK SMILES IDX 5 1 6 2 7 3 8 4 9 5 10 6 4 7 3 8 2 9 1 10
REMARK H PARENT
REMARK Flexibility Score: inf
ROOT
ATOM      1  C   UNL     1      -2.696  37.205  18.840  1.00  0.00     0.000 C 
ENDROOT
BRANCH   1   2
ATOM      2  C   UNL     1      -4.118  36.639  18.977  1.00  0.00     0.006 C 
BRANCH   2   3
ATOM      3  C   UNL     1      -5.028  37.530  19.834  1.00  0.00     0.053 C 
BRANCH   3   4
ATOM      4  C   UNL     1      -4.613  37.470  21.270  1.00  0.00     0.041 C 
ATOM      5  O   UNL     1      -4.332  38.527  21.893  1.00  0.00    -0.550 OA
ATOM      6  O   UNL     1      -4.584  36.250  21.934  1.00  0.00    -0.550 OA
ENDBRANCH   3   4
ENDBRANCH   2   3
ENDBRANCH   1   2
BRANCH   1   7
ATOM      7  C   UNL     1      -2.106  36.992  17.437  1.00  0.00     0.000 C 
BRANCH   7   8
ATOM      8  C   UNL     1      -3.150  36.381  16.490  1.00  0.00    -0.000 C 
BRANCH   8   9
ATOM      9  C   UNL     1      -2.770  36.541  15.010  1.00  0.00    -0.003 C 
ATOM     10  C   UNL     1      -3.835  37.281  14.202  1.00  0.00     0.004 C 
ENDBRANCH   8   9
ENDBRANCH   7   8
ENDBRANCH   1   7
TORSDOF 6
ENDMDL
MODEL 2
REMARK VINA RESULT:    -4.244      3.076      5.469
REMARK INTER + INTRA:          -6.017
REMARK INTER:                  -5.667
REMARK INTRA:                  -0.350
REMARK UNBOUND:                -0.285
REMARK SMILES CCCCCCCC(=O)[O-]
REMARK SMILES IDX 5 1 6 2 7 3 8 4 9 5 10 6 4 7 3 8 2 9 1 10
REMARK H PARENT
REMARK Flexibility Score: inf
ROOT
ATOM      1  C   UNL     1      -4.291  35.841  19.226  1.00  0.00     0.000 C 
ENDROOT
BRANCH   1   2
ATOM      2  C   UNL     1      -3.889  37.255  18.777  1.00  0.00     0.006 C 
BRANCH   2   3
ATOM      3  C   UNL     1      -2.526  37.286  18.073  1.00  0.00     0.053 C 
BRANCH   3   4
ATOM      4  C   UNL     1      -2.675  36.909  16.633  1.00  0.00     0.041 C 
ATOM      5  O   UNL     1      -3.391  37.605  15.866  1.00  0.00    -0.550 OA
ATOM      6  O   UNL     1      -1.983  35.816  16.126  1.00  0.00    -0.550 OA
ENDBRANCH   3   4
ENDBRANCH   2   3
ENDBRANCH   1   2
BRANCH   1   7
ATOM      7  C   UNL     1      -5.331  35.851  20.356  1.00  0.00     0.000 C 
BRANCH   7   8
ATOM      8  C   UNL     1      -4.647  35.789  21.731  1.00  0.00    -0.000 C 
BRANCH   8   9
ATOM      9  C   UNL     1      -5.115  36.907  22.675  1.00  0.00    -0.003 C 
ATOM     10  C   UNL     1      -4.704  38.299  22.194  1.00  0.00     0.004 C 
ENDBRANCH   8   9
ENDBRANCH   7   8
ENDBRANCH   1   7
TORSDOF 6
ENDMDL
MODEL 3
REMARK VINA RESULT:    -4.172      1.249      1.861
REMARK INTER + INTRA:          -5.920
REMARK INTER:                  -5.635
REMARK INTRA:                  -0.285
REMARK UNBOUND:                -0.285
REMARK SMILES CCCCCCCC(=O)[O-]
REMARK SMILES IDX 5 1 6 2 7 3 8 4 9 5 10 6 4 7 3 8 2 9 1 10
REMARK H PARENT
REMARK Flexibility Score: inf
ROOT
ATOM      1  C   UNL     1      -4.396  35.829  19.118  1.00  0.00     0.000 C 
ENDROOT
BRANCH   1   2
ATOM      2  C   UNL     1      -5.347  35.823  20.326  1.00  0.00     0.006 C 
BRANCH   2   3
ATOM      3  C   UNL     1      -4.600  35.770  21.666  1.00  0.00     0.053 C 
BRANCH   3   4
ATOM      4  C   UNL     1      -4.923  36.975  22.490  1.00  0.00     0.041 C 
ATOM      5  O   UNL     1      -5.241  38.058  21.933  1.00  0.00    -0.550 OA
ATOM      6  O   UNL     1      -4.922  36.889  23.877  1.00  0.00    -0.550 OA
ENDBRANCH   3   4
ENDBRANCH   2   3
ENDBRANCH   1   2
BRANCH   1   7
ATOM      7  C   UNL     1      -3.880  37.235  18.777  1.00  0.00     0.000 C 
BRANCH   7   8
ATOM      8  C   UNL     1      -2.875  37.183  17.616  1.00  0.00    -0.000 C 
BRANCH   8   9
ATOM      9  C   UNL     1      -3.195  36.069  16.607  1.00  0.00    -0.003 C 
ATOM     10  C   UNL     1      -3.098  36.539  15.156  1.00  0.00     0.004 C 
ENDBRANCH   8   9
ENDBRANCH   7   8
ENDBRANCH   1   7
TORSDOF 6
ENDMDL
MODEL 4
REMARK VINA RESULT:    -4.170      2.825      5.717
REMARK INTER + INTRA:          -5.918
REMARK INTER:                  -5.431
REMARK INTRA:                  -0.487
REMARK UNBOUND:                -0.285
REMARK SMILES CCCCCCCC(=O)[O-]
REMARK SMILES IDX 5 1 6 2 7 3 8 4 9 5 10 6 4 7 3 8 2 9 1 10
REMARK H PARENT
REMARK Flexibility Score: inf
ROOT
ATOM      1  C   UNL     1      -4.554  35.595  21.653  1.00  0.00     0.000 C 
ENDROOT
BRANCH   1   2
ATOM      2  C   UNL     1      -5.355  35.999  20.404  1.00  0.00     0.006 C 
BRANCH   2   3
ATOM      3  C   UNL     1      -4.827  37.286  19.755  1.00  0.00     0.053 C 
BRANCH   3   4
ATOM      4  C   UNL     1      -3.735  36.970  18.784  1.00  0.00     0.041 C 
ATOM      5  O   UNL     1      -2.694  37.676  18.748  1.00  0.00    -0.550 OA
ATOM      6  O   UNL     1      -3.845  35.864  17.950  1.00  0.00    -0.550 OA
ENDBRANCH   3   4
ENDBRANCH   2   3
ENDBRANCH   1   2
BRANCH   1   7
ATOM      7  C   UNL     1      -5.450  35.338  22.874  1.00  0.00     0.000 C 
BRANCH   7   8
ATOM      8  C   UNL     1      -6.074  36.647  23.381  1.00  0.00    -0.000 C 
BRANCH   8   9
ATOM      9  C   UNL     1      -5.029  37.615  23.959  1.00  0.00    -0.003 C 
ATOM     10  C   UNL     1      -5.008  38.962  23.237  1.00  0.00     0.004 C 
ENDBRANCH   8   9
ENDBRANCH   7   8
ENDBRANCH   1   7
TORSDOF 6
ENDMDL
MODEL 5
REMARK VINA RESULT:    -4.170      2.899      5.903
REMARK INTER + INTRA:          -5.917
REMARK INTER:                  -5.649
REMARK INTRA:                  -0.267
REMARK UNBOUND:                -0.285
REMARK SMILES CCCCCCCC(=O)[O-]
REMARK SMILES IDX 5 1 6 2 7 3 8 4 9 5 10 6 4 7 3 8 2 9 1 10
REMARK H PARENT
REMARK Flexibility Score: inf
ROOT
ATOM      1  C   UNL     1      -4.877  37.445  21.346  1.00  0.00     0.000 C 
ENDROOT
BRANCH   1   2
ATOM      2  C   UNL     1      -4.930  37.553  19.814  1.00  0.00     0.006 C 
BRANCH   2   3
ATOM      3  C   UNL     1      -4.010  36.541  19.118  1.00  0.00     0.053 C 
BRANCH   3   4
ATOM      4  C   UNL     1      -3.003  37.250  18.270  1.00  0.00     0.041 C 
ATOM      5  O   UNL     1      -2.005  37.804  18.800  1.00  0.00    -0.550 OA
ATOM      6  O   UNL     1      -3.141  37.258  16.887  1.00  0.00    -0.550 OA
ENDBRANCH   3   4
ENDBRANCH   2   3
ENDBRANCH   1   2
BRANCH   1   7
ATOM      7  C   UNL     1      -4.730  35.995  21.834  1.00  0.00     0.000 C 
BRANCH   7   8
ATOM      8  C   UNL     1      -6.085  35.427  22.281  1.00  0.00    -0.000 C 
BRANCH   8   9
ATOM      9  C   UNL     1      -6.095  35.022  23.764  1.00  0.00    -0.003 C 
ATOM     10  C   UNL     1      -6.124  36.225  24.706  1.00  0.00     0.004 C 
ENDBRANCH   8   9
ENDBRANCH   7   8
ENDBRANCH   1   7
TORSDOF 6
ENDMDL
MODEL 6
REMARK VINA RESULT:    -4.139      3.221      6.052
REMARK INTER + INTRA:          -5.875
REMARK INTER:                  -5.752
REMARK INTRA:                  -0.123
REMARK UNBOUND:                -0.285
REMARK SMILES CCCCCCCC(=O)[O-]
REMARK SMILES IDX 5 1 6 2 7 3 8 4 9 5 10 6 4 7 3 8 2 9 1 10
REMARK H PARENT
REMARK Flexibility Score: inf
ROOT
ATOM      1  C   UNL     1      -3.877  36.164  19.823  1.00  0.00     0.000 C 
ENDROOT
BRANCH   1   2
ATOM      2  C   UNL     1      -3.799  37.236  18.723  1.00  0.00     0.006 C 
BRANCH   2   3
ATOM      3  C   UNL     1      -2.431  37.272  18.030  1.00  0.00     0.053 C 
BRANCH   3   4
ATOM      4  C   UNL     1      -2.563  36.874  16.594  1.00  0.00     0.041 C 
ATOM      5  O   UNL     1      -1.966  35.854  16.162  1.00  0.00    -0.550 OA
ATOM      6  O   UNL     1      -3.387  37.601  15.744  1.00  0.00    -0.550 OA
ENDBRANCH   3   4
ENDBRANCH   2   3
ENDBRANCH   1   2
BRANCH   1   7
ATOM      7  C   UNL     1      -5.095  36.345  20.741  1.00  0.00     0.000 C 
BRANCH   7   8
ATOM      8  C   UNL     1      -4.745  35.987  22.193  1.00  0.00    -0.000 C 
BRANCH   8   9
ATOM      9  C   UNL     1      -5.092  37.113  23.179  1.00  0.00    -0.003 C 
ATOM     10  C   UNL     1      -5.378  36.599  24.589  1.00  0.00     0.004 C 
ENDBRANCH   8   9
ENDBRANCH   7   8
ENDBRANCH   1   7
TORSDOF 6
ENDMDL
MODEL 7
REMARK VINA RESULT:    -4.133      2.750      6.110
REMARK INTER + INTRA:          -5.867
REMARK INTER:                  -5.623
REMARK INTRA:                  -0.244
REMARK UNBOUND:                -0.285
REMARK SMILES CCCCCCCC(=O)[O-]
REMARK SMILES IDX 5 1 6 2 7 3 8 4 9 5 10 6 4 7 3 8 2 9 1 10
REMARK H PARENT
REMARK Flexibility Score: inf
ROOT
ATOM      1  C   UNL     1      -4.752  37.367  21.331  1.00  0.00     0.000 C 
ENDROOT
BRANCH   1   2
ATOM      2  C   UNL     1      -5.054  37.336  19.824  1.00  0.00     0.006 C 
BRANCH   2   3
ATOM      3  C   UNL     1      -4.120  36.392  19.055  1.00  0.00     0.053 C 
BRANCH   3   4
ATOM      4  C   UNL     1      -3.120  37.176  18.267  1.00  0.00     0.041 C 
ATOM      5  O   UNL     1      -3.252  37.302  17.021  1.00  0.00    -0.550 OA
ATOM      6  O   UNL     1      -2.068  37.811  18.915  1.00  0.00    -0.550 OA
ENDBRANCH   3   4
ENDBRANCH   2   3
ENDBRANCH   1   2
BRANCH   1   7
ATOM      7  C   UNL     1      -4.826  38.783  21.922  1.00  0.00     0.000 C 
BRANCH   7   8
ATOM      8  C   UNL     1      -4.904  38.735  23.455  1.00  0.00    -0.000 C 
BRANCH   8   9
ATOM      9  C   UNL     1      -5.123  37.311  23.991  1.00  0.00    -0.003 C 
ATOM     10  C   UNL     1      -4.757  37.172  25.468  1.00  0.00     0.004 C 
ENDBRANCH   8   9
ENDBRANCH   7   8
ENDBRANCH   1   7
TORSDOF 6
ENDMDL
MODEL 8
REMARK VINA RESULT:    -4.097      1.990      3.278
REMARK INTER + INTRA:          -5.819
REMARK INTER:                  -5.622
REMARK INTRA:                  -0.197
REMARK UNBOUND:                -0.285
REMARK SMILES CCCCCCCC(=O)[O-]
REMARK SMILES IDX 5 1 6 2 7 3 8 4 9 5 10 6 4 7 3 8 2 9 1 10
REMARK H PARENT
REMARK Flexibility Score: inf
ROOT
ATOM      1  C   UNL     1      -5.609  35.921  20.839  1.00  0.00     0.000 C 
ENDROOT
BRANCH   1   2
ATOM      2  C   UNL     1      -4.751  35.788  22.108  1.00  0.00     0.006 C 
BRANCH   2   3
ATOM      3  C   UNL     1      -5.559  36.006  23.394  1.00  0.00     0.053 C 
BRANCH   3   4
ATOM      4  C   UNL     1      -5.097  37.243  24.096  1.00  0.00     0.041 C 
ATOM      5  O   UNL     1      -4.711  37.185  25.293  1.00  0.00    -0.550 OA
ATOM      6  O   UNL     1      -5.047  38.452  23.414  1.00  0.00    -0.550 OA
ENDBRANCH   3   4
ENDBRANCH   2   3
ENDBRANCH   1   2
BRANCH   1   7
ATOM      7  C   UNL     1      -5.039  36.941  19.842  1.00  0.00     0.000 C 
BRANCH   7   8
ATOM      8  C   UNL     1      -3.935  36.308  18.982  1.00  0.00    -0.000 C 
BRANCH   8   9
ATOM      9  C   UNL     1      -3.259  37.323  18.047  1.00  0.00    -0.003 C 
ATOM     10  C   UNL     1      -3.057  36.782  16.632  1.00  0.00     0.004 C 
ENDBRANCH   8   9
ENDBRANCH   7   8
ENDBRANCH   1   7
TORSDOF 6
ENDMDL
MODEL 9
REMARK VINA RESULT:    -3.932      3.274      6.025
REMARK INTER + INTRA:          -5.596
REMARK INTER:                  -5.208
REMARK INTRA:                  -0.388
REMARK UNBOUND:                -0.285
REMARK SMILES CCCCCCCC(=O)[O-]
REMARK SMILES IDX 5 1 6 2 7 3 8 4 9 5 10 6 4 7 3 8 2 9 1 10
REMARK H PARENT
REMARK Flexibility Score: inf
ROOT
ATOM      1  C   UNL     1      -5.379  38.001  21.434  1.00  0.00     0.000 C 
ENDROOT
BRANCH   1   2
ATOM      2  C   UNL     1      -5.213  37.459  20.005  1.00  0.00     0.006 C 
BRANCH   2   3
ATOM      3  C   UNL     1      -5.357  35.933  19.931  1.00  0.00     0.053 C 
BRANCH   3   4
ATOM      4  C   UNL     1      -4.627  35.398  18.740  1.00  0.00     0.041 C 
ATOM      5  O   UNL     1      -5.000  34.325  18.198  1.00  0.00    -0.550 OA
ATOM      6  O   UNL     1      -3.566  36.112  18.197  1.00  0.00    -0.550 OA
ENDBRANCH   3   4
ENDBRANCH   2   3
ENDBRANCH   1   2
BRANCH   1   7
ATOM      7  C   UNL     1      -4.593  37.186  22.472  1.00  0.00     0.000 C 
BRANCH   7   8
ATOM      8  C   UNL     1      -5.181  37.376  23.878  1.00  0.00    -0.000 C 
BRANCH   8   9
ATOM      9  C   UNL     1      -6.123  36.232  24.284  1.00  0.00    -0.003 C 
ATOM     10  C   UNL     1      -5.826  34.929  23.541  1.00  0.00     0.004 C 
ENDBRANCH   8   9
ENDBRANCH   7   8
ENDBRANCH   1   7
TORSDOF 6
ENDMDL
