MODEL 1
REMARK VINA RESULT:    -2.828      0.000      0.000
REMARK INTER + INTRA:          -2.828
REMARK INTER:                  -2.828
REMARK INTRA:                   0.000
REMARK UNBOUND:                 0.000
REMARK SMILES O=C1CCCCC1
REMARK SMILES IDX 5 1 4 2 3 3 2 4 1 5 7 6 6 7
REMARK H PARENT
REMARK Flexibility Score: inf
ROOT
ATOM      1  C   UNL     1     140.222 140.192 129.448  1.00  0.00     0.001 C 
ATOM      2  C   UNL     1     140.345 139.458 130.791  1.00  0.00     0.008 C 
ATOM      3  C   UNL     1     139.740 138.050 130.717  1.00  0.00     0.075 C 
ATOM      4  C   UNL     1     140.287 137.308 129.528  1.00  0.00     0.132 C 
ATOM      5  O   UNL     1     140.624 136.139 129.632  1.00  0.00    -0.300 OA
ATOM      6  C   UNL     1     140.324 137.993 128.189  1.00  0.00     0.075 C 
ATOM      7  C   UNL     1     140.913 139.402 128.326  1.00  0.00     0.008 C 
ENDROOT
TORSDOF 0
ENDMDL
MODEL 2
REMARK VINA RESULT:    -2.819      4.255      5.072
REMARK INTER + INTRA:          -2.819
REMARK INTER:                  -2.819
REMARK INTRA:                   0.000
REMARK UNBOUND:                 0.000
REMARK SMILES O=C1CCCCC1
REMARK SMILES IDX 5 1 4 2 3 3 2 4 1 5 7 6 6 7
REMARK H PARENT
REMARK Flexibility Score: inf
ROOT
ATOM      1  C   UNL     1     134.677 140.133 129.850  1.00  0.00     0.001 C 
ATOM      2  C   UNL     1     135.418 140.586 128.583  1.00  0.00     0.008 C 
ATOM      3  C   UNL     1     136.743 141.277 128.927  1.00  0.00     0.075 C 
ATOM      4  C   UNL     1     137.548 140.427 129.871  1.00  0.00     0.132 C 
ATOM      5  O   UNL     1     138.749 140.283 129.702  1.00  0.00    -0.300 OA
ATOM      6  C   UNL     1     136.875 139.833 131.079  1.00  0.00     0.075 C 
ATOM      7  C   UNL     1     135.546 139.178 130.682  1.00  0.00     0.008 C 
ENDROOT
TORSDOF 0
ENDMDL
MODEL 3
REMARK VINA RESULT:    -2.816      3.524      4.601
REMARK INTER + INTRA:          -2.816
REMARK INTER:                  -2.816
REMARK INTRA:                   0.000
REMARK UNBOUND:                 0.000
REMARK SMILES O=C1CCCCC1
REMARK SMILES IDX 5 1 4 2 3 3 2 4 1 5 7 6 6 7
REMARK H PARENT
REMARK Flexibility Score: inf
ROOT
ATOM      1  C   UNL     1     140.390 135.154 129.919  1.00  0.00     0.001 C 
ATOM      2  C   UNL     1     139.790 134.622 128.609  1.00  0.00     0.008 C 
ATOM      3  C   UNL     1     138.465 133.890 128.856  1.00  0.00     0.075 C 
ATOM      4  C   UNL     1     137.543 134.742 129.684  1.00  0.00     0.132 C 
ATOM      5  O   UNL     1     136.359 134.828 129.398  1.00  0.00    -0.300 OA
ATOM      6  C   UNL     1     138.075 135.411 130.923  1.00  0.00     0.075 C 
ATOM      7  C   UNL     1     139.410 136.104 130.624  1.00  0.00     0.008 C 
ENDROOT
TORSDOF 0
ENDMDL
MODEL 4
REMARK VINA RESULT:    -2.812      4.085      4.450
REMARK INTER + INTRA:          -2.812
REMARK INTER:                  -2.812
REMARK INTRA:                   0.000
REMARK UNBOUND:                 0.000
REMARK SMILES O=C1CCCCC1
REMARK SMILES IDX 5 1 4 2 3 3 2 4 1 5 7 6 6 7
REMARK H PARENT
REMARK Flexibility Score: inf
ROOT
ATOM      1  C   UNL     1     140.230 134.978 129.389  1.00  0.00     0.001 C 
ATOM      2  C   UNL     1     139.502 134.879 130.738  1.00  0.00     0.008 C 
ATOM      3  C   UNL     1     138.093 135.480 130.660  1.00  0.00     0.075 C 
ATOM      4  C   UNL     1     137.346 134.909 129.485  1.00  0.00     0.132 C 
ATOM      5  O   UNL     1     136.178 134.572 129.601  1.00  0.00    -0.300 OA
ATOM      6  C   UNL     1     138.024 134.847 128.144  1.00  0.00     0.075 C 
ATOM      7  C   UNL     1     139.435 134.264 128.285  1.00  0.00     0.008 C 
ENDROOT
TORSDOF 0
ENDMDL
MODEL 5
REMARK VINA RESULT:    -2.809      4.120      4.473
REMARK INTER + INTRA:          -2.809
REMARK INTER:                  -2.809
REMARK INTRA:                   0.000
REMARK UNBOUND:                 0.000
REMARK SMILES O=C1CCCCC1
REMARK SMILES IDX 5 1 4 2 3 3 2 4 1 5 7 6 6 7
REMARK H PARENT
REMARK Flexibility Score: inf
ROOT
ATOM      1  C   UNL     1     134.987 140.219 129.401  1.00  0.00     0.001 C 
ATOM      2  C   UNL     1     135.702 140.339 130.755  1.00  0.00     0.008 C 
ATOM      3  C   UNL     1     137.108 139.728 130.703  1.00  0.00     0.075 C 
ATOM      4  C   UNL     1     137.870 140.270 129.525  1.00  0.00     0.132 C 
ATOM      5  O   UNL     1     139.039 140.601 129.646  1.00  0.00    -0.300 OA
ATOM      6  C   UNL     1     137.206 140.310 128.176  1.00  0.00     0.075 C 
ATOM      7  C   UNL     1     135.797 140.906 128.291  1.00  0.00     0.008 C 
ENDROOT
TORSDOF 0
ENDMDL
MODEL 6
REMARK VINA RESULT:    -2.807      5.618      6.303
REMARK INTER + INTRA:          -2.807
REMARK INTER:                  -2.807
REMARK INTRA:                   0.000
REMARK UNBOUND:                 0.000
REMARK SMILES O=C1CCCCC1
REMARK SMILES IDX 5 1 4 2 3 3 2 4 1 5 7 6 6 7
REMARK H PARENT
REMARK Flexibility Score: inf
ROOT
ATOM      1  C   UNL     1     134.983 135.003 129.390  1.00  0.00     0.001 C 
ATOM      2  C   UNL     1     134.861 135.717 130.744  1.00  0.00     0.008 C 
ATOM      3  C   UNL     1     135.473 137.123 130.694  1.00  0.00     0.075 C 
ATOM      4  C   UNL     1     134.932 137.886 129.516  1.00  0.00     0.132 C 
ATOM      5  O   UNL     1     134.600 139.055 129.637  1.00  0.00    -0.300 OA
ATOM      6  C   UNL     1     134.894 137.223 128.166  1.00  0.00     0.075 C 
ATOM      7  C   UNL     1     134.298 135.814 128.279  1.00  0.00     0.008 C 
ENDROOT
TORSDOF 0
ENDMDL
MODEL 7
REMARK VINA RESULT:    -2.802      5.570      6.494
REMARK INTER + INTRA:          -2.802
REMARK INTER:                  -2.802
REMARK INTRA:                   0.000
REMARK UNBOUND:                 0.000
REMARK SMILES O=C1CCCCC1
REMARK SMILES IDX 5 1 4 2 3 3 2 4 1 5 7 6 6 7
REMARK H PARENT
REMARK Flexibility Score: inf
ROOT
ATOM      1  C   UNL     1     135.106 134.797 129.985  1.00  0.00     0.001 C 
ATOM      2  C   UNL     1     134.601 135.384 128.659  1.00  0.00     0.008 C 
ATOM      3  C   UNL     1     133.891 136.727 128.874  1.00  0.00     0.075 C 
ATOM      4  C   UNL     1     134.752 137.647 129.696  1.00  0.00     0.132 C 
ATOM      5  O   UNL     1     134.864 138.824 129.390  1.00  0.00    -0.300 OA
ATOM      6  C   UNL     1     135.395 137.124 130.952  1.00  0.00     0.075 C 
ATOM      7  C   UNL     1     136.066 135.771 130.685  1.00  0.00     0.008 C 
ENDROOT
TORSDOF 0
ENDMDL
MODEL 8
REMARK VINA RESULT:    -2.726      5.655      6.308
REMARK INTER + INTRA:          -2.726
REMARK INTER:                  -2.726
REMARK INTRA:                   0.000
REMARK UNBOUND:                 0.000
REMARK SMILES O=C1CCCCC1
REMARK SMILES IDX 5 1 4 2 3 3 2 4 1 5 7 6 6 7
REMARK H PARENT
REMARK Flexibility Score: inf
ROOT
ATOM      1  C   UNL     1     134.882 137.165 128.098  1.00  0.00     0.001 C 
ATOM      2  C   UNL     1     134.316 135.741 128.212  1.00  0.00     0.008 C 
ATOM      3  C   UNL     1     134.956 134.976 129.377  1.00  0.00     0.075 C 
ATOM      4  C   UNL     1     134.892 135.794 130.638  1.00  0.00     0.132 C 
ATOM      5  O   UNL     1     134.581 135.272 131.697  1.00  0.00    -0.300 OA
ATOM      6  C   UNL     1     135.308 137.240 130.597  1.00  0.00     0.075 C 
ATOM      7  C   UNL     1     134.660 137.949 129.401  1.00  0.00     0.008 C 
ENDROOT
TORSDOF 0
ENDMDL
MODEL 9
REMARK VINA RESULT:    -2.724      3.857      4.640
REMARK INTER + INTRA:          -2.724
REMARK INTER:                  -2.724
REMARK INTRA:                   0.000
REMARK UNBOUND:                 0.000
REMARK SMILES O=C1CCCCC1
REMARK SMILES IDX 5 1 4 2 3 3 2 4 1 5 7 6 6 7
REMARK H PARENT
REMARK Flexibility Score: inf
ROOT
ATOM      1  C   UNL     1     138.039 134.866 128.094  1.00  0.00     0.001 C 
ATOM      2  C   UNL     1     139.454 134.281 128.210  1.00  0.00     0.008 C 
ATOM      3  C   UNL     1     140.238 134.933 129.356  1.00  0.00     0.075 C 
ATOM      4  C   UNL     1     139.428 134.908 130.624  1.00  0.00     0.132 C 
ATOM      5  O   UNL     1     139.953 134.611 131.685  1.00  0.00    -0.300 OA
ATOM      6  C   UNL     1     137.989 135.346 130.584  1.00  0.00     0.075 C 
ATOM      7  C   UNL     1     137.261 134.684 129.407  1.00  0.00     0.008 C 
ENDROOT
TORSDOF 0
ENDMDL
