MODEL 1
REMARK VINA RESULT:    -6.138      0.000      0.000
REMARK INTER + INTRA:          -6.946
REMARK INTER:                  -6.856
REMARK INTRA:                  -0.090
REMARK UNBOUND:                -0.090
REMARK SMILES CCc1ccc(O)cc1O
REMARK SMILES IDX 3 1 9 2 8 3 6 4 5 5 4 6 2 7 1 8 10 9 7 11
REMARK H PARENT 10 10 7 12
REMARK Flexibility Score: inf
ROOT
ATOM      1  C   UNL     1      12.005 -12.552 -27.540  1.00  0.00    -0.006 A 
ATOM      2  C   UNL     1      13.036 -13.443 -27.150  1.00  0.00     0.122 A 
ATOM      3  C   UNL     1      14.266 -12.934 -26.715  1.00  0.00     0.092 A 
ATOM      4  C   UNL     1      14.495 -11.557 -26.677  1.00  0.00     0.119 A 
ATOM      5  C   UNL     1      13.487 -10.674 -27.079  1.00  0.00     0.047 A 
ATOM      6  C   UNL     1      12.254 -11.168 -27.510  1.00  0.00     0.011 A 
ENDROOT
BRANCH   1   7
ATOM      7  C   UNL     1      10.661 -13.038 -28.028  1.00  0.00     0.036 C 
ATOM      8  C   UNL     1      10.333 -12.451 -29.397  1.00  0.00     0.009 C 
ENDBRANCH   1   7
BRANCH   2   9
ATOM      9  O   UNL     1      12.878 -14.831 -27.185  1.00  0.00    -0.508 OA
ATOM     10  H   UNL     1      12.017 -15.302 -26.943  1.00  0.00     0.293 HD
ENDBRANCH   2   9
BRANCH   4  11
ATOM     11  O   UNL     1      15.728 -11.076 -26.241  1.00  0.00    -0.508 OA
ATOM     12  H   UNL     1      16.547 -11.102 -26.837  1.00  0.00     0.293 HD
ENDBRANCH   4  11
TORSDOF 3
ENDMDL
MODEL 2
REMARK VINA RESULT:    -6.129      2.529      3.479
REMARK INTER + INTRA:          -6.935
REMARK INTER:                  -6.844
REMARK INTRA:                  -0.092
REMARK UNBOUND:                -0.090
REMARK SMILES CCc1ccc(O)cc1O
REMARK SMILES IDX 3 1 9 2 8 3 6 4 5 5 4 6 2 7 1 8 10 9 7 11
REMARK H PARENT 10 10 7 12
REMARK Flexibility Score: inf
ROOT
ATOM      1  C   UNL     1      11.690 -12.117 -26.383  1.00  0.00    -0.006 A 
ATOM      2  C   UNL     1      11.061 -13.024 -27.272  1.00  0.00     0.122 A 
ATOM      3  C   UNL     1      11.038 -12.746 -28.645  1.00  0.00     0.092 A 
ATOM      4  C   UNL     1      11.612 -11.575 -29.145  1.00  0.00     0.119 A 
ATOM      5  C   UNL     1      12.216 -10.668 -28.269  1.00  0.00     0.047 A 
ATOM      6  C   UNL     1      12.252 -10.935 -26.899  1.00  0.00     0.011 A 
ENDROOT
BRANCH   1   7
ATOM      7  C   UNL     1      11.740 -12.355 -24.892  1.00  0.00     0.036 C 
ATOM      8  C   UNL     1      11.075 -11.209 -24.134  1.00  0.00     0.009 C 
ENDBRANCH   1   7
BRANCH   2   9
ATOM      9  O   UNL     1      10.452 -14.202 -26.833  1.00  0.00    -0.508 OA
ATOM     10  H   UNL     1       9.720 -14.677 -27.344  1.00  0.00     0.293 HD
ENDBRANCH   2   9
BRANCH   4  11
ATOM     11  O   UNL     1      11.574 -11.322 -30.515  1.00  0.00    -0.508 OA
ATOM     12  H   UNL     1      11.366 -10.398 -30.877  1.00  0.00     0.293 HD
ENDBRANCH   4  11
TORSDOF 3
ENDMDL
MODEL 3
REMARK VINA RESULT:    -6.093      2.417      3.624
REMARK INTER + INTRA:          -6.896
REMARK INTER:                  -6.815
REMARK INTRA:                  -0.081
REMARK UNBOUND:                -0.090
REMARK SMILES CCc1ccc(O)cc1O
REMARK SMILES IDX 3 1 9 2 8 3 6 4 5 5 4 6 2 7 1 8 10 9 7 11
REMARK H PARENT 10 10 7 12
REMARK Flexibility Score: inf
ROOT
ATOM      1  C   UNL     1      12.140 -11.253 -27.332  1.00  0.00    -0.006 A 
ATOM      2  C   UNL     1      11.402 -11.175 -26.125  1.00  0.00     0.122 A 
ATOM      3  C   UNL     1      11.420 -12.253 -25.230  1.00  0.00     0.092 A 
ATOM      4  C   UNL     1      12.144 -13.411 -25.523  1.00  0.00     0.119 A 
ATOM      5  C   UNL     1      12.858 -13.499 -26.722  1.00  0.00     0.047 A 
ATOM      6  C   UNL     1      12.853 -12.431 -27.621  1.00  0.00     0.011 A 
ENDROOT
BRANCH   1   7
ATOM      7  C   UNL     1      12.152 -10.130 -28.342  1.00  0.00     0.036 C 
ATOM      8  C   UNL     1      13.139  -9.040 -27.934  1.00  0.00     0.009 C 
ENDBRANCH   1   7
BRANCH   2   9
ATOM      9  O   UNL     1      10.642 -10.054 -25.782  1.00  0.00    -0.508 OA
ATOM     10  H   UNL     1      10.263  -9.407 -26.460  1.00  0.00     0.293 HD
ENDBRANCH   2   9
BRANCH   4  11
ATOM     11  O   UNL     1      12.145 -14.469 -24.616  1.00  0.00    -0.508 OA
ATOM     12  H   UNL     1      12.906 -14.604 -23.960  1.00  0.00     0.293 HD
ENDBRANCH   4  11
TORSDOF 3
ENDMDL
MODEL 4
REMARK VINA RESULT:    -5.967      2.486      3.454
REMARK INTER + INTRA:          -6.755
REMARK INTER:                  -6.665
REMARK INTRA:                  -0.091
REMARK UNBOUND:                -0.090
REMARK SMILES CCc1ccc(O)cc1O
REMARK SMILES IDX 3 1 9 2 8 3 6 4 5 5 4 6 2 7 1 8 10 9 7 11
REMARK H PARENT 10 10 7 12
REMARK Flexibility Score: inf
ROOT
ATOM      1  C   UNL     1      12.987 -12.500 -26.582  1.00  0.00    -0.006 A 
ATOM      2  C   UNL     1      12.123 -12.825 -25.506  1.00  0.00     0.122 A 
ATOM      3  C   UNL     1      11.197 -11.878 -25.050  1.00  0.00     0.092 A 
ATOM      4  C   UNL     1      11.127 -10.611 -25.633  1.00  0.00     0.119 A 
ATOM      5  C   UNL     1      11.991 -10.280 -26.681  1.00  0.00     0.047 A 
ATOM      6  C   UNL     1      12.915 -11.215 -27.150  1.00  0.00     0.011 A 
ENDROOT
BRANCH   1   7
ATOM      7  C   UNL     1      14.013 -13.473 -27.113  1.00  0.00     0.036 C 
ATOM      8  C   UNL     1      15.412 -12.863 -27.077  1.00  0.00     0.009 C 
ENDBRANCH   1   7
BRANCH   2   9
ATOM      9  O   UNL     1      12.156 -14.068 -24.868  1.00  0.00    -0.508 OA
ATOM     10  H   UNL     1      12.538 -14.211 -23.944  1.00  0.00     0.293 HD
ENDBRANCH   2   9
BRANCH   4  11
ATOM     11  O   UNL     1      10.197  -9.687 -25.159  1.00  0.00    -0.508 OA
ATOM     12  H   UNL     1       9.715  -9.052 -25.785  1.00  0.00     0.293 HD
ENDBRANCH   4  11
TORSDOF 3
ENDMDL
MODEL 5
REMARK VINA RESULT:    -5.843      2.512      3.444
REMARK INTER + INTRA:          -6.616
REMARK INTER:                  -6.532
REMARK INTRA:                  -0.085
REMARK UNBOUND:                -0.090
REMARK SMILES CCc1ccc(O)cc1O
REMARK SMILES IDX 3 1 9 2 8 3 6 4 5 5 4 6 2 7 1 8 10 9 7 11
REMARK H PARENT 10 10 7 12
REMARK Flexibility Score: inf
ROOT
ATOM      1  C   UNL     1      11.917 -11.457 -27.478  1.00  0.00    -0.006 A 
ATOM      2  C   UNL     1      10.981 -12.502 -27.686  1.00  0.00     0.122 A 
ATOM      3  C   UNL     1      10.797 -13.475 -26.695  1.00  0.00     0.092 A 
ATOM      4  C   UNL     1      11.538 -13.437 -25.512  1.00  0.00     0.119 A 
ATOM      5  C   UNL     1      12.476 -12.420 -25.312  1.00  0.00     0.047 A 
ATOM      6  C   UNL     1      12.666 -11.440 -26.288  1.00  0.00     0.011 A 
ENDROOT
BRANCH   1   7
ATOM      7  C   UNL     1      12.168 -10.384 -28.511  1.00  0.00     0.036 C 
ATOM      8  C   UNL     1      12.913  -9.202 -27.899  1.00  0.00     0.009 C 
ENDBRANCH   1   7
BRANCH   2   9
ATOM      9  O   UNL     1      10.224 -12.607 -28.855  1.00  0.00    -0.508 OA
ATOM     10  H   UNL     1       9.764 -13.459 -29.148  1.00  0.00     0.293 HD
ENDBRANCH   2   9
BRANCH   4  11
ATOM     11  O   UNL     1      11.336 -14.418 -24.543  1.00  0.00    -0.508 OA
ATOM     12  H   UNL     1      12.113 -14.835 -24.042  1.00  0.00     0.293 HD
ENDBRANCH   4  11
TORSDOF 3
ENDMDL
MODEL 6
REMARK VINA RESULT:    -5.777      1.480      3.529
REMARK INTER + INTRA:          -6.542
REMARK INTER:                  -6.458
REMARK INTRA:                  -0.084
REMARK UNBOUND:                -0.090
REMARK SMILES CCc1ccc(O)cc1O
REMARK SMILES IDX 3 1 9 2 8 3 6 4 5 5 4 6 2 7 1 8 10 9 7 11
REMARK H PARENT 10 10 7 12
REMARK Flexibility Score: inf
ROOT
ATOM      1  C   UNL     1      12.865 -11.654 -27.268  1.00  0.00    -0.006 A 
ATOM      2  C   UNL     1      13.449 -12.943 -27.183  1.00  0.00     0.122 A 
ATOM      3  C   UNL     1      12.633 -14.080 -27.243  1.00  0.00     0.092 A 
ATOM      4  C   UNL     1      11.248 -13.957 -27.367  1.00  0.00     0.119 A 
ATOM      5  C   UNL     1      10.666 -12.688 -27.431  1.00  0.00     0.047 A 
ATOM      6  C   UNL     1      11.467 -11.546 -27.379  1.00  0.00     0.011 A 
ENDROOT
BRANCH   1   7
ATOM      7  C   UNL     1      13.689 -10.390 -27.200  1.00  0.00     0.036 C 
ATOM      8  C   UNL     1      12.977  -9.237 -27.901  1.00  0.00     0.009 C 
ENDBRANCH   1   7
BRANCH   2   9
ATOM      9  O   UNL     1      14.826 -13.133 -27.038  1.00  0.00    -0.508 OA
ATOM     10  H   UNL     1      15.311 -13.057 -26.155  1.00  0.00     0.293 HD
ENDBRANCH   2   9
BRANCH   4  11
ATOM     11  O   UNL     1      10.458 -15.105 -27.423  1.00  0.00    -0.508 OA
ATOM     12  H   UNL     1      10.315 -15.689 -26.607  1.00  0.00     0.293 HD
ENDBRANCH   4  11
TORSDOF 3
ENDMDL
MODEL 7
REMARK VINA RESULT:    -5.718      1.593      2.233
REMARK INTER + INTRA:          -6.477
REMARK INTER:                  -6.374
REMARK INTRA:                  -0.103
REMARK UNBOUND:                -0.090
REMARK SMILES CCc1ccc(O)cc1O
REMARK SMILES IDX 3 1 9 2 8 3 6 4 5 5 4 6 2 7 1 8 10 9 7 11
REMARK H PARENT 10 10 7 12
REMARK Flexibility Score: inf
ROOT
ATOM      1  C   UNL     1      12.056 -12.219 -27.474  1.00  0.00    -0.006 A 
ATOM      2  C   UNL     1      12.304 -10.911 -26.987  1.00  0.00     0.122 A 
ATOM      3  C   UNL     1      13.595 -10.559 -26.573  1.00  0.00     0.092 A 
ATOM      4  C   UNL     1      14.637 -11.488 -26.618  1.00  0.00     0.119 A 
ATOM      5  C   UNL     1      14.391 -12.785 -27.079  1.00  0.00     0.047 A 
ATOM      6  C   UNL     1      13.111 -13.149 -27.500  1.00  0.00     0.011 A 
ENDROOT
BRANCH   1   7
ATOM      7  C   UNL     1      10.684 -12.664 -27.925  1.00  0.00     0.036 C 
ATOM      8  C   UNL     1      10.471 -12.358 -29.405  1.00  0.00     0.009 C 
ENDBRANCH   1   7
BRANCH   2   9
ATOM      9  O   UNL     1      11.301  -9.942 -26.899  1.00  0.00    -0.508 OA
ATOM     10  H   UNL     1      10.322 -10.160 -26.773  1.00  0.00     0.293 HD
ENDBRANCH   2   9
BRANCH   4  11
ATOM     11  O   UNL     1      15.912 -11.112 -26.199  1.00  0.00    -0.508 OA
ATOM     12  H   UNL     1      16.738 -11.349 -26.738  1.00  0.00     0.293 HD
ENDBRANCH   4  11
TORSDOF 3
ENDMDL
MODEL 8
REMARK VINA RESULT:    -5.714      1.762      3.887
REMARK INTER + INTRA:          -6.472
REMARK INTER:                  -6.373
REMARK INTRA:                  -0.099
REMARK UNBOUND:                -0.090
REMARK SMILES CCc1ccc(O)cc1O
REMARK SMILES IDX 3 1 9 2 8 3 6 4 5 5 4 6 2 7 1 8 10 9 7 11
REMARK H PARENT 10 10 7 12
REMARK Flexibility Score: inf
ROOT
ATOM      1  C   UNL     1      12.755 -11.875 -27.286  1.00  0.00    -0.006 A 
ATOM      2  C   UNL     1      11.951 -13.001 -26.981  1.00  0.00     0.122 A 
ATOM      3  C   UNL     1      10.876 -13.332 -27.817  1.00  0.00     0.092 A 
ATOM      4  C   UNL     1      10.577 -12.554 -28.937  1.00  0.00     0.119 A 
ATOM      5  C   UNL     1      11.357 -11.431 -29.230  1.00  0.00     0.047 A 
ATOM      6  C   UNL     1      12.434 -11.092 -28.410  1.00  0.00     0.011 A 
ENDROOT
BRANCH   1   7
ATOM      7  C   UNL     1      13.921 -11.460 -26.421  1.00  0.00     0.036 C 
ATOM      8  C   UNL     1      15.189 -12.212 -26.816  1.00  0.00     0.009 C 
ENDBRANCH   1   7
BRANCH   2   9
ATOM      9  O   UNL     1      12.184 -13.808 -25.865  1.00  0.00    -0.508 OA
ATOM     10  H   UNL     1      12.149 -14.818 -25.888  1.00  0.00     0.293 HD
ENDBRANCH   2   9
BRANCH   4  11
ATOM     11  O   UNL     1       9.501 -12.904 -29.751  1.00  0.00    -0.508 OA
ATOM     12  H   UNL     1       8.905 -13.694 -29.530  1.00  0.00     0.293 HD
ENDBRANCH   4  11
TORSDOF 3
ENDMDL
MODEL 9
REMARK VINA RESULT:    -5.638      2.006      4.153
REMARK INTER + INTRA:          -6.388
REMARK INTER:                  -6.302
REMARK INTRA:                  -0.085
REMARK UNBOUND:                -0.090
REMARK SMILES CCc1ccc(O)cc1O
REMARK SMILES IDX 3 1 9 2 8 3 6 4 5 5 4 6 2 7 1 8 10 9 7 11
REMARK H PARENT 10 10 7 12
REMARK Flexibility Score: inf
ROOT
ATOM      1  C   UNL     1      12.805 -11.791 -27.216  1.00  0.00    -0.006 A 
ATOM      2  C   UNL     1      11.972 -11.964 -28.350  1.00  0.00     0.122 A 
ATOM      3  C   UNL     1      11.118 -13.073 -28.419  1.00  0.00     0.092 A 
ATOM      4  C   UNL     1      11.091 -14.018 -27.391  1.00  0.00     0.119 A 
ATOM      5  C   UNL     1      11.925 -13.860 -26.280  1.00  0.00     0.047 A 
ATOM      6  C   UNL     1      12.777 -12.758 -26.195  1.00  0.00     0.011 A 
ENDROOT
BRANCH   1   7
ATOM      7  C   UNL     1      13.755 -10.623 -27.086  1.00  0.00     0.036 C 
ATOM      8  C   UNL     1      15.023 -11.032 -26.342  1.00  0.00     0.009 C 
ENDBRANCH   1   7
BRANCH   2   9
ATOM      9  O   UNL     1      11.967 -11.067 -29.420  1.00  0.00    -0.508 OA
ATOM     10  H   UNL     1      11.540 -11.265 -30.315  1.00  0.00     0.293 HD
ENDBRANCH   2   9
BRANCH   4  11
ATOM     11  O   UNL     1      10.233 -15.112 -27.486  1.00  0.00    -0.508 OA
ATOM     12  H   UNL     1      10.555 -16.010 -27.828  1.00  0.00     0.293 HD
ENDBRANCH   4  11
TORSDOF 3
ENDMDL
