MODEL 1
REMARK VINA RESULT:    -3.883      0.000      0.000
REMARK INTER + INTRA:          -8.116
REMARK INTER:                  -7.062
REMARK INTRA:                  -1.055
REMARK UNBOUND:                -1.055
REMARK SMILES CCCCCCCCCCCCCCCC(=O)[O-]
REMARK SMILES IDX 9 1 10 2 11 3 12 4 13 5 14 6 15 7 16 8 17 9 18 10 8 11 7 12
REMARK SMILES IDX 6 13 5 14 4 15 3 16 2 17 1 18
REMARK H PARENT
REMARK Flexibility Score: inf
ROOT
ATOM      1  C   UNL     1       0.035  -7.744 -10.659  1.00  0.00     0.000 C 
ENDROOT
BRANCH   1   2
ATOM      2  C   UNL     1      -1.060  -6.718 -10.326  1.00  0.00     0.000 C 
BRANCH   2   3
ATOM      3  C   UNL     1      -1.257  -5.680 -11.441  1.00  0.00     0.000 C 
BRANCH   3   4
ATOM      4  C   UNL     1      -0.913  -4.270 -10.946  1.00  0.00     0.000 C 
BRANCH   4   5
ATOM      5  C   UNL     1       0.170  -3.627 -11.826  1.00  0.00     0.000 C 
BRANCH   5   6
ATOM      6  C   UNL     1       1.187  -2.803 -11.016  1.00  0.00     0.006 C 
BRANCH   6   7
ATOM      7  C   UNL     1       2.073  -1.880 -11.867  1.00  0.00     0.053 C 
BRANCH   7   8
ATOM      8  C   UNL     1       3.347  -1.521 -11.167  1.00  0.00     0.041 C 
ATOM      9  O   UNL     1       3.455  -1.686  -9.923  1.00  0.00    -0.550 OA
ATOM     10  O   UNL     1       4.404  -0.970 -11.882  1.00  0.00    -0.550 OA
ENDBRANCH   7   8
ENDBRANCH   6   7
ENDBRANCH   5   6
ENDBRANCH   4   5
ENDBRANCH   3   4
ENDBRANCH   2   3
ENDBRANCH   1   2
BRANCH   1  11
ATOM     11  C   UNL     1      -0.517  -8.983 -11.383  1.00  0.00     0.000 C 
BRANCH  11  12
ATOM     12  C   UNL     1      -2.029  -9.162 -11.175  1.00  0.00    -0.000 C 
BRANCH  12  13
ATOM     13  C   UNL     1      -2.393 -10.563 -10.654  1.00  0.00    -0.000 C 
BRANCH  13  14
ATOM     14  C   UNL     1      -1.553 -10.970  -9.427  1.00  0.00    -0.000 C 
BRANCH  14  15
ATOM     15  C   UNL     1      -1.419 -12.494  -9.232  1.00  0.00    -0.000 C 
BRANCH  15  16
ATOM     16  C   UNL     1      -0.228 -13.125  -9.986  1.00  0.00    -0.000 C 
BRANCH  16  17
ATOM     17  C   UNL     1       0.933 -12.146 -10.234  1.00  0.00    -0.003 C 
ATOM     18  C   UNL     1       1.492 -12.252 -11.653  1.00  0.00     0.004 C 
ENDBRANCH  16  17
ENDBRANCH  15  16
ENDBRANCH  14  15
ENDBRANCH  13  14
ENDBRANCH  12  13
ENDBRANCH  11  12
ENDBRANCH   1  11
TORSDOF 14
ENDMDL
MODEL 2
REMARK VINA RESULT:    -3.798     11.300     14.940
REMARK INTER + INTRA:          -7.961
REMARK INTER:                  -6.258
REMARK INTRA:                  -1.703
REMARK UNBOUND:                -1.055
REMARK SMILES CCCCCCCCCCCCCCCC(=O)[O-]
REMARK SMILES IDX 9 1 10 2 11 3 12 4 13 5 14 6 15 7 16 8 17 9 18 10 8 11 7 12
REMARK SMILES IDX 6 13 5 14 4 15 3 16 2 17 1 18
REMARK H PARENT
REMARK Flexibility Score: inf
ROOT
ATOM      1  C   UNL     1      -9.258   1.709  -8.332  1.00  0.00     0.000 C 
ENDROOT
BRANCH   1   2
ATOM      2  C   UNL     1     -10.115   0.602  -8.966  1.00  0.00     0.000 C 
BRANCH   2   3
ATOM      3  C   UNL     1     -11.074   1.139 -10.040  1.00  0.00     0.000 C 
BRANCH   3   4
ATOM      4  C   UNL     1     -10.477   0.973 -11.442  1.00  0.00     0.000 C 
BRANCH   4   5
ATOM      5  C   UNL     1      -9.844   2.285 -11.930  1.00  0.00     0.000 C 
BRANCH   5   6
ATOM      6  C   UNL     1      -8.321   2.179 -12.122  1.00  0.00     0.006 C 
BRANCH   6   7
ATOM      7  C   UNL     1      -7.745   0.780 -11.847  1.00  0.00     0.053 C 
BRANCH   7   8
ATOM      8  C   UNL     1      -6.489   0.839 -11.034  1.00  0.00     0.041 C 
ATOM      9  O   UNL     1      -6.509   1.323  -9.871  1.00  0.00    -0.550 OA
ATOM     10  O   UNL     1      -5.289   0.391 -11.572  1.00  0.00    -0.550 OA
ENDBRANCH   7   8
ENDBRANCH   6   7
ENDBRANCH   5   6
ENDBRANCH   4   5
ENDBRANCH   3   4
ENDBRANCH   2   3
ENDBRANCH   1   2
BRANCH   1  11
ATOM     11  C   UNL     1      -9.936   3.088  -8.389  1.00  0.00     0.000 C 
BRANCH  11  12
ATOM     12  C   UNL     1      -9.090   4.188  -7.729  1.00  0.00    -0.000 C 
BRANCH  12  13
ATOM     13  C   UNL     1      -7.642   4.212  -8.247  1.00  0.00    -0.000 C 
BRANCH  13  14
ATOM     14  C   UNL     1      -7.227   5.602  -8.770  1.00  0.00    -0.000 C 
BRANCH  14  15
ATOM     15  C   UNL     1      -8.352   6.655  -8.719  1.00  0.00    -0.000 C 
BRANCH  15  16
ATOM     16  C   UNL     1      -9.049   6.900 -10.076  1.00  0.00    -0.000 C 
BRANCH  16  17
ATOM     17  C   UNL     1      -8.891   5.735 -11.069  1.00  0.00    -0.003 C 
ATOM     18  C   UNL     1      -7.811   6.004 -12.116  1.00  0.00     0.004 C 
ENDBRANCH  16  17
ENDBRANCH  15  16
ENDBRANCH  14  15
ENDBRANCH  13  14
ENDBRANCH  12  13
ENDBRANCH  11  12
ENDBRANCH   1  11
TORSDOF 14
ENDMDL
MODEL 3
REMARK VINA RESULT:    -3.671      1.504      2.261
REMARK INTER + INTRA:          -7.730
REMARK INTER:                  -6.731
REMARK INTRA:                  -0.999
REMARK UNBOUND:                -1.055
REMARK SMILES CCCCCCCCCCCCCCCC(=O)[O-]
REMARK SMILES IDX 9 1 10 2 11 3 12 4 13 5 14 6 15 7 16 8 17 9 18 10 8 11 7 12
REMARK SMILES IDX 6 13 5 14 4 15 3 16 2 17 1 18
REMARK H PARENT
REMARK Flexibility Score: inf
ROOT
ATOM      1  C   UNL     1       1.309  -8.228 -10.057  1.00  0.00     0.000 C 
ENDROOT
BRANCH   1   2
ATOM      2  C   UNL     1       2.202  -6.993 -10.249  1.00  0.00     0.000 C 
BRANCH   2   3
ATOM      3  C   UNL     1       2.698  -6.841 -11.695  1.00  0.00     0.000 C 
BRANCH   3   4
ATOM      4  C   UNL     1       2.747  -5.366 -12.107  1.00  0.00     0.000 C 
BRANCH   4   5
ATOM      5  C   UNL     1       1.908  -4.500 -11.155  1.00  0.00     0.000 C 
BRANCH   5   6
ATOM      6  C   UNL     1       1.300  -3.267 -11.846  1.00  0.00     0.006 C 
BRANCH   6   7
ATOM      7  C   UNL     1       2.158  -1.996 -11.742  1.00  0.00     0.053 C 
BRANCH   7   8
ATOM      8  C   UNL     1       2.724  -1.811 -10.367  1.00  0.00     0.041 C 
ATOM      9  O   UNL     1       1.986  -1.941  -9.355  1.00  0.00    -0.550 OA
ATOM     10  O   UNL     1       4.059  -1.460 -10.206  1.00  0.00    -0.550 OA
ENDBRANCH   7   8
ENDBRANCH   6   7
ENDBRANCH   5   6
ENDBRANCH   4   5
ENDBRANCH   3   4
ENDBRANCH   2   3
ENDBRANCH   1   2
BRANCH   1  11
ATOM     11  C   UNL     1      -0.190  -7.895 -10.158  1.00  0.00     0.000 C 
BRANCH  11  12
ATOM     12  C   UNL     1      -0.716  -7.978 -11.599  1.00  0.00    -0.000 C 
BRANCH  12  13
ATOM     13  C   UNL     1      -2.110  -8.622 -11.684  1.00  0.00    -0.000 C 
BRANCH  13  14
ATOM     14  C   UNL     1      -2.279  -9.790 -10.690  1.00  0.00    -0.000 C 
BRANCH  14  15
ATOM     15  C   UNL     1      -2.106 -11.185 -11.322  1.00  0.00    -0.000 C 
BRANCH  15  16
ATOM     16  C   UNL     1      -2.124 -12.346 -10.304  1.00  0.00    -0.000 C 
BRANCH  16  17
ATOM     17  C   UNL     1      -0.976 -12.285  -9.280  1.00  0.00    -0.003 C 
ATOM     18  C   UNL     1       0.399 -12.262  -9.946  1.00  0.00     0.004 C 
ENDBRANCH  16  17
ENDBRANCH  15  16
ENDBRANCH  14  15
ENDBRANCH  13  14
ENDBRANCH  12  13
ENDBRANCH  11  12
ENDBRANCH   1  11
TORSDOF 14
ENDMDL
MODEL 4
REMARK VINA RESULT:    -3.352      1.221      2.499
REMARK INTER + INTRA:          -7.151
REMARK INTER:                  -6.194
REMARK INTRA:                  -0.956
REMARK UNBOUND:                -1.055
REMARK SMILES CCCCCCCCCCCCCCCC(=O)[O-]
REMARK SMILES IDX 9 1 10 2 11 3 12 4 13 5 14 6 15 7 16 8 17 9 18 10 8 11 7 12
REMARK SMILES IDX 6 13 5 14 4 15 3 16 2 17 1 18
REMARK H PARENT
REMARK Flexibility Score: inf
ROOT
ATOM      1  C   UNL     1      -0.381  -7.730 -11.612  1.00  0.00     0.000 C 
ENDROOT
BRANCH   1   2
ATOM      2  C   UNL     1      -0.998  -6.522 -10.890  1.00  0.00     0.000 C 
BRANCH   2   3
ATOM      3  C   UNL     1      -1.765  -5.592 -11.842  1.00  0.00     0.000 C 
BRANCH   3   4
ATOM      4  C   UNL     1      -1.231  -4.157 -11.757  1.00  0.00     0.000 C 
BRANCH   4   5
ATOM      5  C   UNL     1       0.284  -4.118 -12.005  1.00  0.00     0.000 C 
BRANCH   5   6
ATOM      6  C   UNL     1       0.869  -2.697 -11.911  1.00  0.00     0.006 C 
BRANCH   6   7
ATOM      7  C   UNL     1       2.392  -2.652 -11.708  1.00  0.00     0.053 C 
BRANCH   7   8
ATOM      8  C   UNL     1       2.767  -2.019 -10.403  1.00  0.00     0.041 C 
ATOM      9  O   UNL     1       3.891  -1.467 -10.266  1.00  0.00    -0.550 OA
ATOM     10  O   UNL     1       1.890  -2.071  -9.327  1.00  0.00    -0.550 OA
ENDBRANCH   7   8
ENDBRANCH   6   7
ENDBRANCH   5   6
ENDBRANCH   4   5
ENDBRANCH   3   4
ENDBRANCH   2   3
ENDBRANCH   1   2
BRANCH   1  11
ATOM     11  C   UNL     1       1.071  -7.997 -11.183  1.00  0.00     0.000 C 
BRANCH  11  12
ATOM     12  C   UNL     1       1.795  -8.972 -12.125  1.00  0.00    -0.000 C 
BRANCH  12  13
ATOM     13  C   UNL     1       1.451 -10.443 -11.831  1.00  0.00    -0.000 C 
BRANCH  13  14
ATOM     14  C   UNL     1       0.638 -10.608 -10.531  1.00  0.00    -0.000 C 
BRANCH  14  15
ATOM     15  C   UNL     1      -0.479 -11.667 -10.617  1.00  0.00    -0.000 C 
BRANCH  15  16
ATOM     16  C   UNL     1      -1.727 -11.339  -9.769  1.00  0.00    -0.000 C 
BRANCH  16  17
ATOM     17  C   UNL     1      -2.458 -10.060 -10.217  1.00  0.00    -0.003 C 
ATOM     18  C   UNL     1      -3.199 -10.246 -11.541  1.00  0.00     0.004 C 
ENDBRANCH  16  17
ENDBRANCH  15  16
ENDBRANCH  14  15
ENDBRANCH  13  14
ENDBRANCH  12  13
ENDBRANCH  11  12
ENDBRANCH   1  11
TORSDOF 14
ENDMDL
MODEL 5
REMARK VINA RESULT:    -3.322      1.481      2.078
REMARK INTER + INTRA:          -7.096
REMARK INTER:                  -5.979
REMARK INTRA:                  -1.117
REMARK UNBOUND:                -1.055
REMARK SMILES CCCCCCCCCCCCCCCC(=O)[O-]
REMARK SMILES IDX 9 1 10 2 11 3 12 4 13 5 14 6 15 7 16 8 17 9 18 10 8 11 7 12
REMARK SMILES IDX 6 13 5 14 4 15 3 16 2 17 1 18
REMARK H PARENT
REMARK Flexibility Score: inf
ROOT
ATOM      1  C   UNL     1      -1.932  -8.544 -11.976  1.00  0.00     0.000 C 
ENDROOT
BRANCH   1   2
ATOM      2  C   UNL     1      -0.670  -8.012 -11.281  1.00  0.00     0.000 C 
BRANCH   2   3
ATOM      3  C   UNL     1      -0.935  -6.733 -10.472  1.00  0.00     0.000 C 
BRANCH   3   4
ATOM      4  C   UNL     1      -1.674  -5.691 -11.318  1.00  0.00     0.000 C 
BRANCH   4   5
ATOM      5  C   UNL     1      -1.258  -4.266 -10.923  1.00  0.00     0.000 C 
BRANCH   5   6
ATOM      6  C   UNL     1      -0.177  -3.680 -11.849  1.00  0.00     0.006 C 
BRANCH   6   7
ATOM      7  C   UNL     1       1.050  -3.118 -11.113  1.00  0.00     0.053 C 
BRANCH   7   8
ATOM      8  C   UNL     1       2.276  -3.944 -11.352  1.00  0.00     0.041 C 
ATOM      9  O   UNL     1       3.225  -3.486 -12.042  1.00  0.00    -0.550 OA
ATOM     10  O   UNL     1       2.356  -5.234 -10.841  1.00  0.00    -0.550 OA
ENDBRANCH   7   8
ENDBRANCH   6   7
ENDBRANCH   5   6
ENDBRANCH   4   5
ENDBRANCH   3   4
ENDBRANCH   2   3
ENDBRANCH   1   2
BRANCH   1  11
ATOM     11  C   UNL     1      -1.924 -10.075 -12.125  1.00  0.00     0.000 C 
BRANCH  11  12
ATOM     12  C   UNL     1      -3.336 -10.679 -12.087  1.00  0.00    -0.000 C 
BRANCH  12  13
ATOM     13  C   UNL     1      -3.482 -11.778 -11.021  1.00  0.00    -0.000 C 
BRANCH  13  14
ATOM     14  C   UNL     1      -2.354 -11.730  -9.969  1.00  0.00    -0.000 C 
BRANCH  14  15
ATOM     15  C   UNL     1      -1.546 -13.037  -9.853  1.00  0.00    -0.000 C 
BRANCH  15  16
ATOM     16  C   UNL     1      -0.138 -12.857  -9.244  1.00  0.00    -0.000 C 
BRANCH  16  17
ATOM     17  C   UNL     1       0.995 -12.910 -10.284  1.00  0.00    -0.003 C 
ATOM     18  C   UNL     1       1.223 -11.562 -10.967  1.00  0.00     0.004 C 
ENDBRANCH  16  17
ENDBRANCH  15  16
ENDBRANCH  14  15
ENDBRANCH  13  14
ENDBRANCH  12  13
ENDBRANCH  11  12
ENDBRANCH   1  11
TORSDOF 14
ENDMDL
MODEL 6
REMARK VINA RESULT:    -3.055      2.933      4.087
REMARK INTER + INTRA:          -6.609
REMARK INTER:                  -5.274
REMARK INTRA:                  -1.335
REMARK UNBOUND:                -1.055
REMARK SMILES CCCCCCCCCCCCCCCC(=O)[O-]
REMARK SMILES IDX 9 1 10 2 11 3 12 4 13 5 14 6 15 7 16 8 17 9 18 10 8 11 7 12
REMARK SMILES IDX 6 13 5 14 4 15 3 16 2 17 1 18
REMARK H PARENT
REMARK Flexibility Score: inf
ROOT
ATOM      1  C   UNL     1       1.978  -6.519 -10.222  1.00  0.00     0.000 C 
ENDROOT
BRANCH   1   2
ATOM      2  C   UNL     1       2.442  -6.078 -11.619  1.00  0.00     0.000 C 
BRANCH   2   3
ATOM      3  C   UNL     1       2.813  -4.589 -11.676  1.00  0.00     0.000 C 
BRANCH   3   4
ATOM      4  C   UNL     1       1.951  -3.770 -10.709  1.00  0.00     0.000 C 
BRANCH   4   5
ATOM      5  C   UNL     1       1.030  -2.807 -11.473  1.00  0.00     0.000 C 
BRANCH   5   6
ATOM      6  C   UNL     1      -0.171  -3.517 -12.123  1.00  0.00     0.006 C 
BRANCH   6   7
ATOM      7  C   UNL     1      -1.088  -4.247 -11.129  1.00  0.00     0.053 C 
BRANCH   7   8
ATOM      8  C   UNL     1      -2.131  -5.067 -11.824  1.00  0.00     0.041 C 
ATOM      9  O   UNL     1      -3.242  -4.557 -12.125  1.00  0.00    -0.550 OA
ATOM     10  O   UNL     1      -1.889  -6.406 -12.107  1.00  0.00    -0.550 OA
ENDBRANCH   7   8
ENDBRANCH   6   7
ENDBRANCH   5   6
ENDBRANCH   4   5
ENDBRANCH   3   4
ENDBRANCH   2   3
ENDBRANCH   1   2
BRANCH   1  11
ATOM     11  C   UNL     1       0.920  -7.635 -10.275  1.00  0.00     0.000 C 
BRANCH  11  12
ATOM     12  C   UNL     1       1.305  -8.766 -11.241  1.00  0.00    -0.000 C 
BRANCH  12  13
ATOM     13  C   UNL     1       0.441 -10.025 -11.052  1.00  0.00    -0.000 C 
BRANCH  13  14
ATOM     14  C   UNL     1      -0.948  -9.889 -11.710  1.00  0.00    -0.000 C 
BRANCH  14  15
ATOM     15  C   UNL     1      -2.065 -10.668 -10.989  1.00  0.00    -0.000 C 
BRANCH  15  16
ATOM     16  C   UNL     1      -1.789 -10.927  -9.492  1.00  0.00    -0.000 C 
BRANCH  16  17
ATOM     17  C   UNL     1      -1.733 -12.421  -9.125  1.00  0.00    -0.003 C 
ATOM     18  C   UNL     1      -0.434 -13.085  -9.580  1.00  0.00     0.004 C 
ENDBRANCH  16  17
ENDBRANCH  15  16
ENDBRANCH  14  15
ENDBRANCH  13  14
ENDBRANCH  12  13
ENDBRANCH  11  12
ENDBRANCH   1  11
TORSDOF 14
ENDMDL
MODEL 7
REMARK VINA RESULT:    -3.039      2.190      4.345
REMARK INTER + INTRA:          -6.580
REMARK INTER:                  -5.931
REMARK INTRA:                  -0.649
REMARK UNBOUND:                -1.055
REMARK SMILES CCCCCCCCCCCCCCCC(=O)[O-]
REMARK SMILES IDX 9 1 10 2 11 3 12 4 13 5 14 6 15 7 16 8 17 9 18 10 8 11 7 12
REMARK SMILES IDX 6 13 5 14 4 15 3 16 2 17 1 18
REMARK H PARENT
REMARK Flexibility Score: inf
ROOT
ATOM      1  C   UNL     1       1.832  -4.229 -11.272  1.00  0.00     0.000 C 
ENDROOT
BRANCH   1   2
ATOM      2  C   UNL     1       1.532  -2.885 -10.590  1.00  0.00     0.000 C 
BRANCH   2   3
ATOM      3  C   UNL     1       1.944  -1.681 -11.450  1.00  0.00     0.000 C 
BRANCH   3   4
ATOM      4  C   UNL     1       3.301  -1.924 -12.122  1.00  0.00     0.000 C 
BRANCH   4   5
ATOM      5  C   UNL     1       4.456  -1.559 -11.177  1.00  0.00     0.000 C 
BRANCH   5   6
ATOM      6  C   UNL     1       5.753  -1.205 -11.928  1.00  0.00     0.006 C 
BRANCH   6   7
ATOM      7  C   UNL     1       7.039  -1.633 -11.203  1.00  0.00     0.053 C 
BRANCH   7   8
ATOM      8  C   UNL     1       7.287  -0.822  -9.969  1.00  0.00     0.041 C 
ATOM      9  O   UNL     1       6.892   0.372  -9.906  1.00  0.00    -0.550 OA
ATOM     10  O   UNL     1       7.984  -1.375  -8.901  1.00  0.00    -0.550 OA
ENDBRANCH   7   8
ENDBRANCH   6   7
ENDBRANCH   5   6
ENDBRANCH   4   5
ENDBRANCH   3   4
ENDBRANCH   2   3
ENDBRANCH   1   2
BRANCH   1  11
ATOM     11  C   UNL     1       0.637  -4.761 -12.080  1.00  0.00     0.000 C 
BRANCH  11  12
ATOM     12  C   UNL     1       0.514  -6.291 -12.012  1.00  0.00    -0.000 C 
BRANCH  12  13
ATOM     13  C   UNL     1       1.017  -6.866 -10.676  1.00  0.00    -0.000 C 
BRANCH  13  14
ATOM     14  C   UNL     1       0.077  -7.951 -10.112  1.00  0.00    -0.000 C 
BRANCH  14  15
ATOM     15  C   UNL     1       0.040  -9.247 -10.946  1.00  0.00    -0.000 C 
BRANCH  15  16
ATOM     16  C   UNL     1      -1.352  -9.913 -11.015  1.00  0.00    -0.000 C 
BRANCH  16  17
ATOM     17  C   UNL     1      -1.814 -10.517  -9.676  1.00  0.00    -0.003 C 
ATOM     18  C   UNL     1      -1.189 -11.886  -9.408  1.00  0.00     0.004 C 
ENDBRANCH  16  17
ENDBRANCH  15  16
ENDBRANCH  14  15
ENDBRANCH  13  14
ENDBRANCH  12  13
ENDBRANCH  11  12
ENDBRANCH   1  11
TORSDOF 14
ENDMDL
