MODEL 1
REMARK VINA RESULT:    -6.684      0.000      0.000
REMARK INTER + INTRA:          -6.929
REMARK INTER:                  -7.075
REMARK INTRA:                   0.146
REMARK UNBOUND:                 0.146
REMARK SMILES CC1=C[C@@H]2C(=C(C)CC[C@@H]2C(C)C)CC1
REMARK SMILES IDX 1 1 2 2 3 3 4 4 10 5 9 6 8 7 6 8 5 9 14 10 15 11 7 12 11 13
REMARK SMILES IDX 12 14 13 15
REMARK H PARENT
REMARK Flexibility Score: inf
ROOT
ATOM      1  C   UNL     1     113.258 109.499 108.086  1.00  0.00     0.039 C 
ATOM      2  C   UNL     1     112.608 110.046 109.327  1.00  0.00    -0.076 C 
ATOM      3  C   UNL     1     112.175 111.323 109.332  1.00  0.00    -0.020 C 
ATOM      4  C   UNL     1     111.534 111.983 110.535  1.00  0.00     0.041 C 
ATOM      5  C   UNL     1     110.287 112.826 110.157  1.00  0.00     0.003 C 
ATOM      6  C   UNL     1     109.763 113.500 111.437  1.00  0.00     0.009 C 
ATOM      7  C   UNL     1     109.397 112.488 112.526  1.00  0.00     0.031 C 
ATOM      8  C   UNL     1     110.377 111.335 112.671  1.00  0.00    -0.073 C 
ATOM      9  C   UNL     1     111.288 111.033 111.698  1.00  0.00    -0.064 C 
ATOM     10  C   UNL     1     112.270 109.885 111.826  1.00  0.00     0.036 C 
ATOM     11  C   UNL     1     112.361 109.125 110.503  1.00  0.00     0.035 C 
ATOM     12  C   UNL     1     110.198 110.457 113.888  1.00  0.00     0.039 C 
ENDROOT
BRANCH   5  13
ATOM     13  C   UNL     1     109.142 112.125 109.329  1.00  0.00    -0.013 C 
ATOM     14  C   UNL     1     109.126 110.586 109.369  1.00  0.00     0.007 C 
ATOM     15  C   UNL     1     109.129 112.594 107.864  1.00  0.00     0.007 C 
ENDBRANCH   5  13
TORSDOF 1
ENDMDL
MODEL 2
REMARK VINA RESULT:    -6.626      3.122      4.847
REMARK INTER + INTRA:          -6.868
REMARK INTER:                  -7.000
REMARK INTRA:                   0.133
REMARK UNBOUND:                 0.146
REMARK SMILES CC1=C[C@@H]2C(=C(C)CC[C@@H]2C(C)C)CC1
REMARK SMILES IDX 1 1 2 2 3 3 4 4 10 5 9 6 8 7 6 8 5 9 14 10 15 11 7 12 11 13
REMARK SMILES IDX 12 14 13 15
REMARK H PARENT
REMARK Flexibility Score: inf
ROOT
ATOM      1  C   UNL     1     113.256 109.482 112.886  1.00  0.00     0.039 C 
ATOM      2  C   UNL     1     112.629 110.030 114.139  1.00  0.00    -0.076 C 
ATOM      3  C   UNL     1     112.197 111.306 114.153  1.00  0.00    -0.020 C 
ATOM      4  C   UNL     1     111.579 111.967 115.368  1.00  0.00     0.041 C 
ATOM      5  C   UNL     1     110.325 112.810 115.013  1.00  0.00     0.003 C 
ATOM      6  C   UNL     1     109.826 113.484 116.302  1.00  0.00     0.009 C 
ATOM      7  C   UNL     1     109.479 112.472 117.398  1.00  0.00     0.031 C 
ATOM      8  C   UNL     1     110.461 111.318 117.524  1.00  0.00    -0.073 C 
ATOM      9  C   UNL     1     111.354 111.016 116.535  1.00  0.00    -0.064 C 
ATOM     10  C   UNL     1     112.337 109.867 116.644  1.00  0.00     0.036 C 
ATOM     11  C   UNL     1     112.404 109.108 115.319  1.00  0.00     0.035 C 
ATOM     12  C   UNL     1     110.305 110.440 118.744  1.00  0.00     0.039 C 
ENDROOT
BRANCH   5  13
ATOM     13  C   UNL     1     109.165 112.109 114.206  1.00  0.00    -0.013 C 
ATOM     14  C   UNL     1     109.125 110.573 114.279  1.00  0.00     0.007 C 
ATOM     15  C   UNL     1     109.151 112.547 112.731  1.00  0.00     0.007 C 
ENDBRANCH   5  13
TORSDOF 1
ENDMDL
MODEL 3
REMARK VINA RESULT:    -6.609      3.149      6.196
REMARK INTER + INTRA:          -6.850
REMARK INTER:                  -6.970
REMARK INTRA:                   0.121
REMARK UNBOUND:                 0.146
REMARK SMILES CC1=C[C@@H]2C(=C(C)CC[C@@H]2C(C)C)CC1
REMARK SMILES IDX 1 1 2 2 3 3 4 4 10 5 9 6 8 7 6 8 5 9 14 10 15 11 7 12 11 13
REMARK SMILES IDX 12 14 13 15
REMARK H PARENT
REMARK Flexibility Score: inf
ROOT
ATOM      1  C   UNL     1     109.101 112.888 112.912  1.00  0.00     0.039 C 
ATOM      2  C   UNL     1     109.685 112.309 114.171  1.00  0.00    -0.076 C 
ATOM      3  C   UNL     1     110.119 111.032 114.166  1.00  0.00    -0.020 C 
ATOM      4  C   UNL     1     110.695 110.341 115.384  1.00  0.00     0.041 C 
ATOM      5  C   UNL     1     111.963 109.509 115.050  1.00  0.00     0.003 C 
ATOM      6  C   UNL     1     112.418 108.801 116.338  1.00  0.00     0.009 C 
ATOM      7  C   UNL     1     112.725 109.784 117.472  1.00  0.00     0.031 C 
ATOM      8  C   UNL     1     111.737 110.933 117.594  1.00  0.00    -0.073 C 
ATOM      9  C   UNL     1     110.878 111.260 116.582  1.00  0.00    -0.064 C 
ATOM     10  C   UNL     1     109.890 112.405 116.688  1.00  0.00     0.036 C 
ATOM     11  C   UNL     1     109.867 113.199 115.382  1.00  0.00     0.035 C 
ATOM     12  C   UNL     1     111.849 111.779 118.841  1.00  0.00     0.039 C 
ENDROOT
BRANCH   5  13
ATOM     13  C   UNL     1     113.149 110.231 114.303  1.00  0.00    -0.013 C 
ATOM     14  C   UNL     1     113.219 111.759 114.469  1.00  0.00     0.007 C 
ATOM     15  C   UNL     1     113.176 109.881 112.805  1.00  0.00     0.007 C 
ENDBRANCH   5  13
TORSDOF 1
ENDMDL
MODEL 4
REMARK VINA RESULT:    -6.607      1.220      3.991
REMARK INTER + INTRA:          -6.848
REMARK INTER:                  -7.410
REMARK INTRA:                   0.563
REMARK UNBOUND:                 0.146
REMARK SMILES CC1=C[C@@H]2C(=C(C)CC[C@@H]2C(C)C)CC1
REMARK SMILES IDX 1 1 2 2 3 3 4 4 10 5 9 6 8 7 6 8 5 9 14 10 15 11 7 12 11 13
REMARK SMILES IDX 12 14 13 15
REMARK H PARENT
REMARK Flexibility Score: inf
ROOT
ATOM      1  C   UNL     1     109.464 110.465 113.676  1.00  0.00     0.039 C 
ATOM      2  C   UNL     1     110.129 110.245 112.345  1.00  0.00    -0.076 C 
ATOM      3  C   UNL     1     109.363 110.054 111.252  1.00  0.00    -0.020 C 
ATOM      4  C   UNL     1     109.927 109.795 109.871  1.00  0.00     0.041 C 
ATOM      5  C   UNL     1     109.193 110.603 108.768  1.00  0.00     0.003 C 
ATOM      6  C   UNL     1     109.799 110.212 107.409  1.00  0.00     0.009 C 
ATOM      7  C   UNL     1     111.305 110.482 107.338  1.00  0.00     0.031 C 
ATOM      8  C   UNL     1     112.072 110.118 108.599  1.00  0.00    -0.073 C 
ATOM      9  C   UNL     1     111.442 109.912 109.795  1.00  0.00    -0.064 C 
ATOM     10  C   UNL     1     112.193 109.551 111.062  1.00  0.00     0.036 C 
ATOM     11  C   UNL     1     111.636 110.345 112.244  1.00  0.00     0.035 C 
ATOM     12  C   UNL     1     113.579 110.127 108.490  1.00  0.00     0.039 C 
ENDROOT
BRANCH   5  13
ATOM     13  C   UNL     1     109.071 112.165 108.950  1.00  0.00    -0.013 C 
ATOM     14  C   UNL     1     109.054 112.996 107.655  1.00  0.00     0.007 C 
ATOM     15  C   UNL     1     110.156 112.716 109.892  1.00  0.00     0.007 C 
ENDBRANCH   5  13
TORSDOF 1
ENDMDL
MODEL 5
REMARK VINA RESULT:    -6.604      2.701      5.712
REMARK INTER + INTRA:          -6.845
REMARK INTER:                  -7.415
REMARK INTRA:                   0.570
REMARK UNBOUND:                 0.146
REMARK SMILES CC1=C[C@@H]2C(=C(C)CC[C@@H]2C(C)C)CC1
REMARK SMILES IDX 1 1 2 2 3 3 4 4 10 5 9 6 8 7 6 8 5 9 14 10 15 11 7 12 11 13
REMARK SMILES IDX 12 14 13 15
REMARK H PARENT
REMARK Flexibility Score: inf
ROOT
ATOM      1  C   UNL     1     109.356 110.501 118.550  1.00  0.00     0.039 C 
ATOM      2  C   UNL     1     110.047 110.271 117.234  1.00  0.00    -0.076 C 
ATOM      3  C   UNL     1     109.303 110.081 116.127  1.00  0.00    -0.020 C 
ATOM      4  C   UNL     1     109.895 109.812 114.758  1.00  0.00     0.041 C 
ATOM      5  C   UNL     1     109.190 110.621 113.637  1.00  0.00     0.003 C 
ATOM      6  C   UNL     1     109.822 110.219 112.293  1.00  0.00     0.009 C 
ATOM      7  C   UNL     1     111.331 110.480 112.252  1.00  0.00     0.031 C 
ATOM      8  C   UNL     1     112.068 110.115 113.531  1.00  0.00    -0.073 C 
ATOM      9  C   UNL     1     111.412 109.919 114.714  1.00  0.00    -0.064 C 
ATOM     10  C   UNL     1     112.133 109.557 115.998  1.00  0.00     0.036 C 
ATOM     11  C   UNL     1     111.557 110.360 117.165  1.00  0.00     0.035 C 
ATOM     12  C   UNL     1     113.577 110.114 113.454  1.00  0.00     0.039 C 
ENDROOT
BRANCH   5  13
ATOM     13  C   UNL     1     109.075 112.184 113.810  1.00  0.00    -0.013 C 
ATOM     14  C   UNL     1     109.096 113.010 112.512  1.00  0.00     0.007 C 
ATOM     15  C   UNL     1     110.141 112.731 114.776  1.00  0.00     0.007 C 
ENDBRANCH   5  13
TORSDOF 1
ENDMDL
MODEL 6
REMARK VINA RESULT:    -6.603      1.000      3.792
REMARK INTER + INTRA:          -6.843
REMARK INTER:                  -6.976
REMARK INTRA:                   0.132
REMARK UNBOUND:                 0.146
REMARK SMILES CC1=C[C@@H]2C(=C(C)CC[C@@H]2C(C)C)CC1
REMARK SMILES IDX 1 1 2 2 3 3 4 4 10 5 9 6 8 7 6 8 5 9 14 10 15 11 7 12 11 13
REMARK SMILES IDX 12 14 13 15
REMARK H PARENT
REMARK Flexibility Score: inf
ROOT
ATOM      1  C   UNL     1     109.062 112.861 108.045  1.00  0.00     0.039 C 
ATOM      2  C   UNL     1     109.680 112.304 109.298  1.00  0.00    -0.076 C 
ATOM      3  C   UNL     1     110.135 111.035 109.298  1.00  0.00    -0.020 C 
ATOM      4  C   UNL     1     110.747 110.366 110.511  1.00  0.00     0.041 C 
ATOM      5  C   UNL     1     112.020 109.551 110.161  1.00  0.00     0.003 C 
ATOM      6  C   UNL     1     112.513 108.865 111.447  1.00  0.00     0.009 C 
ATOM      7  C   UNL     1     112.826 109.865 112.564  1.00  0.00     0.031 C 
ATOM      8  C   UNL     1     111.822 111.000 112.694  1.00  0.00    -0.073 C 
ATOM      9  C   UNL     1     110.938 111.302 111.696  1.00  0.00    -0.064 C 
ATOM     10  C   UNL     1     109.933 112.431 111.809  1.00  0.00     0.036 C 
ATOM     11  C   UNL     1     109.872 113.210 110.495  1.00  0.00     0.035 C 
ATOM     12  C   UNL     1     111.945 111.861 113.929  1.00  0.00     0.039 C 
ENDROOT
BRANCH   5  13
ATOM     13  C   UNL     1     113.179 110.284 109.383  1.00  0.00    -0.013 C 
ATOM     14  C   UNL     1     113.191 111.820 109.481  1.00  0.00     0.007 C 
ATOM     15  C   UNL     1     113.222 109.871 107.902  1.00  0.00     0.007 C 
ENDBRANCH   5  13
TORSDOF 1
ENDMDL
MODEL 7
REMARK VINA RESULT:    -6.574      2.920      5.925
REMARK INTER + INTRA:          -6.813
REMARK INTER:                  -7.352
REMARK INTRA:                   0.539
REMARK UNBOUND:                 0.146
REMARK SMILES CC1=C[C@@H]2C(=C(C)CC[C@@H]2C(C)C)CC1
REMARK SMILES IDX 1 1 2 2 3 3 4 4 10 5 9 6 8 7 6 8 5 9 14 10 15 11 7 12 11 13
REMARK SMILES IDX 12 14 13 15
REMARK H PARENT
REMARK Flexibility Score: inf
ROOT
ATOM      1  C   UNL     1     112.873 111.688 118.629  1.00  0.00     0.039 C 
ATOM      2  C   UNL     1     112.187 111.936 117.315  1.00  0.00    -0.076 C 
ATOM      3  C   UNL     1     112.935 112.137 116.211  1.00  0.00    -0.020 C 
ATOM      4  C   UNL     1     112.348 112.425 114.845  1.00  0.00     0.041 C 
ATOM      5  C   UNL     1     113.053 111.627 113.715  1.00  0.00     0.003 C 
ATOM      6  C   UNL     1     112.426 112.047 112.375  1.00  0.00     0.009 C 
ATOM      7  C   UNL     1     110.917 111.792 112.327  1.00  0.00     0.031 C 
ATOM      8  C   UNL     1     110.177 112.144 113.608  1.00  0.00    -0.073 C 
ATOM      9  C   UNL     1     110.831 112.323 114.795  1.00  0.00    -0.064 C 
ATOM     10  C   UNL     1     110.107 112.671 116.081  1.00  0.00     0.036 C 
ATOM     11  C   UNL     1     110.677 111.853 117.239  1.00  0.00     0.035 C 
ATOM     12  C   UNL     1     108.669 112.151 113.526  1.00  0.00     0.039 C 
ENDROOT
BRANCH   5  13
ATOM     13  C   UNL     1     113.163 110.061 113.870  1.00  0.00    -0.013 C 
ATOM     14  C   UNL     1     113.171 109.253 112.560  1.00  0.00     0.007 C 
ATOM     15  C   UNL     1     112.075 109.503 114.804  1.00  0.00     0.007 C 
ENDBRANCH   5  13
TORSDOF 1
ENDMDL
MODEL 8
REMARK VINA RESULT:    -6.569      1.396      4.252
REMARK INTER + INTRA:          -6.807
REMARK INTER:                  -7.376
REMARK INTRA:                   0.569
REMARK UNBOUND:                 0.146
REMARK SMILES CC1=C[C@@H]2C(=C(C)CC[C@@H]2C(C)C)CC1
REMARK SMILES IDX 1 1 2 2 3 3 4 4 10 5 9 6 8 7 6 8 5 9 14 10 15 11 7 12 11 13
REMARK SMILES IDX 12 14 13 15
REMARK H PARENT
REMARK Flexibility Score: inf
ROOT
ATOM      1  C   UNL     1     112.890 111.704 113.582  1.00  0.00     0.039 C 
ATOM      2  C   UNL     1     112.210 111.947 112.263  1.00  0.00    -0.076 C 
ATOM      3  C   UNL     1     112.964 112.137 111.162  1.00  0.00    -0.020 C 
ATOM      4  C   UNL     1     112.385 112.418 109.791  1.00  0.00     0.041 C 
ATOM      5  C   UNL     1     113.093 111.609 108.670  1.00  0.00     0.003 C 
ATOM      6  C   UNL     1     112.474 112.023 107.323  1.00  0.00     0.009 C 
ATOM      7  C   UNL     1     110.964 111.774 107.270  1.00  0.00     0.031 C 
ATOM      8  C   UNL     1     110.219 112.137 108.545  1.00  0.00    -0.073 C 
ATOM      9  C   UNL     1     110.868 112.322 109.734  1.00  0.00    -0.064 C 
ATOM     10  C   UNL     1     110.140 112.682 111.014  1.00  0.00     0.036 C 
ATOM     11  C   UNL     1     110.701 111.869 112.181  1.00  0.00     0.035 C 
ATOM     12  C   UNL     1     108.711 112.150 108.456  1.00  0.00     0.039 C 
ENDROOT
BRANCH   5  13
ATOM     13  C   UNL     1     113.195 110.044 108.836  1.00  0.00    -0.013 C 
ATOM     14  C   UNL     1     113.181 109.226 107.532  1.00  0.00     0.007 C 
ATOM     15  C   UNL     1     112.116 109.500 109.788  1.00  0.00     0.007 C 
ENDBRANCH   5  13
TORSDOF 1
ENDMDL
MODEL 9
REMARK VINA RESULT:    -6.498      2.057      4.781
REMARK INTER + INTRA:          -6.732
REMARK INTER:                  -6.871
REMARK INTRA:                   0.139
REMARK UNBOUND:                 0.146
REMARK SMILES CC1=C[C@@H]2C(=C(C)CC[C@@H]2C(C)C)CC1
REMARK SMILES IDX 1 1 2 2 3 3 4 4 10 5 9 6 8 7 6 8 5 9 14 10 15 11 7 12 11 13
REMARK SMILES IDX 12 14 13 15
REMARK H PARENT
REMARK Flexibility Score: inf
ROOT
ATOM      1  C   UNL     1     109.742 111.292 109.917  1.00  0.00     0.039 C 
ATOM      2  C   UNL     1     109.729 111.469 111.410  1.00  0.00    -0.076 C 
ATOM      3  C   UNL     1     110.034 110.419 112.198  1.00  0.00    -0.020 C 
ATOM      4  C   UNL     1     110.023 110.479 113.711  1.00  0.00     0.041 C 
ATOM      5  C   UNL     1     111.253 109.774 114.343  1.00  0.00     0.003 C 
ATOM      6  C   UNL     1     111.102 109.836 115.873  1.00  0.00     0.009 C 
ATOM      7  C   UNL     1     111.002 111.272 116.395  1.00  0.00     0.031 C 
ATOM      8  C   UNL     1     110.135 112.191 115.549  1.00  0.00    -0.073 C 
ATOM      9  C   UNL     1     109.779 111.874 114.268  1.00  0.00    -0.064 C 
ATOM     10  C   UNL     1     108.917 112.781 113.412  1.00  0.00     0.036 C 
ATOM     11  C   UNL     1     109.478 112.844 111.991  1.00  0.00     0.035 C 
ATOM     12  C   UNL     1     109.801 113.536 116.153  1.00  0.00     0.039 C 
ENDROOT
BRANCH   5  13
ATOM     13  C   UNL     1     112.689 110.209 113.856  1.00  0.00    -0.013 C 
ATOM     14  C   UNL     1     112.836 111.677 113.418  1.00  0.00     0.007 C 
ATOM     15  C   UNL     1     113.214 109.291 112.739  1.00  0.00     0.007 C 
ENDBRANCH   5  13
TORSDOF 1
ENDMDL
