MODEL 1
REMARK VINA RESULT:    -3.556      0.000      0.000
REMARK INTER + INTRA:          -5.852
REMARK INTER:                  -4.907
REMARK INTRA:                  -0.945
REMARK UNBOUND:                -0.945
REMARK SMILES O=C([O-])[C@H]1O[C@H](Oc2cc3oc(-c4ccccc4)cc(=O)c3c(O)c2O)[C@H](O)[C@H](O)[C@H]1O
REMARK SMILES IDX 7 1 6 2 4 3 31 4 5 5 29 6 27 7 2 8 1 9 3 10 32 11 30 13
REMARK SMILES IDX 28 15 8 17 25 18 9 19 23 20 10 21 22 22 11 23 20 24 12 25
REMARK SMILES IDX 19 26 21 27 26 28 24 30 13 32 14 33 18 34 15 35 17 36 16 37
REMARK H PARENT 32 12 30 14 28 16 26 29 24 31
REMARK Flexibility Score: inf
ROOT
ATOM      1  O   UNL     1      18.907  27.496  17.225  1.00  0.00    -0.458 OA
ENDROOT
BRANCH   1   2
ATOM      2  C   UNL     1      17.758  27.431  18.068  1.00  0.00     0.339 C 
ATOM      3  C   UNL     1      16.890  25.937  19.737  1.00  0.00     0.199 C 
ATOM      4  C   UNL     1      15.910  27.087  20.069  1.00  0.00     0.180 C 
ATOM      5  O   UNL     1      17.564  26.083  18.489  1.00  0.00    -0.328 OA
ATOM      6  C   UNL     1      16.661  28.444  20.106  1.00  0.00     0.181 C 
ATOM      7  C   UNL     1      17.941  28.419  19.240  1.00  0.00     0.214 C 
BRANCH   3   8
ATOM      8  C   UNL     1      16.170  24.620  19.751  1.00  0.00     0.073 C 
ATOM      9  O   UNL     1      16.605  23.663  20.444  1.00  0.00    -0.547 OA
ATOM     10  O   UNL     1      15.043  24.438  18.961  1.00  0.00    -0.547 OA
ENDBRANCH   3   8
BRANCH   4  11
ATOM     11  O   UNL     1      14.888  27.127  19.102  1.00  0.00    -0.387 OA
ATOM     12  H   UNL     1      15.297  27.470  18.264  1.00  0.00     0.211 HD
ENDBRANCH   4  11
BRANCH   6  13
ATOM     13  O   UNL     1      16.988  28.787  21.429  1.00  0.00    -0.387 OA
ATOM     14  H   UNL     1      16.372  28.277  22.019  1.00  0.00     0.211 HD
ENDBRANCH   6  13
BRANCH   7  15
ATOM     15  O   UNL     1      19.053  28.042  20.017  1.00  0.00    -0.384 OA
ATOM     16  H   UNL     1      19.755  27.733  19.387  1.00  0.00     0.211 HD
ENDBRANCH   7  15
ENDBRANCH   1   2
BRANCH   1  17
ATOM     17  C   UNL     1      18.903  27.889  15.876  1.00  0.00     0.172 A 
ATOM     18  C   UNL     1      19.005  29.259  15.571  1.00  0.00     0.201 A 
ATOM     19  C   UNL     1      18.802  26.957  14.829  1.00  0.00     0.098 A 
ATOM     20  C   UNL     1      19.016  29.693  14.233  1.00  0.00     0.176 A 
ATOM     21  C   UNL     1      18.813  27.376  13.497  1.00  0.00     0.146 A 
ATOM     22  C   UNL     1      18.925  28.749  13.183  1.00  0.00     0.111 A 
ATOM     23  O   UNL     1      18.719  26.465  12.533  1.00  0.00    -0.456 OA
ATOM     24  C   UNL     1      18.940  29.106  11.820  1.00  0.00     0.197 A 
ATOM     25  C   UNL     1      18.720  26.769  11.238  1.00  0.00     0.138 A 
ATOM     26  C   UNL     1      18.839  28.112  10.845  1.00  0.00     0.100 A 
ATOM     27  O   UNL     1      19.048  30.309  11.456  1.00  0.00    -0.289 OA
BRANCH  18  28
ATOM     28  O   UNL     1      19.099  30.203  16.597  1.00  0.00    -0.502 OA
ATOM     29  H   UNL     1      19.670  30.055  17.420  1.00  0.00     0.293 HD
ENDBRANCH  18  28
BRANCH  20  30
ATOM     30  O   UNL     1      19.118  31.057  13.946  1.00  0.00    -0.504 OA
ATOM     31  H   UNL     1      19.985  31.572  14.045  1.00  0.00     0.293 HD
ENDBRANCH  20  30
BRANCH  25  32
ATOM     32  C   UNL     1      18.612  25.668  10.247  1.00  0.00     0.017 A 
ATOM     33  C   UNL     1      19.120  25.793   8.938  1.00  0.00     0.012 A 
ATOM     34  C   UNL     1      17.960  24.474  10.609  1.00  0.00     0.012 A 
ATOM     35  C   UNL     1      18.996  24.741   8.026  1.00  0.00     0.001 A 
ATOM     36  C   UNL     1      17.840  23.424   9.693  1.00  0.00     0.001 A 
ATOM     37  C   UNL     1      18.359  23.557   8.404  1.00  0.00     0.000 A 
ENDBRANCH  25  32
ENDBRANCH   1  17
TORSDOF 9
ENDMDL
MODEL 2
REMARK VINA RESULT:    -1.727      2.684      8.806
REMARK INTER + INTRA:          -3.328
REMARK INTER:                  -3.870
REMARK INTRA:                   0.541
REMARK UNBOUND:                -0.945
REMARK SMILES O=C([O-])[C@H]1O[C@H](Oc2cc3oc(-c4ccccc4)cc(=O)c3c(O)c2O)[C@H](O)[C@H](O)[C@H]1O
REMARK SMILES IDX 7 1 6 2 4 3 31 4 5 5 29 6 27 7 2 8 1 9 3 10 32 11 30 13
REMARK SMILES IDX 28 15 8 17 25 18 9 19 23 20 10 21 22 22 11 23 20 24 12 25
REMARK SMILES IDX 19 26 21 27 26 28 24 30 13 32 14 33 18 34 15 35 17 36 16 37
REMARK H PARENT 32 12 30 14 28 16 26 29 24 31
REMARK Flexibility Score: inf
ROOT
ATOM      1  O   UNL     1      17.416  25.166  12.281  1.00  0.00    -0.458 OA
ENDROOT
BRANCH   1   2
ATOM      2  C   UNL     1      17.695  24.780  10.937  1.00  0.00     0.339 C 
ATOM      3  C   UNL     1      17.749  22.736   9.675  1.00  0.00     0.199 C 
ATOM      4  C   UNL     1      17.818  23.659   8.434  1.00  0.00     0.180 C 
ATOM      5  O   UNL     1      18.027  23.394  10.909  1.00  0.00    -0.328 OA
ATOM      6  C   UNL     1      16.808  24.829   8.572  1.00  0.00     0.181 C 
ATOM      7  C   UNL     1      16.483  25.139  10.051  1.00  0.00     0.214 C 
BRANCH   3   8
ATOM      8  C   UNL     1      18.691  21.579   9.515  1.00  0.00     0.073 C 
ATOM      9  O   UNL     1      19.125  20.966  10.527  1.00  0.00    -0.547 OA
ATOM     10  O   UNL     1      19.125  21.208   8.249  1.00  0.00    -0.547 OA
ENDBRANCH   3   8
BRANCH   4  11
ATOM     11  O   UNL     1      19.124  24.163   8.296  1.00  0.00    -0.387 OA
ATOM     12  H   UNL     1      19.075  25.141   8.459  1.00  0.00     0.211 HD
ENDBRANCH   4  11
BRANCH   6  13
ATOM     13  O   UNL     1      15.622  24.537   7.876  1.00  0.00    -0.387 OA
ATOM     14  H   UNL     1      15.887  24.278   6.953  1.00  0.00     0.211 HD
ENDBRANCH   6  13
BRANCH   7  15
ATOM     15  O   UNL     1      15.352  24.413  10.469  1.00  0.00    -0.384 OA
ATOM     16  H   UNL     1      14.823  25.014  11.056  1.00  0.00     0.211 HD
ENDBRANCH   7  15
ENDBRANCH   1   2
BRANCH   1  17
ATOM     17  C   UNL     1      17.797  26.383  12.872  1.00  0.00     0.172 A 
ATOM     18  C   UNL     1      18.045  27.489  12.040  1.00  0.00     0.201 A 
ATOM     19  C   UNL     1      17.935  26.524  14.264  1.00  0.00     0.098 A 
ATOM     20  C   UNL     1      18.417  28.729  12.592  1.00  0.00     0.176 A 
ATOM     21  C   UNL     1      18.303  27.749  14.823  1.00  0.00     0.146 A 
ATOM     22  C   UNL     1      18.545  28.867  13.994  1.00  0.00     0.111 A 
ATOM     23  O   UNL     1      18.421  27.847  16.144  1.00  0.00    -0.456 OA
ATOM     24  C   UNL     1      18.903  30.078  14.621  1.00  0.00     0.197 A 
ATOM     25  C   UNL     1      18.767  28.971  16.766  1.00  0.00     0.138 A 
ATOM     26  C   UNL     1      19.013  30.129  16.011  1.00  0.00     0.100 A 
ATOM     27  O   UNL     1      19.125  31.125  13.952  1.00  0.00    -0.289 OA
BRANCH  18  28
ATOM     28  O   UNL     1      17.921  27.369  10.653  1.00  0.00    -0.502 OA
ATOM     29  H   UNL     1      17.940  28.170  10.035  1.00  0.00     0.293 HD
ENDBRANCH  18  28
BRANCH  20  30
ATOM     30  O   UNL     1      18.661  29.819  11.752  1.00  0.00    -0.504 OA
ATOM     31  H   UNL     1      19.594  30.086  11.462  1.00  0.00     0.293 HD
ENDBRANCH  20  30
BRANCH  25  32
ATOM     32  C   UNL     1      18.865  28.964  18.248  1.00  0.00     0.017 A 
ATOM     33  C   UNL     1      18.981  27.765  18.980  1.00  0.00     0.012 A 
ATOM     34  C   UNL     1      18.815  30.184  18.951  1.00  0.00     0.012 A 
ATOM     35  C   UNL     1      19.065  27.791  20.375  1.00  0.00     0.001 A 
ATOM     36  C   UNL     1      18.901  30.204  20.346  1.00  0.00     0.001 A 
ATOM     37  C   UNL     1      19.028  29.009  21.057  1.00  0.00     0.000 A 
ENDBRANCH  25  32
ENDBRANCH   1  17
TORSDOF 9
ENDMDL
MODEL 3
REMARK VINA RESULT:    -1.375      1.588      2.987
REMARK INTER + INTRA:          -2.843
REMARK INTER:                  -2.122
REMARK INTRA:                  -0.722
REMARK UNBOUND:                -0.945
REMARK SMILES O=C([O-])[C@H]1O[C@H](Oc2cc3oc(-c4ccccc4)cc(=O)c3c(O)c2O)[C@H](O)[C@H](O)[C@H]1O
REMARK SMILES IDX 7 1 6 2 4 3 31 4 5 5 29 6 27 7 2 8 1 9 3 10 32 11 30 13
REMARK SMILES IDX 28 15 8 17 25 18 9 19 23 20 10 21 22 22 11 23 20 24 12 25
REMARK SMILES IDX 19 26 21 27 26 28 24 30 13 32 14 33 18 34 15 35 17 36 16 37
REMARK H PARENT 32 12 30 14 28 16 26 29 24 31
REMARK Flexibility Score: inf
ROOT
ATOM      1  O   UNL     1      17.768  26.694  18.737  1.00  0.00    -0.458 OA
ENDROOT
BRANCH   1   2
ATOM      2  C   UNL     1      16.513  26.089  19.040  1.00  0.00     0.339 C 
ATOM      3  C   UNL     1      14.859  24.799  17.868  1.00  0.00     0.199 C 
ATOM      4  C   UNL     1      14.275  24.515  19.272  1.00  0.00     0.180 C 
ATOM      5  O   UNL     1      15.792  25.876  17.828  1.00  0.00    -0.328 OA
ATOM      6  C   UNL     1      15.412  24.179  20.274  1.00  0.00     0.181 C 
ATOM      7  C   UNL     1      16.763  24.793  19.841  1.00  0.00     0.214 C 
BRANCH   3   8
ATOM      8  C   UNL     1      13.754  25.075  16.891  1.00  0.00     0.073 C 
ATOM      9  O   UNL     1      12.665  25.571  17.284  1.00  0.00    -0.547 OA
ATOM     10  O   UNL     1      13.911  24.739  15.553  1.00  0.00    -0.547 OA
ENDBRANCH   3   8
BRANCH   4  11
ATOM     11  O   UNL     1      13.557  25.640  19.718  1.00  0.00    -0.387 OA
ATOM     12  H   UNL     1      13.405  25.519  20.692  1.00  0.00     0.211 HD
ENDBRANCH   4  11
BRANCH   6  13
ATOM     13  O   UNL     1      15.545  22.786  20.413  1.00  0.00    -0.387 OA
ATOM     14  H   UNL     1      15.364  22.574  21.366  1.00  0.00     0.211 HD
ENDBRANCH   6  13
BRANCH   7  15
ATOM     15  O   UNL     1      17.490  23.878  19.057  1.00  0.00    -0.384 OA
ATOM     16  H   UNL     1      17.573  23.043  19.589  1.00  0.00     0.211 HD
ENDBRANCH   7  15
ENDBRANCH   1   2
BRANCH   1  17
ATOM     17  C   UNL     1      18.036  27.484  17.606  1.00  0.00     0.172 A 
ATOM     18  C   UNL     1      18.258  28.862  17.781  1.00  0.00     0.201 A 
ATOM     19  C   UNL     1      18.092  26.937  16.312  1.00  0.00     0.098 A 
ATOM     20  C   UNL     1      18.542  29.685  16.676  1.00  0.00     0.176 A 
ATOM     21  C   UNL     1      18.373  27.744  15.208  1.00  0.00     0.146 A 
ATOM     22  C   UNL     1      18.605  29.127  15.378  1.00  0.00     0.111 A 
ATOM     23  O   UNL     1      18.420  27.192  13.999  1.00  0.00    -0.456 OA
ATOM     24  C   UNL     1      18.894  29.886  14.225  1.00  0.00     0.197 A 
ATOM     25  C   UNL     1      18.680  27.880  12.890  1.00  0.00     0.138 A 
ATOM     26  C   UNL     1      18.933  29.258  12.979  1.00  0.00     0.100 A 
ATOM     27  O   UNL     1      19.125  31.124  14.293  1.00  0.00    -0.289 OA
BRANCH  18  28
ATOM     28  O   UNL     1      18.201  29.427  19.057  1.00  0.00    -0.502 OA
ATOM     29  H   UNL     1      19.014  29.497  19.657  1.00  0.00     0.293 HD
ENDBRANCH  18  28
BRANCH  20  30
ATOM     30  O   UNL     1      18.759  31.053  16.866  1.00  0.00    -0.504 OA
ATOM     31  H   UNL     1      18.394  31.755  16.233  1.00  0.00     0.293 HD
ENDBRANCH  20  30
BRANCH  25  32
ATOM     32  C   UNL     1      18.708  27.158  11.594  1.00  0.00     0.017 A 
ATOM     33  C   UNL     1      19.115  27.789  10.400  1.00  0.00     0.012 A 
ATOM     34  C   UNL     1      18.294  25.813  11.541  1.00  0.00     0.012 A 
ATOM     35  C   UNL     1      19.125  27.083   9.193  1.00  0.00     0.001 A 
ATOM     36  C   UNL     1      18.307  25.112  10.332  1.00  0.00     0.001 A 
ATOM     37  C   UNL     1      18.724  25.746   9.160  1.00  0.00     0.000 A 
ENDBRANCH  25  32
ENDBRANCH   1  17
TORSDOF 9
ENDMDL
