MODEL 1
REMARK VINA RESULT:    -4.457      0.000      0.000
REMARK INTER + INTRA:          -5.832
REMARK INTER:                  -5.499
REMARK INTRA:                  -0.333
REMARK UNBOUND:                -0.333
REMARK SMILES COC(=O)c1ccccc1C(=O)OC
REMARK SMILES IDX 5 1 6 2 7 3 8 4 9 5 10 6 3 7 4 8 2 9 1 10 11 11 12 12 13 13
REMARK SMILES IDX 14 14
REMARK H PARENT
REMARK Flexibility Score: inf
ROOT
ATOM      1  C   UNL     1       7.210 -10.534  41.935  1.00  0.00     0.074 A 
ATOM      2  C   UNL     1       6.609 -11.462  42.806  1.00  0.00     0.016 A 
ATOM      3  C   UNL     1       6.615 -11.253  44.185  1.00  0.00     0.001 A 
ATOM      4  C   UNL     1       7.220 -10.116  44.717  1.00  0.00     0.001 A 
ATOM      5  C   UNL     1       7.802  -9.173  43.869  1.00  0.00     0.016 A 
ATOM      6  C   UNL     1       7.788  -9.352  42.474  1.00  0.00     0.074 A 
ENDROOT
BRANCH   1   7
ATOM      7  C   UNL     1       7.275 -10.868  40.494  1.00  0.00     0.338 C 
ATOM      8  O   UNL     1       6.328 -10.537  39.728  1.00  0.00    -0.246 OA
BRANCH   7   9
ATOM      9  O   UNL     1       8.359 -11.598  39.993  1.00  0.00    -0.465 OA
ATOM     10  C   UNL     1       8.285 -12.992  39.717  1.00  0.00     0.282 C 
ENDBRANCH   7   9
ENDBRANCH   1   7
BRANCH   6  11
ATOM     11  C   UNL     1       8.321  -8.259  41.630  1.00  0.00     0.338 C 
ATOM     12  O   UNL     1       9.506  -8.306  41.201  1.00  0.00    -0.246 OA
BRANCH  11  13
ATOM     13  O   UNL     1       7.484  -7.200  41.264  1.00  0.00    -0.465 OA
ATOM     14  C   UNL     1       7.542  -5.924  41.892  1.00  0.00     0.282 C 
ENDBRANCH  11  13
ENDBRANCH   6  11
TORSDOF 4
ENDMDL
MODEL 2
REMARK VINA RESULT:    -4.445      0.075      4.050
REMARK INTER + INTRA:          -5.818
REMARK INTER:                  -5.485
REMARK INTRA:                  -0.333
REMARK UNBOUND:                -0.333
REMARK SMILES COC(=O)c1ccccc1C(=O)OC
REMARK SMILES IDX 5 1 6 2 7 3 8 4 9 5 10 6 3 7 4 8 2 9 1 10 11 11 12 12 13 13
REMARK SMILES IDX 14 14
REMARK H PARENT
REMARK Flexibility Score: inf
ROOT
ATOM      1  C   UNL     1       7.784  -9.357  42.454  1.00  0.00     0.074 A 
ATOM      2  C   UNL     1       7.802  -9.168  43.848  1.00  0.00     0.016 A 
ATOM      3  C   UNL     1       7.220 -10.104  44.703  1.00  0.00     0.001 A 
ATOM      4  C   UNL     1       6.612 -11.244  44.180  1.00  0.00     0.001 A 
ATOM      5  C   UNL     1       6.602 -11.461  42.801  1.00  0.00     0.016 A 
ATOM      6  C   UNL     1       7.202 -10.541  41.923  1.00  0.00     0.074 A 
ENDROOT
BRANCH   1   7
ATOM      7  C   UNL     1       8.311  -8.272  41.594  1.00  0.00     0.338 C 
ATOM      8  O   UNL     1       9.504  -8.318  41.186  1.00  0.00    -0.246 OA
BRANCH   7   9
ATOM      9  O   UNL     1       7.504  -7.173  41.281  1.00  0.00    -0.465 OA
ATOM     10  C   UNL     1       7.575  -5.941  41.990  1.00  0.00     0.282 C 
ENDBRANCH   7   9
ENDBRANCH   1   7
BRANCH   6  11
ATOM     11  C   UNL     1       7.256 -10.890  40.486  1.00  0.00     0.338 C 
ATOM     12  O   UNL     1       6.316 -10.556  39.714  1.00  0.00    -0.246 OA
BRANCH  11  13
ATOM     13  O   UNL     1       8.383 -11.543  39.976  1.00  0.00    -0.465 OA
ATOM     14  C   UNL     1       8.465 -12.959  39.868  1.00  0.00     0.282 C 
ENDBRANCH  11  13
ENDBRANCH   6  11
TORSDOF 4
ENDMDL
MODEL 3
REMARK VINA RESULT:    -4.362      4.617      8.446
REMARK INTER + INTRA:          -5.715
REMARK INTER:                  -5.415
REMARK INTRA:                  -0.300
REMARK UNBOUND:                -0.333
REMARK SMILES COC(=O)c1ccccc1C(=O)OC
REMARK SMILES IDX 5 1 6 2 7 3 8 4 9 5 10 6 3 7 4 8 2 9 1 10 11 11 12 12 13 13
REMARK SMILES IDX 14 14
REMARK H PARENT
REMARK Flexibility Score: inf
ROOT
ATOM      1  C   UNL     1       8.645  -2.271  41.763  1.00  0.00     0.074 A 
ATOM      2  C   UNL     1       8.480  -1.325  40.735  1.00  0.00     0.016 A 
ATOM      3  C   UNL     1       7.987  -1.706  39.486  1.00  0.00     0.001 A 
ATOM      4  C   UNL     1       7.650  -3.036  39.246  1.00  0.00     0.001 A 
ATOM      5  C   UNL     1       7.784  -3.986  40.259  1.00  0.00     0.016 A 
ATOM      6  C   UNL     1       8.258  -3.620  41.531  1.00  0.00     0.074 A 
ENDROOT
BRANCH   1   7
ATOM      7  C   UNL     1       9.283  -1.829  43.024  1.00  0.00     0.338 C 
ATOM      8  O   UNL     1      10.541  -1.779  43.107  1.00  0.00    -0.246 OA
BRANCH   7   9
ATOM      9  O   UNL     1       8.494  -1.520  44.138  1.00  0.00    -0.465 OA
ATOM     10  C   UNL     1       8.938  -0.658  45.179  1.00  0.00     0.282 C 
ENDBRANCH   7   9
ENDBRANCH   1   7
BRANCH   6  11
ATOM     11  C   UNL     1       8.268  -4.653  42.591  1.00  0.00     0.338 C 
ATOM     12  O   UNL     1       7.257  -4.819  43.327  1.00  0.00    -0.246 OA
BRANCH  11  13
ATOM     13  O   UNL     1       9.385  -5.482  42.736  1.00  0.00    -0.465 OA
ATOM     14  C   UNL     1       9.280  -6.896  42.858  1.00  0.00     0.282 C 
ENDBRANCH  11  13
ENDBRANCH   6  11
TORSDOF 4
ENDMDL
MODEL 4
REMARK VINA RESULT:    -4.344      2.003      3.867
REMARK INTER + INTRA:          -5.693
REMARK INTER:                  -5.362
REMARK INTRA:                  -0.331
REMARK UNBOUND:                -0.333
REMARK SMILES COC(=O)c1ccccc1C(=O)OC
REMARK SMILES IDX 5 1 6 2 7 3 8 4 9 5 10 6 3 7 4 8 2 9 1 10 11 11 12 12 13 13
REMARK SMILES IDX 14 14
REMARK H PARENT
REMARK Flexibility Score: inf
ROOT
ATOM      1  C   UNL     1       6.850 -10.120  41.798  1.00  0.00     0.074 A 
ATOM      2  C   UNL     1       7.469  -8.900  41.469  1.00  0.00     0.016 A 
ATOM      3  C   UNL     1       8.084  -8.123  42.451  1.00  0.00     0.001 A 
ATOM      4  C   UNL     1       8.091  -8.551  43.777  1.00  0.00     0.001 A 
ATOM      5  C   UNL     1       7.502  -9.769  44.122  1.00  0.00     0.016 A 
ATOM      6  C   UNL     1       6.896 -10.578  43.144  1.00  0.00     0.074 A 
ENDROOT
BRANCH   1   7
ATOM      7  C   UNL     1       6.113 -10.839  40.735  1.00  0.00     0.338 C 
ATOM      8  O   UNL     1       4.883 -11.082  40.878  1.00  0.00    -0.246 OA
BRANCH   7   9
ATOM      9  O   UNL     1       6.790 -11.298  39.600  1.00  0.00    -0.465 OA
ATOM     10  C   UNL     1       7.886 -12.203  39.673  1.00  0.00     0.282 C 
ENDBRANCH   7   9
ENDBRANCH   1   7
BRANCH   6  11
ATOM     11  C   UNL     1       6.394 -11.906  43.559  1.00  0.00     0.338 C 
ATOM     12  O   UNL     1       5.276 -12.013  44.134  1.00  0.00    -0.246 OA
BRANCH  11  13
ATOM     13  O   UNL     1       7.140 -13.051  43.260  1.00  0.00    -0.465 OA
ATOM     14  C   UNL     1       6.577 -14.188  42.618  1.00  0.00     0.282 C 
ENDBRANCH  11  13
ENDBRANCH   6  11
TORSDOF 4
ENDMDL
MODEL 5
REMARK VINA RESULT:    -4.324      4.659      7.630
REMARK INTER + INTRA:          -5.669
REMARK INTER:                  -5.399
REMARK INTRA:                  -0.269
REMARK UNBOUND:                -0.333
REMARK SMILES COC(=O)c1ccccc1C(=O)OC
REMARK SMILES IDX 5 1 6 2 7 3 8 4 9 5 10 6 3 7 4 8 2 9 1 10 11 11 12 12 13 13
REMARK SMILES IDX 14 14
REMARK H PARENT
REMARK Flexibility Score: inf
ROOT
ATOM      1  C   UNL     1       8.569  -3.588  41.461  1.00  0.00     0.074 A 
ATOM      2  C   UNL     1       8.056  -3.930  40.196  1.00  0.00     0.016 A 
ATOM      3  C   UNL     1       7.656  -2.942  39.297  1.00  0.00     0.001 A 
ATOM      4  C   UNL     1       7.762  -1.597  39.645  1.00  0.00     0.001 A 
ATOM      5  C   UNL     1       8.289  -1.235  40.886  1.00  0.00     0.016 A 
ATOM      6  C   UNL     1       8.719  -2.215  41.799  1.00  0.00     0.074 A 
ENDROOT
BRANCH   1   7
ATOM      7  C   UNL     1       8.865  -4.682  42.415  1.00  0.00     0.338 C 
ATOM      8  O   UNL     1      10.051  -5.088  42.557  1.00  0.00    -0.246 OA
BRANCH   7   9
ATOM      9  O   UNL     1       7.824  -5.299  43.116  1.00  0.00    -0.465 OA
ATOM     10  C   UNL     1       7.933  -6.611  43.656  1.00  0.00     0.282 C 
ENDBRANCH   7   9
ENDBRANCH   1   7
BRANCH   6  11
ATOM     11  C   UNL     1       9.372  -1.760  43.047  1.00  0.00     0.338 C 
ATOM     12  O   UNL     1      10.614  -1.539  43.072  1.00  0.00    -0.246 OA
BRANCH  11  13
ATOM     13  O   UNL     1       8.594  -1.522  44.185  1.00  0.00    -0.465 OA
ATOM     14  C   UNL     1       8.820  -0.416  45.051  1.00  0.00     0.282 C 
ENDBRANCH  11  13
ENDBRANCH   6  11
TORSDOF 4
ENDMDL
MODEL 6
REMARK VINA RESULT:    -4.314      5.458      7.423
REMARK INTER + INTRA:          -5.655
REMARK INTER:                  -5.387
REMARK INTRA:                  -0.268
REMARK UNBOUND:                -0.333
REMARK SMILES COC(=O)c1ccccc1C(=O)OC
REMARK SMILES IDX 5 1 6 2 7 3 8 4 9 5 10 6 3 7 4 8 2 9 1 10 11 11 12 12 13 13
REMARK SMILES IDX 14 14
REMARK H PARENT
REMARK Flexibility Score: inf
ROOT
ATOM      1  C   UNL     1       8.281  -3.385  41.404  1.00  0.00     0.074 A 
ATOM      2  C   UNL     1       8.646  -2.884  42.667  1.00  0.00     0.016 A 
ATOM      3  C   UNL     1       8.907  -1.526  42.848  1.00  0.00     0.001 A 
ATOM      4  C   UNL     1       8.807  -0.646  41.772  1.00  0.00     0.001 A 
ATOM      5  C   UNL     1       8.425  -1.119  40.515  1.00  0.00     0.016 A 
ATOM      6  C   UNL     1       8.136  -2.481  40.316  1.00  0.00     0.074 A 
ENDROOT
BRANCH   1   7
ATOM      7  C   UNL     1       8.134  -4.851  41.249  1.00  0.00     0.338 C 
ATOM      8  O   UNL     1       7.205  -5.456  41.851  1.00  0.00    -0.246 OA
BRANCH   7   9
ATOM      9  O   UNL     1       9.056  -5.570  40.481  1.00  0.00    -0.465 OA
ATOM     10  C   UNL     1      10.459  -5.345  40.555  1.00  0.00     0.282 C 
ENDBRANCH   7   9
ENDBRANCH   1   7
BRANCH   6  11
ATOM     11  C   UNL     1       7.628  -2.894  38.989  1.00  0.00     0.338 C 
ATOM     12  O   UNL     1       6.440  -2.632  38.652  1.00  0.00    -0.246 OA
BRANCH  11  13
ATOM     13  O   UNL     1       8.489  -3.528  38.087  1.00  0.00    -0.465 OA
ATOM     14  C   UNL     1       8.136  -3.769  36.731  1.00  0.00     0.282 C 
ENDBRANCH  11  13
ENDBRANCH   6  11
TORSDOF 4
ENDMDL
MODEL 7
REMARK VINA RESULT:    -4.293      3.988      7.404
REMARK INTER + INTRA:          -5.629
REMARK INTER:                  -5.363
REMARK INTRA:                  -0.266
REMARK UNBOUND:                -0.333
REMARK SMILES COC(=O)c1ccccc1C(=O)OC
REMARK SMILES IDX 5 1 6 2 7 3 8 4 9 5 10 6 3 7 4 8 2 9 1 10 11 11 12 12 13 13
REMARK SMILES IDX 14 14
REMARK H PARENT
REMARK Flexibility Score: inf
ROOT
ATOM      1  C   UNL     1       8.223  -2.500  40.339  1.00  0.00     0.074 A 
ATOM      2  C   UNL     1       8.338  -1.168  40.777  1.00  0.00     0.016 A 
ATOM      3  C   UNL     1       8.679  -0.878  42.098  1.00  0.00     0.001 A 
ATOM      4  C   UNL     1       8.911  -1.913  43.002  1.00  0.00     0.001 A 
ATOM      5  C   UNL     1       8.825  -3.241  42.583  1.00  0.00     0.016 A 
ATOM      6  C   UNL     1       8.504  -3.556  41.250  1.00  0.00     0.074 A 
ENDROOT
BRANCH   1   7
ATOM      7  C   UNL     1       7.743  -2.744  38.959  1.00  0.00     0.338 C 
ATOM      8  O   UNL     1       6.519  -2.603  38.686  1.00  0.00    -0.246 OA
BRANCH   7   9
ATOM      9  O   UNL     1       8.634  -3.182  37.974  1.00  0.00    -0.465 OA
ATOM     10  C   UNL     1       8.207  -3.852  36.794  1.00  0.00     0.282 C 
ENDBRANCH   7   9
ENDBRANCH   1   7
BRANCH   6  11
ATOM     11  C   UNL     1       8.541  -4.979  40.846  1.00  0.00     0.338 C 
ATOM     12  O   UNL     1       9.529  -5.434  40.206  1.00  0.00    -0.246 OA
BRANCH  11  13
ATOM     13  O   UNL     1       7.500  -5.832  41.227  1.00  0.00    -0.465 OA
ATOM     14  C   UNL     1       7.721  -7.037  41.948  1.00  0.00     0.282 C 
ENDBRANCH  11  13
ENDBRANCH   6  11
TORSDOF 4
ENDMDL
MODEL 8
REMARK VINA RESULT:    -4.231     16.514     17.426
REMARK INTER + INTRA:          -5.553
REMARK INTER:                  -5.179
REMARK INTRA:                  -0.375
REMARK UNBOUND:                -0.333
REMARK SMILES COC(=O)c1ccccc1C(=O)OC
REMARK SMILES IDX 5 1 6 2 7 3 8 4 9 5 10 6 3 7 4 8 2 9 1 10 11 11 12 12 13 13
REMARK SMILES IDX 14 14
REMARK H PARENT
REMARK Flexibility Score: inf
ROOT
ATOM      1  C   UNL     1      24.138 -14.005  46.687  1.00  0.00     0.074 A 
ATOM      2  C   UNL     1      25.125 -13.216  47.306  1.00  0.00     0.016 A 
ATOM      3  C   UNL     1      24.919 -11.852  47.518  1.00  0.00     0.001 A 
ATOM      4  C   UNL     1      23.727 -11.255  47.115  1.00  0.00     0.001 A 
ATOM      5  C   UNL     1      22.726 -12.024  46.519  1.00  0.00     0.016 A 
ATOM      6  C   UNL     1      22.903 -13.405  46.317  1.00  0.00     0.074 A 
ENDROOT
BRANCH   1   7
ATOM      7  C   UNL     1      24.462 -15.418  46.383  1.00  0.00     0.338 C 
ATOM      8  O   UNL     1      25.101 -15.704  45.334  1.00  0.00    -0.246 OA
BRANCH   7   9
ATOM      9  O   UNL     1      24.012 -16.437  47.230  1.00  0.00    -0.465 OA
ATOM     10  C   UNL     1      24.898 -17.321  47.907  1.00  0.00     0.282 C 
ENDBRANCH   7   9
ENDBRANCH   1   7
BRANCH   6  11
ATOM     11  C   UNL     1      21.760 -14.179  45.786  1.00  0.00     0.338 C 
ATOM     12  O   UNL     1      20.798 -14.493  46.539  1.00  0.00    -0.246 OA
BRANCH  11  13
ATOM     13  O   UNL     1      21.724 -14.514  44.428  1.00  0.00    -0.465 OA
ATOM     14  C   UNL     1      21.687 -15.860  43.970  1.00  0.00     0.282 C 
ENDBRANCH  11  13
ENDBRANCH   6  11
TORSDOF 4
ENDMDL
MODEL 9
REMARK VINA RESULT:    -4.074      2.055      3.847
REMARK INTER + INTRA:          -5.360
REMARK INTER:                  -5.135
REMARK INTRA:                  -0.225
REMARK UNBOUND:                -0.333
REMARK SMILES COC(=O)c1ccccc1C(=O)OC
REMARK SMILES IDX 5 1 6 2 7 3 8 4 9 5 10 6 3 7 4 8 2 9 1 10 11 11 12 12 13 13
REMARK SMILES IDX 14 14
REMARK H PARENT
REMARK Flexibility Score: inf
ROOT
ATOM      1  C   UNL     1       6.878 -10.600  43.168  1.00  0.00     0.074 A 
ATOM      2  C   UNL     1       7.500  -9.804  44.146  1.00  0.00     0.016 A 
ATOM      3  C   UNL     1       8.117  -8.600  43.801  1.00  0.00     0.001 A 
ATOM      4  C   UNL     1       8.122  -8.174  42.475  1.00  0.00     0.001 A 
ATOM      5  C   UNL     1       7.491  -8.938  41.492  1.00  0.00     0.016 A 
ATOM      6  C   UNL     1       6.844 -10.143  41.821  1.00  0.00     0.074 A 
ENDROOT
BRANCH   1   7
ATOM      7  C   UNL     1       6.346 -11.921  43.575  1.00  0.00     0.338 C 
ATOM      8  O   UNL     1       5.240 -11.993  44.178  1.00  0.00    -0.246 OA
BRANCH   7   9
ATOM      9  O   UNL     1       7.094 -13.080  43.341  1.00  0.00    -0.465 OA
ATOM     10  C   UNL     1       6.684 -14.087  42.424  1.00  0.00     0.282 C 
ENDBRANCH   7   9
ENDBRANCH   1   7
BRANCH   6  11
ATOM     11  C   UNL     1       6.100 -10.844  40.752  1.00  0.00     0.338 C 
ATOM     12  O   UNL     1       4.875 -11.110  40.898  1.00  0.00    -0.246 OA
BRANCH  11  13
ATOM     13  O   UNL     1       6.748 -11.161  39.553  1.00  0.00    -0.465 OA
ATOM     14  C   UNL     1       6.753 -12.474  39.008  1.00  0.00     0.282 C 
ENDBRANCH  11  13
ENDBRANCH   6  11
TORSDOF 4
ENDMDL
