MODEL 1
REMARK VINA RESULT:    -3.733      0.000      0.000
REMARK INTER + INTRA:          -8.533
REMARK INTER:                  -6.788
REMARK INTRA:                  -1.746
REMARK UNBOUND:                -1.746
REMARK SMILES CCCCCCCCCCCCCCCC(=O)[O-]
REMARK SMILES IDX 9 1 10 2 11 3 12 4 13 5 14 6 15 7 16 8 17 9 18 10 8 11 7 12
REMARK SMILES IDX 6 13 5 14 4 15 3 16 2 17 1 18
REMARK H PARENT
REMARK Flexibility Score: inf
ROOT
ATOM      1  C   UNL     1      -5.217  93.513 -12.763  1.00  0.00     0.000 C 
ENDROOT
BRANCH   1   2
ATOM      2  C   UNL     1      -4.839  94.631 -11.774  1.00  0.00     0.000 C 
BRANCH   2   3
ATOM      3  C   UNL     1      -3.364  94.639 -11.322  1.00  0.00     0.000 C 
BRANCH   3   4
ATOM      4  C   UNL     1      -3.137  94.494  -9.807  1.00  0.00     0.000 C 
BRANCH   4   5
ATOM      5  C   UNL     1      -4.450  94.336  -9.019  1.00  0.00     0.000 C 
BRANCH   5   6
ATOM      6  C   UNL     1      -4.529  93.006  -8.246  1.00  0.00     0.006 C 
BRANCH   6   7
ATOM      7  C   UNL     1      -4.775  91.777  -9.140  1.00  0.00     0.053 C 
BRANCH   7   8
ATOM      8  C   UNL     1      -4.464  90.488  -8.446  1.00  0.00     0.041 C 
ATOM      9  O   UNL     1      -4.845  89.393  -8.940  1.00  0.00    -0.550 OA
ATOM     10  O   UNL     1      -3.767  90.493  -7.242  1.00  0.00    -0.550 OA
ENDBRANCH   7   8
ENDBRANCH   6   7
ENDBRANCH   5   6
ENDBRANCH   4   5
ENDBRANCH   3   4
ENDBRANCH   2   3
ENDBRANCH   1   2
BRANCH   1  11
ATOM     11  C   UNL     1      -4.001  92.700 -13.238  1.00  0.00     0.000 C 
BRANCH  11  12
ATOM     12  C   UNL     1      -4.058  91.232 -12.786  1.00  0.00    -0.000 C 
BRANCH  12  13
ATOM     13  C   UNL     1      -3.759  90.246 -13.925  1.00  0.00    -0.000 C 
BRANCH  13  14
ATOM     14  C   UNL     1      -4.346  90.748 -15.253  1.00  0.00    -0.000 C 
BRANCH  14  15
ATOM     15  C   UNL     1      -5.764  90.216 -15.515  1.00  0.00    -0.000 C 
BRANCH  15  16
ATOM     16  C   UNL     1      -6.104  88.989 -14.654  1.00  0.00    -0.000 C 
BRANCH  16  17
ATOM     17  C   UNL     1      -7.264  89.256 -13.680  1.00  0.00    -0.003 C 
ATOM     18  C   UNL     1      -6.936  88.857 -12.242  1.00  0.00     0.004 C 
ENDBRANCH  16  17
ENDBRANCH  15  16
ENDBRANCH  14  15
ENDBRANCH  13  14
ENDBRANCH  12  13
ENDBRANCH  11  12
ENDBRANCH   1  11
TORSDOF 14
ENDMDL
MODEL 2
REMARK VINA RESULT:    -3.639      1.591      5.762
REMARK INTER + INTRA:          -8.363
REMARK INTER:                  -6.637
REMARK INTRA:                  -1.726
REMARK UNBOUND:                -1.746
REMARK SMILES CCCCCCCCCCCCCCCC(=O)[O-]
REMARK SMILES IDX 9 1 10 2 11 3 12 4 13 5 14 6 15 7 16 8 17 9 18 10 8 11 7 12
REMARK SMILES IDX 6 13 5 14 4 15 3 16 2 17 1 18
REMARK H PARENT
REMARK Flexibility Score: inf
ROOT
ATOM      1  C   UNL     1      -3.998  92.892 -12.972  1.00  0.00     0.000 C 
ENDROOT
BRANCH   1   2
ATOM      2  C   UNL     1      -4.182  91.420 -12.561  1.00  0.00     0.000 C 
BRANCH   2   3
ATOM      3  C   UNL     1      -3.853  90.384 -13.656  1.00  0.00     0.000 C 
BRANCH   3   4
ATOM      4  C   UNL     1      -4.369  90.727 -15.065  1.00  0.00     0.000 C 
BRANCH   4   5
ATOM      5  C   UNL     1      -5.862  90.403 -15.249  1.00  0.00     0.000 C 
BRANCH   5   6
ATOM      6  C   UNL     1      -6.298  89.134 -14.493  1.00  0.00     0.006 C 
BRANCH   6   7
ATOM      7  C   UNL     1      -7.561  89.322 -13.632  1.00  0.00     0.053 C 
BRANCH   7   8
ATOM      8  C   UNL     1      -7.362  88.881 -12.215  1.00  0.00     0.041 C 
ATOM      9  O   UNL     1      -6.241  88.449 -11.837  1.00  0.00    -0.550 OA
ATOM     10  O   UNL     1      -8.420  88.928 -11.313  1.00  0.00    -0.550 OA
ENDBRANCH   7   8
ENDBRANCH   6   7
ENDBRANCH   5   6
ENDBRANCH   4   5
ENDBRANCH   3   4
ENDBRANCH   2   3
ENDBRANCH   1   2
BRANCH   1  11
ATOM     11  C   UNL     1      -5.144  93.795 -12.487  1.00  0.00     0.000 C 
BRANCH  11  12
ATOM     12  C   UNL     1      -4.643  95.007 -11.685  1.00  0.00    -0.000 C 
BRANCH  12  13
ATOM     13  C   UNL     1      -3.186  94.854 -11.224  1.00  0.00    -0.000 C 
BRANCH  13  14
ATOM     14  C   UNL     1      -3.118  94.479  -9.735  1.00  0.00    -0.000 C 
BRANCH  14  15
ATOM     15  C   UNL     1      -4.460  94.672  -9.012  1.00  0.00    -0.000 C 
BRANCH  15  16
ATOM     16  C   UNL     1      -4.893  93.424  -8.225  1.00  0.00    -0.000 C 
BRANCH  16  17
ATOM     17  C   UNL     1      -4.336  92.125  -8.829  1.00  0.00    -0.003 C 
ATOM     18  C   UNL     1      -4.138  91.024  -7.788  1.00  0.00     0.004 C 
ENDBRANCH  16  17
ENDBRANCH  15  16
ENDBRANCH  14  15
ENDBRANCH  13  14
ENDBRANCH  12  13
ENDBRANCH  11  12
ENDBRANCH   1  11
TORSDOF 14
ENDMDL
MODEL 3
REMARK VINA RESULT:    -3.606      3.202      6.433
REMARK INTER + INTRA:          -8.303
REMARK INTER:                  -6.479
REMARK INTRA:                  -1.824
REMARK UNBOUND:                -1.746
REMARK SMILES CCCCCCCCCCCCCCCC(=O)[O-]
REMARK SMILES IDX 9 1 10 2 11 3 12 4 13 5 14 6 15 7 16 8 17 9 18 10 8 11 7 12
REMARK SMILES IDX 6 13 5 14 4 15 3 16 2 17 1 18
REMARK H PARENT
REMARK Flexibility Score: inf
ROOT
ATOM      1  C   UNL     1      -5.043  93.513 -12.909  1.00  0.00     0.000 C 
ENDROOT
BRANCH   1   2
ATOM      2  C   UNL     1      -3.891  92.505 -13.076  1.00  0.00     0.000 C 
BRANCH   2   3
ATOM      3  C   UNL     1      -4.247  91.039 -12.753  1.00  0.00     0.000 C 
BRANCH   3   4
ATOM      4  C   UNL     1      -4.191  90.068 -13.946  1.00  0.00     0.000 C 
BRANCH   4   5
ATOM      5  C   UNL     1      -5.441  90.147 -14.840  1.00  0.00     0.000 C 
BRANCH   5   6
ATOM      6  C   UNL     1      -5.101  90.336 -16.331  1.00  0.00     0.006 C 
BRANCH   6   7
ATOM      7  C   UNL     1      -5.542  91.695 -16.905  1.00  0.00     0.053 C 
BRANCH   7   8
ATOM      8  C   UNL     1      -4.547  92.782 -16.640  1.00  0.00     0.041 C 
ATOM      9  O   UNL     1      -3.315  92.519 -16.602  1.00  0.00    -0.550 OA
ATOM     10  O   UNL     1      -4.979  94.085 -16.416  1.00  0.00    -0.550 OA
ENDBRANCH   7   8
ENDBRANCH   6   7
ENDBRANCH   5   6
ENDBRANCH   4   5
ENDBRANCH   3   4
ENDBRANCH   2   3
ENDBRANCH   1   2
BRANCH   1  11
ATOM     11  C   UNL     1      -4.760  94.567 -11.825  1.00  0.00     0.000 C 
BRANCH  11  12
ATOM     12  C   UNL     1      -3.272  94.643 -11.447  1.00  0.00    -0.000 C 
BRANCH  12  13
ATOM     13  C   UNL     1      -3.042  94.604  -9.928  1.00  0.00    -0.000 C 
BRANCH  13  14
ATOM     14  C   UNL     1      -4.323  94.185  -9.190  1.00  0.00    -0.000 C 
BRANCH  14  15
ATOM     15  C   UNL     1      -4.233  92.769  -8.600  1.00  0.00    -0.000 C 
BRANCH  15  16
ATOM     16  C   UNL     1      -5.180  91.777  -9.297  1.00  0.00    -0.000 C 
BRANCH  16  17
ATOM     17  C   UNL     1      -4.741  90.315  -9.111  1.00  0.00    -0.003 C 
ATOM     18  C   UNL     1      -4.145  90.045  -7.730  1.00  0.00     0.004 C 
ENDBRANCH  16  17
ENDBRANCH  15  16
ENDBRANCH  14  15
ENDBRANCH  13  14
ENDBRANCH  12  13
ENDBRANCH  11  12
ENDBRANCH   1  11
TORSDOF 14
ENDMDL
MODEL 4
REMARK VINA RESULT:    -3.583      2.341      4.631
REMARK INTER + INTRA:          -8.262
REMARK INTER:                  -5.763
REMARK INTRA:                  -2.499
REMARK UNBOUND:                -1.746
REMARK SMILES CCCCCCCCCCCCCCCC(=O)[O-]
REMARK SMILES IDX 9 1 10 2 11 3 12 4 13 5 14 6 15 7 16 8 17 9 18 10 8 11 7 12
REMARK SMILES IDX 6 13 5 14 4 15 3 16 2 17 1 18
REMARK H PARENT
REMARK Flexibility Score: inf
ROOT
ATOM      1  C   UNL     1      -4.606  94.605  -9.026  1.00  0.00     0.000 C 
ENDROOT
BRANCH   1   2
ATOM      2  C   UNL     1      -3.252  94.412  -9.733  1.00  0.00     0.000 C 
BRANCH   2   3
ATOM      3  C   UNL     1      -3.271  94.621 -11.261  1.00  0.00     0.000 C 
BRANCH   3   4
ATOM      4  C   UNL     1      -4.669  94.672 -11.903  1.00  0.00     0.000 C 
BRANCH   4   5
ATOM      5  C   UNL     1      -5.131  93.305 -12.437  1.00  0.00     0.000 C 
BRANCH   5   6
ATOM      6  C   UNL     1      -3.965  92.433 -12.942  1.00  0.00     0.006 C 
BRANCH   6   7
ATOM      7  C   UNL     1      -3.929  92.261 -14.471  1.00  0.00     0.053 C 
BRANCH   7   8
ATOM      8  C   UNL     1      -3.899  90.823 -14.889  1.00  0.00     0.041 C 
ATOM      9  O   UNL     1      -3.438  89.947 -14.109  1.00  0.00    -0.550 OA
ATOM     10  O   UNL     1      -4.363  90.450 -16.145  1.00  0.00    -0.550 OA
ENDBRANCH   7   8
ENDBRANCH   6   7
ENDBRANCH   5   6
ENDBRANCH   4   5
ENDBRANCH   3   4
ENDBRANCH   2   3
ENDBRANCH   1   2
BRANCH   1  11
ATOM     11  C   UNL     1      -5.145  93.306  -8.404  1.00  0.00     0.000 C 
BRANCH  11  12
ATOM     12  C   UNL     1      -4.215  92.106  -8.640  1.00  0.00    -0.000 C 
BRANCH  12  13
ATOM     13  C   UNL     1      -4.884  90.984  -9.448  1.00  0.00    -0.000 C 
BRANCH  13  14
ATOM     14  C   UNL     1      -6.372  91.289  -9.682  1.00  0.00    -0.000 C 
BRANCH  14  15
ATOM     15  C   UNL     1      -7.041  90.287 -10.636  1.00  0.00    -0.000 C 
BRANCH  15  16
ATOM     16  C   UNL     1      -6.074  89.753 -11.706  1.00  0.00    -0.000 C 
BRANCH  16  17
ATOM     17  C   UNL     1      -6.795  89.356 -13.005  1.00  0.00    -0.003 C 
ATOM     18  C   UNL     1      -7.362  90.557 -13.761  1.00  0.00     0.004 C 
ENDBRANCH  16  17
ENDBRANCH  15  16
ENDBRANCH  14  15
ENDBRANCH  13  14
ENDBRANCH  12  13
ENDBRANCH  11  12
ENDBRANCH   1  11
TORSDOF 14
ENDMDL
MODEL 5
REMARK VINA RESULT:    -3.576      1.174      2.421
REMARK INTER + INTRA:          -8.249
REMARK INTER:                  -6.214
REMARK INTRA:                  -2.035
REMARK UNBOUND:                -1.746
REMARK SMILES CCCCCCCCCCCCCCCC(=O)[O-]
REMARK SMILES IDX 9 1 10 2 11 3 12 4 13 5 14 6 15 7 16 8 17 9 18 10 8 11 7 12
REMARK SMILES IDX 6 13 5 14 4 15 3 16 2 17 1 18
REMARK H PARENT
REMARK Flexibility Score: inf
ROOT
ATOM      1  C   UNL     1      -3.879  92.718 -12.939  1.00  0.00     0.000 C 
ENDROOT
BRANCH   1   2
ATOM      2  C   UNL     1      -5.014  93.740 -12.749  1.00  0.00     0.000 C 
BRANCH   2   3
ATOM      3  C   UNL     1      -4.826  94.722 -11.574  1.00  0.00     0.000 C 
BRANCH   3   4
ATOM      4  C   UNL     1      -3.383  94.867 -11.059  1.00  0.00     0.000 C 
BRANCH   4   5
ATOM      5  C   UNL     1      -3.205  94.335  -9.626  1.00  0.00     0.000 C 
BRANCH   5   6
ATOM      6  C   UNL     1      -4.442  93.575  -9.110  1.00  0.00     0.006 C 
BRANCH   6   7
ATOM      7  C   UNL     1      -4.105  92.324  -8.278  1.00  0.00     0.053 C 
BRANCH   7   8
ATOM      8  C   UNL     1      -4.973  91.154  -8.622  1.00  0.00     0.041 C 
ATOM      9  O   UNL     1      -4.455  90.034  -8.879  1.00  0.00    -0.550 OA
ATOM     10  O   UNL     1      -6.355  91.300  -8.677  1.00  0.00    -0.550 OA
ENDBRANCH   7   8
ENDBRANCH   6   7
ENDBRANCH   5   6
ENDBRANCH   4   5
ENDBRANCH   3   4
ENDBRANCH   2   3
ENDBRANCH   1   2
BRANCH   1  11
ATOM     11  C   UNL     1      -4.184  91.359 -12.285  1.00  0.00     0.000 C 
BRANCH  11  12
ATOM     12  C   UNL     1      -5.692  91.086 -12.165  1.00  0.00    -0.000 C 
BRANCH  12  13
ATOM     13  C   UNL     1      -6.061  89.633 -12.499  1.00  0.00    -0.000 C 
BRANCH  13  14
ATOM     14  C   UNL     1      -5.385  89.180 -13.802  1.00  0.00    -0.000 C 
BRANCH  14  15
ATOM     15  C   UNL     1      -6.074  89.744 -15.055  1.00  0.00    -0.000 C 
BRANCH  15  16
ATOM     16  C   UNL     1      -5.070  90.207 -16.124  1.00  0.00    -0.000 C 
BRANCH  16  17
ATOM     17  C   UNL     1      -5.400  91.604 -16.675  1.00  0.00    -0.003 C 
ATOM     18  C   UNL     1      -4.233  92.583 -16.549  1.00  0.00     0.004 C 
ENDBRANCH  16  17
ENDBRANCH  15  16
ENDBRANCH  14  15
ENDBRANCH  13  14
ENDBRANCH  12  13
ENDBRANCH  11  12
ENDBRANCH   1  11
TORSDOF 14
ENDMDL
MODEL 6
REMARK VINA RESULT:    -3.548      1.070      2.548
REMARK INTER + INTRA:          -8.198
REMARK INTER:                  -6.337
REMARK INTRA:                  -1.861
REMARK UNBOUND:                -1.746
REMARK SMILES CCCCCCCCCCCCCCCC(=O)[O-]
REMARK SMILES IDX 9 1 10 2 11 3 12 4 13 5 14 6 15 7 16 8 17 9 18 10 8 11 7 12
REMARK SMILES IDX 6 13 5 14 4 15 3 16 2 17 1 18
REMARK H PARENT
REMARK Flexibility Score: inf
ROOT
ATOM      1  C   UNL     1      -3.250  94.583 -11.289  1.00  0.00     0.000 C 
ENDROOT
BRANCH   1   2
ATOM      2  C   UNL     1      -3.215  94.513  -9.752  1.00  0.00     0.000 C 
BRANCH   2   3
ATOM      3  C   UNL     1      -4.571  94.737  -9.051  1.00  0.00     0.000 C 
BRANCH   3   4
ATOM      4  C   UNL     1      -5.101  93.539  -8.243  1.00  0.00     0.000 C 
BRANCH   4   5
ATOM      5  C   UNL     1      -4.273  92.260  -8.457  1.00  0.00     0.000 C 
BRANCH   5   6
ATOM      6  C   UNL     1      -5.114  90.975  -8.342  1.00  0.00     0.006 C 
BRANCH   6   7
ATOM      7  C   UNL     1      -4.387  89.706  -8.824  1.00  0.00     0.053 C 
BRANCH   7   8
ATOM      8  C   UNL     1      -4.137  88.730  -7.717  1.00  0.00     0.041 C 
ATOM      9  O   UNL     1      -3.479  89.079  -6.700  1.00  0.00    -0.550 OA
ATOM     10  O   UNL     1      -4.615  87.427  -7.812  1.00  0.00    -0.550 OA
ENDBRANCH   7   8
ENDBRANCH   6   7
ENDBRANCH   5   6
ENDBRANCH   4   5
ENDBRANCH   3   4
ENDBRANCH   2   3
ENDBRANCH   1   2
BRANCH   1  11
ATOM     11  C   UNL     1      -4.678  94.695 -11.849  1.00  0.00     0.000 C 
BRANCH  11  12
ATOM     12  C   UNL     1      -5.028  93.548 -12.811  1.00  0.00    -0.000 C 
BRANCH  12  13
ATOM     13  C   UNL     1      -3.909  92.501 -12.921  1.00  0.00    -0.000 C 
BRANCH  13  14
ATOM     14  C   UNL     1      -4.297  91.204 -12.195  1.00  0.00    -0.000 C 
BRANCH  14  15
ATOM     15  C   UNL     1      -5.790  90.867 -12.338  1.00  0.00    -0.000 C 
BRANCH  15  16
ATOM     16  C   UNL     1      -6.034  89.381 -12.650  1.00  0.00    -0.000 C 
BRANCH  16  17
ATOM     17  C   UNL     1      -6.627  89.164 -14.052  1.00  0.00    -0.003 C 
ATOM     18  C   UNL     1      -5.777  89.787 -15.159  1.00  0.00     0.004 C 
ENDBRANCH  16  17
ENDBRANCH  15  16
ENDBRANCH  14  15
ENDBRANCH  13  14
ENDBRANCH  12  13
ENDBRANCH  11  12
ENDBRANCH   1  11
TORSDOF 14
ENDMDL
MODEL 7
REMARK VINA RESULT:    -3.512      1.148      2.370
REMARK INTER + INTRA:          -8.133
REMARK INTER:                  -6.388
REMARK INTRA:                  -1.745
REMARK UNBOUND:                -1.746
REMARK SMILES CCCCCCCCCCCCCCCC(=O)[O-]
REMARK SMILES IDX 9 1 10 2 11 3 12 4 13 5 14 6 15 7 16 8 17 9 18 10 8 11 7 12
REMARK SMILES IDX 6 13 5 14 4 15 3 16 2 17 1 18
REMARK H PARENT
REMARK Flexibility Score: inf
ROOT
ATOM      1  C   UNL     1      -4.492  93.668 -12.030  1.00  0.00     0.000 C 
ENDROOT
BRANCH   1   2
ATOM      2  C   UNL     1      -3.388  94.519 -11.376  1.00  0.00     0.000 C 
BRANCH   2   3
ATOM      3  C   UNL     1      -3.286  94.401  -9.841  1.00  0.00     0.000 C 
BRANCH   3   4
ATOM      4  C   UNL     1      -4.604  94.609  -9.075  1.00  0.00     0.000 C 
BRANCH   4   5
ATOM      5  C   UNL     1      -5.018  93.376  -8.252  1.00  0.00     0.000 C 
BRANCH   5   6
ATOM      6  C   UNL     1      -4.070  92.178  -8.449  1.00  0.00     0.006 C 
BRANCH   6   7
ATOM      7  C   UNL     1      -4.730  90.963  -9.126  1.00  0.00     0.053 C 
BRANCH   7   8
ATOM      8  C   UNL     1      -4.562  89.702  -8.337  1.00  0.00     0.041 C 
ATOM      9  O   UNL     1      -5.089  88.629  -8.736  1.00  0.00    -0.550 OA
ATOM     10  O   UNL     1      -3.836  89.711  -7.150  1.00  0.00    -0.550 OA
ENDBRANCH   7   8
ENDBRANCH   6   7
ENDBRANCH   5   6
ENDBRANCH   4   5
ENDBRANCH   3   4
ENDBRANCH   2   3
ENDBRANCH   1   2
BRANCH   1  11
ATOM     11  C   UNL     1      -3.955  92.367 -12.650  1.00  0.00     0.000 C 
BRANCH  11  12
ATOM     12  C   UNL     1      -5.048  91.300 -12.823  1.00  0.00    -0.000 C 
BRANCH  12  13
ATOM     13  C   UNL     1      -4.596  90.124 -13.702  1.00  0.00    -0.000 C 
BRANCH  13  14
ATOM     14  C   UNL     1      -5.640  89.815 -14.786  1.00  0.00    -0.000 C 
BRANCH  14  15
ATOM     15  C   UNL     1      -5.199  90.275 -16.184  1.00  0.00    -0.000 C 
BRANCH  15  16
ATOM     16  C   UNL     1      -3.733  90.738 -16.220  1.00  0.00    -0.000 C 
BRANCH  16  17
ATOM     17  C   UNL     1      -3.582  92.174 -16.749  1.00  0.00    -0.003 C 
ATOM     18  C   UNL     1      -4.630  93.129 -16.180  1.00  0.00     0.004 C 
ENDBRANCH  16  17
ENDBRANCH  15  16
ENDBRANCH  14  15
ENDBRANCH  13  14
ENDBRANCH  12  13
ENDBRANCH  11  12
ENDBRANCH   1  11
TORSDOF 14
ENDMDL
MODEL 8
REMARK VINA RESULT:    -3.498      1.642      5.394
REMARK INTER + INTRA:          -8.107
REMARK INTER:                  -5.922
REMARK INTRA:                  -2.184
REMARK UNBOUND:                -1.746
REMARK SMILES CCCCCCCCCCCCCCCC(=O)[O-]
REMARK SMILES IDX 9 1 10 2 11 3 12 4 13 5 14 6 15 7 16 8 17 9 18 10 8 11 7 12
REMARK SMILES IDX 6 13 5 14 4 15 3 16 2 17 1 18
REMARK H PARENT
REMARK Flexibility Score: inf
ROOT
ATOM      1  C   UNL     1      -5.169  93.420 -12.494  1.00  0.00     0.000 C 
ENDROOT
BRANCH   1   2
ATOM      2  C   UNL     1      -3.981  92.674 -13.128  1.00  0.00     0.000 C 
BRANCH   2   3
ATOM      3  C   UNL     1      -3.959  91.149 -12.893  1.00  0.00     0.000 C 
BRANCH   3   4
ATOM      4  C   UNL     1      -4.027  90.284 -14.164  1.00  0.00     0.000 C 
BRANCH   4   5
ATOM      5  C   UNL     1      -5.334  89.480 -14.270  1.00  0.00     0.000 C 
BRANCH   5   6
ATOM      6  C   UNL     1      -5.957  89.163 -12.897  1.00  0.00     0.006 C 
BRANCH   6   7
ATOM      7  C   UNL     1      -7.496  89.219 -12.881  1.00  0.00     0.053 C 
BRANCH   7   8
ATOM      8  C   UNL     1      -8.067  88.950 -11.523  1.00  0.00     0.041 C 
ATOM      9  O   UNL     1      -9.218  89.368 -11.226  1.00  0.00    -0.550 OA
ATOM     10  O   UNL     1      -7.323  88.254 -10.577  1.00  0.00    -0.550 OA
ENDBRANCH   7   8
ENDBRANCH   6   7
ENDBRANCH   5   6
ENDBRANCH   4   5
ENDBRANCH   3   4
ENDBRANCH   2   3
ENDBRANCH   1   2
BRANCH   1  11
ATOM     11  C   UNL     1      -4.745  94.704 -11.760  1.00  0.00     0.000 C 
BRANCH  11  12
ATOM     12  C   UNL     1      -3.287  94.655 -11.278  1.00  0.00    -0.000 C 
BRANCH  12  13
ATOM     13  C   UNL     1      -3.169  94.453  -9.759  1.00  0.00    -0.000 C 
BRANCH  13  14
ATOM     14  C   UNL     1      -4.508  94.739  -9.062  1.00  0.00    -0.000 C 
BRANCH  14  15
ATOM     15  C   UNL     1      -5.030  93.537  -8.260  1.00  0.00    -0.000 C 
BRANCH  15  16
ATOM     16  C   UNL     1      -4.272  92.238  -8.581  1.00  0.00    -0.000 C 
BRANCH  16  17
ATOM     17  C   UNL     1      -5.123  91.244  -9.389  1.00  0.00    -0.003 C 
ATOM     18  C   UNL     1      -6.574  91.697  -9.548  1.00  0.00     0.004 C 
ENDBRANCH  16  17
ENDBRANCH  15  16
ENDBRANCH  14  15
ENDBRANCH  13  14
ENDBRANCH  12  13
ENDBRANCH  11  12
ENDBRANCH   1  11
TORSDOF 14
ENDMDL
MODEL 9
REMARK VINA RESULT:    -3.495      3.257      5.904
REMARK INTER + INTRA:          -8.102
REMARK INTER:                  -6.153
REMARK INTRA:                  -1.949
REMARK UNBOUND:                -1.746
REMARK SMILES CCCCCCCCCCCCCCCC(=O)[O-]
REMARK SMILES IDX 9 1 10 2 11 3 12 4 13 5 14 6 15 7 16 8 17 9 18 10 8 11 7 12
REMARK SMILES IDX 6 13 5 14 4 15 3 16 2 17 1 18
REMARK H PARENT
REMARK Flexibility Score: inf
ROOT
ATOM      1  C   UNL     1      -3.362  94.855 -11.111  1.00  0.00     0.000 C 
ENDROOT
BRANCH   1   2
ATOM      2  C   UNL     1      -3.651  93.627 -11.993  1.00  0.00     0.000 C 
BRANCH   2   3
ATOM      3  C   UNL     1      -4.980  93.676 -12.775  1.00  0.00     0.000 C 
BRANCH   3   4
ATOM      4  C   UNL     1      -5.135  92.616 -13.880  1.00  0.00     0.000 C 
BRANCH   4   5
ATOM      5  C   UNL     1      -3.989  91.590 -13.889  1.00  0.00     0.000 C 
BRANCH   5   6
ATOM      6  C   UNL     1      -4.377  90.262 -14.566  1.00  0.00     0.006 C 
BRANCH   6   7
ATOM      7  C   UNL     1      -5.509  90.396 -15.601  1.00  0.00     0.053 C 
BRANCH   7   8
ATOM      8  C   UNL     1      -4.997  90.673 -16.981  1.00  0.00     0.041 C 
ATOM      9  O   UNL     1      -3.759  90.657 -17.213  1.00  0.00    -0.550 OA
ATOM     10  O   UNL     1      -5.885  90.968 -18.010  1.00  0.00    -0.550 OA
ENDBRANCH   7   8
ENDBRANCH   6   7
ENDBRANCH   5   6
ENDBRANCH   4   5
ENDBRANCH   3   4
ENDBRANCH   2   3
ENDBRANCH   1   2
BRANCH   1  11
ATOM     11  C   UNL     1      -3.260  94.507  -9.616  1.00  0.00     0.000 C 
BRANCH  11  12
ATOM     12  C   UNL     1      -4.630  94.494  -8.918  1.00  0.00    -0.000 C 
BRANCH  12  13
ATOM     13  C   UNL     1      -4.782  93.328  -7.930  1.00  0.00    -0.000 C 
BRANCH  13  14
ATOM     14  C   UNL     1      -4.524  91.982  -8.625  1.00  0.00    -0.000 C 
BRANCH  14  15
ATOM     15  C   UNL     1      -5.663  91.574  -9.572  1.00  0.00    -0.000 C 
BRANCH  15  16
ATOM     16  C   UNL     1      -5.234  90.502 -10.587  1.00  0.00    -0.000 C 
BRANCH  16  17
ATOM     17  C   UNL     1      -6.402  90.016 -11.460  1.00  0.00    -0.003 C 
ATOM     18  C   UNL     1      -6.707  88.531 -11.270  1.00  0.00     0.004 C 
ENDBRANCH  16  17
ENDBRANCH  15  16
ENDBRANCH  14  15
ENDBRANCH  13  14
ENDBRANCH  12  13
ENDBRANCH  11  12
ENDBRANCH   1  11
TORSDOF 14
ENDMDL
