MODEL 1
REMARK VINA RESULT:    -5.900      0.000      0.000
REMARK INTER + INTRA:          -6.072
REMARK INTER:                  -6.072
REMARK INTRA:                   0.000
REMARK UNBOUND:                 0.000
REMARK SMILES C=C1[C@H](O)C[C@]23C[C@H]1C(C)(C)[C@@H]2CC[C@H]3C
REMARK SMILES IDX 16 1 15 2 14 3 13 4 12 5 6 6 7 7 8 8 9 9 10 10 11 11 2 12
REMARK SMILES IDX 1 13 3 14 5 15 4 16
REMARK H PARENT 4 17
REMARK Flexibility Score: inf
ROOT
ATOM      1  C   UNL     1     186.141 194.738 189.256  1.00  0.00     0.008 C 
ATOM      2  C   UNL     1     186.308 193.444 190.072  1.00  0.00    -0.008 C 
ATOM      3  C   UNL     1     187.802 193.151 190.423  1.00  0.00     0.004 C 
ATOM      4  C   UNL     1     188.246 191.916 189.598  1.00  0.00     0.005 C 
ATOM      5  C   UNL     1     187.129 191.799 188.584  1.00  0.00     0.002 C 
ATOM      6  C   UNL     1     185.855 192.158 189.336  1.00  0.00    -0.020 C 
ATOM      7  C   UNL     1     184.874 192.141 188.171  1.00  0.00     0.016 C 
ATOM      8  C   UNL     1     185.210 190.752 187.565  1.00  0.00     0.023 C 
ATOM      9  C   UNL     1     186.783 190.608 187.668  1.00  0.00    -0.025 C 
ATOM     10  C   UNL     1     187.404 190.795 186.263  1.00  0.00     0.012 C 
ATOM     11  C   UNL     1     187.313 189.266 188.234  1.00  0.00     0.012 C 
ATOM     12  C   UNL     1     184.500 189.724 188.415  1.00  0.00    -0.045 C 
ATOM     13  C   UNL     1     183.923 188.650 187.855  1.00  0.00     0.011 C 
ATOM     14  C   UNL     1     184.516 189.888 189.924  1.00  0.00     0.140 C 
ATOM     15  C   UNL     1     185.378 191.098 190.420  1.00  0.00     0.044 C 
ENDROOT
BRANCH  14  16
ATOM     16  O   UNL     1     183.200 189.979 190.413  1.00  0.00    -0.389 OA
ATOM     17  H   UNL     1     182.980 190.943 190.510  1.00  0.00     0.211 HD
ENDBRANCH  14  16
TORSDOF 1
ENDMDL
MODEL 2
REMARK VINA RESULT:    -5.764      2.203      3.908
REMARK INTER + INTRA:          -5.932
REMARK INTER:                  -5.932
REMARK INTRA:                   0.000
REMARK UNBOUND:                 0.000
REMARK SMILES C=C1[C@H](O)C[C@]23C[C@H]1C(C)(C)[C@@H]2CC[C@H]3C
REMARK SMILES IDX 16 1 15 2 14 3 13 4 12 5 6 6 7 7 8 8 9 9 10 10 11 11 2 12
REMARK SMILES IDX 1 13 3 14 5 15 4 16
REMARK H PARENT 4 17
REMARK Flexibility Score: inf
ROOT
ATOM      1  C   UNL     1     187.554 190.637 186.962  1.00  0.00     0.008 C 
ATOM      2  C   UNL     1     186.019 190.550 187.022  1.00  0.00    -0.008 C 
ATOM      3  C   UNL     1     185.365 191.892 187.487  1.00  0.00     0.004 C 
ATOM      4  C   UNL     1     184.782 191.665 188.905  1.00  0.00     0.005 C 
ATOM      5  C   UNL     1     185.433 190.359 189.306  1.00  0.00     0.002 C 
ATOM      6  C   UNL     1     185.473 189.516 188.039  1.00  0.00    -0.020 C 
ATOM      7  C   UNL     1     186.272 188.330 188.563  1.00  0.00     0.016 C 
ATOM      8  C   UNL     1     185.455 188.008 189.844  1.00  0.00     0.023 C 
ATOM      9  C   UNL     1     185.053 189.410 190.459  1.00  0.00    -0.025 C 
ATOM     10  C   UNL     1     185.923 189.684 191.710  1.00  0.00     0.012 C 
ATOM     11  C   UNL     1     183.570 189.573 190.882  1.00  0.00     0.012 C 
ATOM     12  C   UNL     1     184.241 187.226 189.398  1.00  0.00    -0.045 C 
ATOM     13  C   UNL     1     183.782 186.197 190.126  1.00  0.00     0.011 C 
ATOM     14  C   UNL     1     183.501 187.674 188.151  1.00  0.00     0.140 C 
ATOM     15  C   UNL     1     184.064 188.994 187.520  1.00  0.00     0.044 C 
ENDROOT
BRANCH  14  16
ATOM     16  O   UNL     1     183.482 186.636 187.202  1.00  0.00    -0.389 OA
ATOM     17  H   UNL     1     183.002 186.970 186.399  1.00  0.00     0.211 HD
ENDBRANCH  14  16
TORSDOF 1
ENDMDL
MODEL 3
REMARK VINA RESULT:    -5.511      2.003      4.529
REMARK INTER + INTRA:          -5.672
REMARK INTER:                  -5.672
REMARK INTRA:                   0.000
REMARK UNBOUND:                 0.000
REMARK SMILES C=C1[C@H](O)C[C@]23C[C@H]1C(C)(C)[C@@H]2CC[C@H]3C
REMARK SMILES IDX 16 1 15 2 14 3 13 4 12 5 6 6 7 7 8 8 9 9 10 10 11 11 2 12
REMARK SMILES IDX 1 13 3 14 5 15 4 16
REMARK H PARENT 4 17
REMARK Flexibility Score: inf
ROOT
ATOM      1  C   UNL     1     182.642 187.523 191.142  1.00  0.00     0.008 C 
ATOM      2  C   UNL     1     183.433 187.517 189.822  1.00  0.00    -0.008 C 
ATOM      3  C   UNL     1     184.597 186.474 189.831  1.00  0.00     0.004 C 
ATOM      4  C   UNL     1     185.933 187.259 189.871  1.00  0.00     0.005 C 
ATOM      5  C   UNL     1     185.466 188.651 190.238  1.00  0.00     0.002 C 
ATOM      6  C   UNL     1     184.152 188.851 189.498  1.00  0.00    -0.020 C 
ATOM      7  C   UNL     1     183.750 190.201 190.078  1.00  0.00     0.016 C 
ATOM      8  C   UNL     1     185.062 190.994 189.831  1.00  0.00     0.023 C 
ATOM      9  C   UNL     1     186.239 189.982 190.138  1.00  0.00    -0.025 C 
ATOM     10  C   UNL     1     186.884 190.349 191.496  1.00  0.00     0.012 C 
ATOM     11  C   UNL     1     187.377 189.916 189.087  1.00  0.00     0.012 C 
ATOM     12  C   UNL     1     185.049 191.410 188.378  1.00  0.00    -0.045 C 
ATOM     13  C   UNL     1     185.497 192.619 188.007  1.00  0.00     0.011 C 
ATOM     14  C   UNL     1     184.592 190.407 187.335  1.00  0.00     0.140 C 
ATOM     15  C   UNL     1     184.270 188.989 187.919  1.00  0.00     0.044 C 
ENDROOT
BRANCH  14  16
ATOM     16  O   UNL     1     183.490 190.917 186.625  1.00  0.00    -0.389 OA
ATOM     17  H   UNL     1     183.776 191.764 186.192  1.00  0.00     0.211 HD
ENDBRANCH  14  16
TORSDOF 1
ENDMDL
MODEL 4
REMARK VINA RESULT:    -5.386      4.895      7.926
REMARK INTER + INTRA:          -5.543
REMARK INTER:                  -5.543
REMARK INTRA:                   0.000
REMARK UNBOUND:                 0.000
REMARK SMILES C=C1[C@H](O)C[C@]23C[C@H]1C(C)(C)[C@@H]2CC[C@H]3C
REMARK SMILES IDX 16 1 15 2 14 3 13 4 12 5 6 6 7 7 8 8 9 9 10 10 11 11 2 12
REMARK SMILES IDX 1 13 3 14 5 15 4 16
REMARK H PARENT 4 17
REMARK Flexibility Score: inf
ROOT
ATOM      1  C   UNL     1     186.427 194.723 189.618  1.00  0.00     0.008 C 
ATOM      2  C   UNL     1     187.282 196.002 189.586  1.00  0.00    -0.008 C 
ATOM      3  C   UNL     1     188.785 195.705 189.277  1.00  0.00     0.004 C 
ATOM      4  C   UNL     1     189.595 195.977 190.569  1.00  0.00     0.005 C 
ATOM      5  C   UNL     1     188.501 196.060 191.612  1.00  0.00     0.002 C 
ATOM      6  C   UNL     1     187.340 196.769 190.931  1.00  0.00    -0.020 C 
ATOM      7  C   UNL     1     186.297 196.640 192.034  1.00  0.00     0.016 C 
ATOM      8  C   UNL     1     187.116 197.185 193.236  1.00  0.00     0.023 C 
ATOM      9  C   UNL     1     188.581 196.617 193.047  1.00  0.00    -0.025 C 
ATOM     10  C   UNL     1     188.821 195.479 194.069  1.00  0.00     0.012 C 
ATOM     11  C   UNL     1     189.738 197.637 193.212  1.00  0.00     0.012 C 
ATOM     12  C   UNL     1     187.085 198.692 193.133  1.00  0.00    -0.045 C 
ATOM     13  C   UNL     1     186.967 199.452 194.232  1.00  0.00     0.011 C 
ATOM     14  C   UNL     1     187.267 199.335 191.771  1.00  0.00     0.140 C 
ATOM     15  C   UNL     1     187.566 198.312 190.622  1.00  0.00     0.044 C 
ENDROOT
BRANCH  14  16
ATOM     16  O   UNL     1     186.146 200.125 191.456  1.00  0.00    -0.389 OA
ATOM     17  H   UNL     1     185.691 200.355 192.308  1.00  0.00     0.211 HD
ENDBRANCH  14  16
TORSDOF 1
ENDMDL
MODEL 5
REMARK VINA RESULT:    -5.316      1.650      3.430
REMARK INTER + INTRA:          -5.472
REMARK INTER:                  -5.472
REMARK INTRA:                   0.000
REMARK UNBOUND:                 0.000
REMARK SMILES C=C1[C@H](O)C[C@]23C[C@H]1C(C)(C)[C@@H]2CC[C@H]3C
REMARK SMILES IDX 16 1 15 2 14 3 13 4 12 5 6 6 7 7 8 8 9 9 10 10 11 11 2 12
REMARK SMILES IDX 1 13 3 14 5 15 4 16
REMARK H PARENT 4 17
REMARK Flexibility Score: inf
ROOT
ATOM      1  C   UNL     1     185.271 189.846 186.167  1.00  0.00     0.008 C 
ATOM      2  C   UNL     1     184.673 190.620 187.355  1.00  0.00    -0.008 C 
ATOM      3  C   UNL     1     185.121 192.117 187.375  1.00  0.00     0.004 C 
ATOM      4  C   UNL     1     186.080 192.305 188.577  1.00  0.00     0.005 C 
ATOM      5  C   UNL     1     186.403 190.874 188.948  1.00  0.00     0.002 C 
ATOM      6  C   UNL     1     185.109 190.098 188.747  1.00  0.00    -0.020 C 
ATOM      7  C   UNL     1     185.628 188.690 189.007  1.00  0.00     0.016 C 
ATOM      8  C   UNL     1     186.348 188.922 190.363  1.00  0.00     0.023 C 
ATOM      9  C   UNL     1     187.046 190.337 190.241  1.00  0.00    -0.025 C 
ATOM     10  C   UNL     1     188.570 190.137 190.058  1.00  0.00     0.012 C 
ATOM     11  C   UNL     1     186.847 191.305 191.436  1.00  0.00     0.012 C 
ATOM     12  C   UNL     1     185.276 188.919 191.429  1.00  0.00    -0.045 C 
ATOM     13  C   UNL     1     185.494 188.341 192.620  1.00  0.00     0.011 C 
ATOM     14  C   UNL     1     183.975 189.650 191.156  1.00  0.00     0.140 C 
ATOM     15  C   UNL     1     183.952 190.415 189.789  1.00  0.00     0.044 C 
ENDROOT
BRANCH  14  16
ATOM     16  O   UNL     1     182.892 188.756 191.245  1.00  0.00    -0.389 OA
ATOM     17  H   UNL     1     182.315 189.055 191.996  1.00  0.00     0.211 HD
ENDBRANCH  14  16
TORSDOF 1
ENDMDL
MODEL 6
REMARK VINA RESULT:    -5.252      1.777      4.491
REMARK INTER + INTRA:          -5.405
REMARK INTER:                  -5.405
REMARK INTRA:                   0.000
REMARK UNBOUND:                 0.000
REMARK SMILES C=C1[C@H](O)C[C@]23C[C@H]1C(C)(C)[C@@H]2CC[C@H]3C
REMARK SMILES IDX 16 1 15 2 14 3 13 4 12 5 6 6 7 7 8 8 9 9 10 10 11 11 2 12
REMARK SMILES IDX 1 13 3 14 5 15 4 16
REMARK H PARENT 4 17
REMARK Flexibility Score: inf
ROOT
ATOM      1  C   UNL     1     186.124 186.245 189.995  1.00  0.00     0.008 C 
ATOM      2  C   UNL     1     184.917 187.183 190.169  1.00  0.00    -0.008 C 
ATOM      3  C   UNL     1     183.690 186.737 189.310  1.00  0.00     0.004 C 
ATOM      4  C   UNL     1     183.506 187.777 188.175  1.00  0.00     0.005 C 
ATOM      5  C   UNL     1     184.815 188.534 188.230  1.00  0.00     0.002 C 
ATOM      6  C   UNL     1     185.164 188.641 189.708  1.00  0.00    -0.020 C 
ATOM      7  C   UNL     1     186.544 189.276 189.584  1.00  0.00     0.016 C 
ATOM      8  C   UNL     1     186.204 190.463 188.642  1.00  0.00     0.023 C 
ATOM      9  C   UNL     1     185.168 189.891 187.591  1.00  0.00    -0.025 C 
ATOM     10  C   UNL     1     185.882 189.692 186.231  1.00  0.00     0.012 C 
ATOM     11  C   UNL     1     183.909 190.757 187.330  1.00  0.00     0.012 C 
ATOM     12  C   UNL     1     185.586 191.538 189.505  1.00  0.00    -0.045 C 
ATOM     13  C   UNL     1     185.868 192.833 189.296  1.00  0.00     0.011 C 
ATOM     14  C   UNL     1     184.579 191.134 190.566  1.00  0.00     0.140 C 
ATOM     15  C   UNL     1     184.234 189.605 190.562  1.00  0.00     0.044 C 
ENDROOT
BRANCH  14  16
ATOM     16  O   UNL     1     185.026 191.541 191.837  1.00  0.00    -0.389 OA
ATOM     17  H   UNL     1     185.704 190.882 192.142  1.00  0.00     0.211 HD
ENDBRANCH  14  16
TORSDOF 1
ENDMDL
MODEL 7
REMARK VINA RESULT:    -5.240      3.553      6.535
REMARK INTER + INTRA:          -5.394
REMARK INTER:                  -5.394
REMARK INTRA:                   0.000
REMARK UNBOUND:                 0.000
REMARK SMILES C=C1[C@H](O)C[C@]23C[C@H]1C(C)(C)[C@@H]2CC[C@H]3C
REMARK SMILES IDX 16 1 15 2 14 3 13 4 12 5 6 6 7 7 8 8 9 9 10 10 11 11 2 12
REMARK SMILES IDX 1 13 3 14 5 15 4 16
REMARK H PARENT 4 17
REMARK Flexibility Score: inf
ROOT
ATOM      1  C   UNL     1     185.396 192.907 189.299  1.00  0.00     0.008 C 
ATOM      2  C   UNL     1     186.894 193.213 189.477  1.00  0.00    -0.008 C 
ATOM      3  C   UNL     1     187.580 192.247 190.497  1.00  0.00     0.004 C 
ATOM      4  C   UNL     1     187.929 193.070 191.764  1.00  0.00     0.005 C 
ATOM      5  C   UNL     1     187.121 194.332 191.549  1.00  0.00     0.002 C 
ATOM      6  C   UNL     1     187.198 194.617 190.056  1.00  0.00    -0.020 C 
ATOM      7  C   UNL     1     186.236 195.797 189.987  1.00  0.00     0.016 C 
ATOM      8  C   UNL     1     186.828 196.686 191.114  1.00  0.00     0.023 C 
ATOM      9  C   UNL     1     187.249 195.689 192.269  1.00  0.00    -0.025 C 
ATOM     10  C   UNL     1     186.231 195.796 193.430  1.00  0.00     0.012 C 
ATOM     11  C   UNL     1     188.663 195.896 192.872  1.00  0.00     0.012 C 
ATOM     12  C   UNL     1     188.026 197.394 190.524  1.00  0.00    -0.045 C 
ATOM     13  C   UNL     1     188.287 198.673 190.832  1.00  0.00     0.011 C 
ATOM     14  C   UNL     1     188.974 196.609 189.637  1.00  0.00     0.140 C 
ATOM     15  C   UNL     1     188.619 195.086 189.522  1.00  0.00     0.044 C 
ENDROOT
BRANCH  14  16
ATOM     16  O   UNL     1     189.046 197.202 188.363  1.00  0.00    -0.389 OA
ATOM     17  H   UNL     1     189.799 196.777 187.875  1.00  0.00     0.211 HD
ENDBRANCH  14  16
TORSDOF 1
ENDMDL
MODEL 8
REMARK VINA RESULT:    -5.205      1.809      3.734
REMARK INTER + INTRA:          -5.358
REMARK INTER:                  -5.358
REMARK INTRA:                   0.000
REMARK UNBOUND:                 0.000
REMARK SMILES C=C1[C@H](O)C[C@]23C[C@H]1C(C)(C)[C@@H]2CC[C@H]3C
REMARK SMILES IDX 16 1 15 2 14 3 13 4 12 5 6 6 7 7 8 8 9 9 10 10 11 11 2 12
REMARK SMILES IDX 1 13 3 14 5 15 4 16
REMARK H PARENT 4 17
REMARK Flexibility Score: inf
ROOT
ATOM      1  C   UNL     1     183.540 189.170 190.898  1.00  0.00     0.008 C 
ATOM      2  C   UNL     1     185.062 189.024 190.731  1.00  0.00    -0.008 C 
ATOM      3  C   UNL     1     185.852 189.603 191.948  1.00  0.00     0.004 C 
ATOM      4  C   UNL     1     186.579 190.886 191.472  1.00  0.00     0.005 C 
ATOM      5  C   UNL     1     185.894 191.161 190.151  1.00  0.00     0.002 C 
ATOM      6  C   UNL     1     185.652 189.796 189.524  1.00  0.00    -0.020 C 
ATOM      7  C   UNL     1     184.842 190.229 188.308  1.00  0.00     0.016 C 
ATOM      8  C   UNL     1     185.779 191.333 187.748  1.00  0.00     0.023 C 
ATOM      9  C   UNL     1     186.341 192.100 189.013  1.00  0.00    -0.025 C 
ATOM     10  C   UNL     1     185.641 193.476 189.126  1.00  0.00     0.012 C 
ATOM     11  C   UNL     1     187.870 192.355 189.036  1.00  0.00     0.012 C 
ATOM     12  C   UNL     1     186.878 190.626 186.990  1.00  0.00    -0.045 C 
ATOM     13  C   UNL     1     187.349 191.126 185.838  1.00  0.00     0.011 C 
ATOM     14  C   UNL     1     187.497 189.380 187.596  1.00  0.00     0.140 C 
ATOM     15  C   UNL     1     186.953 189.032 189.024  1.00  0.00     0.044 C 
ENDROOT
BRANCH  14  16
ATOM     16  O   UNL     1     187.337 188.288 186.722  1.00  0.00    -0.389 OA
ATOM     17  H   UNL     1     186.528 187.789 187.009  1.00  0.00     0.211 HD
ENDBRANCH  14  16
TORSDOF 1
ENDMDL
MODEL 9
REMARK VINA RESULT:    -5.117      2.250      3.464
REMARK INTER + INTRA:          -5.267
REMARK INTER:                  -5.267
REMARK INTRA:                   0.000
REMARK UNBOUND:                 0.000
REMARK SMILES C=C1[C@H](O)C[C@]23C[C@H]1C(C)(C)[C@@H]2CC[C@H]3C
REMARK SMILES IDX 16 1 15 2 14 3 13 4 12 5 6 6 7 7 8 8 9 9 10 10 11 11 2 12
REMARK SMILES IDX 1 13 3 14 5 15 4 16
REMARK H PARENT 4 17
REMARK Flexibility Score: inf
ROOT
ATOM      1  C   UNL     1     184.264 191.072 187.377  1.00  0.00     0.008 C 
ATOM      2  C   UNL     1     184.103 190.922 188.900  1.00  0.00    -0.008 C 
ATOM      3  C   UNL     1     185.032 191.895 189.695  1.00  0.00     0.004 C 
ATOM      4  C   UNL     1     186.128 191.044 190.384  1.00  0.00     0.005 C 
ATOM      5  C   UNL     1     185.986 189.716 189.671  1.00  0.00     0.002 C 
ATOM      6  C   UNL     1     184.491 189.528 189.453  1.00  0.00    -0.020 C 
ATOM      7  C   UNL     1     184.528 188.256 188.614  1.00  0.00     0.016 C 
ATOM      8  C   UNL     1     185.434 187.373 189.515  1.00  0.00     0.023 C 
ATOM      9  C   UNL     1     186.552 188.341 190.078  1.00  0.00    -0.025 C 
ATOM     10  C   UNL     1     187.886 188.055 189.348  1.00  0.00     0.012 C 
ATOM     11  C   UNL     1     186.830 188.254 191.601  1.00  0.00     0.012 C 
ATOM     12  C   UNL     1     184.553 186.836 190.619  1.00  0.00    -0.045 C 
ATOM     13  C   UNL     1     184.696 185.577 191.060  1.00  0.00     0.011 C 
ATOM     14  C   UNL     1     183.555 187.770 191.277  1.00  0.00     0.140 C 
ATOM     15  C   UNL     1     183.638 189.249 190.764  1.00  0.00     0.044 C 
ENDROOT
BRANCH  14  16
ATOM     16  O   UNL     1     182.250 187.264 191.130  1.00  0.00    -0.389 OA
ATOM     17  H   UNL     1     181.791 187.810 190.440  1.00  0.00     0.211 HD
ENDBRANCH  14  16
TORSDOF 1
ENDMDL
