MODEL 1
REMARK VINA RESULT:    -3.476      0.000      0.000
REMARK INTER + INTRA:          -4.398
REMARK INTER:                  -4.288
REMARK INTRA:                  -0.110
REMARK UNBOUND:                -0.110
REMARK SMILES CCCCCC(=O)[O-]
REMARK SMILES IDX 4 1 5 2 6 3 7 4 8 5 3 6 2 7 1 8
REMARK H PARENT
REMARK Flexibility Score: inf
ROOT
ATOM      1  C   UNL     1      49.698  14.875  18.385  1.00  0.00     0.006 C 
ENDROOT
BRANCH   1   2
ATOM      2  C   UNL     1      48.805  13.635  18.489  1.00  0.00     0.053 C 
BRANCH   2   3
ATOM      3  C   UNL     1      49.410  12.490  17.739  1.00  0.00     0.041 C 
ATOM      4  O   UNL     1      49.615  12.581  16.501  1.00  0.00    -0.550 OA
ATOM      5  O   UNL     1      49.794  11.340  18.418  1.00  0.00    -0.550 OA
ENDBRANCH   2   3
ENDBRANCH   1   2
BRANCH   1   6
ATOM      6  C   UNL     1      49.507  15.794  19.598  1.00  0.00     0.000 C 
BRANCH   6   7
ATOM      7  C   UNL     1      48.194  15.480  20.325  1.00  0.00    -0.003 C 
ATOM      8  C   UNL     1      48.220  16.003  21.759  1.00  0.00     0.004 C 
ENDBRANCH   6   7
ENDBRANCH   1   6
TORSDOF 4
ENDMDL
MODEL 2
REMARK VINA RESULT:    -3.413      2.973      4.312
REMARK INTER + INTRA:          -4.321
REMARK INTER:                  -4.219
REMARK INTRA:                  -0.102
REMARK UNBOUND:                -0.110
REMARK SMILES CCCCCC(=O)[O-]
REMARK SMILES IDX 4 1 5 2 6 3 7 4 8 5 3 6 2 7 1 8
REMARK H PARENT
REMARK Flexibility Score: inf
ROOT
ATOM      1  C   UNL     1      48.584  13.462  18.560  1.00  0.00     0.006 C 
ENDROOT
BRANCH   1   2
ATOM      2  C   UNL     1      48.788  14.787  19.301  1.00  0.00     0.053 C 
BRANCH   2   3
ATOM      3  C   UNL     1      47.733  14.970  20.346  1.00  0.00     0.041 C 
ATOM      4  O   UNL     1      47.442  16.123  20.757  1.00  0.00    -0.550 OA
ATOM      5  O   UNL     1      47.037  13.870  20.831  1.00  0.00    -0.550 OA
ENDBRANCH   2   3
ENDBRANCH   1   2
BRANCH   1   6
ATOM      6  C   UNL     1      49.444  13.402  17.292  1.00  0.00     0.000 C 
BRANCH   6   7
ATOM      7  C   UNL     1      48.622  13.772  16.051  1.00  0.00    -0.003 C 
ATOM      8  C   UNL     1      49.004  15.155  15.531  1.00  0.00     0.004 C 
ENDBRANCH   6   7
ENDBRANCH   1   6
TORSDOF 4
ENDMDL
MODEL 3
REMARK VINA RESULT:    -3.398      1.962      2.399
REMARK INTER + INTRA:          -4.302
REMARK INTER:                  -4.253
REMARK INTRA:                  -0.049
REMARK UNBOUND:                -0.110
REMARK SMILES CCCCCC(=O)[O-]
REMARK SMILES IDX 4 1 5 2 6 3 7 4 8 5 3 6 2 7 1 8
REMARK H PARENT
REMARK Flexibility Score: inf
ROOT
ATOM      1  C   UNL     1      49.367  14.732  18.141  1.00  0.00     0.006 C 
ENDROOT
BRANCH   1   2
ATOM      2  C   UNL     1      49.630  15.667  16.958  1.00  0.00     0.053 C 
BRANCH   2   3
ATOM      3  C   UNL     1      49.393  14.954  15.664  1.00  0.00     0.041 C 
ATOM      4  O   UNL     1      50.220  15.061  14.721  1.00  0.00    -0.550 OA
ATOM      5  O   UNL     1      48.284  14.132  15.517  1.00  0.00    -0.550 OA
ENDBRANCH   2   3
ENDBRANCH   1   2
BRANCH   1   6
ATOM      6  C   UNL     1      49.487  15.482  19.473  1.00  0.00     0.000 C 
BRANCH   6   7
ATOM      7  C   UNL     1      48.168  15.435  20.252  1.00  0.00    -0.003 C 
ATOM      8  C   UNL     1      48.332  16.025  21.650  1.00  0.00     0.004 C 
ENDBRANCH   6   7
ENDBRANCH   1   6
TORSDOF 4
ENDMDL
MODEL 4
REMARK VINA RESULT:    -3.382     17.208     18.355
REMARK INTER + INTRA:          -4.283
REMARK INTER:                  -4.073
REMARK INTRA:                  -0.210
REMARK UNBOUND:                -0.110
REMARK SMILES CCCCCC(=O)[O-]
REMARK SMILES IDX 4 1 5 2 6 3 7 4 8 5 3 6 2 7 1 8
REMARK H PARENT
REMARK Flexibility Score: inf
ROOT
ATOM      1  C   UNL     1      56.456  -2.002  19.494  1.00  0.00     0.006 C 
ENDROOT
BRANCH   1   2
ATOM      2  C   UNL     1      55.002  -1.714  19.110  1.00  0.00     0.053 C 
BRANCH   2   3
ATOM      3  C   UNL     1      54.189  -2.969  19.159  1.00  0.00     0.041 C 
ATOM      4  O   UNL     1      54.245  -3.798  18.214  1.00  0.00    -0.550 OA
ATOM      5  O   UNL     1      53.408  -3.247  20.274  1.00  0.00    -0.550 OA
ENDBRANCH   2   3
ENDBRANCH   1   2
BRANCH   1   6
ATOM      6  C   UNL     1      57.419  -1.526  18.400  1.00  0.00     0.000 C 
BRANCH   6   7
ATOM      7  C   UNL     1      58.058  -2.715  17.674  1.00  0.00    -0.003 C 
ATOM      8  C   UNL     1      57.825  -4.016  18.436  1.00  0.00     0.004 C 
ENDBRANCH   6   7
ENDBRANCH   1   6
TORSDOF 4
ENDMDL
MODEL 5
REMARK VINA RESULT:    -3.266      2.926      4.538
REMARK INTER + INTRA:          -4.140
REMARK INTER:                  -4.007
REMARK INTRA:                  -0.133
REMARK UNBOUND:                -0.110
REMARK SMILES CCCCCC(=O)[O-]
REMARK SMILES IDX 4 1 5 2 6 3 7 4 8 5 3 6 2 7 1 8
REMARK H PARENT
REMARK Flexibility Score: inf
ROOT
ATOM      1  C   UNL     1      49.448  12.868  15.398  1.00  0.00     0.006 C 
ENDROOT
BRANCH   1   2
ATOM      2  C   UNL     1      48.881  13.753  16.511  1.00  0.00     0.053 C 
BRANCH   2   3
ATOM      3  C   UNL     1      49.472  13.376  17.833  1.00  0.00     0.041 C 
ATOM      4  O   UNL     1      49.706  14.259  18.698  1.00  0.00    -0.550 OA
ATOM      5  O   UNL     1      49.718  12.041  18.127  1.00  0.00    -0.550 OA
ENDBRANCH   2   3
ENDBRANCH   1   2
BRANCH   1   6
ATOM      6  C   UNL     1      50.484  13.631  14.562  1.00  0.00     0.000 C 
BRANCH   6   7
ATOM      7  C   UNL     1      50.304  15.145  14.711  1.00  0.00    -0.003 C 
ATOM      8  C   UNL     1      51.340  15.907  13.889  1.00  0.00     0.004 C 
ENDBRANCH   6   7
ENDBRANCH   1   6
TORSDOF 4
ENDMDL
MODEL 6
REMARK VINA RESULT:    -3.185     10.929     12.054
REMARK INTER + INTRA:          -4.039
REMARK INTER:                  -3.908
REMARK INTRA:                  -0.131
REMARK UNBOUND:                -0.110
REMARK SMILES CCCCCC(=O)[O-]
REMARK SMILES IDX 4 1 5 2 6 3 7 4 8 5 3 6 2 7 1 8
REMARK H PARENT
REMARK Flexibility Score: inf
ROOT
ATOM      1  C   UNL     1      50.589   2.010  21.080  1.00  0.00     0.006 C 
ENDROOT
BRANCH   1   2
ATOM      2  C   UNL     1      50.525   3.264  20.202  1.00  0.00     0.053 C 
BRANCH   2   3
ATOM      3  C   UNL     1      51.663   3.282  19.231  1.00  0.00     0.041 C 
ATOM      4  O   UNL     1      52.337   2.239  19.025  1.00  0.00    -0.550 OA
ATOM      5  O   UNL     1      51.948   4.438  18.517  1.00  0.00    -0.550 OA
ENDBRANCH   2   3
ENDBRANCH   1   2
BRANCH   1   6
ATOM      6  C   UNL     1      49.186   1.567  21.511  1.00  0.00     0.000 C 
BRANCH   6   7
ATOM      7  C   UNL     1      48.115   2.147  20.579  1.00  0.00    -0.003 C 
ATOM      8  C   UNL     1      47.097   1.083  20.181  1.00  0.00     0.004 C 
ENDBRANCH   6   7
ENDBRANCH   1   6
TORSDOF 4
ENDMDL
MODEL 7
REMARK VINA RESULT:    -3.151      3.059      4.925
REMARK INTER + INTRA:          -3.998
REMARK INTER:                  -3.881
REMARK INTRA:                  -0.117
REMARK UNBOUND:                -0.110
REMARK SMILES CCCCCC(=O)[O-]
REMARK SMILES IDX 4 1 5 2 6 3 7 4 8 5 3 6 2 7 1 8
REMARK H PARENT
REMARK Flexibility Score: inf
ROOT
ATOM      1  C   UNL     1      49.442  14.606  15.938  1.00  0.00     0.006 C 
ENDROOT
BRANCH   1   2
ATOM      2  C   UNL     1      49.570  13.281  16.695  1.00  0.00     0.053 C 
BRANCH   2   3
ATOM      3  C   UNL     1      49.261  13.475  18.146  1.00  0.00     0.041 C 
ATOM      4  O   UNL     1      48.620  12.596  18.780  1.00  0.00    -0.550 OA
ATOM      5  O   UNL     1      49.723  14.604  18.810  1.00  0.00    -0.550 OA
ENDBRANCH   2   3
ENDBRANCH   1   2
BRANCH   1   6
ATOM      6  C   UNL     1      50.351  14.624  14.703  1.00  0.00     0.000 C 
BRANCH   6   7
ATOM      7  C   UNL     1      50.731  13.201  14.278  1.00  0.00    -0.003 C 
ATOM      8  C   UNL     1      51.993  13.201  13.420  1.00  0.00     0.004 C 
ENDBRANCH   6   7
ENDBRANCH   1   6
TORSDOF 4
ENDMDL
MODEL 8
REMARK VINA RESULT:    -3.132      4.932      6.276
REMARK INTER + INTRA:          -3.974
REMARK INTER:                  -3.830
REMARK INTRA:                  -0.144
REMARK UNBOUND:                -0.110
REMARK SMILES CCCCCC(=O)[O-]
REMARK SMILES IDX 4 1 5 2 6 3 7 4 8 5 3 6 2 7 1 8
REMARK H PARENT
REMARK Flexibility Score: inf
ROOT
ATOM      1  C   UNL     1      48.839   8.252  20.977  1.00  0.00     0.006 C 
ENDROOT
BRANCH   1   2
ATOM      2  C   UNL     1      50.002   7.329  20.603  1.00  0.00     0.053 C 
BRANCH   2   3
ATOM      3  C   UNL     1      50.757   7.883  19.437  1.00  0.00     0.041 C 
ATOM      4  O   UNL     1      51.485   7.132  18.738  1.00  0.00    -0.550 OA
ATOM      5  O   UNL     1      50.616   9.221  19.091  1.00  0.00    -0.550 OA
ENDBRANCH   2   3
ENDBRANCH   1   2
BRANCH   1   6
ATOM      6  C   UNL     1      47.555   7.847  20.243  1.00  0.00     0.000 C 
BRANCH   6   7
ATOM      7  C   UNL     1      46.476   8.926  20.385  1.00  0.00    -0.003 C 
ATOM      8  C   UNL     1      47.097  10.300  20.619  1.00  0.00     0.004 C 
ENDBRANCH   6   7
ENDBRANCH   1   6
TORSDOF 4
ENDMDL
MODEL 9
REMARK VINA RESULT:    -3.119      5.423      6.477
REMARK INTER + INTRA:          -3.958
REMARK INTER:                  -3.908
REMARK INTRA:                  -0.050
REMARK UNBOUND:                -0.110
REMARK SMILES CCCCCC(=O)[O-]
REMARK SMILES IDX 4 1 5 2 6 3 7 4 8 5 3 6 2 7 1 8
REMARK H PARENT
REMARK Flexibility Score: inf
ROOT
ATOM      1  C   UNL     1      49.220   8.129  20.592  1.00  0.00     0.006 C 
ENDROOT
BRANCH   1   2
ATOM      2  C   UNL     1      50.358   8.263  19.576  1.00  0.00     0.053 C 
BRANCH   2   3
ATOM      3  C   UNL     1      49.912   9.061  18.392  1.00  0.00     0.041 C 
ATOM      4  O   UNL     1      49.701   8.493  17.289  1.00  0.00    -0.550 OA
ATOM      5  O   UNL     1      49.680  10.425  18.521  1.00  0.00    -0.550 OA
ENDBRANCH   2   3
ENDBRANCH   1   2
BRANCH   1   6
ATOM      6  C   UNL     1      49.675   7.345  21.829  1.00  0.00     0.000 C 
BRANCH   6   7
ATOM      7  C   UNL     1      49.388   8.129  23.114  1.00  0.00    -0.003 C 
ATOM      8  C   UNL     1      50.097   7.502  24.312  1.00  0.00     0.004 C 
ENDBRANCH   6   7
ENDBRANCH   1   6
TORSDOF 4
ENDMDL
