MODEL 1
REMARK VINA RESULT:    -6.895      0.000      0.000
REMARK INTER + INTRA:          -8.370
REMARK INTER:                  -8.105
REMARK INTRA:                  -0.265
REMARK UNBOUND:                -0.265
REMARK SMILES O=c1cc(-c2ccc(O)c(O)c2)oc2cc(O)cc(O)c12
REMARK SMILES IDX 4 1 3 2 2 3 1 4 21 5 19 6 18 7 16 8 15 9 14 10 13 11 5 12
REMARK SMILES IDX 6 13 7 14 8 15 12 16 10 17 9 18 11 20 20 22 17 24
REMARK H PARENT 9 19 11 21 20 23 17 25
REMARK Flexibility Score: inf
ROOT
ATOM      1  C   UNL     1       7.185  52.540  21.254  1.00  0.00     0.138 A 
ATOM      2  C   UNL     1       6.992  51.745  20.111  1.00  0.00     0.100 A 
ATOM      3  C   UNL     1       5.983  52.077  19.207  1.00  0.00     0.197 A 
ATOM      4  O   UNL     1       5.818  51.360  18.184  1.00  0.00    -0.289 OA
ATOM      5  C   UNL     1       5.174  53.206  19.451  1.00  0.00     0.107 A 
ATOM      6  C   UNL     1       4.130  53.611  18.586  1.00  0.00     0.134 A 
ATOM      7  C   UNL     1       3.373  54.751  18.898  1.00  0.00     0.093 A 
ATOM      8  C   UNL     1       3.641  55.491  20.052  1.00  0.00     0.123 A 
ATOM      9  C   UNL     1       4.672  55.094  20.910  1.00  0.00     0.094 A 
ATOM     10  C   UNL     1       5.437  53.961  20.618  1.00  0.00     0.146 A 
ATOM     11  O   UNL     1       6.411  53.604  21.450  1.00  0.00    -0.456 OA
ENDROOT
BRANCH   1  12
ATOM     12  C   UNL     1       8.244  52.234  22.250  1.00  0.00     0.021 A 
ATOM     13  C   UNL     1       7.878  51.777  23.528  1.00  0.00     0.016 A 
ATOM     14  C   UNL     1       8.854  51.476  24.481  1.00  0.00     0.051 A 
ATOM     15  C   UNL     1      10.212  51.617  24.172  1.00  0.00     0.157 A 
ATOM     16  C   UNL     1       9.612  52.362  21.941  1.00  0.00     0.062 A 
ATOM     17  C   UNL     1      10.592  52.059  22.893  1.00  0.00     0.158 A 
BRANCH  15  18
ATOM     18  O   UNL     1      11.184  51.317  25.125  1.00  0.00    -0.504 OA
ATOM     19  H   UNL     1      12.118  51.030  24.857  1.00  0.00     0.293 HD
ENDBRANCH  15  18
BRANCH  17  20
ATOM     20  O   UNL     1      11.936  52.199  22.550  1.00  0.00    -0.504 OA
ATOM     21  H   UNL     1      12.555  52.828  23.046  1.00  0.00     0.293 HD
ENDBRANCH  17  20
ENDBRANCH   1  12
BRANCH   6  22
ATOM     22  O   UNL     1       3.839  52.893  17.426  1.00  0.00    -0.507 OA
ATOM     23  H   UNL     1       2.912  52.529  17.243  1.00  0.00     0.293 HD
ENDBRANCH   6  22
BRANCH   8  24
ATOM     24  O   UNL     1       2.875  56.619  20.337  1.00  0.00    -0.508 OA
ATOM     25  H   UNL     1       3.055  57.189  21.155  1.00  0.00     0.293 HD
ENDBRANCH   8  24
TORSDOF 5
ENDMDL
MODEL 2
REMARK VINA RESULT:    -6.882      1.488      2.766
REMARK INTER + INTRA:          -8.354
REMARK INTER:                  -8.054
REMARK INTRA:                  -0.301
REMARK UNBOUND:                -0.265
REMARK SMILES O=c1cc(-c2ccc(O)c(O)c2)oc2cc(O)cc(O)c12
REMARK SMILES IDX 4 1 3 2 2 3 1 4 21 5 19 6 18 7 16 8 15 9 14 10 13 11 5 12
REMARK SMILES IDX 6 13 7 14 8 15 12 16 10 17 9 18 11 20 20 22 17 24
REMARK H PARENT 9 19 11 21 20 23 17 25
REMARK Flexibility Score: inf
ROOT
ATOM      1  C   UNL     1       6.687  52.936  21.064  1.00  0.00     0.138 A 
ATOM      2  C   UNL     1       5.490  53.598  21.386  1.00  0.00     0.100 A 
ATOM      3  C   UNL     1       4.606  53.953  20.367  1.00  0.00     0.197 A 
ATOM      4  O   UNL     1       3.535  54.546  20.665  1.00  0.00    -0.289 OA
ATOM      5  C   UNL     1       4.924  53.639  19.030  1.00  0.00     0.107 A 
ATOM      6  C   UNL     1       4.084  53.963  17.938  1.00  0.00     0.134 A 
ATOM      7  C   UNL     1       4.470  53.609  16.636  1.00  0.00     0.093 A 
ATOM      8  C   UNL     1       5.674  52.939  16.407  1.00  0.00     0.123 A 
ATOM      9  C   UNL     1       6.508  52.617  17.483  1.00  0.00     0.094 A 
ATOM     10  C   UNL     1       6.142  52.961  18.787  1.00  0.00     0.146 A 
ATOM     11  O   UNL     1       6.952  52.645  19.793  1.00  0.00    -0.456 OA
ENDROOT
BRANCH   1  12
ATOM     12  C   UNL     1       7.664  52.534  22.107  1.00  0.00     0.021 A 
ATOM     13  C   UNL     1       7.197  52.079  23.353  1.00  0.00     0.016 A 
ATOM     14  C   UNL     1       8.095  51.688  24.349  1.00  0.00     0.051 A 
ATOM     15  C   UNL     1       9.475  51.736  24.116  1.00  0.00     0.157 A 
ATOM     16  C   UNL     1       9.053  52.568  21.875  1.00  0.00     0.062 A 
ATOM     17  C   UNL     1       9.955  52.174  22.870  1.00  0.00     0.158 A 
BRANCH  15  18
ATOM     18  O   UNL     1      10.368  51.347  25.112  1.00  0.00    -0.504 OA
ATOM     19  H   UNL     1      10.545  50.369  25.314  1.00  0.00     0.293 HD
ENDBRANCH  15  18
BRANCH  17  20
ATOM     20  O   UNL     1      11.322  52.222  22.603  1.00  0.00    -0.504 OA
ATOM     21  H   UNL     1      11.989  52.593  23.270  1.00  0.00     0.293 HD
ENDBRANCH  17  20
ENDBRANCH   1  12
BRANCH   6  22
ATOM     22  O   UNL     1       2.875  54.631  18.136  1.00  0.00    -0.507 OA
ATOM     23  H   UNL     1       2.263  54.407  18.911  1.00  0.00     0.293 HD
ENDBRANCH   6  22
BRANCH   8  24
ATOM     24  O   UNL     1       6.033  52.600  15.105  1.00  0.00    -0.508 OA
ATOM     25  H   UNL     1       5.456  51.989  14.537  1.00  0.00     0.293 HD
ENDBRANCH   8  24
TORSDOF 5
ENDMDL
MODEL 3
REMARK VINA RESULT:    -6.669      1.676      7.569
REMARK INTER + INTRA:          -8.104
REMARK INTER:                  -7.814
REMARK INTRA:                  -0.290
REMARK UNBOUND:                -0.265
REMARK SMILES O=c1cc(-c2ccc(O)c(O)c2)oc2cc(O)cc(O)c12
REMARK SMILES IDX 4 1 3 2 2 3 1 4 21 5 19 6 18 7 16 8 15 9 14 10 13 11 5 12
REMARK SMILES IDX 6 13 7 14 8 15 12 16 10 17 9 18 11 20 20 22 17 24
REMARK H PARENT 9 19 11 21 20 23 17 25
REMARK Flexibility Score: inf
ROOT
ATOM      1  C   UNL     1       8.512  52.256  21.770  1.00  0.00     0.138 A 
ATOM      2  C   UNL     1       8.510  52.197  23.174  1.00  0.00     0.100 A 
ATOM      3  C   UNL     1       9.709  51.987  23.854  1.00  0.00     0.197 A 
ATOM      4  O   UNL     1       9.698  51.937  25.114  1.00  0.00    -0.289 OA
ATOM      5  C   UNL     1      10.907  51.839  23.125  1.00  0.00     0.107 A 
ATOM      6  C   UNL     1      12.164  51.622  23.736  1.00  0.00     0.134 A 
ATOM      7  C   UNL     1      13.311  51.491  22.938  1.00  0.00     0.093 A 
ATOM      8  C   UNL     1      13.224  51.575  21.547  1.00  0.00     0.123 A 
ATOM      9  C   UNL     1      11.983  51.789  20.937  1.00  0.00     0.094 A 
ATOM     10  C   UNL     1      10.829  51.921  21.714  1.00  0.00     0.146 A 
ATOM     11  O   UNL     1       9.661  52.123  21.112  1.00  0.00    -0.456 OA
ENDROOT
BRANCH   1  12
ATOM     12  C   UNL     1       7.266  52.478  20.993  1.00  0.00     0.021 A 
ATOM     13  C   UNL     1       6.400  53.523  21.362  1.00  0.00     0.016 A 
ATOM     14  C   UNL     1       5.226  53.758  20.644  1.00  0.00     0.051 A 
ATOM     15  C   UNL     1       4.899  52.961  19.540  1.00  0.00     0.157 A 
ATOM     16  C   UNL     1       6.938  51.687  19.875  1.00  0.00     0.062 A 
ATOM     17  C   UNL     1       5.763  51.923  19.153  1.00  0.00     0.158 A 
BRANCH  15  18
ATOM     18  O   UNL     1       3.725  53.197  18.827  1.00  0.00    -0.504 OA
ATOM     19  H   UNL     1       3.235  52.449  18.350  1.00  0.00     0.293 HD
ENDBRANCH  15  18
BRANCH  17  20
ATOM     20  O   UNL     1       5.472  51.118  18.052  1.00  0.00    -0.504 OA
ATOM     21  H   UNL     1       5.870  51.294  17.136  1.00  0.00     0.293 HD
ENDBRANCH  17  20
ENDBRANCH   1  12
BRANCH   6  22
ATOM     22  O   UNL     1      12.282  51.535  25.124  1.00  0.00    -0.507 OA
ATOM     23  H   UNL     1      12.510  52.343  25.691  1.00  0.00     0.293 HD
ENDBRANCH   6  22
BRANCH   8  24
ATOM     24  O   UNL     1      14.378  51.442  20.778  1.00  0.00    -0.508 OA
ATOM     25  H   UNL     1      15.221  51.024  21.155  1.00  0.00     0.293 HD
ENDBRANCH   8  24
TORSDOF 5
ENDMDL
MODEL 4
REMARK VINA RESULT:    -6.575      1.877      2.386
REMARK INTER + INTRA:          -7.994
REMARK INTER:                  -7.703
REMARK INTRA:                  -0.291
REMARK UNBOUND:                -0.265
REMARK SMILES O=c1cc(-c2ccc(O)c(O)c2)oc2cc(O)cc(O)c12
REMARK SMILES IDX 4 1 3 2 2 3 1 4 21 5 19 6 18 7 16 8 15 9 14 10 13 11 5 12
REMARK SMILES IDX 6 13 7 14 8 15 12 16 10 17 9 18 11 20 20 22 17 24
REMARK H PARENT 9 19 11 21 20 23 17 25
REMARK Flexibility Score: inf
ROOT
ATOM      1  C   UNL     1       9.117  52.431  20.681  1.00  0.00     0.138 A 
ATOM      2  C   UNL     1       9.593  52.596  19.370  1.00  0.00     0.100 A 
ATOM      3  C   UNL     1       8.689  52.858  18.339  1.00  0.00     0.197 A 
ATOM      4  O   UNL     1       9.125  53.006  17.166  1.00  0.00    -0.289 OA
ATOM      5  C   UNL     1       7.314  52.958  18.629  1.00  0.00     0.107 A 
ATOM      6  C   UNL     1       6.332  53.221  17.645  1.00  0.00     0.134 A 
ATOM      7  C   UNL     1       4.982  53.310  18.017  1.00  0.00     0.093 A 
ATOM      8  C   UNL     1       4.597  53.145  19.349  1.00  0.00     0.123 A 
ATOM      9  C   UNL     1       5.564  52.885  20.327  1.00  0.00     0.094 A 
ATOM     10  C   UNL     1       6.914  52.790  19.977  1.00  0.00     0.146 A 
ATOM     11  O   UNL     1       7.814  52.542  20.923  1.00  0.00    -0.456 OA
ENDROOT
BRANCH   1  12
ATOM     12  C   UNL     1      10.033  52.151  21.817  1.00  0.00     0.021 A 
ATOM     13  C   UNL     1       9.636  52.488  23.122  1.00  0.00     0.016 A 
ATOM     14  C   UNL     1      10.476  52.229  24.208  1.00  0.00     0.051 A 
ATOM     15  C   UNL     1      11.721  51.620  24.011  1.00  0.00     0.157 A 
ATOM     16  C   UNL     1      11.282  51.528  21.626  1.00  0.00     0.062 A 
ATOM     17  C   UNL     1      12.123  51.265  22.713  1.00  0.00     0.158 A 
BRANCH  15  18
ATOM     18  O   UNL     1      12.556  51.364  25.097  1.00  0.00    -0.504 OA
ATOM     19  H   UNL     1      13.229  50.606  25.081  1.00  0.00     0.293 HD
ENDBRANCH  15  18
BRANCH  17  20
ATOM     20  O   UNL     1      13.351  50.647  22.484  1.00  0.00    -0.504 OA
ATOM     21  H   UNL     1      13.661  49.848  23.025  1.00  0.00     0.293 HD
ENDBRANCH  17  20
ENDBRANCH   1  12
BRANCH   6  22
ATOM     22  O   UNL     1       6.686  53.391  16.306  1.00  0.00    -0.507 OA
ATOM     23  H   UNL     1       7.604  53.723  16.035  1.00  0.00     0.293 HD
ENDBRANCH   6  22
BRANCH   8  24
ATOM     24  O   UNL     1       3.250  53.239  19.692  1.00  0.00    -0.508 OA
ATOM     25  H   UNL     1       2.525  53.280  18.985  1.00  0.00     0.293 HD
ENDBRANCH   8  24
TORSDOF 5
ENDMDL
MODEL 5
REMARK VINA RESULT:    -6.475      2.429      7.511
REMARK INTER + INTRA:          -7.875
REMARK INTER:                  -7.611
REMARK INTRA:                  -0.265
REMARK UNBOUND:                -0.265
REMARK SMILES O=c1cc(-c2ccc(O)c(O)c2)oc2cc(O)cc(O)c12
REMARK SMILES IDX 4 1 3 2 2 3 1 4 21 5 19 6 18 7 16 8 15 9 14 10 13 11 5 12
REMARK SMILES IDX 6 13 7 14 8 15 12 16 10 17 9 18 11 20 20 22 17 24
REMARK H PARENT 9 19 11 21 20 23 17 25
REMARK Flexibility Score: inf
ROOT
ATOM      1  C   UNL     1       9.364  52.751  20.244  1.00  0.00     0.138 A 
ATOM      2  C   UNL     1      10.193  53.372  19.294  1.00  0.00     0.100 A 
ATOM      3  C   UNL     1      11.578  53.322  19.454  1.00  0.00     0.197 A 
ATOM      4  O   UNL     1      12.314  53.881  18.597  1.00  0.00    -0.289 OA
ATOM      5  C   UNL     1      12.126  52.646  20.564  1.00  0.00     0.107 A 
ATOM      6  C   UNL     1      13.517  52.550  20.800  1.00  0.00     0.134 A 
ATOM      7  C   UNL     1      13.983  51.854  21.927  1.00  0.00     0.093 A 
ATOM      8  C   UNL     1      13.087  51.254  22.815  1.00  0.00     0.123 A 
ATOM      9  C   UNL     1      11.710  51.347  22.586  1.00  0.00     0.094 A 
ATOM     10  C   UNL     1      11.226  52.037  21.470  1.00  0.00     0.146 A 
ATOM     11  O   UNL     1       9.914  52.113  21.274  1.00  0.00    -0.456 OA
ENDROOT
BRANCH   1  12
ATOM     12  C   UNL     1       7.884  52.771  20.124  1.00  0.00     0.021 A 
ATOM     13  C   UNL     1       7.130  53.557  21.013  1.00  0.00     0.016 A 
ATOM     14  C   UNL     1       5.737  53.600  20.917  1.00  0.00     0.051 A 
ATOM     15  C   UNL     1       5.073  52.867  19.927  1.00  0.00     0.157 A 
ATOM     16  C   UNL     1       7.211  52.045  19.122  1.00  0.00     0.062 A 
ATOM     17  C   UNL     1       5.815  52.089  19.022  1.00  0.00     0.158 A 
BRANCH  15  18
ATOM     18  O   UNL     1       3.683  52.910  19.834  1.00  0.00    -0.504 OA
ATOM     19  H   UNL     1       3.091  52.646  20.613  1.00  0.00     0.293 HD
ENDBRANCH  15  18
BRANCH  17  20
ATOM     20  O   UNL     1       5.185  51.356  18.018  1.00  0.00    -0.504 OA
ATOM     21  H   UNL     1       5.676  50.657  17.472  1.00  0.00     0.293 HD
ENDBRANCH  17  20
ENDBRANCH   1  12
BRANCH   6  22
ATOM     22  O   UNL     1      14.436  53.137  19.931  1.00  0.00    -0.507 OA
ATOM     23  H   UNL     1      15.044  52.580  19.342  1.00  0.00     0.293 HD
ENDBRANCH   6  22
BRANCH   8  24
ATOM     24  O   UNL     1      13.576  50.569  23.925  1.00  0.00    -0.508 OA
ATOM     25  H   UNL     1      13.085  49.774  24.316  1.00  0.00     0.293 HD
ENDBRANCH   8  24
TORSDOF 5
ENDMDL
MODEL 6
REMARK VINA RESULT:    -6.470      2.436      7.820
REMARK INTER + INTRA:          -7.870
REMARK INTER:                  -7.581
REMARK INTRA:                  -0.289
REMARK UNBOUND:                -0.265
REMARK SMILES O=c1cc(-c2ccc(O)c(O)c2)oc2cc(O)cc(O)c12
REMARK SMILES IDX 4 1 3 2 2 3 1 4 21 5 19 6 18 7 16 8 15 9 14 10 13 11 5 12
REMARK SMILES IDX 6 13 7 14 8 15 12 16 10 17 9 18 11 20 20 22 17 24
REMARK H PARENT 9 19 11 21 20 23 17 25
REMARK Flexibility Score: inf
ROOT
ATOM      1  C   UNL     1       9.053  52.396  20.499  1.00  0.00     0.138 A 
ATOM      2  C   UNL     1       8.513  52.566  21.785  1.00  0.00     0.100 A 
ATOM      3  C   UNL     1       9.318  52.341  22.902  1.00  0.00     0.197 A 
ATOM      4  O   UNL     1       8.826  52.497  24.053  1.00  0.00    -0.289 OA
ATOM      5  C   UNL     1      10.661  51.951  22.725  1.00  0.00     0.107 A 
ATOM      6  C   UNL     1      11.543  51.702  23.803  1.00  0.00     0.134 A 
ATOM      7  C   UNL     1      12.869  51.322  23.542  1.00  0.00     0.093 A 
ATOM      8  C   UNL     1      13.327  51.188  22.229  1.00  0.00     0.123 A 
ATOM      9  C   UNL     1      12.458  51.432  21.159  1.00  0.00     0.094 A 
ATOM     10  C   UNL     1      11.134  51.811  21.399  1.00  0.00     0.146 A 
ATOM     11  O   UNL     1      10.327  52.037  20.366  1.00  0.00    -0.456 OA
ENDROOT
BRANCH   1  12
ATOM     12  C   UNL     1       8.243  52.622  19.275  1.00  0.00     0.021 A 
ATOM     13  C   UNL     1       8.884  53.016  18.087  1.00  0.00     0.016 A 
ATOM     14  C   UNL     1       8.146  53.227  16.919  1.00  0.00     0.051 A 
ATOM     15  C   UNL     1       6.759  53.042  16.915  1.00  0.00     0.157 A 
ATOM     16  C   UNL     1       6.849  52.425  19.261  1.00  0.00     0.062 A 
ATOM     17  C   UNL     1       6.108  52.635  18.092  1.00  0.00     0.158 A 
BRANCH  15  18
ATOM     18  O   UNL     1       6.026  53.256  15.749  1.00  0.00    -0.504 OA
ATOM     19  H   UNL     1       5.436  52.533  15.354  1.00  0.00     0.293 HD
ENDBRANCH  15  18
BRANCH  17  20
ATOM     20  O   UNL     1       4.730  52.430  18.118  1.00  0.00    -0.504 OA
ATOM     21  H   UNL     1       4.274  51.757  17.513  1.00  0.00     0.293 HD
ENDBRANCH  17  20
ENDBRANCH   1  12
BRANCH   6  22
ATOM     22  O   UNL     1      11.116  51.828  25.125  1.00  0.00    -0.507 OA
ATOM     23  H   UNL     1      10.437  52.528  25.401  1.00  0.00     0.293 HD
ENDBRANCH   6  22
BRANCH   8  24
ATOM     24  O   UNL     1      14.647  50.810  21.997  1.00  0.00    -0.508 OA
ATOM     25  H   UNL     1      15.304  51.431  21.540  1.00  0.00     0.293 HD
ENDBRANCH   8  24
TORSDOF 5
ENDMDL
MODEL 7
REMARK VINA RESULT:    -6.467      1.850      7.202
REMARK INTER + INTRA:          -7.867
REMARK INTER:                  -7.551
REMARK INTRA:                  -0.316
REMARK UNBOUND:                -0.265
REMARK SMILES O=c1cc(-c2ccc(O)c(O)c2)oc2cc(O)cc(O)c12
REMARK SMILES IDX 4 1 3 2 2 3 1 4 21 5 19 6 18 7 16 8 15 9 14 10 13 11 5 12
REMARK SMILES IDX 6 13 7 14 8 15 12 16 10 17 9 18 11 20 20 22 17 24
REMARK H PARENT 9 19 11 21 20 23 17 25
REMARK Flexibility Score: inf
ROOT
ATOM      1  C   UNL     1       7.269  52.663  20.620  1.00  0.00     0.138 A 
ATOM      2  C   UNL     1       6.703  52.496  21.895  1.00  0.00     0.100 A 
ATOM      3  C   UNL     1       7.527  52.182  22.976  1.00  0.00     0.197 A 
ATOM      4  O   UNL     1       7.011  52.035  24.117  1.00  0.00    -0.289 OA
ATOM      5  C   UNL     1       8.916  52.041  22.775  1.00  0.00     0.107 A 
ATOM      6  C   UNL     1       9.820  51.725  23.816  1.00  0.00     0.134 A 
ATOM      7  C   UNL     1      11.190  51.607  23.534  1.00  0.00     0.093 A 
ATOM      8  C   UNL     1      11.670  51.802  22.236  1.00  0.00     0.123 A 
ATOM      9  C   UNL     1      10.779  52.116  21.203  1.00  0.00     0.094 A 
ATOM     10  C   UNL     1       9.411  52.235  21.464  1.00  0.00     0.146 A 
ATOM     11  O   UNL     1       8.585  52.533  20.466  1.00  0.00    -0.456 OA
ENDROOT
BRANCH   1  12
ATOM     12  C   UNL     1       6.441  52.997  19.434  1.00  0.00     0.021 A 
ATOM     13  C   UNL     1       5.117  53.433  19.617  1.00  0.00     0.016 A 
ATOM     14  C   UNL     1       4.319  53.761  18.518  1.00  0.00     0.051 A 
ATOM     15  C   UNL     1       4.831  53.668  17.219  1.00  0.00     0.157 A 
ATOM     16  C   UNL     1       6.955  52.917  18.124  1.00  0.00     0.062 A 
ATOM     17  C   UNL     1       6.157  53.248  17.022  1.00  0.00     0.158 A 
BRANCH  15  18
ATOM     18  O   UNL     1       4.032  53.994  16.125  1.00  0.00    -0.504 OA
ATOM     19  H   UNL     1       3.521  54.869  16.083  1.00  0.00     0.293 HD
ENDBRANCH  15  18
BRANCH  17  20
ATOM     20  O   UNL     1       6.701  53.156  15.742  1.00  0.00    -0.504 OA
ATOM     21  H   UNL     1       7.070  52.286  15.375  1.00  0.00     0.293 HD
ENDBRANCH  17  20
ENDBRANCH   1  12
BRANCH   6  22
ATOM     22  O   UNL     1       9.371  51.525  25.122  1.00  0.00    -0.507 OA
ATOM     23  H   UNL     1       9.325  52.284  25.791  1.00  0.00     0.293 HD
ENDBRANCH   6  22
BRANCH   8  24
ATOM     24  O   UNL     1      13.034  51.681  21.984  1.00  0.00    -0.508 OA
ATOM     25  H   UNL     1      13.586  50.938  22.397  1.00  0.00     0.293 HD
ENDBRANCH   8  24
TORSDOF 5
ENDMDL
MODEL 8
REMARK VINA RESULT:    -6.257      1.816      3.385
REMARK INTER + INTRA:          -7.620
REMARK INTER:                  -7.324
REMARK INTRA:                  -0.296
REMARK UNBOUND:                -0.265
REMARK SMILES O=c1cc(-c2ccc(O)c(O)c2)oc2cc(O)cc(O)c12
REMARK SMILES IDX 4 1 3 2 2 3 1 4 21 5 19 6 18 7 16 8 15 9 14 10 13 11 5 12
REMARK SMILES IDX 6 13 7 14 8 15 12 16 10 17 9 18 11 20 20 22 17 24
REMARK H PARENT 9 19 11 21 20 23 17 25
REMARK Flexibility Score: inf
ROOT
ATOM      1  C   UNL     1       7.631  52.851  19.812  1.00  0.00     0.138 A 
ATOM      2  C   UNL     1       6.783  53.509  20.719  1.00  0.00     0.100 A 
ATOM      3  C   UNL     1       5.503  53.886  20.311  1.00  0.00     0.197 A 
ATOM      4  O   UNL     1       4.748  54.474  21.132  1.00  0.00    -0.289 OA
ATOM      5  C   UNL     1       5.078  53.600  18.998  1.00  0.00     0.107 A 
ATOM      6  C   UNL     1       3.799  53.948  18.505  1.00  0.00     0.134 A 
ATOM      7  C   UNL     1       3.451  53.623  17.185  1.00  0.00     0.093 A 
ATOM      8  C   UNL     1       4.354  52.956  16.353  1.00  0.00     0.123 A 
ATOM      9  C   UNL     1       5.621  52.609  16.836  1.00  0.00     0.094 A 
ATOM     10  C   UNL     1       5.987  52.926  18.147  1.00  0.00     0.146 A 
ATOM     11  O   UNL     1       7.196  52.587  18.583  1.00  0.00    -0.456 OA
ENDROOT
BRANCH   1  12
ATOM     12  C   UNL     1       9.003  52.426  20.191  1.00  0.00     0.021 A 
ATOM     13  C   UNL     1       9.879  51.955  19.198  1.00  0.00     0.016 A 
ATOM     14  C   UNL     1      11.176  51.556  19.527  1.00  0.00     0.051 A 
ATOM     15  C   UNL     1      11.625  51.628  20.850  1.00  0.00     0.157 A 
ATOM     16  C   UNL     1       9.464  52.508  21.520  1.00  0.00     0.062 A 
ATOM     17  C   UNL     1      10.765  52.111  21.851  1.00  0.00     0.158 A 
BRANCH  15  18
ATOM     18  O   UNL     1      12.920  51.228  21.175  1.00  0.00    -0.504 OA
ATOM     19  H   UNL     1      13.666  51.901  21.307  1.00  0.00     0.293 HD
ENDBRANCH  15  18
BRANCH  17  20
ATOM     20  O   UNL     1      11.185  52.206  23.177  1.00  0.00    -0.504 OA
ATOM     21  H   UNL     1      11.619  51.429  23.661  1.00  0.00     0.293 HD
ENDBRANCH  17  20
ENDBRANCH   1  12
BRANCH   6  22
ATOM     22  O   UNL     1       2.875  54.614  19.311  1.00  0.00    -0.507 OA
ATOM     23  H   UNL     1       2.790  55.623  19.304  1.00  0.00     0.293 HD
ENDBRANCH   6  22
BRANCH   8  24
ATOM     24  O   UNL     1       3.983  52.644  15.048  1.00  0.00    -0.508 OA
ATOM     25  H   UNL     1       4.621  52.771  14.270  1.00  0.00     0.293 HD
ENDBRANCH   8  24
TORSDOF 5
ENDMDL
MODEL 9
REMARK VINA RESULT:    -6.091      2.337      7.580
REMARK INTER + INTRA:          -7.425
REMARK INTER:                  -7.128
REMARK INTRA:                  -0.296
REMARK UNBOUND:                -0.265
REMARK SMILES O=c1cc(-c2ccc(O)c(O)c2)oc2cc(O)cc(O)c12
REMARK SMILES IDX 4 1 3 2 2 3 1 4 21 5 19 6 18 7 16 8 15 9 14 10 13 11 5 12
REMARK SMILES IDX 6 13 7 14 8 15 12 16 10 17 9 18 11 20 20 22 17 24
REMARK H PARENT 9 19 11 21 20 23 17 25
REMARK Flexibility Score: inf
ROOT
ATOM      1  C   UNL     1       8.113  52.653  19.908  1.00  0.00     0.138 A 
ATOM      2  C   UNL     1       8.254  52.760  21.302  1.00  0.00     0.100 A 
ATOM      3  C   UNL     1       9.506  52.556  21.883  1.00  0.00     0.197 A 
ATOM      4  O   UNL     1       9.623  52.656  23.134  1.00  0.00    -0.289 OA
ATOM      5  C   UNL     1      10.611  52.249  21.063  1.00  0.00     0.107 A 
ATOM      6  C   UNL     1      11.912  52.027  21.571  1.00  0.00     0.134 A 
ATOM      7  C   UNL     1      12.962  51.730  20.688  1.00  0.00     0.093 A 
ATOM      8  C   UNL     1      12.735  51.654  19.311  1.00  0.00     0.123 A 
ATOM      9  C   UNL     1      11.449  51.873  18.804  1.00  0.00     0.094 A 
ATOM     10  C   UNL     1      10.390  52.168  19.668  1.00  0.00     0.146 A 
ATOM     11  O   UNL     1       9.178  52.371  19.162  1.00  0.00    -0.456 OA
ENDROOT
BRANCH   1  12
ATOM     12  C   UNL     1       6.805  52.861  19.235  1.00  0.00     0.021 A 
ATOM     13  C   UNL     1       6.751  52.911  17.831  1.00  0.00     0.016 A 
ATOM     14  C   UNL     1       5.533  53.098  17.174  1.00  0.00     0.051 A 
ATOM     15  C   UNL     1       4.346  53.229  17.905  1.00  0.00     0.157 A 
ATOM     16  C   UNL     1       5.606  52.980  19.965  1.00  0.00     0.062 A 
ATOM     17  C   UNL     1       4.384  53.165  19.308  1.00  0.00     0.158 A 
BRANCH  15  18
ATOM     18  O   UNL     1       3.133  53.416  17.246  1.00  0.00    -0.504 OA
ATOM     19  H   UNL     1       2.821  52.784  16.518  1.00  0.00     0.293 HD
ENDBRANCH  15  18
BRANCH  17  20
ATOM     20  O   UNL     1       3.219  53.279  20.065  1.00  0.00    -0.504 OA
ATOM     21  H   UNL     1       2.969  54.138  20.542  1.00  0.00     0.293 HD
ENDBRANCH  17  20
ENDBRANCH   1  12
BRANCH   6  22
ATOM     22  O   UNL     1      12.171  52.096  22.941  1.00  0.00    -0.507 OA
ATOM     23  H   UNL     1      11.628  52.691  23.556  1.00  0.00     0.293 HD
ENDBRANCH   6  22
BRANCH   8  24
ATOM     24  O   UNL     1      13.794  51.359  18.456  1.00  0.00    -0.508 OA
ATOM     25  H   UNL     1      14.752  51.579  18.703  1.00  0.00     0.293 HD
ENDBRANCH   8  24
TORSDOF 5
ENDMDL
