MODEL 1
REMARK VINA RESULT:    -3.128      0.000      0.000
REMARK INTER + INTRA:          -3.766
REMARK INTER:                  -3.677
REMARK INTRA:                  -0.089
REMARK UNBOUND:                -0.089
REMARK SMILES O=C([O-])CCC(=O)[O-]
REMARK SMILES IDX 4 1 2 2 1 3 3 4 5 5 6 6 7 7 8 8
REMARK H PARENT
REMARK Flexibility Score: inf
ROOT
ATOM      1  C   UNL     1       4.920   1.724  -2.717  1.00  0.00     0.059 C 
ENDROOT
BRANCH   1   2
ATOM      2  C   UNL     1       3.778   1.981  -3.649  1.00  0.00     0.042 C 
ATOM      3  O   UNL     1       3.525   1.171  -4.580  1.00  0.00    -0.550 OA
ATOM      4  O   UNL     1       2.962   3.088  -3.459  1.00  0.00    -0.550 OA
ENDBRANCH   1   2
BRANCH   1   5
ATOM      5  C   UNL     1       4.467   1.862  -1.263  1.00  0.00     0.059 C 
BRANCH   5   6
ATOM      6  C   UNL     1       4.308   0.514  -0.633  1.00  0.00     0.042 C 
ATOM      7  O   UNL     1       4.205   0.408   0.618  1.00  0.00    -0.550 OA
ATOM      8  O   UNL     1       4.325  -0.628  -1.422  1.00  0.00    -0.550 OA
ENDBRANCH   5   6
ENDBRANCH   1   5
TORSDOF 3
ENDMDL
MODEL 2
REMARK VINA RESULT:    -3.109      0.544      3.837
REMARK INTER + INTRA:          -3.744
REMARK INTER:                  -3.670
REMARK INTRA:                  -0.074
REMARK UNBOUND:                -0.089
REMARK SMILES O=C([O-])CCC(=O)[O-]
REMARK SMILES IDX 4 1 2 2 1 3 3 4 5 5 6 6 7 7 8 8
REMARK H PARENT
REMARK Flexibility Score: inf
ROOT
ATOM      1  C   UNL     1       4.741   1.817  -1.162  1.00  0.00     0.059 C 
ENDROOT
BRANCH   1   2
ATOM      2  C   UNL     1       4.436   0.479  -0.566  1.00  0.00     0.042 C 
ATOM      3  O   UNL     1       4.193   0.375   0.665  1.00  0.00    -0.550 OA
ATOM      4  O   UNL     1       4.369  -0.645  -1.379  1.00  0.00    -0.550 OA
ENDBRANCH   1   2
BRANCH   1   5
ATOM      5  C   UNL     1       4.776   1.729  -2.688  1.00  0.00     0.059 C 
BRANCH   5   6
ATOM      6  C   UNL     1       3.429   2.036  -3.262  1.00  0.00     0.042 C 
ATOM      7  O   UNL     1       2.633   1.102  -3.546  1.00  0.00    -0.550 OA
ATOM      8  O   UNL     1       3.072   3.351  -3.531  1.00  0.00    -0.550 OA
ENDBRANCH   5   6
ENDBRANCH   1   5
TORSDOF 3
ENDMDL
MODEL 3
REMARK VINA RESULT:    -2.821      8.880      9.419
REMARK INTER + INTRA:          -3.405
REMARK INTER:                  -3.275
REMARK INTRA:                  -0.130
REMARK UNBOUND:                -0.089
REMARK SMILES O=C([O-])CCC(=O)[O-]
REMARK SMILES IDX 4 1 2 2 1 3 3 4 5 5 6 6 7 7 8 8
REMARK H PARENT
REMARK Flexibility Score: inf
ROOT
ATOM      1  C   UNL     1      -4.606   2.081  -0.246  1.00  0.00     0.059 C 
ENDROOT
BRANCH   1   2
ATOM      2  C   UNL     1      -5.250   1.158   0.740  1.00  0.00     0.042 C 
ATOM      3  O   UNL     1      -4.973  -0.070   0.732  1.00  0.00    -0.550 OA
ATOM      4  O   UNL     1      -6.119   1.662   1.699  1.00  0.00    -0.550 OA
ENDBRANCH   1   2
BRANCH   1   5
ATOM      5  C   UNL     1      -3.215   2.494   0.236  1.00  0.00     0.059 C 
BRANCH   5   6
ATOM      6  C   UNL     1      -3.305   3.682   1.141  1.00  0.00     0.042 C 
ATOM      7  O   UNL     1      -2.920   3.598   2.337  1.00  0.00    -0.550 OA
ATOM      8  O   UNL     1      -3.859   4.868   0.678  1.00  0.00    -0.550 OA
ENDBRANCH   5   6
ENDBRANCH   1   5
TORSDOF 3
ENDMDL
MODEL 4
REMARK VINA RESULT:    -2.766      8.738      9.296
REMARK INTER + INTRA:          -3.340
REMARK INTER:                  -3.267
REMARK INTRA:                  -0.074
REMARK UNBOUND:                -0.089
REMARK SMILES O=C([O-])CCC(=O)[O-]
REMARK SMILES IDX 4 1 2 2 1 3 3 4 5 5 6 6 7 7 8 8
REMARK H PARENT
REMARK Flexibility Score: inf
ROOT
ATOM      1  C   UNL     1      -3.768   3.744   0.179  1.00  0.00     0.059 C 
ENDROOT
BRANCH   1   2
ATOM      2  C   UNL     1      -3.396   4.440   1.449  1.00  0.00     0.042 C 
ATOM      3  O   UNL     1      -3.073   5.657   1.434  1.00  0.00    -0.550 OA
ATOM      4  O   UNL     1      -3.454   3.759   2.658  1.00  0.00    -0.550 OA
ENDBRANCH   1   2
BRANCH   1   5
ATOM      5  C   UNL     1      -3.488   2.244   0.287  1.00  0.00     0.059 C 
BRANCH   5   6
ATOM      6  C   UNL     1      -4.757   1.463   0.151  1.00  0.00     0.042 C 
ATOM      7  O   UNL     1      -4.909   0.386   0.786  1.00  0.00    -0.550 OA
ATOM      8  O   UNL     1      -5.751   1.898  -0.715  1.00  0.00    -0.550 OA
ENDBRANCH   5   6
ENDBRANCH   1   5
TORSDOF 3
ENDMDL
MODEL 5
REMARK VINA RESULT:    -2.680      9.223      9.778
REMARK INTER + INTRA:          -3.239
REMARK INTER:                  -3.204
REMARK INTRA:                  -0.036
REMARK UNBOUND:                -0.089
REMARK SMILES O=C([O-])CCC(=O)[O-]
REMARK SMILES IDX 4 1 2 2 1 3 3 4 5 5 6 6 7 7 8 8
REMARK H PARENT
REMARK Flexibility Score: inf
ROOT
ATOM      1  C   UNL     1      -4.914   0.561   0.620  1.00  0.00     0.059 C 
ENDROOT
BRANCH   1   2
ATOM      2  C   UNL     1      -6.252  -0.085   0.447  1.00  0.00     0.042 C 
ATOM      3  O   UNL     1      -7.149   0.486  -0.227  1.00  0.00    -0.550 OA
ATOM      4  O   UNL     1      -6.493  -1.340   0.989  1.00  0.00    -0.550 OA
ENDBRANCH   1   2
BRANCH   1   5
ATOM      5  C   UNL     1      -4.863   1.897  -0.124  1.00  0.00     0.059 C 
BRANCH   5   6
ATOM      6  C   UNL     1      -3.476   2.457  -0.102  1.00  0.00     0.042 C 
ATOM      7  O   UNL     1      -2.883   2.640   0.994  1.00  0.00    -0.550 OA
ATOM      8  O   UNL     1      -2.856   2.824  -1.289  1.00  0.00    -0.550 OA
ENDBRANCH   5   6
ENDBRANCH   1   5
TORSDOF 3
ENDMDL
MODEL 6
REMARK VINA RESULT:    -2.675      9.202      9.897
REMARK INTER + INTRA:          -3.234
REMARK INTER:                  -3.112
REMARK INTRA:                  -0.121
REMARK UNBOUND:                -0.089
REMARK SMILES O=C([O-])CCC(=O)[O-]
REMARK SMILES IDX 4 1 2 2 1 3 3 4 5 5 6 6 7 7 8 8
REMARK H PARENT
REMARK Flexibility Score: inf
ROOT
ATOM      1  C   UNL     1      -4.868   2.334   1.269  1.00  0.00     0.059 C 
ENDROOT
BRANCH   1   2
ATOM      2  C   UNL     1      -3.472   2.808   1.015  1.00  0.00     0.042 C 
ATOM      3  O   UNL     1      -2.908   2.559  -0.083  1.00  0.00    -0.550 OA
ATOM      4  O   UNL     1      -2.812   3.568   1.971  1.00  0.00    -0.550 OA
ENDBRANCH   1   2
BRANCH   1   5
ATOM      5  C   UNL     1      -5.245   1.224   0.287  1.00  0.00     0.059 C 
BRANCH   5   6
ATOM      6  C   UNL     1      -6.336   1.682  -0.629  1.00  0.00     0.042 C 
ATOM      7  O   UNL     1      -7.429   1.058  -0.675  1.00  0.00    -0.550 OA
ATOM      8  O   UNL     1      -6.127   2.768  -1.470  1.00  0.00    -0.550 OA
ENDBRANCH   5   6
ENDBRANCH   1   5
TORSDOF 3
ENDMDL
MODEL 7
REMARK VINA RESULT:    -2.633      1.359      3.939
REMARK INTER + INTRA:          -3.185
REMARK INTER:                  -3.126
REMARK INTRA:                  -0.058
REMARK UNBOUND:                -0.089
REMARK SMILES O=C([O-])CCC(=O)[O-]
REMARK SMILES IDX 4 1 2 2 1 3 3 4 5 5 6 6 7 7 8 8
REMARK H PARENT
REMARK Flexibility Score: inf
ROOT
ATOM      1  C   UNL     1       4.462   0.859  -1.983  1.00  0.00     0.059 C 
ENDROOT
BRANCH   1   2
ATOM      2  C   UNL     1       4.428   1.402  -0.589  1.00  0.00     0.042 C 
ATOM      3  O   UNL     1       4.578   2.636  -0.386  1.00  0.00    -0.550 OA
ATOM      4  O   UNL     1       4.181   0.553   0.481  1.00  0.00    -0.550 OA
ENDBRANCH   1   2
BRANCH   1   5
ATOM      5  C   UNL     1       3.531   1.659  -2.894  1.00  0.00     0.059 C 
BRANCH   5   6
ATOM      6  C   UNL     1       4.142   1.832  -4.248  1.00  0.00     0.042 C 
ATOM      7  O   UNL     1       4.982   2.746  -4.453  1.00  0.00    -0.550 OA
ATOM      8  O   UNL     1       3.745   1.014  -5.298  1.00  0.00    -0.550 OA
ENDBRANCH   5   6
ENDBRANCH   1   5
TORSDOF 3
ENDMDL
MODEL 8
REMARK VINA RESULT:    -2.623     11.066     11.551
REMARK INTER + INTRA:          -3.172
REMARK INTER:                  -3.091
REMARK INTRA:                  -0.081
REMARK UNBOUND:                -0.089
REMARK SMILES O=C([O-])CCC(=O)[O-]
REMARK SMILES IDX 4 1 2 2 1 3 3 4 5 5 6 6 7 7 8 8
REMARK H PARENT
REMARK Flexibility Score: inf
ROOT
ATOM      1  C   UNL     1      -2.784  -5.304   4.707  1.00  0.00     0.059 C 
ENDROOT
BRANCH   1   2
ATOM      2  C   UNL     1      -3.085  -3.838   4.706  1.00  0.00     0.042 C 
ATOM      3  O   UNL     1      -3.839  -3.347   3.825  1.00  0.00    -0.550 OA
ATOM      4  O   UNL     1      -2.572  -3.023   5.706  1.00  0.00    -0.550 OA
ENDBRANCH   1   2
BRANCH   1   5
ATOM      5  C   UNL     1      -1.286  -5.544   4.518  1.00  0.00     0.059 C 
BRANCH   5   6
ATOM      6  C   UNL     1      -0.758  -6.439   5.595  1.00  0.00     0.042 C 
ATOM      7  O   UNL     1      -1.512  -6.820   6.528  1.00  0.00    -0.550 OA
ATOM      8  O   UNL     1       0.580  -6.812   5.594  1.00  0.00    -0.550 OA
ENDBRANCH   5   6
ENDBRANCH   1   5
TORSDOF 3
ENDMDL
MODEL 9
REMARK VINA RESULT:    -2.571      1.801      2.128
REMARK INTER + INTRA:          -3.112
REMARK INTER:                  -2.931
REMARK INTRA:                  -0.181
REMARK UNBOUND:                -0.089
REMARK SMILES O=C([O-])CCC(=O)[O-]
REMARK SMILES IDX 4 1 2 2 1 3 3 4 5 5 6 6 7 7 8 8
REMARK H PARENT
REMARK Flexibility Score: inf
ROOT
ATOM      1  C   UNL     1       4.110   1.145  -1.269  1.00  0.00     0.059 C 
ENDROOT
BRANCH   1   2
ATOM      2  C   UNL     1       3.879   1.576  -2.683  1.00  0.00     0.042 C 
ATOM      3  O   UNL     1       2.858   1.183  -3.306  1.00  0.00    -0.550 OA
ATOM      4  O   UNL     1       4.765   2.451  -3.296  1.00  0.00    -0.550 OA
ENDBRANCH   1   2
BRANCH   1   5
ATOM      5  C   UNL     1       4.456  -0.343  -1.211  1.00  0.00     0.059 C 
BRANCH   5   6
ATOM      6  C   UNL     1       5.785  -0.597  -1.848  1.00  0.00     0.042 C 
ATOM      7  O   UNL     1       6.821  -0.039  -1.399  1.00  0.00    -0.550 OA
ATOM      8  O   UNL     1       5.874  -1.412  -2.970  1.00  0.00    -0.550 OA
ENDBRANCH   5   6
ENDBRANCH   1   5
TORSDOF 3
ENDMDL
