MODEL 1
REMARK VINA RESULT:    -5.390      0.000      0.000
REMARK INTER + INTRA:          -6.134
REMARK INTER:                  -6.178
REMARK INTRA:                   0.044
REMARK UNBOUND:                 0.044
REMARK SMILES CC=Cc1ccc(O)c(OC)c1
REMARK SMILES IDX 4 1 12 2 9 3 7 4 6 5 5 6 3 7 1 8 2 9 10 10 11 11 8 12
REMARK H PARENT 8 13
REMARK Flexibility Score: inf
ROOT
ATOM      1  C   UNL     1       7.173  11.787   5.455  1.00  0.00    -0.022 A 
ATOM      2  C   UNL     1       5.867  11.260   5.509  1.00  0.00     0.058 A 
ATOM      3  C   UNL     1       5.420  10.564   6.650  1.00  0.00     0.161 A 
ATOM      4  C   UNL     1       6.290  10.390   7.734  1.00  0.00     0.157 A 
ATOM      5  C   UNL     1       7.594  10.897   7.677  1.00  0.00     0.051 A 
ATOM      6  C   UNL     1       8.032  11.586   6.545  1.00  0.00     0.012 A 
ENDROOT
BRANCH   1   7
ATOM      7  C   UNL     1       7.690  12.519   4.272  1.00  0.00     0.003 C 
ATOM      8  C   UNL     1       9.365  13.123   2.569  1.00  0.00     0.035 C 
ATOM      9  C   UNL     1       8.923  12.360   3.775  1.00  0.00    -0.030 C 
ENDBRANCH   1   7
BRANCH   3  10
ATOM     10  O   UNL     1       4.125  10.029   6.742  1.00  0.00    -0.493 OA
ATOM     11  C   UNL     1       3.119  10.498   7.633  1.00  0.00     0.278 C 
ENDBRANCH   3  10
BRANCH   4  12
ATOM     12  O   UNL     1       5.852   9.704   8.866  1.00  0.00    -0.504 OA
ATOM     13  H   UNL     1       5.043   9.095   8.837  1.00  0.00     0.293 HD
ENDBRANCH   4  12
TORSDOF 3
ENDMDL
MODEL 2
REMARK VINA RESULT:    -5.160      2.339      3.599
REMARK INTER + INTRA:          -5.870
REMARK INTER:                  -5.734
REMARK INTRA:                  -0.136
REMARK UNBOUND:                 0.044
REMARK SMILES CC=Cc1ccc(O)c(OC)c1
REMARK SMILES IDX 4 1 12 2 9 3 7 4 6 5 5 6 3 7 1 8 2 9 10 10 11 11 8 12
REMARK H PARENT 8 13
REMARK Flexibility Score: inf
ROOT
ATOM      1  C   UNL     1       4.987  11.133   7.602  1.00  0.00    -0.022 A 
ATOM      2  C   UNL     1       4.065  11.965   8.267  1.00  0.00     0.058 A 
ATOM      3  C   UNL     1       3.146  11.427   9.190  1.00  0.00     0.161 A 
ATOM      4  C   UNL     1       3.148  10.047   9.437  1.00  0.00     0.157 A 
ATOM      5  C   UNL     1       4.051   9.215   8.766  1.00  0.00     0.051 A 
ATOM      6  C   UNL     1       4.959   9.753   7.852  1.00  0.00     0.012 A 
ENDROOT
BRANCH   1   7
ATOM      7  C   UNL     1       5.966  11.653   6.616  1.00  0.00     0.003 C 
ATOM      8  C   UNL     1       6.871  12.066   4.361  1.00  0.00     0.035 C 
ATOM      9  C   UNL     1       5.849  11.498   5.292  1.00  0.00    -0.030 C 
ENDBRANCH   1   7
BRANCH   3  10
ATOM     10  O   UNL     1       2.217  12.225   9.875  1.00  0.00    -0.493 OA
ATOM     11  C   UNL     1       0.889  12.482   9.430  1.00  0.00     0.278 C 
ENDBRANCH   3  10
BRANCH   4  12
ATOM     12  O   UNL     1       2.243   9.509  10.351  1.00  0.00    -0.504 OA
ATOM     13  H   UNL     1       2.332   9.677  11.346  1.00  0.00     0.293 HD
ENDBRANCH   4  12
TORSDOF 3
ENDMDL
MODEL 3
REMARK VINA RESULT:    -5.147      1.366      2.453
REMARK INTER + INTRA:          -5.855
REMARK INTER:                  -5.710
REMARK INTRA:                  -0.145
REMARK UNBOUND:                 0.044
REMARK SMILES CC=Cc1ccc(O)c(OC)c1
REMARK SMILES IDX 4 1 12 2 9 3 7 4 6 5 5 6 3 7 1 8 2 9 10 10 11 11 8 12
REMARK H PARENT 8 13
REMARK Flexibility Score: inf
ROOT
ATOM      1  C   UNL     1       6.623  12.158   5.092  1.00  0.00    -0.022 A 
ATOM      2  C   UNL     1       6.826  12.472   6.451  1.00  0.00     0.058 A 
ATOM      3  C   UNL     1       6.051  11.854   7.454  1.00  0.00     0.161 A 
ATOM      4  C   UNL     1       5.065  10.929   7.089  1.00  0.00     0.157 A 
ATOM      5  C   UNL     1       4.850  10.626   5.739  1.00  0.00     0.051 A 
ATOM      6  C   UNL     1       5.619  11.240   4.749  1.00  0.00     0.012 A 
ENDROOT
BRANCH   1   7
ATOM      7  C   UNL     1       7.408  12.788   4.002  1.00  0.00     0.003 C 
ATOM      8  C   UNL     1       9.385  13.118   2.568  1.00  0.00     0.035 C 
ATOM      9  C   UNL     1       8.665  12.446   3.692  1.00  0.00    -0.030 C 
ENDBRANCH   1   7
BRANCH   3  10
ATOM     10  O   UNL     1       6.227  12.138   8.817  1.00  0.00    -0.493 OA
ATOM     11  C   UNL     1       7.210  13.027   9.337  1.00  0.00     0.278 C 
ENDBRANCH   3  10
BRANCH   4  12
ATOM     12  O   UNL     1       4.297  10.314   8.077  1.00  0.00    -0.504 OA
ATOM     13  H   UNL     1       4.256  10.680   9.021  1.00  0.00     0.293 HD
ENDBRANCH   4  12
TORSDOF 3
ENDMDL
MODEL 4
REMARK VINA RESULT:    -5.130      2.595      3.535
REMARK INTER + INTRA:          -5.836
REMARK INTER:                  -5.661
REMARK INTRA:                  -0.176
REMARK UNBOUND:                 0.044
REMARK SMILES CC=Cc1ccc(O)c(OC)c1
REMARK SMILES IDX 4 1 12 2 9 3 7 4 6 5 5 6 3 7 1 8 2 9 10 10 11 11 8 12
REMARK H PARENT 8 13
REMARK Flexibility Score: inf
ROOT
ATOM      1  C   UNL     1       6.133  11.492   8.115  1.00  0.00    -0.022 A 
ATOM      2  C   UNL     1       5.079  11.740   9.017  1.00  0.00     0.058 A 
ATOM      3  C   UNL     1       3.776  11.275   8.745  1.00  0.00     0.161 A 
ATOM      4  C   UNL     1       3.531  10.569   7.561  1.00  0.00     0.157 A 
ATOM      5  C   UNL     1       4.572  10.334   6.654  1.00  0.00     0.051 A 
ATOM      6  C   UNL     1       5.861  10.797   6.927  1.00  0.00     0.012 A 
ENDROOT
BRANCH   1   7
ATOM      7  C   UNL     1       7.517  11.969   8.354  1.00  0.00     0.003 C 
ATOM      8  C   UNL     1       9.882  12.360   7.781  1.00  0.00     0.035 C 
ATOM      9  C   UNL     1       8.516  11.839   7.472  1.00  0.00    -0.030 C 
ENDBRANCH   1   7
BRANCH   3  10
ATOM     10  O   UNL     1       2.703  11.499   9.622  1.00  0.00    -0.493 OA
ATOM     11  C   UNL     1       1.866  12.651   9.597  1.00  0.00     0.278 C 
ENDBRANCH   3  10
BRANCH   4  12
ATOM     12  O   UNL     1       2.245  10.104   7.288  1.00  0.00    -0.504 OA
ATOM     13  H   UNL     1       2.025   9.115   7.303  1.00  0.00     0.293 HD
ENDBRANCH   4  12
TORSDOF 3
ENDMDL
MODEL 5
REMARK VINA RESULT:    -5.127      2.642      5.579
REMARK INTER + INTRA:          -5.833
REMARK INTER:                  -5.641
REMARK INTRA:                  -0.192
REMARK UNBOUND:                 0.044
REMARK SMILES CC=Cc1ccc(O)c(OC)c1
REMARK SMILES IDX 4 1 12 2 9 3 7 4 6 5 5 6 3 7 1 8 2 9 10 10 11 11 8 12
REMARK H PARENT 8 13
REMARK Flexibility Score: inf
ROOT
ATOM      1  C   UNL     1       4.449  11.151   8.228  1.00  0.00    -0.022 A 
ATOM      2  C   UNL     1       5.829  11.169   8.514  1.00  0.00     0.058 A 
ATOM      3  C   UNL     1       6.775  10.865   7.514  1.00  0.00     0.161 A 
ATOM      4  C   UNL     1       6.331  10.533   6.227  1.00  0.00     0.157 A 
ATOM      5  C   UNL     1       4.961  10.498   5.943  1.00  0.00     0.051 A 
ATOM      6  C   UNL     1       4.028  10.800   6.937  1.00  0.00     0.012 A 
ENDROOT
BRANCH   1   7
ATOM      7  C   UNL     1       3.418  11.456   9.250  1.00  0.00     0.003 C 
ATOM      8  C   UNL     1       1.125  11.625  10.137  1.00  0.00     0.035 C 
ATOM      9  C   UNL     1       2.102  11.312   9.051  1.00  0.00    -0.030 C 
ENDBRANCH   1   7
BRANCH   3  10
ATOM     10  O   UNL     1       8.156  10.877   7.760  1.00  0.00    -0.493 OA
ATOM     11  C   UNL     1       8.969  12.046   7.750  1.00  0.00     0.278 C 
ENDBRANCH   3  10
BRANCH   4  12
ATOM     12  O   UNL     1       7.262  10.234   5.233  1.00  0.00    -0.504 OA
ATOM     13  H   UNL     1       7.829  10.955   4.803  1.00  0.00     0.293 HD
ENDBRANCH   4  12
TORSDOF 3
ENDMDL
MODEL 6
REMARK VINA RESULT:    -4.961      2.288      5.278
REMARK INTER + INTRA:          -5.642
REMARK INTER:                  -5.475
REMARK INTRA:                  -0.167
REMARK UNBOUND:                 0.044
REMARK SMILES CC=Cc1ccc(O)c(OC)c1
REMARK SMILES IDX 4 1 12 2 9 3 7 4 6 5 5 6 3 7 1 8 2 9 10 10 11 11 8 12
REMARK H PARENT 8 13
REMARK Flexibility Score: inf
ROOT
ATOM      1  C   UNL     1       4.626  11.384   8.574  1.00  0.00    -0.022 A 
ATOM      2  C   UNL     1       4.891  11.038   7.234  1.00  0.00     0.058 A 
ATOM      3  C   UNL     1       6.148  11.311   6.657  1.00  0.00     0.161 A 
ATOM      4  C   UNL     1       7.135  11.942   7.425  1.00  0.00     0.157 A 
ATOM      5  C   UNL     1       6.870  12.302   8.752  1.00  0.00     0.051 A 
ATOM      6  C   UNL     1       5.624  12.029   9.319  1.00  0.00     0.012 A 
ENDROOT
BRANCH   1   7
ATOM      7  C   UNL     1       3.317  11.124   9.222  1.00  0.00     0.003 C 
ATOM      8  C   UNL     1       1.000  11.648   9.879  1.00  0.00     0.035 C 
ATOM      9  C   UNL     1       2.295  11.989   9.217  1.00  0.00    -0.030 C 
ENDBRANCH   1   7
BRANCH   3  10
ATOM     10  O   UNL     1       6.450  10.977   5.327  1.00  0.00    -0.493 OA
ATOM     11  C   UNL     1       6.111  11.774   4.197  1.00  0.00     0.278 C 
ENDBRANCH   3  10
BRANCH   4  12
ATOM     12  O   UNL     1       8.380  12.212   6.860  1.00  0.00    -0.504 OA
ATOM     13  H   UNL     1       8.469  12.747   6.003  1.00  0.00     0.293 HD
ENDBRANCH   4  12
TORSDOF 3
ENDMDL
MODEL 7
REMARK VINA RESULT:    -4.928      2.430      5.266
REMARK INTER + INTRA:          -5.604
REMARK INTER:                  -5.442
REMARK INTRA:                  -0.161
REMARK UNBOUND:                 0.044
REMARK SMILES CC=Cc1ccc(O)c(OC)c1
REMARK SMILES IDX 4 1 12 2 9 3 7 4 6 5 5 6 3 7 1 8 2 9 10 10 11 11 8 12
REMARK H PARENT 8 13
REMARK Flexibility Score: inf
ROOT
ATOM      1  C   UNL     1       5.592  10.860   6.551  1.00  0.00    -0.022 A 
ATOM      2  C   UNL     1       6.947  10.897   6.937  1.00  0.00     0.058 A 
ATOM      3  C   UNL     1       7.944  11.292   6.022  1.00  0.00     0.161 A 
ATOM      4  C   UNL     1       7.579  11.640   4.715  1.00  0.00     0.157 A 
ATOM      5  C   UNL     1       6.236  11.589   4.323  1.00  0.00     0.051 A 
ATOM      6  C   UNL     1       5.252  11.197   5.232  1.00  0.00     0.012 A 
ENDROOT
BRANCH   1   7
ATOM      7  C   UNL     1       4.510  10.443   7.476  1.00  0.00     0.003 C 
ATOM      8  C   UNL     1       3.370  10.265   9.653  1.00  0.00     0.035 C 
ATOM      9  C   UNL     1       4.506  10.706   8.789  1.00  0.00    -0.030 C 
ENDBRANCH   1   7
BRANCH   3  10
ATOM     10  O   UNL     1       9.303  11.345   6.371  1.00  0.00    -0.493 OA
ATOM     11  C   UNL     1       9.860  12.259   7.310  1.00  0.00     0.278 C 
ENDBRANCH   3  10
BRANCH   4  12
ATOM     12  O   UNL     1       8.561  12.034   3.807  1.00  0.00    -0.504 OA
ATOM     13  H   UNL     1       9.134  11.355   3.319  1.00  0.00     0.293 HD
ENDBRANCH   4  12
TORSDOF 3
ENDMDL
MODEL 8
REMARK VINA RESULT:    -4.544      2.422      5.041
REMARK INTER + INTRA:          -5.163
REMARK INTER:                  -4.987
REMARK INTRA:                  -0.176
REMARK UNBOUND:                 0.044
REMARK SMILES CC=Cc1ccc(O)c(OC)c1
REMARK SMILES IDX 4 1 12 2 9 3 7 4 6 5 5 6 3 7 1 8 2 9 10 10 11 11 8 12
REMARK H PARENT 8 13
REMARK Flexibility Score: inf
ROOT
ATOM      1  C   UNL     1       5.938  11.414   7.714  1.00  0.00    -0.022 A 
ATOM      2  C   UNL     1       6.550  11.129   6.477  1.00  0.00     0.058 A 
ATOM      3  C   UNL     1       7.922  11.386   6.278  1.00  0.00     0.161 A 
ATOM      4  C   UNL     1       8.676  11.941   7.320  1.00  0.00     0.157 A 
ATOM      5  C   UNL     1       8.068  12.241   8.545  1.00  0.00     0.051 A 
ATOM      6  C   UNL     1       6.709  11.984   8.738  1.00  0.00     0.012 A 
ENDROOT
BRANCH   1   7
ATOM      7  C   UNL     1       4.497  11.168   7.967  1.00  0.00     0.003 C 
ATOM      8  C   UNL     1       2.367  11.393   9.185  1.00  0.00     0.035 C 
ATOM      9  C   UNL     1       3.824  11.675   9.007  1.00  0.00    -0.030 C 
ENDBRANCH   1   7
BRANCH   3  10
ATOM     10  O   UNL     1       8.567  11.112   5.062  1.00  0.00    -0.493 OA
ATOM     11  C   UNL     1       8.642  12.016   3.965  1.00  0.00     0.278 C 
ENDBRANCH   3  10
BRANCH   4  12
ATOM     12  O   UNL     1      10.033  12.195   7.129  1.00  0.00    -0.504 OA
ATOM     13  H   UNL     1      10.701  11.444   7.000  1.00  0.00     0.293 HD
ENDBRANCH   4  12
TORSDOF 3
ENDMDL
