MODEL 1
REMARK VINA RESULT:    -2.239      0.000      0.000
REMARK INTER + INTRA:          -2.510
REMARK INTER:                  -2.370
REMARK INTRA:                  -0.140
REMARK UNBOUND:                -0.140
REMARK SMILES C=C1CC=C(C(C)C)CC1
REMARK SMILES IDX 5 1 4 2 3 3 2 4 1 5 10 6 9 7 6 8 7 9 8 10
REMARK H PARENT
REMARK Flexibility Score: inf
ROOT
ATOM      1  C   UNL     1     168.558 174.081 138.989  1.00  0.00    -0.071 C 
ATOM      2  C   UNL     1     168.134 174.988 138.084  1.00  0.00    -0.023 C 
ATOM      3  C   UNL     1     167.162 176.075 138.467  1.00  0.00     0.057 C 
ATOM      4  C   UNL     1     166.151 175.565 139.472  1.00  0.00    -0.073 C 
ATOM      5  C   UNL     1     164.935 176.123 139.546  1.00  0.00     0.008 C 
ATOM      6  C   UNL     1     166.524 174.445 140.421  1.00  0.00     0.035 C 
ATOM      7  C   UNL     1     168.036 174.178 140.409  1.00  0.00     0.035 C 
ENDROOT
BRANCH   1   8
ATOM      8  C   UNL     1     169.482 172.951 138.565  1.00  0.00     0.008 C 
ATOM      9  C   UNL     1     169.526 172.812 137.039  1.00  0.00     0.012 C 
ATOM     10  C   UNL     1     170.888 173.150 139.142  1.00  0.00     0.012 C 
ENDBRANCH   1   8
TORSDOF 1
ENDMDL
MODEL 2
REMARK VINA RESULT:    -2.232      1.685      2.824
REMARK INTER + INTRA:          -2.503
REMARK INTER:                  -2.315
REMARK INTRA:                  -0.188
REMARK UNBOUND:                -0.140
REMARK SMILES C=C1CC=C(C(C)C)CC1
REMARK SMILES IDX 5 1 4 2 3 3 2 4 1 5 10 6 9 7 6 8 7 9 8 10
REMARK H PARENT
REMARK Flexibility Score: inf
ROOT
ATOM      1  C   UNL     1     166.662 174.915 138.714  1.00  0.00    -0.071 C 
ATOM      2  C   UNL     1     166.108 173.691 138.845  1.00  0.00    -0.023 C 
ATOM      3  C   UNL     1     164.718 173.520 139.403  1.00  0.00     0.057 C 
ATOM      4  C   UNL     1     164.448 174.530 140.499  1.00  0.00    -0.073 C 
ATOM      5  C   UNL     1     163.563 174.254 141.466  1.00  0.00     0.008 C 
ATOM      6  C   UNL     1     165.153 175.871 140.484  1.00  0.00     0.035 C 
ATOM      7  C   UNL     1     165.852 176.124 139.140  1.00  0.00     0.035 C 
ENDROOT
BRANCH   1   8
ATOM      8  C   UNL     1     168.091 175.060 138.217  1.00  0.00     0.008 C 
ATOM      9  C   UNL     1     169.013 175.585 139.323  1.00  0.00     0.012 C 
ATOM     10  C   UNL     1     168.608 173.733 137.650  1.00  0.00     0.012 C 
ENDBRANCH   1   8
TORSDOF 1
ENDMDL
MODEL 3
REMARK VINA RESULT:    -2.231     16.251     17.643
REMARK INTER + INTRA:          -2.501
REMARK INTER:                  -2.308
REMARK INTRA:                  -0.193
REMARK UNBOUND:                -0.140
REMARK SMILES C=C1CC=C(C(C)C)CC1
REMARK SMILES IDX 5 1 4 2 3 3 2 4 1 5 10 6 9 7 6 8 7 9 8 10
REMARK H PARENT
REMARK Flexibility Score: inf
ROOT
ATOM      1  C   UNL     1     163.402 157.877 138.843  1.00  0.00    -0.071 C 
ATOM      2  C   UNL     1     163.858 156.960 137.964  1.00  0.00    -0.023 C 
ATOM      3  C   UNL     1     164.853 155.907 138.382  1.00  0.00     0.057 C 
ATOM      4  C   UNL     1     165.841 156.465 139.385  1.00  0.00    -0.073 C 
ATOM      5  C   UNL     1     167.069 155.939 139.484  1.00  0.00     0.008 C 
ATOM      6  C   UNL     1     165.430 157.597 140.304  1.00  0.00     0.035 C 
ATOM      7  C   UNL     1     163.912 157.826 140.271  1.00  0.00     0.035 C 
ENDROOT
BRANCH   1   8
ATOM      8  C   UNL     1     162.455 158.974 138.384  1.00  0.00     0.008 C 
ATOM      9  C   UNL     1     162.685 160.270 139.168  1.00  0.00     0.012 C 
ATOM     10  C   UNL     1     162.586 159.210 136.875  1.00  0.00     0.012 C 
ENDBRANCH   1   8
TORSDOF 1
ENDMDL
MODEL 4
REMARK VINA RESULT:    -2.200     15.330     16.425
REMARK INTER + INTRA:          -2.469
REMARK INTER:                  -2.284
REMARK INTRA:                  -0.185
REMARK UNBOUND:                -0.140
REMARK SMILES C=C1CC=C(C(C)C)CC1
REMARK SMILES IDX 5 1 4 2 3 3 2 4 1 5 10 6 9 7 6 8 7 9 8 10
REMARK H PARENT
REMARK Flexibility Score: inf
ROOT
ATOM      1  C   UNL     1     164.306 157.879 137.924  1.00  0.00    -0.071 C 
ATOM      2  C   UNL     1     163.302 158.491 137.261  1.00  0.00    -0.023 C 
ATOM      3  C   UNL     1     163.393 159.947 136.880  1.00  0.00     0.057 C 
ATOM      4  C   UNL     1     164.107 160.742 137.953  1.00  0.00    -0.073 C 
ATOM      5  C   UNL     1     163.848 162.047 138.109  1.00  0.00     0.008 C 
ATOM      6  C   UNL     1     165.145 160.070 138.829  1.00  0.00     0.035 C 
ATOM      7  C   UNL     1     165.536 158.691 138.281  1.00  0.00     0.035 C 
ENDROOT
BRANCH   1   8
ATOM      8  C   UNL     1     164.163 156.431 138.362  1.00  0.00     0.008 C 
ATOM      9  C   UNL     1     165.493 155.875 138.884  1.00  0.00     0.012 C 
ATOM     10  C   UNL     1     163.053 156.284 139.408  1.00  0.00     0.012 C 
ENDBRANCH   1   8
TORSDOF 1
ENDMDL
MODEL 5
REMARK VINA RESULT:    -2.191      1.032      4.346
REMARK INTER + INTRA:          -2.459
REMARK INTER:                  -2.267
REMARK INTRA:                  -0.192
REMARK UNBOUND:                -0.140
REMARK SMILES C=C1CC=C(C(C)C)CC1
REMARK SMILES IDX 5 1 4 2 3 3 2 4 1 5 10 6 9 7 6 8 7 9 8 10
REMARK H PARENT
REMARK Flexibility Score: inf
ROOT
ATOM      1  C   UNL     1     167.483 175.346 139.836  1.00  0.00    -0.071 C 
ATOM      2  C   UNL     1     168.058 174.324 140.504  1.00  0.00    -0.023 C 
ATOM      3  C   UNL     1     169.187 173.532 139.895  1.00  0.00     0.057 C 
ATOM      4  C   UNL     1     168.987 173.366 138.404  1.00  0.00    -0.073 C 
ATOM      5  C   UNL     1     169.512 172.311 137.767  1.00  0.00     0.008 C 
ATOM      6  C   UNL     1     168.221 174.413 137.620  1.00  0.00     0.035 C 
ATOM      7  C   UNL     1     167.999 175.686 138.451  1.00  0.00     0.035 C 
ENDROOT
BRANCH   1   8
ATOM      8  C   UNL     1     166.299 176.085 140.439  1.00  0.00     0.008 C 
ATOM      9  C   UNL     1     165.116 176.125 139.466  1.00  0.00     0.012 C 
ATOM     10  C   UNL     1     165.893 175.462 141.778  1.00  0.00     0.012 C 
ENDBRANCH   1   8
TORSDOF 1
ENDMDL
MODEL 6
REMARK VINA RESULT:    -2.164     16.103     16.890
REMARK INTER + INTRA:          -2.431
REMARK INTER:                  -2.275
REMARK INTRA:                  -0.156
REMARK UNBOUND:                -0.140
REMARK SMILES C=C1CC=C(C(C)C)CC1
REMARK SMILES IDX 5 1 4 2 3 3 2 4 1 5 10 6 9 7 6 8 7 9 8 10
REMARK H PARENT
REMARK Flexibility Score: inf
ROOT
ATOM      1  C   UNL     1     163.297 158.236 138.216  1.00  0.00    -0.071 C 
ATOM      2  C   UNL     1     163.060 158.817 137.021  1.00  0.00    -0.023 C 
ATOM      3  C   UNL     1     162.032 159.910 136.875  1.00  0.00     0.057 C 
ATOM      4  C   UNL     1     160.841 159.654 137.776  1.00  0.00    -0.073 C 
ATOM      5  C   UNL     1     159.635 160.138 137.451  1.00  0.00     0.008 C 
ATOM      6  C   UNL     1     161.019 158.878 139.065  1.00  0.00     0.035 C 
ATOM      7  C   UNL     1     162.503 158.708 139.419  1.00  0.00     0.035 C 
ENDROOT
BRANCH   1   8
ATOM      8  C   UNL     1     164.286 157.087 138.326  1.00  0.00     0.008 C 
ATOM      9  C   UNL     1     165.631 157.564 138.885  1.00  0.00     0.012 C 
ATOM     10  C   UNL     1     163.707 155.949 139.173  1.00  0.00     0.012 C 
ENDBRANCH   1   8
TORSDOF 1
ENDMDL
MODEL 7
REMARK VINA RESULT:    -2.139      1.223      4.525
REMARK INTER + INTRA:          -2.404
REMARK INTER:                  -2.244
REMARK INTRA:                  -0.160
REMARK UNBOUND:                -0.140
REMARK SMILES C=C1CC=C(C(C)C)CC1
REMARK SMILES IDX 5 1 4 2 3 3 2 4 1 5 10 6 9 7 6 8 7 9 8 10
REMARK H PARENT
REMARK Flexibility Score: inf
ROOT
ATOM      1  C   UNL     1     168.448 173.801 138.244  1.00  0.00    -0.071 C 
ATOM      2  C   UNL     1     168.767 173.304 137.030  1.00  0.00    -0.023 C 
ATOM      3  C   UNL     1     169.827 172.242 136.877  1.00  0.00     0.057 C 
ATOM      4  C   UNL     1     170.956 172.461 137.862  1.00  0.00    -0.073 C 
ATOM      5  C   UNL     1     172.190 172.022 137.580  1.00  0.00     0.008 C 
ATOM      6  C   UNL     1     170.686 173.147 139.186  1.00  0.00     0.035 C 
ATOM      7  C   UNL     1     169.179 173.266 139.460  1.00  0.00     0.035 C 
ENDROOT
BRANCH   1   8
ATOM      8  C   UNL     1     167.428 174.922 138.368  1.00  0.00     0.008 C 
ATOM      9  C   UNL     1     166.146 174.433 139.050  1.00  0.00     0.012 C 
ATOM     10  C   UNL     1     168.026 176.123 139.109  1.00  0.00     0.012 C 
ENDBRANCH   1   8
TORSDOF 1
ENDMDL
