MODEL 1
REMARK VINA RESULT:    -4.216      0.000      0.000
REMARK INTER + INTRA:          -7.743
REMARK INTER:                  -7.174
REMARK INTRA:                  -0.569
REMARK UNBOUND:                -0.569
REMARK SMILES CCCCCCCCCCCCCC(=O)[O-]
REMARK SMILES IDX 8 1 9 2 10 3 11 4 12 5 13 6 14 7 15 8 16 9 7 10 6 11 5 12
REMARK SMILES IDX 4 13 3 14 2 15 1 16
REMARK H PARENT
REMARK Flexibility Score: inf
ROOT
ATOM      1  C   UNL     1      21.710   6.663 -11.606  1.00  0.00     0.000 C 
ENDROOT
BRANCH   1   2
ATOM      2  C   UNL     1      21.650   6.128 -10.165  1.00  0.00     0.000 C 
BRANCH   2   3
ATOM      3  C   UNL     1      20.214   6.065  -9.617  1.00  0.00     0.000 C 
BRANCH   3   4
ATOM      4  C   UNL     1      19.270   7.057 -10.317  1.00  0.00     0.000 C 
BRANCH   4   5
ATOM      5  C   UNL     1      18.132   6.356 -11.080  1.00  0.00     0.006 C 
BRANCH   5   6
ATOM      6  C   UNL     1      18.285   4.828 -11.071  1.00  0.00     0.053 C 
BRANCH   6   7
ATOM      7  C   UNL     1      16.996   4.141 -10.739  1.00  0.00     0.041 C 
ATOM      8  O   UNL     1      16.805   2.948 -11.094  1.00  0.00    -0.550 OA
ATOM      9  O   UNL     1      15.993   4.827 -10.066  1.00  0.00    -0.550 OA
ENDBRANCH   6   7
ENDBRANCH   5   6
ENDBRANCH   4   5
ENDBRANCH   3   4
ENDBRANCH   2   3
ENDBRANCH   1   2
BRANCH   1  10
ATOM     10  C   UNL     1      21.299   5.606 -12.647  1.00  0.00     0.000 C 
BRANCH  10  11
ATOM     11  C   UNL     1      22.506   4.868 -13.248  1.00  0.00    -0.000 C 
BRANCH  11  12
ATOM     12  C   UNL     1      23.824   5.637 -13.056  1.00  0.00    -0.000 C 
BRANCH  12  13
ATOM     13  C   UNL     1      24.748   5.538 -14.282  1.00  0.00    -0.000 C 
BRANCH  13  14
ATOM     14  C   UNL     1      25.829   4.458 -14.124  1.00  0.00    -0.000 C 
BRANCH  14  15
ATOM     15  C   UNL     1      27.060   4.786 -14.978  1.00  0.00    -0.003 C 
ATOM     16  C   UNL     1      28.201   3.812 -14.699  1.00  0.00     0.004 C 
ENDBRANCH  14  15
ENDBRANCH  13  14
ENDBRANCH  12  13
ENDBRANCH  11  12
ENDBRANCH  10  11
ENDBRANCH   1  10
TORSDOF 12
ENDMDL
MODEL 2
REMARK VINA RESULT:    -4.052      4.797      8.776
REMARK INTER + INTRA:          -7.463
REMARK INTER:                  -6.863
REMARK INTRA:                  -0.600
REMARK UNBOUND:                -0.569
REMARK SMILES CCCCCCCCCCCCCC(=O)[O-]
REMARK SMILES IDX 8 1 9 2 10 3 11 4 12 5 13 6 14 7 15 8 16 9 7 10 6 11 5 12
REMARK SMILES IDX 4 13 3 14 2 15 1 16
REMARK H PARENT
REMARK Flexibility Score: inf
ROOT
ATOM      1  C   UNL     1      22.116   5.919 -11.550  1.00  0.00     0.000 C 
ENDROOT
BRANCH   1   2
ATOM      2  C   UNL     1      22.502   5.226 -12.868  1.00  0.00     0.000 C 
BRANCH   2   3
ATOM      3  C   UNL     1      23.888   5.657 -13.379  1.00  0.00     0.000 C 
BRANCH   3   4
ATOM      4  C   UNL     1      24.694   4.483 -13.962  1.00  0.00     0.000 C 
BRANCH   4   5
ATOM      5  C   UNL     1      26.077   4.913 -14.482  1.00  0.00     0.006 C 
BRANCH   5   6
ATOM      6  C   UNL     1      27.093   3.764 -14.444  1.00  0.00     0.053 C 
BRANCH   6   7
ATOM      7  C   UNL     1      28.342   4.097 -15.201  1.00  0.00     0.041 C 
ATOM      8  O   UNL     1      28.413   5.163 -15.867  1.00  0.00    -0.550 OA
ATOM      9  O   UNL     1      29.415   3.216 -15.197  1.00  0.00    -0.550 OA
ENDBRANCH   6   7
ENDBRANCH   5   6
ENDBRANCH   4   5
ENDBRANCH   3   4
ENDBRANCH   2   3
ENDBRANCH   1   2
BRANCH   1  10
ATOM     10  C   UNL     1      20.971   6.932 -11.729  1.00  0.00     0.000 C 
BRANCH  10  11
ATOM     11  C   UNL     1      19.764   6.334 -12.469  1.00  0.00    -0.000 C 
BRANCH  11  12
ATOM     12  C   UNL     1      18.420   6.795 -11.877  1.00  0.00    -0.000 C 
BRANCH  12  13
ATOM     13  C   UNL     1      17.981   5.941 -10.676  1.00  0.00    -0.000 C 
BRANCH  13  14
ATOM     14  C   UNL     1      18.337   4.456 -10.841  1.00  0.00    -0.000 C 
BRANCH  14  15
ATOM     15  C   UNL     1      17.078   3.582 -10.793  1.00  0.00    -0.003 C 
ATOM     16  C   UNL     1      15.814   4.436 -10.773  1.00  0.00     0.004 C 
ENDBRANCH  14  15
ENDBRANCH  13  14
ENDBRANCH  12  13
ENDBRANCH  11  12
ENDBRANCH  10  11
ENDBRANCH   1  10
TORSDOF 12
ENDMDL
MODEL 3
REMARK VINA RESULT:    -3.945      2.847      4.816
REMARK INTER + INTRA:          -7.282
REMARK INTER:                  -6.352
REMARK INTRA:                  -0.931
REMARK UNBOUND:                -0.569
REMARK SMILES CCCCCCCCCCCCCC(=O)[O-]
REMARK SMILES IDX 8 1 9 2 10 3 11 4 12 5 13 6 14 7 15 8 16 9 7 10 6 11 5 12
REMARK SMILES IDX 4 13 3 14 2 15 1 16
REMARK H PARENT
REMARK Flexibility Score: inf
ROOT
ATOM      1  C   UNL     1      22.310   6.260 -12.493  1.00  0.00     0.000 C 
ENDROOT
BRANCH   1   2
ATOM      2  C   UNL     1      21.165   6.993 -11.775  1.00  0.00     0.000 C 
BRANCH   2   3
ATOM      3  C   UNL     1      21.242   6.857 -10.245  1.00  0.00     0.000 C 
BRANCH   3   4
ATOM      4  C   UNL     1      19.891   6.478  -9.616  1.00  0.00     0.000 C 
BRANCH   4   5
ATOM      5  C   UNL     1      19.214   5.296 -10.333  1.00  0.00     0.006 C 
BRANCH   5   6
ATOM      6  C   UNL     1      17.826   5.666 -10.875  1.00  0.00     0.053 C 
BRANCH   6   7
ATOM      7  C   UNL     1      16.830   4.568 -10.657  1.00  0.00     0.041 C 
ATOM      8  O   UNL     1      17.070   3.404 -11.073  1.00  0.00    -0.550 OA
ATOM      9  O   UNL     1      15.625   4.837 -10.022  1.00  0.00    -0.550 OA
ENDBRANCH   6   7
ENDBRANCH   5   6
ENDBRANCH   4   5
ENDBRANCH   3   4
ENDBRANCH   2   3
ENDBRANCH   1   2
BRANCH   1  10
ATOM     10  C   UNL     1      21.904   4.854 -12.972  1.00  0.00     0.000 C 
BRANCH  10  11
ATOM     11  C   UNL     1      20.471   4.811 -13.528  1.00  0.00    -0.000 C 
BRANCH  11  12
ATOM     12  C   UNL     1      19.760   3.481 -13.226  1.00  0.00    -0.000 C 
BRANCH  12  13
ATOM     13  C   UNL     1      19.510   2.645 -14.492  1.00  0.00    -0.000 C 
BRANCH  13  14
ATOM     14  C   UNL     1      18.550   1.471 -14.249  1.00  0.00    -0.000 C 
BRANCH  14  15
ATOM     15  C   UNL     1      18.243   0.733 -15.558  1.00  0.00    -0.003 C 
ATOM     16  C   UNL     1      17.142  -0.305 -15.362  1.00  0.00     0.004 C 
ENDBRANCH  14  15
ENDBRANCH  13  14
ENDBRANCH  12  13
ENDBRANCH  11  12
ENDBRANCH  10  11
ENDBRANCH   1  10
TORSDOF 12
ENDMDL
MODEL 4
REMARK VINA RESULT:    -3.924      3.946      6.910
REMARK INTER + INTRA:          -7.246
REMARK INTER:                  -6.362
REMARK INTRA:                  -0.883
REMARK UNBOUND:                -0.569
REMARK SMILES CCCCCCCCCCCCCC(=O)[O-]
REMARK SMILES IDX 8 1 9 2 10 3 11 4 12 5 13 6 14 7 15 8 16 9 7 10 6 11 5 12
REMARK SMILES IDX 4 13 3 14 2 15 1 16
REMARK H PARENT
REMARK Flexibility Score: inf
ROOT
ATOM      1  C   UNL     1      21.420   5.101 -12.696  1.00  0.00     0.000 C 
ENDROOT
BRANCH   1   2
ATOM      2  C   UNL     1      20.099   4.678 -13.360  1.00  0.00     0.000 C 
BRANCH   2   3
ATOM      3  C   UNL     1      20.210   3.329 -14.091  1.00  0.00     0.000 C 
BRANCH   3   4
ATOM      4  C   UNL     1      19.025   2.396 -13.793  1.00  0.00     0.000 C 
BRANCH   4   5
ATOM      5  C   UNL     1      18.690   1.466 -14.973  1.00  0.00     0.006 C 
BRANCH   5   6
ATOM      6  C   UNL     1      17.682   0.377 -14.583  1.00  0.00     0.053 C 
BRANCH   6   7
ATOM      7  C   UNL     1      17.254  -0.437 -15.766  1.00  0.00     0.041 C 
ATOM      8  O   UNL     1      17.064  -1.676 -15.647  1.00  0.00    -0.550 OA
ATOM      9  O   UNL     1      17.094   0.167 -17.007  1.00  0.00    -0.550 OA
ENDBRANCH   6   7
ENDBRANCH   5   6
ENDBRANCH   4   5
ENDBRANCH   3   4
ENDBRANCH   2   3
ENDBRANCH   1   2
BRANCH   1  10
ATOM     10  C   UNL     1      21.301   6.438 -11.942  1.00  0.00     0.000 C 
BRANCH  10  11
ATOM     11  C   UNL     1      20.725   6.269 -10.527  1.00  0.00    -0.000 C 
BRANCH  11  12
ATOM     12  C   UNL     1      19.351   6.941 -10.364  1.00  0.00    -0.000 C 
BRANCH  12  13
ATOM     13  C   UNL     1      18.196   6.046 -10.844  1.00  0.00    -0.000 C 
BRANCH  13  14
ATOM     14  C   UNL     1      18.362   4.581 -10.415  1.00  0.00    -0.000 C 
BRANCH  14  15
ATOM     15  C   UNL     1      17.168   3.736 -10.878  1.00  0.00    -0.003 C 
ATOM     16  C   UNL     1      15.848   4.455 -10.616  1.00  0.00     0.004 C 
ENDBRANCH  14  15
ENDBRANCH  13  14
ENDBRANCH  12  13
ENDBRANCH  11  12
ENDBRANCH  10  11
ENDBRANCH   1  10
TORSDOF 12
ENDMDL
MODEL 5
REMARK VINA RESULT:    -3.190      3.774      6.007
REMARK INTER + INTRA:          -5.998
REMARK INTER:                  -4.960
REMARK INTRA:                  -1.038
REMARK UNBOUND:                -0.569
REMARK SMILES CCCCCCCCCCCCCC(=O)[O-]
REMARK SMILES IDX 8 1 9 2 10 3 11 4 12 5 13 6 14 7 15 8 16 9 7 10 6 11 5 12
REMARK SMILES IDX 4 13 3 14 2 15 1 16
REMARK H PARENT
REMARK Flexibility Score: inf
ROOT
ATOM      1  C   UNL     1      18.257   4.115 -11.810  1.00  0.00     0.000 C 
ENDROOT
BRANCH   1   2
ATOM      2  C   UNL     1      19.524   4.392 -12.637  1.00  0.00     0.000 C 
BRANCH   2   3
ATOM      3  C   UNL     1      19.644   3.469 -13.862  1.00  0.00     0.000 C 
BRANCH   3   4
ATOM      4  C   UNL     1      18.962   2.107 -13.645  1.00  0.00     0.000 C 
BRANCH   4   5
ATOM      5  C   UNL     1      18.602   1.407 -14.968  1.00  0.00     0.006 C 
BRANCH   5   6
ATOM      6  C   UNL     1      17.765   0.141 -14.743  1.00  0.00     0.053 C 
BRANCH   6   7
ATOM      7  C   UNL     1      17.197  -0.389 -16.025  1.00  0.00     0.041 C 
ATOM      8  O   UNL     1      17.149   0.346 -17.046  1.00  0.00    -0.550 OA
ATOM      9  O   UNL     1      16.694  -1.682 -16.082  1.00  0.00    -0.550 OA
ENDBRANCH   6   7
ENDBRANCH   5   6
ENDBRANCH   4   5
ENDBRANCH   3   4
ENDBRANCH   2   3
ENDBRANCH   1   2
BRANCH   1  10
ATOM     10  C   UNL     1      18.230   4.903 -10.488  1.00  0.00     0.000 C 
BRANCH  10  11
ATOM     11  C   UNL     1      18.222   6.425 -10.708  1.00  0.00    -0.000 C 
BRANCH  11  12
ATOM     12  C   UNL     1      19.417   7.125 -10.038  1.00  0.00    -0.000 C 
BRANCH  12  13
ATOM     13  C   UNL     1      20.453   6.129  -9.491  1.00  0.00    -0.000 C 
BRANCH  13  14
ATOM     14  C   UNL     1      21.883   6.443  -9.955  1.00  0.00    -0.000 C 
BRANCH  14  15
ATOM     15  C   UNL     1      21.881   7.054 -11.362  1.00  0.00    -0.003 C 
ATOM     16  C   UNL     1      22.524   6.111 -12.374  1.00  0.00     0.004 C 
ENDBRANCH  14  15
ENDBRANCH  13  14
ENDBRANCH  12  13
ENDBRANCH  11  12
ENDBRANCH  10  11
ENDBRANCH   1  10
TORSDOF 12
ENDMDL
MODEL 6
REMARK VINA RESULT:    -3.103      4.077      6.487
REMARK INTER + INTRA:          -5.849
REMARK INTER:                  -4.821
REMARK INTRA:                  -1.028
REMARK UNBOUND:                -0.569
REMARK SMILES CCCCCCCCCCCCCC(=O)[O-]
REMARK SMILES IDX 8 1 9 2 10 3 11 4 12 5 13 6 14 7 15 8 16 9 7 10 6 11 5 12
REMARK SMILES IDX 4 13 3 14 2 15 1 16
REMARK H PARENT
REMARK Flexibility Score: inf
ROOT
ATOM      1  C   UNL     1      18.689   5.785 -10.850  1.00  0.00     0.000 C 
ENDROOT
BRANCH   1   2
ATOM      2  C   UNL     1      19.738   6.008  -9.747  1.00  0.00     0.000 C 
BRANCH   2   3
ATOM      3  C   UNL     1      20.839   6.997 -10.169  1.00  0.00     0.000 C 
BRANCH   3   4
ATOM      4  C   UNL     1      21.385   6.708 -11.577  1.00  0.00     0.000 C 
BRANCH   4   5
ATOM      5  C   UNL     1      22.367   5.523 -11.601  1.00  0.00     0.006 C 
BRANCH   5   6
ATOM      6  C   UNL     1      22.703   5.078 -13.031  1.00  0.00     0.053 C 
BRANCH   6   7
ATOM      7  C   UNL     1      23.995   5.666 -13.510  1.00  0.00     0.041 C 
ATOM      8  O   UNL     1      24.199   6.905 -13.417  1.00  0.00    -0.550 OA
ATOM      9  O   UNL     1      24.960   4.851 -14.087  1.00  0.00    -0.550 OA
ENDBRANCH   6   7
ENDBRANCH   5   6
ENDBRANCH   4   5
ENDBRANCH   3   4
ENDBRANCH   2   3
ENDBRANCH   1   2
BRANCH   1  10
ATOM     10  C   UNL     1      17.937   4.451 -10.688  1.00  0.00     0.000 C 
BRANCH  10  11
ATOM     11  C   UNL     1      18.102   3.529 -11.908  1.00  0.00    -0.000 C 
BRANCH  11  12
ATOM     12  C   UNL     1      19.333   3.889 -12.758  1.00  0.00    -0.000 C 
BRANCH  12  13
ATOM     13  C   UNL     1      19.538   2.922 -13.937  1.00  0.00    -0.000 C 
BRANCH  13  14
ATOM     14  C   UNL     1      18.621   1.692 -13.863  1.00  0.00    -0.000 C 
BRANCH  14  15
ATOM     15  C   UNL     1      18.402   1.088 -15.256  1.00  0.00    -0.003 C 
ATOM     16  C   UNL     1      17.380  -0.045 -15.211  1.00  0.00     0.004 C 
ENDBRANCH  14  15
ENDBRANCH  13  14
ENDBRANCH  12  13
ENDBRANCH  11  12
ENDBRANCH  10  11
ENDBRANCH   1  10
TORSDOF 12
ENDMDL
MODEL 7
REMARK VINA RESULT:    -3.007      3.924      5.919
REMARK INTER + INTRA:          -5.685
REMARK INTER:                  -5.021
REMARK INTRA:                  -0.664
REMARK UNBOUND:                -0.569
REMARK SMILES CCCCCCCCCCCCCC(=O)[O-]
REMARK SMILES IDX 8 1 9 2 10 3 11 4 12 5 13 6 14 7 15 8 16 9 7 10 6 11 5 12
REMARK SMILES IDX 4 13 3 14 2 15 1 16
REMARK H PARENT
REMARK Flexibility Score: inf
ROOT
ATOM      1  C   UNL     1      20.662   5.158 -13.639  1.00  0.00     0.000 C 
ENDROOT
BRANCH   1   2
ATOM      2  C   UNL     1      22.060   5.176 -12.997  1.00  0.00     0.000 C 
BRANCH   2   3
ATOM      3  C   UNL     1      22.024   5.572 -11.511  1.00  0.00     0.000 C 
BRANCH   3   4
ATOM      4  C   UNL     1      21.373   6.947 -11.281  1.00  0.00     0.000 C 
BRANCH   4   5
ATOM      5  C   UNL     1      20.426   6.960 -10.068  1.00  0.00     0.006 C 
BRANCH   5   6
ATOM      6  C   UNL     1      19.469   5.760 -10.068  1.00  0.00     0.053 C 
BRANCH   6   7
ATOM      7  C   UNL     1      18.216   6.045 -10.838  1.00  0.00     0.041 C 
ATOM      8  O   UNL     1      17.159   5.409 -10.586  1.00  0.00    -0.550 OA
ATOM      9  O   UNL     1      18.223   6.992 -11.854  1.00  0.00    -0.550 OA
ENDBRANCH   6   7
ENDBRANCH   5   6
ENDBRANCH   4   5
ENDBRANCH   3   4
ENDBRANCH   2   3
ENDBRANCH   1   2
BRANCH   1  10
ATOM     10  C   UNL     1      19.813   3.961 -13.172  1.00  0.00     0.000 C 
BRANCH  10  11
ATOM     11  C   UNL     1      19.853   2.787 -14.164  1.00  0.00    -0.000 C 
BRANCH  11  12
ATOM     12  C   UNL     1      18.650   1.841 -14.008  1.00  0.00    -0.000 C 
BRANCH  12  13
ATOM     13  C   UNL     1      18.337   1.066 -15.299  1.00  0.00    -0.000 C 
BRANCH  13  14
ATOM     14  C   UNL     1      17.306  -0.052 -15.086  1.00  0.00    -0.000 C 
BRANCH  14  15
ATOM     15  C   UNL     1      17.204  -0.947 -16.328  1.00  0.00    -0.003 C 
ATOM     16  C   UNL     1      16.974  -0.118 -17.588  1.00  0.00     0.004 C 
ENDBRANCH  14  15
ENDBRANCH  13  14
ENDBRANCH  12  13
ENDBRANCH  11  12
ENDBRANCH  10  11
ENDBRANCH   1  10
TORSDOF 12
ENDMDL
MODEL 8
REMARK VINA RESULT:    -2.766      4.279      6.600
REMARK INTER + INTRA:          -5.276
REMARK INTER:                  -4.478
REMARK INTRA:                  -0.798
REMARK UNBOUND:                -0.569
REMARK SMILES CCCCCCCCCCCCCC(=O)[O-]
REMARK SMILES IDX 8 1 9 2 10 3 11 4 12 5 13 6 14 7 15 8 16 9 7 10 6 11 5 12
REMARK SMILES IDX 4 13 3 14 2 15 1 16
REMARK H PARENT
REMARK Flexibility Score: inf
ROOT
ATOM      1  C   UNL     1      17.108   3.478 -11.221  1.00  0.00     0.000 C 
ENDROOT
BRANCH   1   2
ATOM      2  C   UNL     1      17.087   4.915 -10.672  1.00  0.00     0.000 C 
BRANCH   2   3
ATOM      3  C   UNL     1      18.464   5.596 -10.743  1.00  0.00     0.000 C 
BRANCH   3   4
ATOM      4  C   UNL     1      18.433   6.910 -11.541  1.00  0.00     0.000 C 
BRANCH   4   5
ATOM      5  C   UNL     1      19.668   7.086 -12.443  1.00  0.00     0.006 C 
BRANCH   5   6
ATOM      6  C   UNL     1      20.933   6.486 -11.816  1.00  0.00     0.053 C 
BRANCH   6   7
ATOM      7  C   UNL     1      21.529   5.415 -12.677  1.00  0.00     0.041 C 
ATOM      8  O   UNL     1      20.816   4.812 -13.522  1.00  0.00    -0.550 OA
ATOM      9  O   UNL     1      22.864   5.060 -12.524  1.00  0.00    -0.550 OA
ENDBRANCH   6   7
ENDBRANCH   5   6
ENDBRANCH   4   5
ENDBRANCH   3   4
ENDBRANCH   2   3
ENDBRANCH   1   2
BRANCH   1  10
ATOM     10  C   UNL     1      18.340   3.201 -12.102  1.00  0.00     0.000 C 
BRANCH  10  11
ATOM     11  C   UNL     1      18.207   1.900 -12.910  1.00  0.00    -0.000 C 
BRANCH  11  12
ATOM     12  C   UNL     1      18.958   1.959 -14.252  1.00  0.00    -0.000 C 
BRANCH  12  13
ATOM     13  C   UNL     1      18.276   1.122 -15.347  1.00  0.00    -0.000 C 
BRANCH  13  14
ATOM     14  C   UNL     1      17.404  -0.006 -14.776  1.00  0.00    -0.000 C 
BRANCH  14  15
ATOM     15  C   UNL     1      17.141  -1.084 -15.835  1.00  0.00    -0.003 C 
ATOM     16  C   UNL     1      17.103  -0.483 -17.237  1.00  0.00     0.004 C 
ENDBRANCH  14  15
ENDBRANCH  13  14
ENDBRANCH  12  13
ENDBRANCH  11  12
ENDBRANCH  10  11
ENDBRANCH   1  10
TORSDOF 12
ENDMDL
MODEL 9
REMARK VINA RESULT:    -2.437      1.307      2.649
REMARK INTER + INTRA:          -4.716
REMARK INTER:                  -3.975
REMARK INTRA:                  -0.741
REMARK UNBOUND:                -0.569
REMARK SMILES CCCCCCCCCCCCCC(=O)[O-]
REMARK SMILES IDX 8 1 9 2 10 3 11 4 12 5 13 6 14 7 15 8 16 9 7 10 6 11 5 12
REMARK SMILES IDX 4 13 3 14 2 15 1 16
REMARK H PARENT
REMARK Flexibility Score: inf
ROOT
ATOM      1  C   UNL     1      23.401   5.104 -13.029  1.00  0.00     0.000 C 
ENDROOT
BRANCH   1   2
ATOM      2  C   UNL     1      22.127   5.424 -12.229  1.00  0.00     0.000 C 
BRANCH   2   3
ATOM      3  C   UNL     1      22.029   6.909 -11.840  1.00  0.00     0.000 C 
BRANCH   3   4
ATOM      4  C   UNL     1      21.851   7.113 -10.326  1.00  0.00     0.000 C 
BRANCH   4   5
ATOM      5  C   UNL     1      20.904   6.077  -9.695  1.00  0.00     0.006 C 
BRANCH   5   6
ATOM      6  C   UNL     1      19.446   6.556  -9.685  1.00  0.00     0.053 C 
BRANCH   6   7
ATOM      7  C   UNL     1      18.601   5.793 -10.659  1.00  0.00     0.041 C 
ATOM      8  O   UNL     1      18.568   4.535 -10.620  1.00  0.00    -0.550 OA
ATOM      9  O   UNL     1      17.874   6.470 -11.630  1.00  0.00    -0.550 OA
ENDBRANCH   6   7
ENDBRANCH   5   6
ENDBRANCH   4   5
ENDBRANCH   3   4
ENDBRANCH   2   3
ENDBRANCH   1   2
BRANCH   1  10
ATOM     10  C   UNL     1      24.086   6.368 -13.579  1.00  0.00     0.000 C 
BRANCH  10  11
ATOM     11  C   UNL     1      25.301   6.044 -14.465  1.00  0.00    -0.000 C 
BRANCH  11  12
ATOM     12  C   UNL     1      25.602   4.536 -14.525  1.00  0.00    -0.000 C 
BRANCH  12  13
ATOM     13  C   UNL     1      27.049   4.208 -14.120  1.00  0.00    -0.000 C 
BRANCH  13  14
ATOM     14  C   UNL     1      28.073   4.618 -15.189  1.00  0.00    -0.000 C 
BRANCH  14  15
ATOM     15  C   UNL     1      29.022   3.457 -15.513  1.00  0.00    -0.003 C 
ATOM     16  C   UNL     1      29.447   2.722 -14.245  1.00  0.00     0.004 C 
ENDBRANCH  14  15
ENDBRANCH  13  14
ENDBRANCH  12  13
ENDBRANCH  11  12
ENDBRANCH  10  11
ENDBRANCH   1  10
TORSDOF 12
ENDMDL
