MODEL 1
REMARK VINA RESULT:    -4.883      0.000      0.000
REMARK INTER + INTRA:          -6.269
REMARK INTER:                  -6.025
REMARK INTRA:                  -0.244
REMARK UNBOUND:                -0.244
REMARK SMILES C=CCc1ccc(OC)c(OC)c1
REMARK SMILES IDX 7 1 10 2 13 3 4 4 5 5 6 6 8 7 9 8 11 9 12 10 3 11 2 12 1 13
REMARK H PARENT
REMARK Flexibility Score: inf
ROOT
ATOM      1  C   UNL     1      -9.040  25.987  20.233  1.00  0.00     0.160 A 
ATOM      2  C   UNL     1      -9.297  27.088  21.064  1.00  0.00     0.160 A 
ATOM      3  C   UNL     1      -8.751  27.125  22.363  1.00  0.00     0.054 A 
ATOM      4  C   UNL     1      -7.948  26.073  22.829  1.00  0.00    -0.040 A 
ATOM      5  C   UNL     1      -7.705  24.972  21.996  1.00  0.00     0.008 A 
ATOM      6  C   UNL     1      -8.242  24.929  20.709  1.00  0.00     0.051 A 
ENDROOT
BRANCH   1   7
ATOM      7  O   UNL     1      -9.596  25.978  18.945  1.00  0.00    -0.493 OA
ATOM      8  C   UNL     1     -10.790  25.291  18.585  1.00  0.00     0.278 C 
ENDBRANCH   1   7
BRANCH   2   9
ATOM      9  O   UNL     1     -10.102  28.125  20.566  1.00  0.00    -0.493 OA
ATOM     10  C   UNL     1     -10.985  28.914  21.357  1.00  0.00     0.278 C 
ENDBRANCH   2   9
BRANCH   4  11
ATOM     11  C   UNL     1      -7.392  26.100  24.228  1.00  0.00     0.062 C 
BRANCH  11  12
ATOM     12  C   UNL     1      -8.199  27.018  25.104  1.00  0.00    -0.030 C 
ATOM     13  C   UNL     1      -9.155  26.555  25.914  1.00  0.00     0.004 C 
ENDBRANCH  11  12
ENDBRANCH   4  11
TORSDOF 4
ENDMDL
MODEL 2
REMARK VINA RESULT:    -4.864      1.956      4.107
REMARK INTER + INTRA:          -6.245
REMARK INTER:                  -5.953
REMARK INTRA:                  -0.292
REMARK UNBOUND:                -0.244
REMARK SMILES C=CCc1ccc(OC)c(OC)c1
REMARK SMILES IDX 7 1 10 2 13 3 4 4 5 5 6 6 8 7 9 8 11 9 12 10 3 11 2 12 1 13
REMARK H PARENT
REMARK Flexibility Score: inf
ROOT
ATOM      1  C   UNL     1      -9.076  28.195  24.001  1.00  0.00     0.160 A 
ATOM      2  C   UNL     1      -9.281  28.122  22.615  1.00  0.00     0.160 A 
ATOM      3  C   UNL     1      -8.856  26.980  21.906  1.00  0.00     0.054 A 
ATOM      4  C   UNL     1      -8.235  25.916  22.575  1.00  0.00    -0.040 A 
ATOM      5  C   UNL     1      -8.024  26.002  23.958  1.00  0.00     0.008 A 
ATOM      6  C   UNL     1      -8.443  27.128  24.667  1.00  0.00     0.051 A 
ENDROOT
BRANCH   1   7
ATOM      7  O   UNL     1      -9.512  29.343  24.681  1.00  0.00    -0.493 OA
ATOM      8  C   UNL     1     -10.790  29.483  25.292  1.00  0.00     0.278 C 
ENDBRANCH   1   7
BRANCH   2   9
ATOM      9  O   UNL     1      -9.909  29.203  21.976  1.00  0.00    -0.493 OA
ATOM     10  C   UNL     1     -11.113  29.108  21.223  1.00  0.00     0.278 C 
ENDBRANCH   2   9
BRANCH   4  11
ATOM     11  C   UNL     1      -7.752  24.712  21.811  1.00  0.00     0.062 C 
BRANCH  11  12
ATOM     12  C   UNL     1      -8.855  23.701  21.659  1.00  0.00    -0.030 C 
ATOM     13  C   UNL     1      -8.820  22.523  22.291  1.00  0.00     0.004 C 
ENDBRANCH  11  12
ENDBRANCH   4  11
TORSDOF 4
ENDMDL
MODEL 3
REMARK VINA RESULT:    -4.751      2.095      3.024
REMARK INTER + INTRA:          -6.106
REMARK INTER:                  -5.796
REMARK INTRA:                  -0.310
REMARK UNBOUND:                -0.244
REMARK SMILES C=CCc1ccc(OC)c(OC)c1
REMARK SMILES IDX 7 1 10 2 13 3 4 4 5 5 6 6 8 7 9 8 11 9 12 10 3 11 2 12 1 13
REMARK H PARENT
REMARK Flexibility Score: inf
ROOT
ATOM      1  C   UNL     1     -10.064  23.387  20.737  1.00  0.00     0.160 A 
ATOM      2  C   UNL     1      -9.272  24.302  20.026  1.00  0.00     0.160 A 
ATOM      3  C   UNL     1      -8.355  25.117  20.720  1.00  0.00     0.054 A 
ATOM      4  C   UNL     1      -8.223  25.016  22.112  1.00  0.00    -0.040 A 
ATOM      5  C   UNL     1      -9.025  24.107  22.815  1.00  0.00     0.008 A 
ATOM      6  C   UNL     1      -9.935  23.297  22.136  1.00  0.00     0.051 A 
ENDROOT
BRANCH   1   7
ATOM      7  O   UNL     1     -10.967  22.587  20.019  1.00  0.00    -0.493 OA
ATOM      8  C   UNL     1     -10.832  21.182  19.835  1.00  0.00     0.278 C 
ENDBRANCH   1   7
BRANCH   2   9
ATOM      9  O   UNL     1      -9.427  24.375  18.632  1.00  0.00    -0.493 OA
ATOM     10  C   UNL     1     -10.215  25.349  17.956  1.00  0.00     0.278 C 
ENDBRANCH   2   9
BRANCH   4  11
ATOM     11  C   UNL     1      -7.265  25.910  22.854  1.00  0.00     0.062 C 
BRANCH  11  12
ATOM     12  C   UNL     1      -7.574  25.916  24.326  1.00  0.00    -0.030 C 
ATOM     13  C   UNL     1      -8.048  27.004  24.940  1.00  0.00     0.004 C 
ENDBRANCH  11  12
ENDBRANCH   4  11
TORSDOF 4
ENDMDL
MODEL 4
REMARK VINA RESULT:    -4.669      2.910      4.998
REMARK INTER + INTRA:          -6.004
REMARK INTER:                  -5.690
REMARK INTRA:                  -0.314
REMARK UNBOUND:                -0.244
REMARK SMILES C=CCc1ccc(OC)c(OC)c1
REMARK SMILES IDX 7 1 10 2 13 3 4 4 5 5 6 6 8 7 9 8 11 9 12 10 3 11 2 12 1 13
REMARK H PARENT
REMARK Flexibility Score: inf
ROOT
ATOM      1  C   UNL     1      -9.994  28.319  24.579  1.00  0.00     0.160 A 
ATOM      2  C   UNL     1      -9.381  27.267  25.276  1.00  0.00     0.160 A 
ATOM      3  C   UNL     1      -8.499  26.401  24.598  1.00  0.00     0.054 A 
ATOM      4  C   UNL     1      -8.225  26.586  23.235  1.00  0.00    -0.040 A 
ATOM      5  C   UNL     1      -8.850  27.634  22.544  1.00  0.00     0.008 A 
ATOM      6  C   UNL     1      -9.723  28.495  23.209  1.00  0.00     0.051 A 
ENDROOT
BRANCH   1   7
ATOM      7  O   UNL     1     -10.865  29.167  25.281  1.00  0.00    -0.493 OA
ATOM      8  C   UNL     1     -10.925  30.579  25.115  1.00  0.00     0.278 C 
ENDBRANCH   1   7
BRANCH   2   9
ATOM      9  O   UNL     1      -9.674  27.111  26.641  1.00  0.00    -0.493 OA
ATOM     10  C   UNL     1     -10.643  26.207  27.161  1.00  0.00     0.278 C 
ENDBRANCH   2   9
BRANCH   4  11
ATOM     11  C   UNL     1      -7.308  25.641  22.506  1.00  0.00     0.062 C 
BRANCH  11  12
ATOM     12  C   UNL     1      -8.094  24.718  21.616  1.00  0.00    -0.030 C 
ATOM     13  C   UNL     1      -8.716  23.637  22.098  1.00  0.00     0.004 C 
ENDBRANCH  11  12
ENDBRANCH   4  11
TORSDOF 4
ENDMDL
MODEL 5
REMARK VINA RESULT:    -4.554      1.690      2.869
REMARK INTER + INTRA:          -5.862
REMARK INTER:                  -5.544
REMARK INTRA:                  -0.318
REMARK UNBOUND:                -0.244
REMARK SMILES C=CCc1ccc(OC)c(OC)c1
REMARK SMILES IDX 7 1 10 2 13 3 4 4 5 5 6 6 8 7 9 8 11 9 12 10 3 11 2 12 1 13
REMARK H PARENT
REMARK Flexibility Score: inf
ROOT
ATOM      1  C   UNL     1      -9.981  25.362  19.991  1.00  0.00     0.160 A 
ATOM      2  C   UNL     1      -9.517  24.272  20.743  1.00  0.00     0.160 A 
ATOM      3  C   UNL     1      -8.532  24.474  21.730  1.00  0.00     0.054 A 
ATOM      4  C   UNL     1      -8.016  25.756  21.971  1.00  0.00    -0.040 A 
ATOM      5  C   UNL     1      -8.478  26.837  21.209  1.00  0.00     0.008 A 
ATOM      6  C   UNL     1      -9.454  26.645  20.230  1.00  0.00     0.051 A 
ENDROOT
BRANCH   1   7
ATOM      7  O   UNL     1     -10.964  25.131  19.017  1.00  0.00    -0.493 OA
ATOM      8  C   UNL     1     -10.750  25.235  17.613  1.00  0.00     0.278 C 
ENDBRANCH   1   7
BRANCH   2   9
ATOM      9  O   UNL     1     -10.056  23.002  20.479  1.00  0.00    -0.493 OA
ATOM     10  C   UNL     1     -10.896  22.279  21.373  1.00  0.00     0.278 C 
ENDBRANCH   2   9
BRANCH   4  11
ATOM     11  C   UNL     1      -6.940  25.963  23.004  1.00  0.00     0.062 C 
BRANCH  11  12
ATOM     12  C   UNL     1      -7.529  25.994  24.387  1.00  0.00    -0.030 C 
ATOM     13  C   UNL     1      -8.149  27.078  24.863  1.00  0.00     0.004 C 
ENDBRANCH  11  12
ENDBRANCH   4  11
TORSDOF 4
ENDMDL
MODEL 6
REMARK VINA RESULT:    -4.513      1.699      2.959
REMARK INTER + INTRA:          -5.812
REMARK INTER:                  -5.496
REMARK INTRA:                  -0.315
REMARK UNBOUND:                -0.244
REMARK SMILES C=CCc1ccc(OC)c(OC)c1
REMARK SMILES IDX 7 1 10 2 13 3 4 4 5 5 6 6 8 7 9 8 11 9 12 10 3 11 2 12 1 13
REMARK H PARENT
REMARK Flexibility Score: inf
ROOT
ATOM      1  C   UNL     1      -8.567  25.484  20.930  1.00  0.00     0.160 A 
ATOM      2  C   UNL     1      -8.297  24.780  22.114  1.00  0.00     0.160 A 
ATOM      3  C   UNL     1      -8.313  25.459  23.349  1.00  0.00     0.054 A 
ATOM      4  C   UNL     1      -8.603  26.831  23.405  1.00  0.00    -0.040 A 
ATOM      5  C   UNL     1      -8.860  27.528  22.217  1.00  0.00     0.008 A 
ATOM      6  C   UNL     1      -8.847  26.862  20.991  1.00  0.00     0.051 A 
ENDROOT
BRANCH   1   7
ATOM      7  O   UNL     1      -8.545  24.781  19.716  1.00  0.00    -0.493 OA
ATOM      8  C   UNL     1      -9.705  24.371  19.000  1.00  0.00     0.278 C 
ENDBRANCH   1   7
BRANCH   2   9
ATOM      9  O   UNL     1      -8.015  23.408  22.023  1.00  0.00    -0.493 OA
ATOM     10  C   UNL     1      -8.959  22.370  22.267  1.00  0.00     0.278 C 
ENDBRANCH   2   9
BRANCH   4  11
ATOM     11  C   UNL     1      -8.588  27.560  24.722  1.00  0.00     0.062 C 
BRANCH  11  12
ATOM     12  C   UNL     1      -8.896  26.621  25.854  1.00  0.00    -0.030 C 
ATOM     13  C   UNL     1      -9.995  26.760  26.604  1.00  0.00     0.004 C 
ENDBRANCH  11  12
ENDBRANCH   4  11
TORSDOF 4
ENDMDL
MODEL 7
REMARK VINA RESULT:    -4.498      2.172      3.337
REMARK INTER + INTRA:          -5.794
REMARK INTER:                  -5.476
REMARK INTRA:                  -0.318
REMARK UNBOUND:                -0.244
REMARK SMILES C=CCc1ccc(OC)c(OC)c1
REMARK SMILES IDX 7 1 10 2 13 3 4 4 5 5 6 6 8 7 9 8 11 9 12 10 3 11 2 12 1 13
REMARK H PARENT
REMARK Flexibility Score: inf
ROOT
ATOM      1  C   UNL     1      -8.398  24.822  22.240  1.00  0.00     0.160 A 
ATOM      2  C   UNL     1      -8.599  25.681  21.150  1.00  0.00     0.160 A 
ATOM      3  C   UNL     1      -8.899  27.039  21.377  1.00  0.00     0.054 A 
ATOM      4  C   UNL     1      -8.991  27.540  22.684  1.00  0.00    -0.040 A 
ATOM      5  C   UNL     1      -8.799  26.673  23.768  1.00  0.00     0.008 A 
ATOM      6  C   UNL     1      -8.502  25.327  23.550  1.00  0.00     0.051 A 
ENDROOT
BRANCH   1   7
ATOM      7  O   UNL     1      -8.100  23.475  21.983  1.00  0.00    -0.493 OA
ATOM      8  C   UNL     1      -9.011  22.396  22.166  1.00  0.00     0.278 C 
ENDBRANCH   1   7
BRANCH   2   9
ATOM      9  O   UNL     1      -8.496  25.149  19.854  1.00  0.00    -0.493 OA
ATOM     10  C   UNL     1      -9.606  24.786  19.039  1.00  0.00     0.278 C 
ENDBRANCH   2   9
BRANCH   4  11
ATOM     11  C   UNL     1      -9.343  28.984  22.925  1.00  0.00     0.062 C 
BRANCH  11  12
ATOM     12  C   UNL     1      -9.741  29.203  24.358  1.00  0.00    -0.030 C 
ATOM     13  C   UNL     1     -10.480  30.253  24.729  1.00  0.00     0.004 C 
ENDBRANCH  11  12
ENDBRANCH   4  11
TORSDOF 4
ENDMDL
MODEL 8
REMARK VINA RESULT:    -4.479      1.622      4.535
REMARK INTER + INTRA:          -5.770
REMARK INTER:                  -5.511
REMARK INTRA:                  -0.259
REMARK UNBOUND:                -0.244
REMARK SMILES C=CCc1ccc(OC)c(OC)c1
REMARK SMILES IDX 7 1 10 2 13 3 4 4 5 5 6 6 8 7 9 8 11 9 12 10 3 11 2 12 1 13
REMARK H PARENT
REMARK Flexibility Score: inf
ROOT
ATOM      1  C   UNL     1      -8.479  26.941  23.515  1.00  0.00     0.160 A 
ATOM      2  C   UNL     1      -8.974  27.591  22.374  1.00  0.00     0.160 A 
ATOM      3  C   UNL     1      -9.005  26.909  21.141  1.00  0.00     0.054 A 
ATOM      4  C   UNL     1      -8.550  25.586  21.046  1.00  0.00    -0.040 A 
ATOM      5  C   UNL     1      -8.047  24.948  22.188  1.00  0.00     0.008 A 
ATOM      6  C   UNL     1      -8.014  25.616  23.412  1.00  0.00     0.051 A 
ENDROOT
BRANCH   1   7
ATOM      7  O   UNL     1      -8.462  27.644  24.729  1.00  0.00    -0.493 OA
ATOM      8  C   UNL     1      -9.094  27.203  25.926  1.00  0.00     0.278 C 
ENDBRANCH   1   7
BRANCH   2   9
ATOM      9  O   UNL     1      -9.425  28.915  22.504  1.00  0.00    -0.493 OA
ATOM     10  C   UNL     1     -10.732  29.361  22.158  1.00  0.00     0.278 C 
ENDBRANCH   2   9
BRANCH   4  11
ATOM     11  C   UNL     1      -8.554  24.871  19.721  1.00  0.00     0.062 C 
BRANCH  11  12
ATOM     12  C   UNL     1      -9.888  25.015  19.043  1.00  0.00    -0.030 C 
ATOM     13  C   UNL     1      -9.988  25.235  17.728  1.00  0.00     0.004 C 
ENDBRANCH  11  12
ENDBRANCH   4  11
TORSDOF 4
ENDMDL
MODEL 9
REMARK VINA RESULT:    -4.412      2.537      4.893
REMARK INTER + INTRA:          -5.687
REMARK INTER:                  -5.542
REMARK INTRA:                  -0.146
REMARK UNBOUND:                -0.244
REMARK SMILES C=CCc1ccc(OC)c(OC)c1
REMARK SMILES IDX 7 1 10 2 13 3 4 4 5 5 6 6 8 7 9 8 11 9 12 10 3 11 2 12 1 13
REMARK H PARENT
REMARK Flexibility Score: inf
ROOT
ATOM      1  C   UNL     1      -9.990  27.271  25.531  1.00  0.00     0.160 A 
ATOM      2  C   UNL     1      -9.851  27.961  24.317  1.00  0.00     0.160 A 
ATOM      3  C   UNL     1      -8.971  27.469  23.332  1.00  0.00     0.054 A 
ATOM      4  C   UNL     1      -8.238  26.294  23.553  1.00  0.00    -0.040 A 
ATOM      5  C   UNL     1      -8.374  25.617  24.772  1.00  0.00     0.008 A 
ATOM      6  C   UNL     1      -9.244  26.097  25.752  1.00  0.00     0.051 A 
ENDROOT
BRANCH   1   7
ATOM      7  O   UNL     1     -10.875  27.782  26.492  1.00  0.00    -0.493 OA
ATOM      8  C   UNL     1     -11.083  27.215  27.782  1.00  0.00     0.278 C 
ENDBRANCH   1   7
BRANCH   2   9
ATOM      9  O   UNL     1     -10.602  29.132  24.126  1.00  0.00    -0.493 OA
ATOM     10  C   UNL     1     -10.303  30.389  24.723  1.00  0.00     0.278 C 
ENDBRANCH   2   9
BRANCH   4  11
ATOM     11  C   UNL     1      -7.274  25.789  22.512  1.00  0.00     0.062 C 
BRANCH  11  12
ATOM     12  C   UNL     1      -7.897  24.687  21.700  1.00  0.00    -0.030 C 
ATOM     13  C   UNL     1      -8.441  24.919  20.501  1.00  0.00     0.004 C 
ENDBRANCH  11  12
ENDBRANCH   4  11
TORSDOF 4
ENDMDL
