MODEL 1
REMARK VINA RESULT:    -2.744      0.000      0.000
REMARK INTER + INTRA:          -3.342
REMARK INTER:                  -3.225
REMARK INTRA:                  -0.117
REMARK UNBOUND:                -0.117
REMARK SMILES O=C([O-])CCC(=O)[O-]
REMARK SMILES IDX 4 1 2 2 1 3 3 4 5 5 6 6 7 7 8 8
REMARK H PARENT
REMARK Flexibility Score: inf
ROOT
ATOM      1  C   UNL     1      11.745   2.680 -19.735  1.00  0.00     0.059 C 
ENDROOT
BRANCH   1   2
ATOM      2  C   UNL     1      10.792   2.499 -20.877  1.00  0.00     0.042 C 
ATOM      3  O   UNL     1      10.211   1.396 -21.050  1.00  0.00    -0.550 OA
ATOM      4  O   UNL     1      10.517   3.563 -21.727  1.00  0.00    -0.550 OA
ENDBRANCH   1   2
BRANCH   1   5
ATOM      5  C   UNL     1      11.030   3.191 -18.479  1.00  0.00     0.059 C 
BRANCH   5   6
ATOM      6  C   UNL     1      11.430   4.597 -18.151  1.00  0.00     0.042 C 
ATOM      7  O   UNL     1      11.332   5.503 -19.019  1.00  0.00    -0.550 OA
ATOM      8  O   UNL     1      11.874   4.913 -16.873  1.00  0.00    -0.550 OA
ENDBRANCH   5   6
ENDBRANCH   1   5
TORSDOF 3
ENDMDL
MODEL 2
REMARK VINA RESULT:    -2.733      0.059      4.011
REMARK INTER + INTRA:          -3.329
REMARK INTER:                  -3.212
REMARK INTRA:                  -0.117
REMARK UNBOUND:                -0.117
REMARK SMILES O=C([O-])CCC(=O)[O-]
REMARK SMILES IDX 4 1 2 2 1 3 3 4 5 5 6 6 7 7 8 8
REMARK H PARENT
REMARK Flexibility Score: inf
ROOT
ATOM      1  C   UNL     1      11.000   3.202 -18.479  1.00  0.00     0.059 C 
ENDROOT
BRANCH   1   2
ATOM      2  C   UNL     1      11.459   4.586 -18.134  1.00  0.00     0.042 C 
ATOM      3  O   UNL     1      11.472   5.488 -19.012  1.00  0.00    -0.550 OA
ATOM      4  O   UNL     1      11.836   4.888 -16.831  1.00  0.00    -0.550 OA
ENDBRANCH   1   2
BRANCH   1   5
ATOM      5  C   UNL     1      11.719   2.662 -19.720  1.00  0.00     0.059 C 
BRANCH   5   6
ATOM      6  C   UNL     1      10.778   2.494 -20.873  1.00  0.00     0.042 C 
ATOM      7  O   UNL     1      10.196   1.394 -21.062  1.00  0.00    -0.550 OA
ATOM      8  O   UNL     1      10.513   3.566 -21.715  1.00  0.00    -0.550 OA
ENDBRANCH   5   6
ENDBRANCH   1   5
TORSDOF 3
ENDMDL
MODEL 3
REMARK VINA RESULT:    -2.708      2.335      4.159
REMARK INTER + INTRA:          -3.300
REMARK INTER:                  -3.185
REMARK INTRA:                  -0.115
REMARK UNBOUND:                -0.117
REMARK SMILES O=C([O-])CCC(=O)[O-]
REMARK SMILES IDX 4 1 2 2 1 3 3 4 5 5 6 6 7 7 8 8
REMARK H PARENT
REMARK Flexibility Score: inf
ROOT
ATOM      1  C   UNL     1      10.623   2.253 -21.103  1.00  0.00     0.059 C 
ENDROOT
BRANCH   1   2
ATOM      2  C   UNL     1      11.167   2.467 -19.724  1.00  0.00     0.042 C 
ATOM      3  O   UNL     1      10.385   2.617 -18.749  1.00  0.00    -0.550 OA
ATOM      4  O   UNL     1      12.540   2.461 -19.511  1.00  0.00    -0.550 OA
ENDBRANCH   1   2
BRANCH   1   5
ATOM      5  C   UNL     1      10.663   3.541 -21.932  1.00  0.00     0.059 C 
BRANCH   5   6
ATOM      6  C   UNL     1      11.684   3.460 -23.026  1.00  0.00     0.042 C 
ATOM      7  O   UNL     1      12.732   2.781 -22.866  1.00  0.00    -0.550 OA
ATOM      8  O   UNL     1      11.458   4.103 -24.237  1.00  0.00    -0.550 OA
ENDBRANCH   5   6
ENDBRANCH   1   5
TORSDOF 3
ENDMDL
MODEL 4
REMARK VINA RESULT:    -2.707      2.295      3.092
REMARK INTER + INTRA:          -3.299
REMARK INTER:                  -3.180
REMARK INTRA:                  -0.118
REMARK UNBOUND:                -0.117
REMARK SMILES O=C([O-])CCC(=O)[O-]
REMARK SMILES IDX 4 1 2 2 1 3 3 4 5 5 6 6 7 7 8 8
REMARK H PARENT
REMARK Flexibility Score: inf
ROOT
ATOM      1  C   UNL     1      10.591   3.447 -21.954  1.00  0.00     0.059 C 
ENDROOT
BRANCH   1   2
ATOM      2  C   UNL     1      11.822   3.498 -22.805  1.00  0.00     0.042 C 
ATOM      3  O   UNL     1      12.293   4.605 -23.175  1.00  0.00    -0.550 OA
ATOM      4  O   UNL     1      12.474   2.322 -23.155  1.00  0.00    -0.550 OA
ENDBRANCH   1   2
BRANCH   1   5
ATOM      5  C   UNL     1      10.571   2.200 -21.063  1.00  0.00     0.059 C 
BRANCH   5   6
ATOM      6  C   UNL     1      11.167   2.475 -19.716  1.00  0.00     0.042 C 
ATOM      7  O   UNL     1      10.422   2.726 -18.733  1.00  0.00    -0.550 OA
ATOM      8  O   UNL     1      12.544   2.416 -19.540  1.00  0.00    -0.550 OA
ENDBRANCH   5   6
ENDBRANCH   1   5
TORSDOF 3
ENDMDL
MODEL 5
REMARK VINA RESULT:    -2.650      7.243      8.497
REMARK INTER + INTRA:          -3.232
REMARK INTER:                  -3.109
REMARK INTRA:                  -0.123
REMARK UNBOUND:                -0.117
REMARK SMILES O=C([O-])CCC(=O)[O-]
REMARK SMILES IDX 4 1 2 2 1 3 3 4 5 5 6 6 7 7 8 8
REMARK H PARENT
REMARK Flexibility Score: inf
ROOT
ATOM      1  C   UNL     1      16.912   0.219 -21.828  1.00  0.00     0.059 C 
ENDROOT
BRANCH   1   2
ATOM      2  C   UNL     1      16.260  -0.009 -20.499  1.00  0.00     0.042 C 
ATOM      3  O   UNL     1      16.338  -1.133 -19.938  1.00  0.00    -0.550 OA
ATOM      4  O   UNL     1      15.598   1.034 -19.862  1.00  0.00    -0.550 OA
ENDBRANCH   1   2
BRANCH   1   5
ATOM      5  C   UNL     1      16.520  -0.861 -22.842  1.00  0.00     0.059 C 
BRANCH   5   6
ATOM      6  C   UNL     1      17.707  -1.667 -23.276  1.00  0.00     0.042 C 
ATOM      7  O   UNL     1      17.915  -1.882 -24.498  1.00  0.00    -0.550 OA
ATOM      8  O   UNL     1      18.605  -2.145 -22.330  1.00  0.00    -0.550 OA
ENDBRANCH   5   6
ENDBRANCH   1   5
TORSDOF 3
ENDMDL
MODEL 6
REMARK VINA RESULT:    -2.646      7.206      7.937
REMARK INTER + INTRA:          -3.228
REMARK INTER:                  -3.104
REMARK INTRA:                  -0.123
REMARK UNBOUND:                -0.117
REMARK SMILES O=C([O-])CCC(=O)[O-]
REMARK SMILES IDX 4 1 2 2 1 3 3 4 5 5 6 6 7 7 8 8
REMARK H PARENT
REMARK Flexibility Score: inf
ROOT
ATOM      1  C   UNL     1      16.473  -0.847 -22.830  1.00  0.00     0.059 C 
ENDROOT
BRANCH   1   2
ATOM      2  C   UNL     1      17.694  -1.593 -23.273  1.00  0.00     0.042 C 
ATOM      3  O   UNL     1      18.001  -1.640 -24.493  1.00  0.00    -0.550 OA
ATOM      4  O   UNL     1      18.515  -2.203 -22.333  1.00  0.00    -0.550 OA
ENDBRANCH   1   2
BRANCH   1   5
ATOM      5  C   UNL     1      16.823   0.273 -21.844  1.00  0.00     0.059 C 
BRANCH   5   6
ATOM      6  C   UNL     1      16.232   0.019 -20.490  1.00  0.00     0.042 C 
ATOM      7  O   UNL     1      16.354  -1.110 -19.947  1.00  0.00    -0.550 OA
ATOM      8  O   UNL     1      15.582   1.042 -19.812  1.00  0.00    -0.550 OA
ENDBRANCH   5   6
ENDBRANCH   1   5
TORSDOF 3
ENDMDL
MODEL 7
REMARK VINA RESULT:    -2.613      7.193      7.848
REMARK INTER + INTRA:          -3.188
REMARK INTER:                  -3.066
REMARK INTRA:                  -0.122
REMARK UNBOUND:                -0.117
REMARK SMILES O=C([O-])CCC(=O)[O-]
REMARK SMILES IDX 4 1 2 2 1 3 3 4 5 5 6 6 7 7 8 8
REMARK H PARENT
REMARK Flexibility Score: inf
ROOT
ATOM      1  C   UNL     1      16.416  -1.034 -22.736  1.00  0.00     0.059 C 
ENDROOT
BRANCH   1   2
ATOM      2  C   UNL     1      17.731  -1.596 -23.179  1.00  0.00     0.042 C 
ATOM      3  O   UNL     1      18.515  -2.114 -22.341  1.00  0.00    -0.550 OA
ATOM      4  O   UNL     1      18.073  -1.585 -24.526  1.00  0.00    -0.550 OA
ENDBRANCH   1   2
BRANCH   1   5
ATOM      5  C   UNL     1      16.593   0.288 -21.980  1.00  0.00     0.059 C 
BRANCH   5   6
ATOM      6  C   UNL     1      16.199   0.156 -20.540  1.00  0.00     0.042 C 
ATOM      7  O   UNL     1      15.710   1.139 -19.924  1.00  0.00    -0.550 OA
ATOM      8  O   UNL     1      16.337  -1.064 -19.891  1.00  0.00    -0.550 OA
ENDBRANCH   5   6
ENDBRANCH   1   5
TORSDOF 3
ENDMDL
MODEL 8
REMARK VINA RESULT:    -2.585      8.040      9.059
REMARK INTER + INTRA:          -3.156
REMARK INTER:                  -2.976
REMARK INTRA:                  -0.180
REMARK UNBOUND:                -0.117
REMARK SMILES O=C([O-])CCC(=O)[O-]
REMARK SMILES IDX 4 1 2 2 1 3 3 4 5 5 6 6 7 7 8 8
REMARK H PARENT
REMARK Flexibility Score: inf
ROOT
ATOM      1  C   UNL     1      16.464  -1.296 -22.619  1.00  0.00     0.059 C 
ENDROOT
BRANCH   1   2
ATOM      2  C   UNL     1      16.614  -0.505 -21.357  1.00  0.00     0.042 C 
ATOM      3  O   UNL     1      16.525  -1.074 -20.237  1.00  0.00    -0.550 OA
ATOM      4  O   UNL     1      16.891   0.855 -21.417  1.00  0.00    -0.550 OA
ENDBRANCH   1   2
BRANCH   1   5
ATOM      5  C   UNL     1      17.667  -1.107 -23.550  1.00  0.00     0.059 C 
BRANCH   5   6
ATOM      6  C   UNL     1      18.946  -1.524 -22.890  1.00  0.00     0.042 C 
ATOM      7  O   UNL     1      19.889  -0.700 -22.756  1.00  0.00    -0.550 OA
ATOM      8  O   UNL     1      19.080  -2.812 -22.387  1.00  0.00    -0.550 OA
ENDBRANCH   5   6
ENDBRANCH   1   5
TORSDOF 3
ENDMDL
MODEL 9
REMARK VINA RESULT:    -2.569      5.452      6.196
REMARK INTER + INTRA:          -3.137
REMARK INTER:                  -3.069
REMARK INTRA:                  -0.068
REMARK UNBOUND:                -0.117
REMARK SMILES O=C([O-])CCC(=O)[O-]
REMARK SMILES IDX 4 1 2 2 1 3 3 4 5 5 6 6 7 7 8 8
REMARK H PARENT
REMARK Flexibility Score: inf
ROOT
ATOM      1  C   UNL     1      16.747   0.792 -21.557  1.00  0.00     0.059 C 
ENDROOT
BRANCH   1   2
ATOM      2  C   UNL     1      16.802  -0.648 -21.149  1.00  0.00     0.042 C 
ATOM      3  O   UNL     1      17.447  -1.479 -21.840  1.00  0.00    -0.550 OA
ATOM      4  O   UNL     1      16.173  -1.064 -19.982  1.00  0.00    -0.550 OA
ENDBRANCH   1   2
BRANCH   1   5
ATOM      5  C   UNL     1      15.919   1.627 -20.573  1.00  0.00     0.059 C 
BRANCH   5   6
ATOM      6  C   UNL     1      14.783   2.321 -21.260  1.00  0.00     0.042 C 
ATOM      7  O   UNL     1      14.764   2.416 -22.515  1.00  0.00    -0.550 OA
ATOM      8  O   UNL     1      13.725   2.826 -20.515  1.00  0.00    -0.550 OA
ENDBRANCH   5   6
ENDBRANCH   1   5
TORSDOF 3
ENDMDL
