MODEL 1
REMARK VINA RESULT:    -4.636      0.000      0.000
REMARK INTER + INTRA:          -7.195
REMARK INTER:                  -5.720
REMARK INTRA:                  -1.475
REMARK UNBOUND:                -1.475
REMARK SMILES CC(C)=CCC[C@H](C)c1ccc(C)cc1
REMARK SMILES IDX 6 1 7 2 8 3 9 4 13 5 12 6 11 7 14 8 10 9 15 10 5 11 4 12
REMARK SMILES IDX 2 13 1 14 3 15
REMARK H PARENT
REMARK Flexibility Score: inf
ROOT
ATOM      1  C   UNL     1     -21.080  26.168   4.044  1.00  0.00     0.012 C 
ENDROOT
BRANCH   1   2
ATOM      2  C   UNL     1     -20.075  27.335   3.896  1.00  0.00     0.016 C 
ATOM      3  C   UNL     1     -18.633  26.831   4.033  1.00  0.00     0.013 C 
BRANCH   2   4
ATOM      4  C   UNL     1     -20.350  28.454   4.887  1.00  0.00    -0.045 A 
ATOM      5  C   UNL     1     -21.228  31.546   7.771  1.00  0.00     0.044 C 
ATOM      6  C   UNL     1     -20.910  30.494   6.750  1.00  0.00    -0.051 A 
ATOM      7  C   UNL     1     -19.693  29.801   6.806  1.00  0.00     0.004 A 
ATOM      8  C   UNL     1     -21.856  30.146   5.775  1.00  0.00     0.004 A 
ATOM      9  C   UNL     1     -19.412  28.792   5.880  1.00  0.00     0.004 A 
ATOM     10  C   UNL     1     -21.576  29.139   4.848  1.00  0.00     0.004 A 
ENDBRANCH   2   4
ENDBRANCH   1   2
BRANCH   1  11
ATOM     11  C   UNL     1     -21.002  25.458   5.407  1.00  0.00     0.028 C 
BRANCH  11  12
ATOM     12  C   UNL     1     -22.022  26.002   6.382  1.00  0.00    -0.028 C 
ATOM     13  C   UNL     1     -21.736  26.390   7.642  1.00  0.00    -0.080 C 
ATOM     14  C   UNL     1     -20.331  26.345   8.194  1.00  0.00     0.039 C 
ATOM     15  C   UNL     1     -22.862  26.881   8.516  1.00  0.00     0.039 C 
ENDBRANCH  11  12
ENDBRANCH   1  11
TORSDOF 4
ENDMDL
MODEL 2
REMARK VINA RESULT:    -4.578     15.775     17.406
REMARK INTER + INTRA:          -7.124
REMARK INTER:                  -5.719
REMARK INTRA:                  -1.404
REMARK UNBOUND:                -1.475
REMARK SMILES CC(C)=CCC[C@H](C)c1ccc(C)cc1
REMARK SMILES IDX 6 1 7 2 8 3 9 4 13 5 12 6 11 7 14 8 10 9 15 10 5 11 4 12
REMARK SMILES IDX 2 13 1 14 3 15
REMARK H PARENT
REMARK Flexibility Score: inf
ROOT
ATOM      1  C   UNL     1      -7.753  19.625   5.110  1.00  0.00     0.012 C 
ENDROOT
BRANCH   1   2
ATOM      2  C   UNL     1      -6.826  20.841   5.343  1.00  0.00     0.016 C 
ATOM      3  C   UNL     1      -5.948  21.098   4.112  1.00  0.00     0.013 C 
BRANCH   2   4
ATOM      4  C   UNL     1      -5.972  20.679   6.588  1.00  0.00    -0.045 A 
ATOM      5  C   UNL     1      -3.509  20.364  10.122  1.00  0.00     0.044 C 
ATOM      6  C   UNL     1      -4.364  20.441   8.892  1.00  0.00    -0.051 A 
ATOM      7  C   UNL     1      -5.761  20.416   9.000  1.00  0.00     0.004 A 
ATOM      8  C   UNL     1      -3.774  20.612   7.631  1.00  0.00     0.004 A 
ATOM      9  C   UNL     1      -6.560  20.529   7.858  1.00  0.00     0.004 A 
ATOM     10  C   UNL     1      -4.571  20.724   6.489  1.00  0.00     0.004 A 
ENDBRANCH   2   4
ENDBRANCH   1   2
BRANCH   1  11
ATOM     11  C   UNL     1      -7.005  18.281   5.063  1.00  0.00     0.028 C 
BRANCH  11  12
ATOM     12  C   UNL     1      -7.621  17.262   5.995  1.00  0.00    -0.028 C 
ATOM     13  C   UNL     1      -6.967  16.679   7.022  1.00  0.00    -0.080 C 
ATOM     14  C   UNL     1      -5.536  17.024   7.359  1.00  0.00     0.039 C 
ATOM     15  C   UNL     1      -7.698  15.652   7.849  1.00  0.00     0.039 C 
ENDBRANCH  11  12
ENDBRANCH   1  11
TORSDOF 4
ENDMDL
MODEL 3
REMARK VINA RESULT:    -4.326     15.814     17.963
REMARK INTER + INTRA:          -6.812
REMARK INTER:                  -5.371
REMARK INTRA:                  -1.441
REMARK UNBOUND:                -1.475
REMARK SMILES CC(C)=CCC[C@H](C)c1ccc(C)cc1
REMARK SMILES IDX 6 1 7 2 8 3 9 4 13 5 12 6 11 7 14 8 10 9 15 10 5 11 4 12
REMARK SMILES IDX 2 13 1 14 3 15
REMARK H PARENT
REMARK Flexibility Score: inf
ROOT
ATOM      1  C   UNL     1      -5.555  16.441   7.974  1.00  0.00     0.012 C 
ENDROOT
BRANCH   1   2
ATOM      2  C   UNL     1      -6.856  16.808   7.221  1.00  0.00     0.016 C 
ATOM      3  C   UNL     1      -7.410  15.592   6.470  1.00  0.00     0.013 C 
BRANCH   2   4
ATOM      4  C   UNL     1      -6.658  17.980   6.275  1.00  0.00    -0.045 A 
ATOM      5  C   UNL     1      -6.055  21.396   3.703  1.00  0.00     0.044 C 
ATOM      6  C   UNL     1      -6.282  20.195   4.573  1.00  0.00    -0.051 A 
ATOM      7  C   UNL     1      -5.362  19.137   4.569  1.00  0.00     0.004 A 
ATOM      8  C   UNL     1      -7.375  20.154   5.449  1.00  0.00     0.004 A 
ATOM      9  C   UNL     1      -5.549  18.036   5.409  1.00  0.00     0.004 A 
ATOM     10  C   UNL     1      -7.565  19.053   6.288  1.00  0.00     0.004 A 
ENDBRANCH   2   4
ENDBRANCH   1   2
BRANCH   1  11
ATOM     11  C   UNL     1      -5.182  17.442   9.081  1.00  0.00     0.028 C 
BRANCH  11  12
ATOM     12  C   UNL     1      -4.191  18.475   8.594  1.00  0.00    -0.028 C 
ATOM     13  C   UNL     1      -4.434  19.803   8.558  1.00  0.00    -0.080 C 
ATOM     14  C   UNL     1      -5.737  20.391   9.045  1.00  0.00     0.039 C 
ATOM     15  C   UNL     1      -3.364  20.715   8.014  1.00  0.00     0.039 C 
ENDBRANCH  11  12
ENDBRANCH   1  11
TORSDOF 4
ENDMDL
MODEL 4
REMARK VINA RESULT:    -4.285     16.159     18.045
REMARK INTER + INTRA:          -6.761
REMARK INTER:                  -5.341
REMARK INTRA:                  -1.421
REMARK UNBOUND:                -1.475
REMARK SMILES CC(C)=CCC[C@H](C)c1ccc(C)cc1
REMARK SMILES IDX 6 1 7 2 8 3 9 4 13 5 12 6 11 7 14 8 10 9 15 10 5 11 4 12
REMARK SMILES IDX 2 13 1 14 3 15
REMARK H PARENT
REMARK Flexibility Score: inf
ROOT
ATOM      1  C   UNL     1      -4.711  21.162   5.523  1.00  0.00     0.012 C 
ENDROOT
BRANCH   1   2
ATOM      2  C   UNL     1      -5.468  20.378   4.425  1.00  0.00     0.016 C 
ATOM      3  C   UNL     1      -6.523  21.265   3.754  1.00  0.00     0.013 C 
BRANCH   2   4
ATOM      4  C   UNL     1      -6.099  19.105   4.963  1.00  0.00    -0.045 A 
ATOM      5  C   UNL     1      -7.771  15.466   6.579  1.00  0.00     0.044 C 
ATOM      6  C   UNL     1      -7.211  16.728   5.993  1.00  0.00    -0.051 A 
ATOM      7  C   UNL     1      -7.717  17.975   6.388  1.00  0.00     0.004 A 
ATOM      8  C   UNL     1      -6.131  16.676   5.101  1.00  0.00     0.004 A 
ATOM      9  C   UNL     1      -7.170  19.154   5.875  1.00  0.00     0.004 A 
ATOM     10  C   UNL     1      -5.583  17.853   4.586  1.00  0.00     0.004 A 
ENDBRANCH   2   4
ENDBRANCH   1   2
BRANCH   1  11
ATOM     11  C   UNL     1      -3.899  20.262   6.472  1.00  0.00     0.028 C 
BRANCH  11  12
ATOM     12  C   UNL     1      -4.392  20.362   7.898  1.00  0.00    -0.028 C 
ATOM     13  C   UNL     1      -4.657  19.298   8.686  1.00  0.00    -0.080 C 
ATOM     14  C   UNL     1      -4.449  17.880   8.213  1.00  0.00     0.039 C 
ATOM     15  C   UNL     1      -5.176  19.548  10.080  1.00  0.00     0.039 C 
ENDBRANCH  11  12
ENDBRANCH   1  11
TORSDOF 4
ENDMDL
MODEL 5
REMARK VINA RESULT:    -4.279     15.520     18.172
REMARK INTER + INTRA:          -6.755
REMARK INTER:                  -6.122
REMARK INTRA:                  -0.632
REMARK UNBOUND:                -1.475
REMARK SMILES CC(C)=CCC[C@H](C)c1ccc(C)cc1
REMARK SMILES IDX 6 1 7 2 8 3 9 4 13 5 12 6 11 7 14 8 10 9 15 10 5 11 4 12
REMARK SMILES IDX 2 13 1 14 3 15
REMARK H PARENT
REMARK Flexibility Score: inf
ROOT
ATOM      1  C   UNL     1      -9.331  21.142  -8.280  1.00  0.00     0.012 C 
ENDROOT
BRANCH   1   2
ATOM      2  C   UNL     1      -9.464  22.565  -8.873  1.00  0.00     0.016 C 
ATOM      3  C   UNL     1      -8.332  23.470  -8.373  1.00  0.00     0.013 C 
BRANCH   2   4
ATOM      4  C   UNL     1     -10.819  23.184  -8.577  1.00  0.00    -0.045 A 
ATOM      5  C   UNL     1     -14.655  24.905  -7.590  1.00  0.00     0.044 C 
ATOM      6  C   UNL     1     -13.331  24.307  -7.964  1.00  0.00    -0.051 A 
ATOM      7  C   UNL     1     -12.234  25.136  -8.239  1.00  0.00     0.004 A 
ATOM      8  C   UNL     1     -13.161  22.916  -7.972  1.00  0.00     0.004 A 
ATOM      9  C   UNL     1     -10.989  24.581  -8.546  1.00  0.00     0.004 A 
ATOM     10  C   UNL     1     -11.918  22.359  -8.281  1.00  0.00     0.004 A 
ENDBRANCH   2   4
ENDBRANCH   1   2
BRANCH   1  11
ATOM     11  C   UNL     1      -8.718  21.119  -6.869  1.00  0.00     0.028 C 
BRANCH  11  12
ATOM     12  C   UNL     1      -9.294  20.006  -6.024  1.00  0.00    -0.028 C 
ATOM     13  C   UNL     1      -8.554  19.154  -5.282  1.00  0.00    -0.080 C 
ATOM     14  C   UNL     1      -7.051  19.261  -5.203  1.00  0.00     0.039 C 
ATOM     15  C   UNL     1      -9.263  18.067  -4.515  1.00  0.00     0.039 C 
ENDBRANCH  11  12
ENDBRANCH   1  11
TORSDOF 4
ENDMDL
MODEL 6
REMARK VINA RESULT:    -4.276     15.669     18.197
REMARK INTER + INTRA:          -6.750
REMARK INTER:                  -5.306
REMARK INTRA:                  -1.444
REMARK UNBOUND:                -1.475
REMARK SMILES CC(C)=CCC[C@H](C)c1ccc(C)cc1
REMARK SMILES IDX 6 1 7 2 8 3 9 4 13 5 12 6 11 7 14 8 10 9 15 10 5 11 4 12
REMARK SMILES IDX 2 13 1 14 3 15
REMARK H PARENT
REMARK Flexibility Score: inf
ROOT
ATOM      1  C   UNL     1      -6.968  20.449   4.663  1.00  0.00     0.012 C 
ENDROOT
BRANCH   1   2
ATOM      2  C   UNL     1      -7.592  20.009   6.009  1.00  0.00     0.016 C 
ATOM      3  C   UNL     1      -7.037  20.849   7.166  1.00  0.00     0.013 C 
BRANCH   2   4
ATOM      4  C   UNL     1      -7.391  18.527   6.275  1.00  0.00    -0.045 A 
ATOM      5  C   UNL     1      -6.709  14.313   6.930  1.00  0.00     0.044 C 
ATOM      6  C   UNL     1      -6.975  15.774   6.717  1.00  0.00    -0.051 A 
ATOM      7  C   UNL     1      -6.568  16.713   7.675  1.00  0.00     0.004 A 
ATOM      8  C   UNL     1      -7.566  16.218   5.526  1.00  0.00     0.004 A 
ATOM      9  C   UNL     1      -6.777  18.078   7.459  1.00  0.00     0.004 A 
ATOM     10  C   UNL     1      -7.778  17.582   5.309  1.00  0.00     0.004 A 
ENDBRANCH   2   4
ENDBRANCH   1   2
BRANCH   1  11
ATOM     11  C   UNL     1      -5.451  20.699   4.741  1.00  0.00     0.028 C 
BRANCH  11  12
ATOM     12  C   UNL     1      -4.665  19.409   4.671  1.00  0.00    -0.028 C 
ATOM     13  C   UNL     1      -3.766  19.017   5.597  1.00  0.00    -0.080 C 
ATOM     14  C   UNL     1      -3.481  19.835   6.834  1.00  0.00     0.039 C 
ATOM     15  C   UNL     1      -3.029  17.720   5.380  1.00  0.00     0.039 C 
ENDBRANCH  11  12
ENDBRANCH   1  11
TORSDOF 4
ENDMDL
MODEL 7
REMARK VINA RESULT:    -4.233     13.827     16.857
REMARK INTER + INTRA:          -6.698
REMARK INTER:                  -6.247
REMARK INTRA:                  -0.450
REMARK UNBOUND:                -1.475
REMARK SMILES CC(C)=CCC[C@H](C)c1ccc(C)cc1
REMARK SMILES IDX 6 1 7 2 8 3 9 4 13 5 12 6 11 7 14 8 10 9 15 10 5 11 4 12
REMARK SMILES IDX 2 13 1 14 3 15
REMARK H PARENT
REMARK Flexibility Score: inf
ROOT
ATOM      1  C   UNL     1     -14.184  24.793  -7.791  1.00  0.00     0.012 C 
ENDROOT
BRANCH   1   2
ATOM      2  C   UNL     1     -13.470  23.581  -8.436  1.00  0.00     0.016 C 
ATOM      3  C   UNL     1     -13.840  22.283  -7.709  1.00  0.00     0.013 C 
BRANCH   2   4
ATOM      4  C   UNL     1     -11.963  23.763  -8.480  1.00  0.00    -0.045 A 
ATOM      5  C   UNL     1      -7.680  24.323  -8.462  1.00  0.00     0.044 C 
ATOM      6  C   UNL     1      -9.167  24.129  -8.501  1.00  0.00    -0.051 A 
ATOM      7  C   UNL     1      -9.711  22.836  -8.488  1.00  0.00     0.004 A 
ATOM      8  C   UNL     1     -10.026  25.236  -8.477  1.00  0.00     0.004 A 
ATOM      9  C   UNL     1     -11.096  22.653  -8.482  1.00  0.00     0.004 A 
ATOM     10  C   UNL     1     -11.411  25.056  -8.473  1.00  0.00     0.004 A 
ENDBRANCH   2   4
ENDBRANCH   1   2
BRANCH   1  11
ATOM     11  C   UNL     1     -15.678  24.889  -8.149  1.00  0.00     0.028 C 
BRANCH  11  12
ATOM     12  C   UNL     1     -16.451  25.685  -7.122  1.00  0.00    -0.028 C 
ATOM     13  C   UNL     1     -17.782  25.577  -6.923  1.00  0.00    -0.080 C 
ATOM     14  C   UNL     1     -18.632  24.605  -7.705  1.00  0.00     0.039 C 
ATOM     15  C   UNL     1     -18.427  26.461  -5.886  1.00  0.00     0.039 C 
ENDBRANCH  11  12
ENDBRANCH   1  11
TORSDOF 4
ENDMDL
MODEL 8
REMARK VINA RESULT:    -4.211      1.387      3.846
REMARK INTER + INTRA:          -6.671
REMARK INTER:                  -5.192
REMARK INTRA:                  -1.479
REMARK UNBOUND:                -1.475
REMARK SMILES CC(C)=CCC[C@H](C)c1ccc(C)cc1
REMARK SMILES IDX 6 1 7 2 8 3 9 4 13 5 12 6 11 7 14 8 10 9 15 10 5 11 4 12
REMARK SMILES IDX 2 13 1 14 3 15
REMARK H PARENT
REMARK Flexibility Score: inf
ROOT
ATOM      1  C   UNL     1     -20.435  26.475   8.287  1.00  0.00     0.012 C 
ENDROOT
BRANCH   1   2
ATOM      2  C   UNL     1     -21.849  27.102   8.279  1.00  0.00     0.016 C 
ATOM      3  C   UNL     1     -22.926  26.012   8.208  1.00  0.00     0.013 C 
BRANCH   2   4
ATOM      4  C   UNL     1     -22.024  28.105   7.151  1.00  0.00    -0.045 A 
ATOM      5  C   UNL     1     -22.389  30.911   3.888  1.00  0.00     0.044 C 
ATOM      6  C   UNL     1     -22.285  29.953   5.038  1.00  0.00    -0.051 A 
ATOM      7  C   UNL     1     -23.082  28.800   5.071  1.00  0.00     0.004 A 
ATOM      8  C   UNL     1     -21.340  30.165   6.052  1.00  0.00     0.004 A 
ATOM      9  C   UNL     1     -22.956  27.885   6.120  1.00  0.00     0.004 A 
ATOM     10  C   UNL     1     -21.214  29.253   7.102  1.00  0.00     0.004 A 
ENDBRANCH   2   4
ENDBRANCH   1   2
BRANCH   1  11
ATOM     11  C   UNL     1     -20.122  25.646   7.028  1.00  0.00     0.028 C 
BRANCH  11  12
ATOM     12  C   UNL     1     -19.372  26.457   5.995  1.00  0.00    -0.028 C 
ATOM     13  C   UNL     1     -19.696  26.502   4.685  1.00  0.00    -0.080 C 
ATOM     14  C   UNL     1     -20.885  25.757   4.128  1.00  0.00     0.039 C 
ATOM     15  C   UNL     1     -18.837  27.327   3.761  1.00  0.00     0.039 C 
ENDBRANCH  11  12
ENDBRANCH   1  11
TORSDOF 4
ENDMDL
MODEL 9
REMARK VINA RESULT:    -4.168     16.036     18.016
REMARK INTER + INTRA:          -6.617
REMARK INTER:                  -5.131
REMARK INTRA:                  -1.486
REMARK UNBOUND:                -1.475
REMARK SMILES CC(C)=CCC[C@H](C)c1ccc(C)cc1
REMARK SMILES IDX 6 1 7 2 8 3 9 4 13 5 12 6 11 7 14 8 10 9 15 10 5 11 4 12
REMARK SMILES IDX 2 13 1 14 3 15
REMARK H PARENT
REMARK Flexibility Score: inf
ROOT
ATOM      1  C   UNL     1      -4.019  18.205   8.941  1.00  0.00     0.012 C 
ENDROOT
BRANCH   1   2
ATOM      2  C   UNL     1      -4.423  19.699   8.969  1.00  0.00     0.016 C 
ATOM      3  C   UNL     1      -5.501  19.950  10.030  1.00  0.00     0.013 C 
BRANCH   2   4
ATOM      4  C   UNL     1      -4.882  20.192   7.608  1.00  0.00    -0.045 A 
ATOM      5  C   UNL     1      -6.192  21.455   3.691  1.00  0.00     0.044 C 
ATOM      6  C   UNL     1      -5.726  21.047   5.057  1.00  0.00    -0.051 A 
ATOM      7  C   UNL     1      -6.609  21.090   6.146  1.00  0.00     0.004 A 
ATOM      8  C   UNL     1      -4.429  20.550   5.243  1.00  0.00     0.004 A 
ATOM      9  C   UNL     1      -6.191  20.671   7.411  1.00  0.00     0.004 A 
ATOM     10  C   UNL     1      -4.008  20.133   6.508  1.00  0.00     0.004 A 
ENDBRANCH   2   4
ENDBRANCH   1   2
BRANCH   1  11
ATOM     11  C   UNL     1      -5.195  17.255   8.654  1.00  0.00     0.028 C 
BRANCH  11  12
ATOM     12  C   UNL     1      -5.284  16.898   7.187  1.00  0.00    -0.028 C 
ATOM     13  C   UNL     1      -6.400  17.031   6.440  1.00  0.00    -0.080 C 
ATOM     14  C   UNL     1      -7.682  17.592   7.008  1.00  0.00     0.039 C 
ATOM     15  C   UNL     1      -6.353  16.602   4.995  1.00  0.00     0.039 C 
ENDBRANCH  11  12
ENDBRANCH   1  11
TORSDOF 4
ENDMDL
