MODEL 1
REMARK VINA RESULT:    -5.267      0.000      0.000
REMARK INTER + INTRA:         -10.518
REMARK INTER:                  -9.578
REMARK INTRA:                  -0.940
REMARK UNBOUND:                -0.940
REMARK SMILES CCCCCC=CCC=CCCCCCCCC(=O)[O-]
REMARK SMILES IDX 11 1 12 2 13 3 14 4 15 5 16 6 17 7 18 8 19 9 20 10 10 11
REMARK SMILES IDX 9 12 8 13 7 14 6 15 5 16 4 17 3 18 2 19 1 20
REMARK H PARENT
REMARK Flexibility Score: inf
ROOT
ATOM      1  C   UNL     1      15.091   3.208  11.777  1.00  0.00     0.027 C 
ENDROOT
BRANCH   1   2
ATOM      2  C   UNL     1      14.535   2.738  13.131  1.00  0.00     0.004 C 
BRANCH   2   3
ATOM      3  C   UNL     1      13.183   2.004  13.041  1.00  0.00     0.000 C 
BRANCH   3   4
ATOM      4  C   UNL     1      12.008   2.868  12.543  1.00  0.00     0.000 C 
BRANCH   4   5
ATOM      5  C   UNL     1      11.767   4.135  13.393  1.00  0.00     0.000 C 
BRANCH   5   6
ATOM      6  C   UNL     1      10.311   4.243  13.879  1.00  0.00     0.006 C 
BRANCH   6   7
ATOM      7  C   UNL     1       9.808   2.932  14.498  1.00  0.00     0.053 C 
BRANCH   7   8
ATOM      8  C   UNL     1       8.595   3.148  15.350  1.00  0.00     0.041 C 
ATOM      9  O   UNL     1       7.880   4.173  15.188  1.00  0.00    -0.550 OA
ATOM     10  O   UNL     1       8.270   2.233  16.343  1.00  0.00    -0.550 OA
ENDBRANCH   7   8
ENDBRANCH   6   7
ENDBRANCH   5   6
ENDBRANCH   4   5
ENDBRANCH   3   4
ENDBRANCH   2   3
ENDBRANCH   1   2
BRANCH   1  11
ATOM     11  C   UNL     1      15.104   4.709  11.677  1.00  0.00    -0.031 C 
ATOM     12  C   UNL     1      14.074   5.388  11.150  1.00  0.00    -0.027 C 
BRANCH  12  13
ATOM     13  C   UNL     1      14.140   6.873  10.933  1.00  0.00     0.054 C 
BRANCH  13  14
ATOM     14  C   UNL     1      13.487   7.238   9.630  1.00  0.00    -0.027 C 
ATOM     15  C   UNL     1      13.085   8.492   9.374  1.00  0.00    -0.031 C 
BRANCH  15  16
ATOM     16  C   UNL     1      12.410   8.859   8.080  1.00  0.00     0.027 C 
BRANCH  16  17
ATOM     17  C   UNL     1      13.147   8.265   6.873  1.00  0.00     0.004 C 
BRANCH  17  18
ATOM     18  C   UNL     1      12.307   7.198   6.150  1.00  0.00     0.000 C 
BRANCH  18  19
ATOM     19  C   UNL     1      12.627   7.114   4.650  1.00  0.00    -0.003 C 
ATOM     20  C   UNL     1      14.129   7.069   4.368  1.00  0.00     0.004 C 
ENDBRANCH  18  19
ENDBRANCH  17  18
ENDBRANCH  16  17
ENDBRANCH  15  16
ENDBRANCH  13  14
ENDBRANCH  12  13
ENDBRANCH   1  11
TORSDOF 14
ENDMDL
MODEL 2
REMARK VINA RESULT:    -5.049      2.078      2.587
REMARK INTER + INTRA:         -10.122
REMARK INTER:                  -8.417
REMARK INTRA:                  -1.705
REMARK UNBOUND:                -0.940
REMARK SMILES CCCCCC=CCC=CCCCCCCCC(=O)[O-]
REMARK SMILES IDX 11 1 12 2 13 3 14 4 15 5 16 6 17 7 18 8 19 9 20 10 10 11
REMARK SMILES IDX 9 12 8 13 7 14 6 15 5 16 4 17 3 18 2 19 1 20
REMARK H PARENT
REMARK Flexibility Score: inf
ROOT
ATOM      1  C   UNL     1      15.409   3.241  11.540  1.00  0.00     0.027 C 
ENDROOT
BRANCH   1   2
ATOM      2  C   UNL     1      16.007   2.735  12.862  1.00  0.00     0.004 C 
BRANCH   2   3
ATOM      3  C   UNL     1      15.903   3.737  14.029  1.00  0.00     0.000 C 
BRANCH   3   4
ATOM      4  C   UNL     1      15.176   3.204  15.279  1.00  0.00     0.000 C 
BRANCH   4   5
ATOM      5  C   UNL     1      13.946   4.045  15.685  1.00  0.00     0.000 C 
BRANCH   5   6
ATOM      6  C   UNL     1      13.232   4.661  14.469  1.00  0.00     0.006 C 
BRANCH   6   7
ATOM      7  C   UNL     1      11.930   3.925  14.127  1.00  0.00     0.053 C 
BRANCH   7   8
ATOM      8  C   UNL     1      12.120   2.953  13.003  1.00  0.00     0.041 C 
ATOM      9  O   UNL     1      11.769   3.260  11.833  1.00  0.00    -0.550 OA
ATOM     10  O   UNL     1      12.656   1.696  13.253  1.00  0.00    -0.550 OA
ENDBRANCH   7   8
ENDBRANCH   6   7
ENDBRANCH   5   6
ENDBRANCH   4   5
ENDBRANCH   3   4
ENDBRANCH   2   3
ENDBRANCH   1   2
BRANCH   1  11
ATOM     11  C   UNL     1      15.325   4.743  11.511  1.00  0.00    -0.031 C 
ATOM     12  C   UNL     1      14.242   5.378  11.039  1.00  0.00    -0.027 C 
BRANCH  12  13
ATOM     13  C   UNL     1      14.209   6.873  10.892  1.00  0.00     0.054 C 
BRANCH  13  14
ATOM     14  C   UNL     1      13.494   7.256   9.627  1.00  0.00    -0.027 C 
ATOM     15  C   UNL     1      13.053   8.506   9.423  1.00  0.00    -0.031 C 
BRANCH  15  16
ATOM     16  C   UNL     1      12.315   8.889   8.168  1.00  0.00     0.027 C 
BRANCH  16  17
ATOM     17  C   UNL     1      13.182   8.680   6.920  1.00  0.00     0.004 C 
BRANCH  17  18
ATOM     18  C   UNL     1      12.644   7.549   6.026  1.00  0.00     0.000 C 
BRANCH  18  19
ATOM     19  C   UNL     1      13.756   6.847   5.231  1.00  0.00    -0.003 C 
ATOM     20  C   UNL     1      14.843   7.813   4.760  1.00  0.00     0.004 C 
ENDBRANCH  18  19
ENDBRANCH  17  18
ENDBRANCH  16  17
ENDBRANCH  15  16
ENDBRANCH  13  14
ENDBRANCH  12  13
ENDBRANCH   1  11
TORSDOF 14
ENDMDL
MODEL 3
REMARK VINA RESULT:    -5.023     13.528     15.783
REMARK INTER + INTRA:         -10.074
REMARK INTER:                  -9.202
REMARK INTRA:                  -0.872
REMARK UNBOUND:                -0.940
REMARK SMILES CCCCCC=CCC=CCCCCCCCC(=O)[O-]
REMARK SMILES IDX 11 1 12 2 13 3 14 4 15 5 16 6 17 7 18 8 19 9 20 10 10 11
REMARK SMILES IDX 9 12 8 13 7 14 6 15 5 16 4 17 3 18 2 19 1 20
REMARK H PARENT
REMARK Flexibility Score: inf
ROOT
ATOM      1  C   UNL     1       0.564  -0.266  16.221  1.00  0.00     0.027 C 
ENDROOT
BRANCH   1   2
ATOM      2  C   UNL     1       0.395  -1.599  16.969  1.00  0.00     0.004 C 
BRANCH   2   3
ATOM      3  C   UNL     1       0.358  -1.464  18.503  1.00  0.00     0.000 C 
BRANCH   3   4
ATOM      4  C   UNL     1       0.116  -2.781  19.265  1.00  0.00     0.000 C 
BRANCH   4   5
ATOM      5  C   UNL     1      -0.083  -2.591  20.784  1.00  0.00     0.000 C 
BRANCH   5   6
ATOM      6  C   UNL     1       1.254  -2.520  21.543  1.00  0.00     0.006 C 
BRANCH   6   7
ATOM      7  C   UNL     1       1.061  -2.194  23.030  1.00  0.00     0.053 C 
BRANCH   7   8
ATOM      8  C   UNL     1       1.928  -1.054  23.467  1.00  0.00     0.041 C 
ATOM      9  O   UNL     1       1.437  -0.098  24.124  1.00  0.00    -0.550 OA
ATOM     10  O   UNL     1       3.274  -1.033  23.122  1.00  0.00    -0.550 OA
ENDBRANCH   7   8
ENDBRANCH   6   7
ENDBRANCH   5   6
ENDBRANCH   4   5
ENDBRANCH   3   4
ENDBRANCH   2   3
ENDBRANCH   1   2
BRANCH   1  11
ATOM     11  C   UNL     1      -0.696   0.124  15.498  1.00  0.00    -0.031 C 
ATOM     12  C   UNL     1      -1.839  -0.560  15.657  1.00  0.00    -0.027 C 
BRANCH  12  13
ATOM     13  C   UNL     1      -3.061  -0.249  14.840  1.00  0.00     0.054 C 
BRANCH  13  14
ATOM     14  C   UNL     1      -2.988   1.154  14.309  1.00  0.00    -0.027 C 
ATOM     15  C   UNL     1      -3.666   2.158  14.886  1.00  0.00    -0.031 C 
BRANCH  15  16
ATOM     16  C   UNL     1      -3.616   3.562  14.344  1.00  0.00     0.027 C 
BRANCH  16  17
ATOM     17  C   UNL     1      -3.579   3.572  12.810  1.00  0.00     0.004 C 
BRANCH  17  18
ATOM     18  C   UNL     1      -2.329   4.283  12.266  1.00  0.00     0.000 C 
BRANCH  18  19
ATOM     19  C   UNL     1      -1.848   5.416  13.186  1.00  0.00    -0.003 C 
ATOM     20  C   UNL     1      -0.406   5.835  12.902  1.00  0.00     0.004 C 
ENDBRANCH  18  19
ENDBRANCH  17  18
ENDBRANCH  16  17
ENDBRANCH  15  16
ENDBRANCH  13  14
ENDBRANCH  12  13
ENDBRANCH   1  11
TORSDOF 14
ENDMDL
MODEL 4
REMARK VINA RESULT:    -4.918      4.140      8.904
REMARK INTER + INTRA:          -9.883
REMARK INTER:                  -8.139
REMARK INTRA:                  -1.744
REMARK UNBOUND:                -0.940
REMARK SMILES CCCCCC=CCC=CCCCCCCCC(=O)[O-]
REMARK SMILES IDX 11 1 12 2 13 3 14 4 15 5 16 6 17 7 18 8 19 9 20 10 10 11
REMARK SMILES IDX 9 12 8 13 7 14 6 15 5 16 4 17 3 18 2 19 1 20
REMARK H PARENT
REMARK Flexibility Score: inf
ROOT
ATOM      1  C   UNL     1      12.309   8.632   7.272  1.00  0.00     0.027 C 
ENDROOT
BRANCH   1   2
ATOM      2  C   UNL     1      12.359   7.285   6.533  1.00  0.00     0.004 C 
BRANCH   2   3
ATOM      3  C   UNL     1      13.238   7.289   5.267  1.00  0.00     0.000 C 
BRANCH   3   4
ATOM      4  C   UNL     1      14.754   7.199   5.530  1.00  0.00     0.000 C 
BRANCH   4   5
ATOM      5  C   UNL     1      15.504   8.528   5.292  1.00  0.00     0.000 C 
BRANCH   5   6
ATOM      6  C   UNL     1      15.808   9.270   6.604  1.00  0.00     0.006 C 
BRANCH   6   7
ATOM      7  C   UNL     1      15.515  10.773   6.502  1.00  0.00     0.053 C 
BRANCH   7   8
ATOM      8  C   UNL     1      14.815  11.288   7.722  1.00  0.00     0.041 C 
ATOM      9  O   UNL     1      13.843  12.080   7.610  1.00  0.00    -0.550 OA
ATOM     10  O   UNL     1      15.258  10.917   8.985  1.00  0.00    -0.550 OA
ENDBRANCH   7   8
ENDBRANCH   6   7
ENDBRANCH   5   6
ENDBRANCH   4   5
ENDBRANCH   3   4
ENDBRANCH   2   3
ENDBRANCH   1   2
BRANCH   1  11
ATOM     11  C   UNL     1      12.656   8.476   8.728  1.00  0.00    -0.031 C 
ATOM     12  C   UNL     1      13.429   7.470   9.163  1.00  0.00    -0.027 C 
BRANCH  12  13
ATOM     13  C   UNL     1      13.669   7.240  10.628  1.00  0.00     0.054 C 
BRANCH  13  14
ATOM     14  C   UNL     1      13.729   5.768  10.920  1.00  0.00    -0.027 C 
ATOM     15  C   UNL     1      14.818   5.206  11.467  1.00  0.00    -0.031 C 
BRANCH  15  16
ATOM     16  C   UNL     1      14.893   3.728  11.741  1.00  0.00     0.027 C 
BRANCH  16  17
ATOM     17  C   UNL     1      14.027   3.334  12.944  1.00  0.00     0.004 C 
BRANCH  17  18
ATOM     18  C   UNL     1      12.933   2.322  12.563  1.00  0.00     0.000 C 
BRANCH  18  19
ATOM     19  C   UNL     1      11.609   2.580  13.297  1.00  0.00    -0.003 C 
ATOM     20  C   UNL     1      11.434   4.045  13.699  1.00  0.00     0.004 C 
ENDBRANCH  18  19
ENDBRANCH  17  18
ENDBRANCH  16  17
ENDBRANCH  15  16
ENDBRANCH  13  14
ENDBRANCH  12  13
ENDBRANCH   1  11
TORSDOF 14
ENDMDL
MODEL 5
REMARK VINA RESULT:    -4.909     13.551     17.201
REMARK INTER + INTRA:          -9.867
REMARK INTER:                  -8.926
REMARK INTRA:                  -0.941
REMARK UNBOUND:                -0.940
REMARK SMILES CCCCCC=CCC=CCCCCCCCC(=O)[O-]
REMARK SMILES IDX 11 1 12 2 13 3 14 4 15 5 16 6 17 7 18 8 19 9 20 10 10 11
REMARK SMILES IDX 9 12 8 13 7 14 6 15 5 16 4 17 3 18 2 19 1 20
REMARK H PARENT
REMARK Flexibility Score: inf
ROOT
ATOM      1  C   UNL     1      -2.605  -0.119  14.463  1.00  0.00     0.027 C 
ENDROOT
BRANCH   1   2
ATOM      2  C   UNL     1      -3.737   0.884  14.744  1.00  0.00     0.004 C 
BRANCH   2   3
ATOM      3  C   UNL     1      -3.254   2.269  15.216  1.00  0.00     0.000 C 
BRANCH   3   4
ATOM      4  C   UNL     1      -3.586   3.432  14.261  1.00  0.00     0.000 C 
BRANCH   4   5
ATOM      5  C   UNL     1      -3.094   3.206  12.815  1.00  0.00     0.000 C 
BRANCH   5   6
ATOM      6  C   UNL     1      -2.190   4.348  12.320  1.00  0.00     0.006 C 
BRANCH   6   7
ATOM      7  C   UNL     1      -1.967   5.418  13.397  1.00  0.00     0.053 C 
BRANCH   7   8
ATOM      8  C   UNL     1      -0.695   6.176  13.172  1.00  0.00     0.041 C 
ATOM      9  O   UNL     1      -0.672   7.429  13.297  1.00  0.00    -0.550 OA
ATOM     10  O   UNL     1       0.459   5.501  12.794  1.00  0.00    -0.550 OA
ENDBRANCH   7   8
ENDBRANCH   6   7
ENDBRANCH   5   6
ENDBRANCH   4   5
ENDBRANCH   3   4
ENDBRANCH   2   3
ENDBRANCH   1   2
BRANCH   1  11
ATOM     11  C   UNL     1      -1.526  -0.038  15.508  1.00  0.00    -0.031 C 
ATOM     12  C   UNL     1      -0.238  -0.264  15.209  1.00  0.00    -0.027 C 
BRANCH  12  13
ATOM     13  C   UNL     1       0.820  -0.310  16.274  1.00  0.00     0.054 C 
BRANCH  13  14
ATOM     14  C   UNL     1       0.633  -1.522  17.142  1.00  0.00    -0.027 C 
ATOM     15  C   UNL     1       0.375  -1.412  18.454  1.00  0.00    -0.031 C 
BRANCH  15  16
ATOM     16  C   UNL     1       0.209  -2.623  19.332  1.00  0.00     0.027 C 
BRANCH  16  17
ATOM     17  C   UNL     1       1.069  -2.522  20.598  1.00  0.00     0.004 C 
BRANCH  17  18
ATOM     18  C   UNL     1       0.225  -2.616  21.880  1.00  0.00     0.000 C 
BRANCH  18  19
ATOM     19  C   UNL     1       0.988  -2.139  23.125  1.00  0.00    -0.003 C 
ATOM     20  C   UNL     1       2.275  -1.391  22.777  1.00  0.00     0.004 C 
ENDBRANCH  18  19
ENDBRANCH  17  18
ENDBRANCH  16  17
ENDBRANCH  15  16
ENDBRANCH  13  14
ENDBRANCH  12  13
ENDBRANCH   1  11
TORSDOF 14
ENDMDL
MODEL 6
REMARK VINA RESULT:    -4.788      2.851      3.702
REMARK INTER + INTRA:          -9.647
REMARK INTER:                  -8.206
REMARK INTRA:                  -1.441
REMARK UNBOUND:                -0.940
REMARK SMILES CCCCCC=CCC=CCCCCCCCC(=O)[O-]
REMARK SMILES IDX 11 1 12 2 13 3 14 4 15 5 16 6 17 7 18 8 19 9 20 10 10 11
REMARK SMILES IDX 9 12 8 13 7 14 6 15 5 16 4 17 3 18 2 19 1 20
REMARK H PARENT
REMARK Flexibility Score: inf
ROOT
ATOM      1  C   UNL     1      12.584   4.133  11.683  1.00  0.00     0.027 C 
ENDROOT
BRANCH   1   2
ATOM      2  C   UNL     1      12.727   2.755  12.350  1.00  0.00     0.004 C 
BRANCH   2   3
ATOM      3  C   UNL     1      12.586   2.776  13.884  1.00  0.00     0.000 C 
BRANCH   3   4
ATOM      4  C   UNL     1      12.563   4.182  14.515  1.00  0.00     0.000 C 
BRANCH   4   5
ATOM      5  C   UNL     1      13.739   4.447  15.480  1.00  0.00     0.000 C 
BRANCH   5   6
ATOM      6  C   UNL     1      15.095   4.049  14.871  1.00  0.00     0.006 C 
BRANCH   6   7
ATOM      7  C   UNL     1      15.938   3.205  15.836  1.00  0.00     0.053 C 
BRANCH   7   8
ATOM      8  C   UNL     1      15.531   1.764  15.815  1.00  0.00     0.041 C 
ATOM      9  O   UNL     1      15.616   1.095  14.751  1.00  0.00    -0.550 OA
ATOM     10  O   UNL     1      15.027   1.167  16.964  1.00  0.00    -0.550 OA
ENDBRANCH   7   8
ENDBRANCH   6   7
ENDBRANCH   5   6
ENDBRANCH   4   5
ENDBRANCH   3   4
ENDBRANCH   2   3
ENDBRANCH   1   2
BRANCH   1  11
ATOM     11  C   UNL     1      13.926   4.732  11.360  1.00  0.00    -0.031 C 
ATOM     12  C   UNL     1      14.130   6.057  11.385  1.00  0.00    -0.027 C 
BRANCH  12  13
ATOM     13  C   UNL     1      15.431   6.661  10.939  1.00  0.00     0.054 C 
BRANCH  13  14
ATOM     14  C   UNL     1      15.222   7.496   9.708  1.00  0.00    -0.027 C 
ATOM     15  C   UNL     1      14.047   8.092   9.457  1.00  0.00    -0.031 C 
BRANCH  15  16
ATOM     16  C   UNL     1      13.824   8.910   8.213  1.00  0.00     0.027 C 
BRANCH  16  17
ATOM     17  C   UNL     1      12.346   8.920   7.803  1.00  0.00     0.004 C 
BRANCH  17  18
ATOM     18  C   UNL     1      11.993   7.739   6.883  1.00  0.00     0.000 C 
BRANCH  18  19
ATOM     19  C   UNL     1      13.161   7.335   5.969  1.00  0.00    -0.003 C 
ATOM     20  C   UNL     1      12.714   7.044   4.537  1.00  0.00     0.004 C 
ENDBRANCH  18  19
ENDBRANCH  17  18
ENDBRANCH  16  17
ENDBRANCH  15  16
ENDBRANCH  13  14
ENDBRANCH  12  13
ENDBRANCH   1  11
TORSDOF 14
ENDMDL
MODEL 7
REMARK VINA RESULT:    -4.778     14.019     17.487
REMARK INTER + INTRA:          -9.629
REMARK INTER:                  -8.854
REMARK INTRA:                  -0.775
REMARK UNBOUND:                -0.940
REMARK SMILES CCCCCC=CCC=CCCCCCCCC(=O)[O-]
REMARK SMILES IDX 11 1 12 2 13 3 14 4 15 5 16 6 17 7 18 8 19 9 20 10 10 11
REMARK SMILES IDX 9 12 8 13 7 14 6 15 5 16 4 17 3 18 2 19 1 20
REMARK H PARENT
REMARK Flexibility Score: inf
ROOT
ATOM      1  C   UNL     1      -0.882   0.009  15.498  1.00  0.00     0.027 C 
ENDROOT
BRANCH   1   2
ATOM      2  C   UNL     1      -2.045  -0.135  14.503  1.00  0.00     0.004 C 
BRANCH   2   3
ATOM      3  C   UNL     1      -3.323   0.624  14.907  1.00  0.00     0.000 C 
BRANCH   3   4
ATOM      4  C   UNL     1      -3.170   2.156  14.985  1.00  0.00     0.000 C 
BRANCH   4   5
ATOM      5  C   UNL     1      -2.969   2.830  13.611  1.00  0.00     0.000 C 
BRANCH   5   6
ATOM      6  C   UNL     1      -2.835   4.358  13.724  1.00  0.00     0.006 C 
BRANCH   6   7
ATOM      7  C   UNL     1      -1.935   4.944  12.628  1.00  0.00     0.053 C 
BRANCH   7   8
ATOM      8  C   UNL     1      -0.889   5.854  13.195  1.00  0.00     0.041 C 
ATOM      9  O   UNL     1       0.326   5.674  12.920  1.00  0.00    -0.550 OA
ATOM     10  O   UNL     1      -1.255   6.883  14.054  1.00  0.00    -0.550 OA
ENDBRANCH   7   8
ENDBRANCH   6   7
ENDBRANCH   5   6
ENDBRANCH   4   5
ENDBRANCH   3   4
ENDBRANCH   2   3
ENDBRANCH   1   2
BRANCH   1  11
ATOM     11  C   UNL     1      -1.268  -0.471  16.871  1.00  0.00    -0.031 C 
ATOM     12  C   UNL     1      -0.730  -1.578  17.406  1.00  0.00    -0.027 C 
BRANCH  12  13
ATOM     13  C   UNL     1      -1.208  -2.128  18.720  1.00  0.00     0.054 C 
BRANCH  13  14
ATOM     14  C   UNL     1      -0.132  -1.998  19.760  1.00  0.00    -0.027 C 
ATOM     15  C   UNL     1       0.453  -3.077  20.301  1.00  0.00    -0.031 C 
BRANCH  15  16
ATOM     16  C   UNL     1       1.515  -2.953  21.361  1.00  0.00     0.027 C 
BRANCH  16  17
ATOM     17  C   UNL     1       1.060  -2.044  22.510  1.00  0.00     0.004 C 
BRANCH  17  18
ATOM     18  C   UNL     1       2.217  -1.203  23.075  1.00  0.00     0.000 C 
BRANCH  18  19
ATOM     19  C   UNL     1       3.572  -1.921  22.973  1.00  0.00    -0.003 C 
ATOM     20  C   UNL     1       4.673  -1.217  23.766  1.00  0.00     0.004 C 
ENDBRANCH  18  19
ENDBRANCH  17  18
ENDBRANCH  16  17
ENDBRANCH  15  16
ENDBRANCH  13  14
ENDBRANCH  12  13
ENDBRANCH   1  11
TORSDOF 14
ENDMDL
MODEL 8
REMARK VINA RESULT:    -4.729      2.606      3.403
REMARK INTER + INTRA:          -9.540
REMARK INTER:                  -8.290
REMARK INTRA:                  -1.250
REMARK UNBOUND:                -0.940
REMARK SMILES CCCCCC=CCC=CCCCCCCCC(=O)[O-]
REMARK SMILES IDX 11 1 12 2 13 3 14 4 15 5 16 6 17 7 18 8 19 9 20 10 10 11
REMARK SMILES IDX 9 12 8 13 7 14 6 15 5 16 4 17 3 18 2 19 1 20
REMARK H PARENT
REMARK Flexibility Score: inf
ROOT
ATOM      1  C   UNL     1      13.530   4.849  11.330  1.00  0.00     0.027 C 
ENDROOT
BRANCH   1   2
ATOM      2  C   UNL     1      14.882   4.141  11.520  1.00  0.00     0.004 C 
BRANCH   2   3
ATOM      3  C   UNL     1      14.785   2.766  12.210  1.00  0.00     0.000 C 
BRANCH   3   4
ATOM      4  C   UNL     1      13.350   2.257  12.443  1.00  0.00     0.000 C 
BRANCH   4   5
ATOM      5  C   UNL     1      13.032   1.955  13.924  1.00  0.00     0.000 C 
BRANCH   5   6
ATOM      6  C   UNL     1      14.203   1.261  14.642  1.00  0.00     0.006 C 
BRANCH   6   7
ATOM      7  C   UNL     1      14.567   1.955  15.962  1.00  0.00     0.053 C 
BRANCH   7   8
ATOM      8  C   UNL     1      14.806   3.421  15.772  1.00  0.00     0.041 C 
ATOM      9  O   UNL     1      15.948   3.841  15.449  1.00  0.00    -0.550 OA
ATOM     10  O   UNL     1      13.774   4.327  15.982  1.00  0.00    -0.550 OA
ENDBRANCH   7   8
ENDBRANCH   6   7
ENDBRANCH   5   6
ENDBRANCH   4   5
ENDBRANCH   3   4
ENDBRANCH   2   3
ENDBRANCH   1   2
BRANCH   1  11
ATOM     11  C   UNL     1      13.709   6.244  10.795  1.00  0.00    -0.031 C 
ATOM     12  C   UNL     1      14.826   6.949  11.028  1.00  0.00    -0.027 C 
BRANCH  12  13
ATOM     13  C   UNL     1      14.952   8.385  10.603  1.00  0.00     0.054 C 
BRANCH  13  14
ATOM     14  C   UNL     1      13.908   8.717   9.576  1.00  0.00    -0.027 C 
ATOM     15  C   UNL     1      14.242   9.062   8.323  1.00  0.00    -0.031 C 
BRANCH  15  16
ATOM     16  C   UNL     1      13.200   9.418   7.296  1.00  0.00     0.027 C 
BRANCH  16  17
ATOM     17  C   UNL     1      12.071   8.381   7.257  1.00  0.00     0.004 C 
BRANCH  17  18
ATOM     18  C   UNL     1      12.508   7.075   6.570  1.00  0.00     0.000 C 
BRANCH  18  19
ATOM     19  C   UNL     1      12.705   7.244   5.056  1.00  0.00    -0.003 C 
ATOM     20  C   UNL     1      14.153   7.020   4.621  1.00  0.00     0.004 C 
ENDBRANCH  18  19
ENDBRANCH  17  18
ENDBRANCH  16  17
ENDBRANCH  15  16
ENDBRANCH  13  14
ENDBRANCH  12  13
ENDBRANCH   1  11
TORSDOF 14
ENDMDL
MODEL 9
REMARK VINA RESULT:    -4.712      1.631      2.686
REMARK INTER + INTRA:          -9.509
REMARK INTER:                  -8.016
REMARK INTRA:                  -1.493
REMARK UNBOUND:                -0.940
REMARK SMILES CCCCCC=CCC=CCCCCCCCC(=O)[O-]
REMARK SMILES IDX 11 1 12 2 13 3 14 4 15 5 16 6 17 7 18 8 19 9 20 10 10 11
REMARK SMILES IDX 9 12 8 13 7 14 6 15 5 16 4 17 3 18 2 19 1 20
REMARK H PARENT
REMARK Flexibility Score: inf
ROOT
ATOM      1  C   UNL     1      14.839   4.582  11.187  1.00  0.00     0.027 C 
ENDROOT
BRANCH   1   2
ATOM      2  C   UNL     1      15.761   4.758  12.405  1.00  0.00     0.004 C 
BRANCH   2   3
ATOM      3  C   UNL     1      15.042   4.657  13.764  1.00  0.00     0.000 C 
BRANCH   3   4
ATOM      4  C   UNL     1      15.006   3.244  14.376  1.00  0.00     0.000 C 
BRANCH   4   5
ATOM      5  C   UNL     1      13.586   2.645  14.471  1.00  0.00     0.000 C 
BRANCH   5   6
ATOM      6  C   UNL     1      13.120   2.033  13.139  1.00  0.00     0.006 C 
BRANCH   6   7
ATOM      7  C   UNL     1      11.923   2.784  12.542  1.00  0.00     0.053 C 
BRANCH   7   8
ATOM      8  C   UNL     1      11.266   3.674  13.552  1.00  0.00     0.041 C 
ATOM      9  O   UNL     1      10.336   3.234  14.277  1.00  0.00    -0.550 OA
ATOM     10  O   UNL     1      11.662   5.001  13.671  1.00  0.00    -0.550 OA
ENDBRANCH   7   8
ENDBRANCH   6   7
ENDBRANCH   5   6
ENDBRANCH   4   5
ENDBRANCH   3   4
ENDBRANCH   2   3
ENDBRANCH   1   2
BRANCH   1  11
ATOM     11  C   UNL     1      13.871   5.727  11.059  1.00  0.00    -0.031 C 
ATOM     12  C   UNL     1      14.164   6.819  10.337  1.00  0.00    -0.027 C 
BRANCH  12  13
ATOM     13  C   UNL     1      13.253   8.013  10.313  1.00  0.00     0.054 C 
BRANCH  13  14
ATOM     14  C   UNL     1      13.523   8.849   9.094  1.00  0.00    -0.027 C 
ATOM     15  C   UNL     1      14.538   8.569   8.263  1.00  0.00    -0.031 C 
BRANCH  15  16
ATOM     16  C   UNL     1      14.827   9.416   7.053  1.00  0.00     0.027 C 
BRANCH  16  17
ATOM     17  C   UNL     1      14.915   8.565   5.779  1.00  0.00     0.004 C 
BRANCH  17  18
ATOM     18  C   UNL     1      14.174   7.225   5.926  1.00  0.00     0.000 C 
BRANCH  18  19
ATOM     19  C   UNL     1      12.819   7.219   5.204  1.00  0.00    -0.003 C 
ATOM     20  C   UNL     1      11.657   7.587   6.127  1.00  0.00     0.004 C 
ENDBRANCH  18  19
ENDBRANCH  17  18
ENDBRANCH  16  17
ENDBRANCH  15  16
ENDBRANCH  13  14
ENDBRANCH  12  13
ENDBRANCH   1  11
TORSDOF 14
ENDMDL
