MODEL 1
REMARK VINA RESULT:    -5.140      0.000      0.000
REMARK INTER + INTRA:          -6.698
REMARK INTER:                  -7.243
REMARK INTRA:                   0.545
REMARK UNBOUND:                 0.545
REMARK SMILES CC1=CCC(=C(C)C)C(=O)CC(C)=CCC1
REMARK SMILES IDX 12 1 14 2 13 3 15 4 16 5 2 6 1 7 3 8 11 10 9 11 10 12 5 13
REMARK SMILES IDX 6 14 7 15 8 16 4 17
REMARK H PARENT
REMARK Flexibility Score: 60.00
ROOT
ATOM      1  C   UNL     1     -12.144 -16.917  31.391  1.00  0.00    -0.070 C 
ATOM      2  C   UNL     1     -12.666 -18.158  31.524  1.00  0.00    -0.027 C 
ATOM      3  C   UNL     1     -13.045 -15.736  31.651  1.00  0.00     0.039 C 
ENDROOT
BRANCH   2   4
ATOM      4  C   UNL     1     -11.875 -19.439  31.447  1.00  0.00     0.032 C 
BRANCH   4   5
ATOM      5  C   UNL     1     -11.162 -19.531  30.093  1.00  0.00     0.034 C 
BRANCH   5   6
ATOM      6  C   UNL     1     -12.125 -19.461  28.924  1.00  0.00    -0.077 C 
ATOM      7  C   UNL     1     -13.255 -20.457  28.859  1.00  0.00     0.039 C 
ATOM      8  C   UNL     1     -11.987 -18.595  27.889  1.00  0.00    -0.023 CG0
ATOM      9  G   UNL     1     -10.976 -17.471  27.755  1.00  0.00     0.000 G0
ENDBRANCH   5   6
ENDBRANCH   4   5
ENDBRANCH   2   4
BRANCH   1  10
ATOM     10  C   UNL     1     -10.709 -16.655  30.978  1.00  0.00     0.111 C 
BRANCH  10  11
ATOM     11  C   UNL     1     -10.628 -15.814  29.725  1.00  0.00     0.163 C 
ATOM     12  O   UNL     1      -9.932 -14.765  29.783  1.00  0.00    -0.294 OA
BRANCH  11  13
ATOM     13  C   UNL     1     -11.342 -16.149  28.448  1.00  0.00    -0.002 C 
ATOM     14  C   UNL     1     -12.389 -15.380  28.014  1.00  0.00    -0.069 C 
ATOM     15  C   UNL     1     -12.682 -14.029  28.625  1.00  0.00     0.039 C 
ATOM     16  C   UNL     1     -13.277 -15.810  26.868  1.00  0.00     0.039 C 
BRANCH  13  17
ATOM     17  C   UNL     1     -10.988 -17.462  27.758  1.00  0.00     0.066 CG0
ATOM     18  G   UNL     1     -11.996 -18.589  27.891  1.00  0.00     0.000 G0
ENDBRANCH  13  17
ENDBRANCH  11  13
ENDBRANCH  10  11
ENDBRANCH   1  10
TORSDOF 0
ENDMDL
MODEL 2
REMARK VINA RESULT:    -5.063      1.639      3.942
REMARK INTER + INTRA:          -6.590
REMARK INTER:                  -7.434
REMARK INTRA:                   0.845
REMARK UNBOUND:                 0.545
REMARK SMILES CC1=CCC(=C(C)C)C(=O)CC(C)=CCC1
REMARK SMILES IDX 12 1 14 2 13 3 15 4 16 5 2 6 1 7 3 8 11 10 9 11 10 12 5 13
REMARK SMILES IDX 6 14 7 15 8 16 4 17
REMARK H PARENT
REMARK Flexibility Score: 60.00
ROOT
ATOM      1  C   UNL     1     -13.293 -14.356  28.626  1.00  0.00    -0.070 C 
ATOM      2  C   UNL     1     -13.588 -14.584  27.326  1.00  0.00    -0.027 C 
ATOM      3  C   UNL     1     -14.238 -13.497  29.428  1.00  0.00     0.039 C 
ENDROOT
BRANCH   2   4
ATOM      4  C   UNL     1     -12.838 -15.532  26.424  1.00  0.00     0.032 C 
BRANCH   4   5
ATOM      5  C   UNL     1     -12.946 -16.962  26.967  1.00  0.00     0.034 C 
BRANCH   5   6
ATOM      6  C   UNL     1     -11.590 -17.604  27.182  1.00  0.00    -0.077 C 
ATOM      7  C   UNL     1     -10.610 -17.622  26.037  1.00  0.00     0.039 C 
ATOM      8  C   UNL     1     -11.231 -18.233  28.329  1.00  0.00    -0.023 CG0
ATOM      9  G   UNL     1     -12.014 -18.300  29.629  1.00  0.00     0.000 G0
ENDBRANCH   5   6
ENDBRANCH   4   5
ENDBRANCH   2   4
BRANCH   1  10
ATOM     10  C   UNL     1     -12.055 -14.901  29.309  1.00  0.00     0.111 C 
BRANCH  10  11
ATOM     11  C   UNL     1     -12.402 -15.859  30.424  1.00  0.00     0.163 C 
ATOM     12  O   UNL     1     -13.307 -15.503  31.225  1.00  0.00    -0.294 OA
BRANCH  11  13
ATOM     13  C   UNL     1     -11.717 -17.179  30.633  1.00  0.00    -0.002 C 
ATOM     14  C   UNL     1     -10.747 -17.314  31.590  1.00  0.00    -0.069 C 
ATOM     15  C   UNL     1     -10.527 -16.256  32.647  1.00  0.00     0.039 C 
ATOM     16  C   UNL     1      -9.876 -18.547  31.678  1.00  0.00     0.039 C 
BRANCH  13  17
ATOM     17  C   UNL     1     -12.003 -18.295  29.636  1.00  0.00     0.066 CG0
ATOM     18  G   UNL     1     -11.232 -18.248  28.329  1.00  0.00     0.000 G0
ENDBRANCH  13  17
ENDBRANCH  11  13
ENDBRANCH  10  11
ENDBRANCH   1  10
TORSDOF 0
ENDMDL
MODEL 3
REMARK VINA RESULT:    -4.815      1.755      3.200
REMARK INTER + INTRA:          -6.241
REMARK INTER:                  -6.864
REMARK INTRA:                   0.623
REMARK UNBOUND:                 0.545
REMARK SMILES CC1=CCC(=C(C)C)C(=O)CC(C)=CCC1
REMARK SMILES IDX 12 1 14 2 13 3 15 4 16 5 2 6 1 7 3 8 11 10 9 11 10 12 5 13
REMARK SMILES IDX 6 14 7 15 8 16 4 17
REMARK H PARENT
REMARK Flexibility Score: 60.00
ROOT
ATOM      1  C   UNL     1     -12.383 -19.241  29.103  1.00  0.00    -0.070 C 
ATOM      2  C   UNL     1     -12.821 -19.661  30.313  1.00  0.00    -0.027 C 
ATOM      3  C   UNL     1     -13.280 -19.454  27.910  1.00  0.00     0.039 C 
ENDROOT
BRANCH   2   4
ATOM      4  C   UNL     1     -12.123 -19.397  31.622  1.00  0.00     0.032 C 
BRANCH   4   5
ATOM      5  C   UNL     1     -11.533 -17.981  31.622  1.00  0.00     0.034 C 
BRANCH   5   6
ATOM      6  C   UNL     1     -12.597 -16.909  31.756  1.00  0.00    -0.077 C 
ATOM      7  C   UNL     1     -13.632 -17.052  32.843  1.00  0.00     0.039 C 
ATOM      8  C   UNL     1     -12.715 -15.860  30.905  1.00  0.00    -0.023 CG0
ATOM      9  G   UNL     1     -11.772 -15.472  29.780  1.00  0.00     0.000 G0
ENDBRANCH   5   6
ENDBRANCH   4   5
ENDBRANCH   2   4
BRANCH   1  10
ATOM     10  C   UNL     1     -11.032 -18.587  28.886  1.00  0.00     0.111 C 
BRANCH  10  11
ATOM     11  C   UNL     1     -11.143 -17.325  28.064  1.00  0.00     0.163 C 
ATOM     12  O   UNL     1     -10.442 -17.257  27.019  1.00  0.00    -0.294 OA
BRANCH  11  13
ATOM     13  C   UNL     1     -12.015 -16.161  28.436  1.00  0.00    -0.002 C 
ATOM     14  C   UNL     1     -12.891 -15.630  27.527  1.00  0.00    -0.069 C 
ATOM     15  C   UNL     1     -13.225 -16.349  26.239  1.00  0.00     0.039 C 
ATOM     16  C   UNL     1     -13.613 -14.325  27.778  1.00  0.00     0.039 C 
BRANCH  13  17
ATOM     17  C   UNL     1     -11.763 -15.483  29.778  1.00  0.00     0.066 CG0
ATOM     18  G   UNL     1     -12.711 -15.847  30.907  1.00  0.00     0.000 G0
ENDBRANCH  13  17
ENDBRANCH  11  13
ENDBRANCH  10  11
ENDBRANCH   1  10
TORSDOF 0
ENDMDL
MODEL 4
REMARK VINA RESULT:    -4.747      1.679      3.719
REMARK INTER + INTRA:          -6.145
REMARK INTER:                  -6.673
REMARK INTRA:                   0.529
REMARK UNBOUND:                 0.545
REMARK SMILES CC1=CCC(=C(C)C)C(=O)CC(C)=CCC1
REMARK SMILES IDX 12 1 14 2 13 3 15 4 16 5 2 6 1 7 3 8 11 10 9 11 10 12 5 13
REMARK SMILES IDX 6 14 7 15 8 16 4 17
REMARK H PARENT
REMARK Flexibility Score: 60.00
ROOT
ATOM      1  C   UNL     1     -12.643 -15.022  29.240  1.00  0.00    -0.070 C 
ATOM      2  C   UNL     1     -13.406 -15.136  30.351  1.00  0.00    -0.027 C 
ATOM      3  C   UNL     1     -13.319 -14.622  27.953  1.00  0.00     0.039 C 
ENDROOT
BRANCH   2   4
ATOM      4  C   UNL     1     -12.875 -15.380  31.741  1.00  0.00     0.032 C 
BRANCH   4   5
ATOM      5  C   UNL     1     -12.331 -16.809  31.847  1.00  0.00     0.034 C 
BRANCH   5   6
ATOM      6  C   UNL     1     -10.833 -16.845  32.078  1.00  0.00    -0.077 C 
ATOM      7  C   UNL     1     -10.254 -16.005  33.188  1.00  0.00     0.039 C 
ATOM      8  C   UNL     1      -9.970 -17.537  31.293  1.00  0.00    -0.023 CG0
ATOM      9  G   UNL     1     -10.312 -18.491  30.162  1.00  0.00     0.000 G0
ENDBRANCH   5   6
ENDBRANCH   4   5
ENDBRANCH   2   4
BRANCH   1  10
ATOM     10  C   UNL     1     -11.151 -15.293  29.220  1.00  0.00     0.111 C 
BRANCH  10  11
ATOM     11  C   UNL     1     -10.821 -16.574  28.491  1.00  0.00     0.163 C 
ATOM     12  O   UNL     1     -10.253 -16.467  27.372  1.00  0.00    -0.294 OA
BRANCH  11  13
ATOM     13  C   UNL     1     -11.152 -17.941  29.016  1.00  0.00    -0.002 C 
ATOM     14  C   UNL     1     -12.281 -18.593  28.597  1.00  0.00    -0.069 C 
ATOM     15  C   UNL     1     -13.074 -18.109  27.404  1.00  0.00     0.039 C 
ATOM     16  C   UNL     1     -12.772 -19.857  29.266  1.00  0.00     0.039 C 
BRANCH  13  17
ATOM     17  C   UNL     1     -10.299 -18.492  30.153  1.00  0.00     0.066 CG0
ATOM     18  G   UNL     1      -9.967 -17.528  31.278  1.00  0.00     0.000 G0
ENDBRANCH  13  17
ENDBRANCH  11  13
ENDBRANCH  10  11
ENDBRANCH   1  10
TORSDOF 0
ENDMDL
MODEL 5
REMARK VINA RESULT:    -4.571      1.775      3.056
REMARK INTER + INTRA:          -5.897
REMARK INTER:                  -6.211
REMARK INTRA:                   0.314
REMARK UNBOUND:                 0.545
REMARK SMILES CC1=CCC(=C(C)C)C(=O)CC(C)=CCC1
REMARK SMILES IDX 12 1 14 2 13 3 15 4 16 5 2 6 1 7 3 8 11 10 9 11 10 12 5 13
REMARK SMILES IDX 6 14 7 15 8 16 4 17
REMARK H PARENT
REMARK Flexibility Score: 60.00
ROOT
ATOM      1  C   UNL     1     -11.814 -17.756  28.057  1.00  0.00    -0.070 C 
ATOM      2  C   UNL     1     -11.250 -18.784  28.732  1.00  0.00    -0.027 C 
ATOM      3  C   UNL     1     -13.220 -17.930  27.542  1.00  0.00     0.039 C 
ENDROOT
BRANCH   2   4
ATOM      4  C   UNL     1      -9.919 -18.726  29.437  1.00  0.00     0.032 C 
BRANCH   4   5
ATOM      5  C   UNL     1     -10.136 -18.563  30.946  1.00  0.00     0.034 C 
BRANCH   5   6
ATOM      6  C   UNL     1     -11.599 -18.648  31.335  1.00  0.00    -0.077 C 
ATOM      7  C   UNL     1     -12.215 -20.009  31.535  1.00  0.00     0.039 C 
ATOM      8  C   UNL     1     -12.410 -17.566  31.443  1.00  0.00    -0.023 CG0
ATOM      9  G   UNL     1     -12.016 -16.103  31.346  1.00  0.00     0.000 G0
ENDBRANCH   5   6
ENDBRANCH   4   5
ENDBRANCH   2   4
BRANCH   1  10
ATOM     10  C   UNL     1     -11.097 -16.449  27.776  1.00  0.00     0.111 C 
BRANCH  10  11
ATOM     11  C   UNL     1     -11.049 -15.560  28.996  1.00  0.00     0.163 C 
ATOM     12  O   UNL     1      -9.989 -14.907  29.188  1.00  0.00    -0.294 OA
BRANCH  11  13
ATOM     13  C   UNL     1     -12.173 -15.436  29.983  1.00  0.00    -0.002 C 
ATOM     14  C   UNL     1     -13.239 -14.617  29.724  1.00  0.00    -0.069 C 
ATOM     15  C   UNL     1     -13.473 -14.038  28.347  1.00  0.00     0.039 C 
ATOM     16  C   UNL     1     -14.270 -14.285  30.779  1.00  0.00     0.039 C 
BRANCH  13  17
ATOM     17  C   UNL     1     -12.001 -16.101  31.345  1.00  0.00     0.066 CG0
ATOM     18  G   UNL     1     -12.421 -17.556  31.444  1.00  0.00     0.000 G0
ENDBRANCH  13  17
ENDBRANCH  11  13
ENDBRANCH  10  11
ENDBRANCH   1  10
TORSDOF 0
ENDMDL
MODEL 6
REMARK VINA RESULT:    -4.403      1.560      3.414
REMARK INTER + INTRA:          -5.660
REMARK INTER:                  -7.276
REMARK INTRA:                   1.616
REMARK UNBOUND:                 0.545
REMARK SMILES CC1=CCC(=C(C)C)C(=O)CC(C)=CCC1
REMARK SMILES IDX 12 1 14 2 13 3 15 4 16 5 2 6 1 7 3 8 11 10 9 11 10 12 5 13
REMARK SMILES IDX 6 14 7 15 8 16 4 17
REMARK H PARENT
REMARK Flexibility Score: 60.00
ROOT
ATOM      1  C   UNL     1     -11.801 -19.638  30.297  1.00  0.00    -0.070 C 
ATOM      2  C   UNL     1     -12.766 -19.725  29.354  1.00  0.00    -0.027 C 
ATOM      3  C   UNL     1     -11.928 -20.501  31.526  1.00  0.00     0.039 C 
ENDROOT
BRANCH   2   4
ATOM      4  C   UNL     1     -12.721 -19.049  28.008  1.00  0.00     0.032 C 
BRANCH   4   5
ATOM      5  C   UNL     1     -11.603 -18.001  27.988  1.00  0.00     0.034 C 
BRANCH   5   6
ATOM      6  C   UNL     1     -12.110 -16.616  27.638  1.00  0.00    -0.077 C 
ATOM      7  C   UNL     1     -12.954 -16.449  26.400  1.00  0.00     0.039 C 
ATOM      8  C   UNL     1     -11.789 -15.500  28.338  1.00  0.00    -0.023 CG0
ATOM      9  G   UNL     1     -11.010 -15.418  29.639  1.00  0.00     0.000 G0
ENDBRANCH   5   6
ENDBRANCH   4   5
ENDBRANCH   2   4
BRANCH   1  10
ATOM     10  C   UNL     1     -10.611 -18.704  30.189  1.00  0.00     0.111 C 
BRANCH  10  11
ATOM     11  C   UNL     1     -10.733 -17.524  31.124  1.00  0.00     0.163 C 
ATOM     12  O   UNL     1     -10.156 -17.615  32.241  1.00  0.00    -0.294 OA
BRANCH  11  13
ATOM     13  C   UNL     1     -11.513 -16.283  30.803  1.00  0.00    -0.002 C 
ATOM     14  C   UNL     1     -12.716 -16.040  31.411  1.00  0.00    -0.069 C 
ATOM     15  C   UNL     1     -13.167 -16.838  32.613  1.00  0.00     0.039 C 
ATOM     16  C   UNL     1     -13.637 -14.932  30.951  1.00  0.00     0.039 C 
BRANCH  13  17
ATOM     17  C   UNL     1     -11.017 -15.407  29.658  1.00  0.00     0.066 CG0
ATOM     18  G   UNL     1     -11.775 -15.515  28.347  1.00  0.00     0.000 G0
ENDBRANCH  13  17
ENDBRANCH  11  13
ENDBRANCH  10  11
ENDBRANCH   1  10
TORSDOF 0
ENDMDL
MODEL 7
REMARK VINA RESULT:    -4.315      1.514      3.331
REMARK INTER + INTRA:          -5.536
REMARK INTER:                  -6.234
REMARK INTRA:                   0.697
REMARK UNBOUND:                 0.545
REMARK SMILES CC1=CCC(=C(C)C)C(=O)CC(C)=CCC1
REMARK SMILES IDX 12 1 14 2 13 3 15 4 16 5 2 6 1 7 3 8 11 10 9 11 10 12 5 13
REMARK SMILES IDX 6 14 7 15 8 16 4 17
REMARK H PARENT
REMARK Flexibility Score: 60.00
ROOT
ATOM      1  C   UNL     1     -11.885 -15.765  28.837  1.00  0.00    -0.070 C 
ATOM      2  C   UNL     1     -12.182 -16.548  27.774  1.00  0.00    -0.027 C 
ATOM      3  C   UNL     1     -12.879 -14.705  29.238  1.00  0.00     0.039 C 
ENDROOT
BRANCH   2   4
ATOM      4  C   UNL     1     -11.377 -17.743  27.330  1.00  0.00     0.032 C 
BRANCH   4   5
ATOM      5  C   UNL     1     -11.020 -18.609  28.544  1.00  0.00     0.034 C 
BRANCH   5   6
ATOM      6  C   UNL     1     -12.233 -19.283  29.153  1.00  0.00    -0.077 C 
ATOM      7  C   UNL     1     -13.147 -20.075  28.253  1.00  0.00     0.039 C 
ATOM      8  C   UNL     1     -12.587 -19.155  30.457  1.00  0.00    -0.023 CG0
ATOM      9  G   UNL     1     -11.807 -18.464  31.561  1.00  0.00     0.000 G0
ENDBRANCH   5   6
ENDBRANCH   4   5
ENDBRANCH   2   4
BRANCH   1  10
ATOM     10  C   UNL     1     -10.598 -15.888  29.629  1.00  0.00     0.111 C 
BRANCH  10  11
ATOM     11  C   UNL     1     -10.861 -16.080  31.104  1.00  0.00     0.163 C 
ATOM     12  O   UNL     1     -10.087 -15.492  31.906  1.00  0.00    -0.294 OA
BRANCH  11  13
ATOM     13  C   UNL     1     -11.965 -16.938  31.650  1.00  0.00    -0.002 C 
ATOM     14  C   UNL     1     -13.002 -16.377  32.347  1.00  0.00    -0.069 C 
ATOM     15  C   UNL     1     -13.232 -14.883  32.352  1.00  0.00     0.039 C 
ATOM     16  C   UNL     1     -14.003 -17.217  33.107  1.00  0.00     0.039 C 
BRANCH  13  17
ATOM     17  C   UNL     1     -11.800 -18.451  31.563  1.00  0.00     0.066 CG0
ATOM     18  G   UNL     1     -12.578 -19.153  30.464  1.00  0.00     0.000 G0
ENDBRANCH  13  17
ENDBRANCH  11  13
ENDBRANCH  10  11
ENDBRANCH   1  10
TORSDOF 0
ENDMDL
MODEL 8
REMARK VINA RESULT:    -4.150      1.730      4.244
REMARK INTER + INTRA:          -5.304
REMARK INTER:                  -5.579
REMARK INTRA:                   0.275
REMARK UNBOUND:                 0.545
REMARK SMILES CC1=CCC(=C(C)C)C(=O)CC(C)=CCC1
REMARK SMILES IDX 12 1 14 2 13 3 15 4 16 5 2 6 1 7 3 8 11 10 9 11 10 12 5 13
REMARK SMILES IDX 6 14 7 15 8 16 4 17
REMARK H PARENT
REMARK Flexibility Score: 60.00
ROOT
ATOM      1  C   UNL     1     -13.000 -14.775  28.298  1.00  0.00    -0.070 C 
ATOM      2  C   UNL     1     -14.033 -14.563  29.144  1.00  0.00    -0.027 C 
ATOM      3  C   UNL     1     -13.313 -15.209  26.888  1.00  0.00     0.039 C 
ENDROOT
BRANCH   2   4
ATOM      4  C   UNL     1     -13.909 -13.988  30.532  1.00  0.00     0.032 C 
BRANCH   4   5
ATOM      5  C   UNL     1     -14.367 -15.023  31.567  1.00  0.00     0.034 C 
BRANCH   5   6
ATOM      6  C   UNL     1     -13.211 -15.606  32.356  1.00  0.00    -0.077 C 
ATOM      7  C   UNL     1     -12.838 -14.965  33.669  1.00  0.00     0.039 C 
ATOM      8  C   UNL     1     -12.442 -16.631  31.912  1.00  0.00    -0.023 CG0
ATOM      9  G   UNL     1     -12.650 -17.468  30.663  1.00  0.00     0.000 G0
ENDBRANCH   5   6
ENDBRANCH   4   5
ENDBRANCH   2   4
BRANCH   1  10
ATOM     10  C   UNL     1     -11.546 -14.618  28.700  1.00  0.00     0.111 C 
BRANCH  10  11
ATOM     11  C   UNL     1     -11.036 -15.824  29.452  1.00  0.00     0.163 C 
ATOM     12  O   UNL     1      -9.950 -15.693  30.078  1.00  0.00    -0.294 OA
BRANCH  11  13
ATOM     13  C   UNL     1     -11.736 -17.152  29.471  1.00  0.00    -0.002 C 
ATOM     14  C   UNL     1     -11.685 -17.980  28.381  1.00  0.00    -0.069 C 
ATOM     15  C   UNL     1     -10.712 -17.736  27.249  1.00  0.00     0.039 C 
ATOM     16  C   UNL     1     -12.557 -19.210  28.268  1.00  0.00     0.039 C 
BRANCH  13  17
ATOM     17  C   UNL     1     -12.644 -17.462  30.655  1.00  0.00     0.066 CG0
ATOM     18  G   UNL     1     -12.422 -16.638  31.911  1.00  0.00     0.000 G0
ENDBRANCH  13  17
ENDBRANCH  11  13
ENDBRANCH  10  11
ENDBRANCH   1  10
TORSDOF 0
ENDMDL
MODEL 9
REMARK VINA RESULT:    -4.108      1.844      3.227
REMARK INTER + INTRA:          -5.244
REMARK INTER:                  -5.243
REMARK INTRA:                  -0.001
REMARK UNBOUND:                 0.545
REMARK SMILES CC1=CCC(=C(C)C)C(=O)CC(C)=CCC1
REMARK SMILES IDX 12 1 14 2 13 3 15 4 16 5 2 6 1 7 3 8 11 10 9 11 10 12 5 13
REMARK SMILES IDX 6 14 7 15 8 16 4 17
REMARK H PARENT
REMARK Flexibility Score: 60.00
ROOT
ATOM      1  C   UNL     1     -13.457 -14.373  29.517  1.00  0.00    -0.070 C 
ATOM      2  C   UNL     1     -13.562 -14.941  30.740  1.00  0.00    -0.027 C 
ATOM      3  C   UNL     1     -14.598 -13.516  29.032  1.00  0.00     0.039 C 
ENDROOT
BRANCH   2   4
ATOM      4  C   UNL     1     -12.462 -15.701  31.436  1.00  0.00     0.032 C 
BRANCH   4   5
ATOM      5  C   UNL     1     -12.585 -17.197  31.125  1.00  0.00     0.034 C 
BRANCH   5   6
ATOM      6  C   UNL     1     -11.271 -17.807  30.678  1.00  0.00    -0.077 C 
ATOM      7  C   UNL     1     -10.198 -18.045  31.710  1.00  0.00     0.039 C 
ATOM      8  C   UNL     1     -10.975 -18.085  29.384  1.00  0.00    -0.023 CG0
ATOM      9  G   UNL     1     -11.900 -17.988  28.184  1.00  0.00     0.000 G0
ENDBRANCH   5   6
ENDBRANCH   4   5
ENDBRANCH   2   4
BRANCH   1  10
ATOM     10  C   UNL     1     -12.262 -14.572  28.605  1.00  0.00     0.111 C 
BRANCH  10  11
ATOM     11  C   UNL     1     -12.550 -15.571  27.509  1.00  0.00     0.163 C 
ATOM     12  O   UNL     1     -13.564 -15.360  26.792  1.00  0.00    -0.294 OA
BRANCH  11  13
ATOM     13  C   UNL     1     -11.714 -16.791  27.253  1.00  0.00    -0.002 C 
ATOM     14  C   UNL     1     -10.933 -16.876  26.131  1.00  0.00    -0.069 C 
ATOM     15  C   UNL     1     -10.655 -15.665  25.270  1.00  0.00     0.039 C 
ATOM     16  C   UNL     1     -10.262 -18.167  25.718  1.00  0.00     0.039 C 
BRANCH  13  17
ATOM     17  C   UNL     1     -11.905 -17.991  28.174  1.00  0.00     0.066 CG0
ATOM     18  G   UNL     1     -10.972 -18.080  29.369  1.00  0.00     0.000 G0
ENDBRANCH  13  17
ENDBRANCH  11  13
ENDBRANCH  10  11
ENDBRANCH   1  10
TORSDOF 0
ENDMDL
