MODEL 1
REMARK VINA RESULT:    -4.095      0.000      0.000
REMARK INTER + INTRA:          -6.606
REMARK INTER:                  -6.250
REMARK INTRA:                  -0.356
REMARK UNBOUND:                -0.356
REMARK SMILES CC1=CCC[C@H](C)C(=O)C[C@@H](C(C)C)C(=O)C1
REMARK SMILES IDX 8 1 9 2 6 3 7 4 5 5 4 6 3 7 2 8 1 9 10 11 11 12 15 13 16 14
REMARK SMILES IDX 17 15 12 17 13 18 14 19
REMARK H PARENT
REMARK Flexibility Score: 70.00
ROOT
ATOM      1  C   UNL     1       4.130   3.344  13.262  1.00  0.00     0.136 C 
ATOM      2  O   UNL     1       4.472   4.450  12.869  1.00  0.00    -0.299 OA
ENDROOT
BRANCH   1   3
ATOM      3  C   UNL     1       4.258   3.003  14.735  1.00  0.00     0.053 C 
ATOM      4  C   UNL     1       3.107   3.630  15.533  1.00  0.00     0.016 C 
BRANCH   3   5
ATOM      5  C   UNL     1       4.299   1.471  14.936  1.00  0.00     0.015 C 
BRANCH   5   6
ATOM      6  C   UNL     1       3.112   0.978  15.788  1.00  0.00     0.028 C 
BRANCH   6   7
ATOM      7  C   UNL     1       2.549  -0.340  15.317  1.00  0.00    -0.028 C 
ATOM      8  C   UNL     1       1.627  -0.495  14.335  1.00  0.00    -0.070 CG0
ATOM      9  C   UNL     1       1.260  -1.903  13.937  1.00  0.00     0.039 C 
ATOM     10  G   UNL     1       0.916   0.667  13.654  1.00  0.00     0.000 G0
ENDBRANCH   6   7
ENDBRANCH   5   6
ENDBRANCH   3   5
ENDBRANCH   1   3
BRANCH   1  11
ATOM     11  C   UNL     1       3.603   2.340  12.261  1.00  0.00     0.087 C 
BRANCH  11  12
ATOM     12  C   UNL     1       2.061   2.422  12.103  1.00  0.00     0.066 C 
BRANCH  12  13
ATOM     13  C   UNL     1       1.413   1.058  12.299  1.00  0.00     0.140 C 
ATOM     14  O   UNL     1       1.275   0.296  11.354  1.00  0.00    -0.299 OA
BRANCH  13  15
ATOM     15  C   UNL     1       0.883   0.664  13.657  1.00  0.00     0.106 CG0
ATOM     16  G   UNL     1       1.652  -0.474  14.315  1.00  0.00     0.000 G0
ENDBRANCH  13  15
ENDBRANCH  12  13
BRANCH  12  17
ATOM     17  C   UNL     1       1.608   3.094  10.765  1.00  0.00    -0.006 C 
ATOM     18  C   UNL     1       2.776   3.536   9.862  1.00  0.00     0.008 C 
ATOM     19  C   UNL     1       0.672   4.287  11.022  1.00  0.00     0.008 C 
ENDBRANCH  12  17
ENDBRANCH  11  12
ENDBRANCH   1  11
TORSDOF 1
ENDMDL
MODEL 2
REMARK VINA RESULT:    -3.629      9.728     12.764
REMARK INTER + INTRA:          -5.895
REMARK INTER:                  -6.161
REMARK INTRA:                   0.266
REMARK UNBOUND:                -0.356
REMARK SMILES CC1=CCC[C@H](C)C(=O)C[C@@H](C(C)C)C(=O)C1
REMARK SMILES IDX 8 1 9 2 6 3 7 4 5 5 4 6 3 7 2 8 1 9 10 11 11 12 15 13 16 14
REMARK SMILES IDX 17 15 12 17 13 18 14 19
REMARK H PARENT
REMARK Flexibility Score: 70.00
ROOT
ATOM      1  C   UNL     1      -8.344  -6.358  13.087  1.00  0.00     0.136 C 
ATOM      2  O   UNL     1      -8.235  -6.978  14.136  1.00  0.00    -0.299 OA
ENDROOT
BRANCH   1   3
ATOM      3  C   UNL     1      -8.994  -4.986  13.095  1.00  0.00     0.053 C 
ATOM      4  C   UNL     1     -10.011  -4.882  14.240  1.00  0.00     0.016 C 
BRANCH   3   5
ATOM      5  C   UNL     1      -7.922  -3.879  13.207  1.00  0.00     0.015 C 
BRANCH   5   6
ATOM      6  C   UNL     1      -6.548  -4.455  13.602  1.00  0.00     0.028 C 
BRANCH   6   7
ATOM      7  C   UNL     1      -5.408  -3.881  12.798  1.00  0.00    -0.028 C 
ATOM      8  C   UNL     1      -5.055  -4.267  11.548  1.00  0.00    -0.070 CG0
ATOM      9  C   UNL     1      -3.946  -3.504  10.867  1.00  0.00     0.039 C 
ATOM     10  G   UNL     1      -5.682  -5.451  10.822  1.00  0.00     0.000 G0
ENDBRANCH   6   7
ENDBRANCH   5   6
ENDBRANCH   3   5
ENDBRANCH   1   3
BRANCH   1  11
ATOM     11  C   UNL     1      -7.840  -6.986  11.808  1.00  0.00     0.087 C 
BRANCH  11  12
ATOM     12  C   UNL     1      -6.453  -7.657  11.990  1.00  0.00     0.066 C 
BRANCH  12  13
ATOM     13  C   UNL     1      -5.345  -6.807  11.381  1.00  0.00     0.140 C 
ATOM     14  O   UNL     1      -4.184  -7.191  11.408  1.00  0.00    -0.299 OA
BRANCH  13  15
ATOM     15  C   UNL     1      -5.668  -5.456  10.792  1.00  0.00     0.106 CG0
ATOM     16  G   UNL     1      -5.050  -4.287  11.548  1.00  0.00     0.000 G0
ENDBRANCH  13  15
ENDBRANCH  12  13
BRANCH  12  17
ATOM     17  C   UNL     1      -6.403  -9.134  11.474  1.00  0.00    -0.006 C 
ATOM     18  C   UNL     1      -6.519  -9.264   9.944  1.00  0.00     0.008 C 
ATOM     19  C   UNL     1      -7.475 -10.003  12.151  1.00  0.00     0.008 C 
ENDBRANCH  12  17
ENDBRANCH  11  12
ENDBRANCH   1  11
TORSDOF 1
ENDMDL
MODEL 3
REMARK VINA RESULT:    -3.609     10.355     13.201
REMARK INTER + INTRA:          -5.864
REMARK INTER:                  -5.807
REMARK INTRA:                  -0.056
REMARK UNBOUND:                -0.356
REMARK SMILES CC1=CCC[C@H](C)C(=O)C[C@@H](C(C)C)C(=O)C1
REMARK SMILES IDX 8 1 9 2 6 3 7 4 5 5 4 6 3 7 2 8 1 9 10 11 11 12 15 13 16 14
REMARK SMILES IDX 17 15 12 17 13 18 14 19
REMARK H PARENT
REMARK Flexibility Score: 70.00
ROOT
ATOM      1  C   UNL     1      -6.019  -7.789  10.685  1.00  0.00     0.136 C 
ATOM      2  O   UNL     1      -4.824  -7.925  10.907  1.00  0.00    -0.299 OA
ENDROOT
BRANCH   1   3
ATOM      3  C   UNL     1      -6.861  -9.009  10.362  1.00  0.00     0.053 C 
ATOM      4  C   UNL     1      -6.307  -9.732   9.127  1.00  0.00     0.016 C 
BRANCH   3   5
ATOM      5  C   UNL     1      -6.924  -9.962  11.577  1.00  0.00     0.015 C 
BRANCH   5   6
ATOM      6  C   UNL     1      -6.872  -9.189  12.909  1.00  0.00     0.028 C 
BRANCH   6   7
ATOM      7  C   UNL     1      -8.232  -8.760  13.402  1.00  0.00    -0.028 C 
ATOM      8  C   UNL     1      -8.544  -7.529  13.876  1.00  0.00    -0.070 CG0
ATOM      9  C   UNL     1      -9.986  -7.261  14.230  1.00  0.00     0.039 C 
ATOM     10  G   UNL     1      -7.516  -6.430  14.111  1.00  0.00     0.000 G0
ENDBRANCH   6   7
ENDBRANCH   5   6
ENDBRANCH   3   5
ENDBRANCH   1   3
BRANCH   1  11
ATOM     11  C   UNL     1      -6.619  -6.402  10.723  1.00  0.00     0.087 C 
BRANCH  11  12
ATOM     12  C   UNL     1      -6.185  -5.609  11.985  1.00  0.00     0.066 C 
BRANCH  12  13
ATOM     13  C   UNL     1      -7.344  -5.443  12.958  1.00  0.00     0.140 C 
ATOM     14  O   UNL     1      -8.122  -4.507  12.841  1.00  0.00    -0.299 OA
BRANCH  13  15
ATOM     15  C   UNL     1      -7.504  -6.404  14.112  1.00  0.00     0.106 CG0
ATOM     16  G   UNL     1      -8.540  -7.493  13.870  1.00  0.00     0.000 G0
ENDBRANCH  13  15
ENDBRANCH  12  13
BRANCH  12  17
ATOM     17  C   UNL     1      -5.502  -4.240  11.655  1.00  0.00    -0.006 C 
ATOM     18  C   UNL     1      -4.465  -4.319  10.518  1.00  0.00     0.008 C 
ATOM     19  C   UNL     1      -4.855  -3.618  12.903  1.00  0.00     0.008 C 
ENDBRANCH  12  17
ENDBRANCH  11  12
ENDBRANCH   1  11
TORSDOF 1
ENDMDL
MODEL 4
REMARK VINA RESULT:    -3.608      1.930      3.996
REMARK INTER + INTRA:          -5.862
REMARK INTER:                  -5.655
REMARK INTRA:                  -0.207
REMARK UNBOUND:                -0.356
REMARK SMILES CC1=CCC[C@H](C)C(=O)C[C@@H](C(C)C)C(=O)C1
REMARK SMILES IDX 8 1 9 2 6 3 7 4 5 5 4 6 3 7 2 8 1 9 10 11 11 12 15 13 16 14
REMARK SMILES IDX 17 15 12 17 13 18 14 19
REMARK H PARENT
REMARK Flexibility Score: 70.00
ROOT
ATOM      1  C   UNL     1       1.453   2.578  10.735  1.00  0.00     0.136 C 
ATOM      2  O   UNL     1       0.253   2.779  10.609  1.00  0.00    -0.299 OA
ENDROOT
BRANCH   1   3
ATOM      3  C   UNL     1       2.437   3.655  10.319  1.00  0.00     0.053 C 
ATOM      4  C   UNL     1       1.740   5.021  10.252  1.00  0.00     0.016 C 
BRANCH   3   5
ATOM      5  C   UNL     1       3.638   3.696  11.290  1.00  0.00     0.015 C 
BRANCH   5   6
ATOM      6  C   UNL     1       3.209   4.122  12.708  1.00  0.00     0.028 C 
BRANCH   6   7
ATOM      7  C   UNL     1       3.989   3.430  13.799  1.00  0.00    -0.028 C 
ATOM      8  C   UNL     1       3.524   2.427  14.583  1.00  0.00    -0.070 CG0
ATOM      9  C   UNL     1       4.489   1.794  15.554  1.00  0.00     0.039 C 
ATOM     10  G   UNL     1       2.079   1.945  14.567  1.00  0.00     0.000 G0
ENDBRANCH   6   7
ENDBRANCH   5   6
ENDBRANCH   3   5
ENDBRANCH   1   3
BRANCH   1  11
ATOM     11  C   UNL     1       1.920   1.251  11.288  1.00  0.00     0.087 C 
BRANCH  11  12
ATOM     12  C   UNL     1       1.042   0.765  12.472  1.00  0.00     0.066 C 
BRANCH  12  13
ATOM     13  C   UNL     1       1.850   0.678  13.760  1.00  0.00     0.140 C 
ATOM     14  O   UNL     1       2.267  -0.400  14.157  1.00  0.00    -0.299 OA
BRANCH  13  15
ATOM     15  C   UNL     1       2.092   1.920  14.584  1.00  0.00     0.106 CG0
ATOM     16  G   UNL     1       3.533   2.411  14.557  1.00  0.00     0.000 G0
ENDBRANCH  13  15
ENDBRANCH  12  13
BRANCH  12  17
ATOM     17  C   UNL     1       0.277  -0.567  12.174  1.00  0.00    -0.006 C 
ATOM     18  C   UNL     1       0.452  -1.077  10.731  1.00  0.00     0.008 C 
ATOM     19  C   UNL     1      -1.220  -0.442  12.502  1.00  0.00     0.008 C 
ENDBRANCH  12  17
ENDBRANCH  11  12
ENDBRANCH   1  11
TORSDOF 1
ENDMDL
MODEL 5
REMARK VINA RESULT:    -3.604      1.877      4.326
REMARK INTER + INTRA:          -5.855
REMARK INTER:                  -5.454
REMARK INTRA:                  -0.401
REMARK UNBOUND:                -0.356
REMARK SMILES CC1=CCC[C@H](C)C(=O)C[C@@H](C(C)C)C(=O)C1
REMARK SMILES IDX 8 1 9 2 6 3 7 4 5 5 4 6 3 7 2 8 1 9 10 11 11 12 15 13 16 14
REMARK SMILES IDX 17 15 12 17 13 18 14 19
REMARK H PARENT
REMARK Flexibility Score: 70.00
ROOT
ATOM      1  C   UNL     1       2.317   0.793  15.668  1.00  0.00     0.136 C 
ATOM      2  O   UNL     1       2.197  -0.140  16.451  1.00  0.00    -0.299 OA
ENDROOT
BRANCH   1   3
ATOM      3  C   UNL     1       3.528   1.702  15.770  1.00  0.00     0.053 C 
ATOM      4  C   UNL     1       4.687   1.147  14.931  1.00  0.00     0.016 C 
BRANCH   3   5
ATOM      5  C   UNL     1       3.166   3.138  15.330  1.00  0.00     0.015 C 
BRANCH   5   6
ATOM      6  C   UNL     1       3.904   3.539  14.037  1.00  0.00     0.028 C 
BRANCH   6   7
ATOM      7  C   UNL     1       2.987   4.100  12.979  1.00  0.00    -0.028 C 
ATOM      8  C   UNL     1       2.363   3.379  12.016  1.00  0.00    -0.070 CG0
ATOM      9  C   UNL     1       1.405   4.107  11.107  1.00  0.00     0.039 C 
ATOM     10  G   UNL     1       2.614   1.896  11.778  1.00  0.00     0.000 G0
ENDBRANCH   6   7
ENDBRANCH   5   6
ENDBRANCH   3   5
ENDBRANCH   1   3
BRANCH   1  11
ATOM     11  C   UNL     1       1.242   1.021  14.630  1.00  0.00     0.087 C 
BRANCH  11  12
ATOM     12  C   UNL     1       1.447   0.141  13.368  1.00  0.00     0.066 C 
BRANCH  12  13
ATOM     13  C   UNL     1       1.429   0.984  12.099  1.00  0.00     0.140 C 
ATOM     14  O   UNL     1       0.493   0.907  11.318  1.00  0.00    -0.299 OA
BRANCH  13  15
ATOM     15  C   UNL     1       2.601   1.877  11.771  1.00  0.00     0.106 CG0
ATOM     16  G   UNL     1       2.340   3.357  12.021  1.00  0.00     0.000 G0
ENDBRANCH  13  15
ENDBRANCH  12  13
BRANCH  12  17
ATOM     17  C   UNL     1       0.452  -1.063  13.281  1.00  0.00    -0.006 C 
ATOM     18  C   UNL     1      -0.912  -0.794  13.944  1.00  0.00     0.008 C 
ATOM     19  C   UNL     1       1.068  -2.346  13.863  1.00  0.00     0.008 C 
ENDBRANCH  12  17
ENDBRANCH  11  12
ENDBRANCH   1  11
TORSDOF 1
ENDMDL
MODEL 6
REMARK VINA RESULT:    -3.410     12.941     14.838
REMARK INTER + INTRA:          -5.559
REMARK INTER:                  -5.556
REMARK INTRA:                  -0.003
REMARK UNBOUND:                -0.356
REMARK SMILES CC1=CCC[C@H](C)C(=O)C[C@@H](C(C)C)C(=O)C1
REMARK SMILES IDX 8 1 9 2 6 3 7 4 5 5 4 6 3 7 2 8 1 9 10 11 11 12 15 13 16 14
REMARK SMILES IDX 17 15 12 17 13 18 14 19
REMARK H PARENT
REMARK Flexibility Score: 70.00
ROOT
ATOM      1  C   UNL     1      -6.708  -4.343   2.327  1.00  0.00     0.136 C 
ATOM      2  O   UNL     1      -6.690  -3.599   1.357  1.00  0.00    -0.299 OA
ENDROOT
BRANCH   1   3
ATOM      3  C   UNL     1      -7.624  -5.553   2.322  1.00  0.00     0.053 C 
ATOM      4  C   UNL     1      -8.531  -5.534   1.085  1.00  0.00     0.016 C 
BRANCH   3   5
ATOM      5  C   UNL     1      -6.798  -6.858   2.379  1.00  0.00     0.015 C 
BRANCH   5   6
ATOM      6  C   UNL     1      -5.510  -6.753   1.538  1.00  0.00     0.028 C 
BRANCH   6   7
ATOM      7  C   UNL     1      -4.269  -7.151   2.298  1.00  0.00    -0.028 C 
ATOM      8  C   UNL     1      -3.231  -6.331   2.593  1.00  0.00    -0.070 CG0
ATOM      9  C   UNL     1      -2.121  -6.889   3.449  1.00  0.00     0.039 C 
ATOM     10  G   UNL     1      -3.106  -4.907   2.069  1.00  0.00     0.000 G0
ENDBRANCH   6   7
ENDBRANCH   5   6
ENDBRANCH   3   5
ENDBRANCH   1   3
BRANCH   1  11
ATOM     11  C   UNL     1      -5.828  -4.023   3.514  1.00  0.00     0.087 C 
BRANCH  11  12
ATOM     12  C   UNL     1      -4.653  -3.082   3.136  1.00  0.00     0.066 C 
BRANCH  12  13
ATOM     13  C   UNL     1      -3.330  -3.836   3.104  1.00  0.00     0.140 C 
ATOM     14  O   UNL     1      -2.438  -3.555   3.892  1.00  0.00    -0.299 OA
BRANCH  13  15
ATOM     15  C   UNL     1      -3.092  -4.898   2.058  1.00  0.00     0.106 CG0
ATOM     16  G   UNL     1      -3.228  -6.322   2.580  1.00  0.00     0.000 G0
ENDBRANCH  13  15
ENDBRANCH  12  13
BRANCH  12  17
ATOM     17  C   UNL     1      -4.570  -1.800   4.030  1.00  0.00    -0.006 C 
ATOM     18  C   UNL     1      -5.791  -1.601   4.948  1.00  0.00     0.008 C 
ATOM     19  C   UNL     1      -4.348  -0.536   3.183  1.00  0.00     0.008 C 
ENDBRANCH  12  17
ENDBRANCH  11  12
ENDBRANCH   1  11
TORSDOF 1
ENDMDL
MODEL 7
REMARK VINA RESULT:    -3.333      4.573      6.613
REMARK INTER + INTRA:          -5.443
REMARK INTER:                  -5.195
REMARK INTRA:                  -0.248
REMARK UNBOUND:                -0.356
REMARK SMILES CC1=CCC[C@H](C)C(=O)C[C@@H](C(C)C)C(=O)C1
REMARK SMILES IDX 8 1 9 2 6 3 7 4 5 5 4 6 3 7 2 8 1 9 10 11 11 12 15 13 16 14
REMARK SMILES IDX 17 15 12 17 13 18 14 19
REMARK H PARENT
REMARK Flexibility Score: 70.00
ROOT
ATOM      1  C   UNL     1      -0.227   5.016  18.647  1.00  0.00     0.136 C 
ATOM      2  O   UNL     1      -0.359   5.303  19.828  1.00  0.00    -0.299 OA
ENDROOT
BRANCH   1   3
ATOM      3  C   UNL     1       0.504   5.973  17.723  1.00  0.00     0.053 C 
ATOM      4  C   UNL     1      -0.132   7.368  17.784  1.00  0.00     0.016 C 
BRANCH   3   5
ATOM      5  C   UNL     1       2.005   6.034  18.085  1.00  0.00     0.015 C 
BRANCH   5   6
ATOM      6  C   UNL     1       2.668   4.645  17.999  1.00  0.00     0.028 C 
BRANCH   6   7
ATOM      7  C   UNL     1       2.753   4.112  16.590  1.00  0.00    -0.028 C 
ATOM      8  C   UNL     1       2.415   2.858  16.202  1.00  0.00    -0.070 CG0
ATOM      9  C   UNL     1       2.474   2.542  14.728  1.00  0.00     0.039 C 
ATOM     10  G   UNL     1       2.028   1.750  17.173  1.00  0.00     0.000 G0
ENDBRANCH   6   7
ENDBRANCH   5   6
ENDBRANCH   3   5
ENDBRANCH   1   3
BRANCH   1  11
ATOM     11  C   UNL     1      -0.814   3.719  18.137  1.00  0.00     0.087 C 
BRANCH  11  12
ATOM     12  C   UNL     1      -0.029   2.480  18.645  1.00  0.00     0.066 C 
BRANCH  12  13
ATOM     13  C   UNL     1       0.544   1.676  17.485  1.00  0.00     0.140 C 
ATOM     14  O   UNL     1      -0.176   0.937  16.829  1.00  0.00    -0.299 OA
BRANCH  13  15
ATOM     15  C   UNL     1       2.020   1.744  17.176  1.00  0.00     0.106 CG0
ATOM     16  G   UNL     1       2.396   2.848  16.196  1.00  0.00     0.000 G0
ENDBRANCH  13  15
ENDBRANCH  12  13
BRANCH  12  17
ATOM     17  C   UNL     1      -0.852   1.580  19.626  1.00  0.00    -0.006 C 
ATOM     18  C   UNL     1      -2.162   2.228  20.114  1.00  0.00     0.008 C 
ATOM     19  C   UNL     1      -0.008   1.144  20.834  1.00  0.00     0.008 C 
ENDBRANCH  12  17
ENDBRANCH  11  12
ENDBRANCH   1  11
TORSDOF 1
ENDMDL
MODEL 8
REMARK VINA RESULT:    -3.268      2.992      3.806
REMARK INTER + INTRA:          -5.343
REMARK INTER:                  -5.024
REMARK INTRA:                  -0.319
REMARK UNBOUND:                -0.356
REMARK SMILES CC1=CCC[C@H](C)C(=O)C[C@@H](C(C)C)C(=O)C1
REMARK SMILES IDX 8 1 9 2 6 3 7 4 5 5 4 6 3 7 2 8 1 9 10 11 11 12 15 13 16 14
REMARK SMILES IDX 17 15 12 17 13 18 14 19
REMARK H PARENT
REMARK Flexibility Score: 70.00
ROOT
ATOM      1  C   UNL     1       2.068   3.136  17.293  1.00  0.00     0.136 C 
ATOM      2  O   UNL     1       2.230   4.346  17.221  1.00  0.00    -0.299 OA
ENDROOT
BRANCH   1   3
ATOM      3  C   UNL     1       1.105   2.572  18.322  1.00  0.00     0.053 C 
ATOM      4  C   UNL     1       1.584   2.901  19.742  1.00  0.00     0.016 C 
BRANCH   3   5
ATOM      5  C   UNL     1      -0.322   3.114  18.082  1.00  0.00     0.015 C 
BRANCH   5   6
ATOM      6  C   UNL     1      -1.157   2.151  17.215  1.00  0.00     0.028 C 
BRANCH   6   7
ATOM      7  C   UNL     1      -0.814   0.699  17.439  1.00  0.00    -0.028 C 
ATOM      8  C   UNL     1      -0.193  -0.109  16.545  1.00  0.00    -0.070 CG0
ATOM      9  C   UNL     1       0.154  -1.508  16.991  1.00  0.00     0.039 C 
ATOM     10  G   UNL     1       0.126   0.303  15.114  1.00  0.00     0.000 G0
ENDBRANCH   6   7
ENDBRANCH   5   6
ENDBRANCH   3   5
ENDBRANCH   1   3
BRANCH   1  11
ATOM     11  C   UNL     1       2.849   2.235  16.364  1.00  0.00     0.087 C 
BRANCH  11  12
ATOM     12  C   UNL     1       2.122   2.017  15.010  1.00  0.00     0.066 C 
BRANCH  12  13
ATOM     13  C   UNL     1       1.606   0.589  14.885  1.00  0.00     0.140 C 
ATOM     14  O   UNL     1       2.359  -0.315  14.552  1.00  0.00    -0.299 OA
BRANCH  13  15
ATOM     15  C   UNL     1       0.143   0.294  15.115  1.00  0.00     0.106 CG0
ATOM     16  G   UNL     1      -0.191  -0.098  16.548  1.00  0.00     0.000 G0
ENDBRANCH  13  15
ENDBRANCH  12  13
BRANCH  12  17
ATOM     17  C   UNL     1       2.978   2.436  13.769  1.00  0.00    -0.006 C 
ATOM     18  C   UNL     1       3.831   3.698  13.999  1.00  0.00     0.008 C 
ATOM     19  C   UNL     1       2.104   2.623  12.519  1.00  0.00     0.008 C 
ENDBRANCH  12  17
ENDBRANCH  11  12
ENDBRANCH   1  11
TORSDOF 1
ENDMDL
MODEL 9
REMARK VINA RESULT:    -3.233      1.908      4.934
REMARK INTER + INTRA:          -5.289
REMARK INTER:                  -5.117
REMARK INTRA:                  -0.173
REMARK UNBOUND:                -0.356
REMARK SMILES CC1=CCC[C@H](C)C(=O)C[C@@H](C(C)C)C(=O)C1
REMARK SMILES IDX 8 1 9 2 6 3 7 4 5 5 4 6 3 7 2 8 1 9 10 11 11 12 15 13 16 14
REMARK SMILES IDX 17 15 12 17 13 18 14 19
REMARK H PARENT
REMARK Flexibility Score: 70.00
ROOT
ATOM      1  C   UNL     1       1.219   0.261  14.132  1.00  0.00     0.136 C 
ATOM      2  O   UNL     1       0.723   0.667  15.173  1.00  0.00    -0.299 OA
ENDROOT
BRANCH   1   3
ATOM      3  C   UNL     1       0.522  -0.838  13.352  1.00  0.00     0.053 C 
ATOM      4  C   UNL     1      -0.187  -1.807  14.308  1.00  0.00     0.016 C 
BRANCH   3   5
ATOM      5  C   UNL     1      -0.475  -0.235  12.338  1.00  0.00     0.015 C 
BRANCH   5   6
ATOM      6  C   UNL     1       0.231   0.209  11.041  1.00  0.00     0.028 C 
BRANCH   6   7
ATOM      7  C   UNL     1       0.012   1.665  10.713  1.00  0.00    -0.028 C 
ATOM      8  C   UNL     1       0.965   2.629  10.737  1.00  0.00    -0.070 CG0
ATOM      9  C   UNL     1       0.573   4.011  10.280  1.00  0.00     0.039 C 
ATOM     10  G   UNL     1       2.384   2.399  11.241  1.00  0.00     0.000 G0
ENDBRANCH   6   7
ENDBRANCH   5   6
ENDBRANCH   3   5
ENDBRANCH   1   3
BRANCH   1  11
ATOM     11  C   UNL     1       2.526   0.858  13.660  1.00  0.00     0.087 C 
BRANCH  11  12
ATOM     12  C   UNL     1       2.572   2.398  13.854  1.00  0.00     0.066 C 
BRANCH  12  13
ATOM     13  C   UNL     1       2.727   3.117  12.520  1.00  0.00     0.140 C 
ATOM     14  O   UNL     1       3.071   4.290  12.486  1.00  0.00    -0.299 OA
BRANCH  13  15
ATOM     15  C   UNL     1       2.398   2.400  11.233  1.00  0.00     0.106 CG0
ATOM     16  G   UNL     1       0.973   2.625  10.746  1.00  0.00     0.000 G0
ENDBRANCH  13  15
ENDBRANCH  12  13
BRANCH  12  17
ATOM     17  C   UNL     1       3.645   2.862  14.894  1.00  0.00    -0.006 C 
ATOM     18  C   UNL     1       4.407   1.703  15.563  1.00  0.00     0.008 C 
ATOM     19  C   UNL     1       3.028   3.768  15.972  1.00  0.00     0.008 C 
ENDBRANCH  12  17
ENDBRANCH  11  12
ENDBRANCH   1  11
TORSDOF 1
ENDMDL
