MODEL 1
REMARK VINA RESULT:    -5.346      0.000      0.000
REMARK INTER + INTRA:          -9.020
REMARK INTER:                  -8.314
REMARK INTRA:                  -0.706
REMARK UNBOUND:                -0.706
REMARK SMILES COc1cc(CNC(=O)CCCCC=CC(C)C)ccc1O
REMARK SMILES IDX 11 1 12 2 13 3 14 4 15 5 16 6 17 7 18 8 10 9 8 10 9 11 7 12
REMARK SMILES IDX 6 14 5 15 4 16 19 17 3 18 20 19 21 20 2 21 1 22 22 23
REMARK H PARENT 7 13 22 24
REMARK Flexibility Score: inf
ROOT
ATOM      1  C   UNL     1       2.128  12.830  12.845  1.00  0.00     0.010 C 
ENDROOT
BRANCH   1   2
ATOM      2  C   UNL     1       1.631  13.456  11.532  1.00  0.00     0.005 C 
BRANCH   2   3
ATOM      3  C   UNL     1       2.700  14.340  10.875  1.00  0.00     0.027 C 
BRANCH   3   4
ATOM      4  C   UNL     1       3.758  14.746  11.871  1.00  0.00    -0.031 C 
ATOM      5  C   UNL     1       4.420  15.921  11.921  1.00  0.00    -0.028 C 
BRANCH   5   6
ATOM      6  C   UNL     1       4.275  17.122  11.003  1.00  0.00     0.005 C 
ATOM      7  C   UNL     1       5.555  17.963  10.891  1.00  0.00     0.012 C 
ATOM      8  C   UNL     1       3.035  17.967  11.321  1.00  0.00     0.012 C 
ENDBRANCH   5   6
ENDBRANCH   3   4
ENDBRANCH   2   3
ENDBRANCH   1   2
BRANCH   1   9
ATOM      9  C   UNL     1       1.737  11.351  12.971  1.00  0.00     0.100 C 
BRANCH   9  10
ATOM     10  C   UNL     1       2.371  10.517  11.897  1.00  0.00     0.220 C 
ATOM     11  O   UNL     1       1.687  10.171  10.896  1.00  0.00    -0.275 OA
ATOM     12  N   UNL     1       3.732  10.087  12.026  1.00  0.00    -0.352 N 
ATOM     13  H   UNL     1       4.279  10.396  12.862  1.00  0.00     0.163 HD
BRANCH  12  14
ATOM     14  C   UNL     1       4.353   9.213  11.032  1.00  0.00     0.151 C 
BRANCH  14  15
ATOM     15  C   UNL     1       5.094   8.089  11.704  1.00  0.00    -0.025 A 
ATOM     16  C   UNL     1       6.446   8.241  12.053  1.00  0.00     0.056 A 
ATOM     17  C   UNL     1       4.424   6.905  12.041  1.00  0.00     0.009 A 
ATOM     18  C   UNL     1       7.136   7.204  12.711  1.00  0.00     0.160 A 
ATOM     19  C   UNL     1       5.103   5.874  12.694  1.00  0.00     0.050 A 
ATOM     20  C   UNL     1       6.456   6.019  13.026  1.00  0.00     0.157 A 
BRANCH  18  21
ATOM     21  O   UNL     1       8.489   7.314  13.067  1.00  0.00    -0.493 OA
ATOM     22  C   UNL     1       9.012   8.295  13.957  1.00  0.00     0.278 C 
ENDBRANCH  18  21
BRANCH  20  23
ATOM     23  O   UNL     1       7.135   4.987  13.673  1.00  0.00    -0.504 OA
ATOM     24  H   UNL     1       6.639   4.216  14.105  1.00  0.00     0.293 HD
ENDBRANCH  20  23
ENDBRANCH  14  15
ENDBRANCH  12  14
ENDBRANCH   9  10
ENDBRANCH   1   9
TORSDOF 10
ENDMDL
MODEL 2
REMARK VINA RESULT:    -4.491      2.287      8.060
REMARK INTER + INTRA:          -7.690
REMARK INTER:                  -6.981
REMARK INTRA:                  -0.709
REMARK UNBOUND:                -0.706
REMARK SMILES COc1cc(CNC(=O)CCCCC=CC(C)C)ccc1O
REMARK SMILES IDX 11 1 12 2 13 3 14 4 15 5 16 6 17 7 18 8 10 9 8 10 9 11 7 12
REMARK SMILES IDX 6 14 5 15 4 16 19 17 3 18 20 19 21 20 2 21 1 22 22 23
REMARK H PARENT 7 13 22 24
REMARK Flexibility Score: inf
ROOT
ATOM      1  C   UNL     1       4.645   5.766  12.364  1.00  0.00     0.010 C 
ENDROOT
BRANCH   1   2
ATOM      2  C   UNL     1       5.129   4.887  13.529  1.00  0.00     0.005 C 
BRANCH   2   3
ATOM      3  C   UNL     1       6.603   5.145  13.870  1.00  0.00     0.027 C 
BRANCH   3   4
ATOM      4  C   UNL     1       7.362   5.642  12.664  1.00  0.00    -0.031 C 
ATOM      5  C   UNL     1       8.150   6.735  12.592  1.00  0.00    -0.028 C 
BRANCH   5   6
ATOM      6  C   UNL     1       8.473   7.735  13.688  1.00  0.00     0.005 C 
ATOM      7  C   UNL     1       7.512   8.932  13.725  1.00  0.00     0.012 C 
ATOM      8  C   UNL     1       9.948   8.156  13.692  1.00  0.00     0.012 C 
ENDBRANCH   5   6
ENDBRANCH   3   4
ENDBRANCH   2   3
ENDBRANCH   1   2
BRANCH   1   9
ATOM      9  C   UNL     1       4.132   7.132  12.837  1.00  0.00     0.100 C 
BRANCH   9  10
ATOM     10  C   UNL     1       4.480   8.222  11.867  1.00  0.00     0.220 C 
ATOM     11  O   UNL     1       5.522   8.117  11.164  1.00  0.00    -0.275 OA
ATOM     12  N   UNL     1       3.654   9.389  11.764  1.00  0.00    -0.352 N 
ATOM     13  H   UNL     1       2.791   9.446  12.352  1.00  0.00     0.163 HD
BRANCH  12  14
ATOM     14  C   UNL     1       4.008  10.498  10.881  1.00  0.00     0.151 C 
BRANCH  14  15
ATOM     15  C   UNL     1       3.884  11.812  11.605  1.00  0.00    -0.025 A 
ATOM     16  C   UNL     1       4.052  13.022  10.911  1.00  0.00     0.056 A 
ATOM     17  C   UNL     1       3.539  11.838  12.963  1.00  0.00     0.009 A 
ATOM     18  C   UNL     1       3.906  14.254  11.577  1.00  0.00     0.160 A 
ATOM     19  C   UNL     1       3.391  13.058  13.628  1.00  0.00     0.050 A 
ATOM     20  C   UNL     1       3.577  14.264  12.940  1.00  0.00     0.157 A 
BRANCH  18  21
ATOM     21  O   UNL     1       4.076  15.484  10.921  1.00  0.00    -0.493 OA
ATOM     22  C   UNL     1       5.064  16.451  11.264  1.00  0.00     0.278 C 
ENDBRANCH  18  21
BRANCH  20  23
ATOM     23  O   UNL     1       3.435  15.481  13.605  1.00  0.00    -0.504 OA
ATOM     24  H   UNL     1       3.720  16.355  13.178  1.00  0.00     0.293 HD
ENDBRANCH  20  23
ENDBRANCH  14  15
ENDBRANCH  12  14
ENDBRANCH   9  10
ENDBRANCH   1   9
TORSDOF 10
ENDMDL
MODEL 3
REMARK VINA RESULT:    -3.288      3.095      8.340
REMARK INTER + INTRA:          -5.819
REMARK INTER:                  -5.505
REMARK INTRA:                  -0.314
REMARK UNBOUND:                -0.706
REMARK SMILES COc1cc(CNC(=O)CCCCC=CC(C)C)ccc1O
REMARK SMILES IDX 11 1 12 2 13 3 14 4 15 5 16 6 17 7 18 8 10 9 8 10 9 11 7 12
REMARK SMILES IDX 6 14 5 15 4 16 19 17 3 18 20 19 21 20 2 21 1 22 22 23
REMARK H PARENT 7 13 22 24
REMARK Flexibility Score: inf
ROOT
ATOM      1  C   UNL     1       2.571   9.659  11.432  1.00  0.00     0.010 C 
ENDROOT
BRANCH   1   2
ATOM      2  C   UNL     1       3.883  10.456  11.343  1.00  0.00     0.005 C 
BRANCH   2   3
ATOM      3  C   UNL     1       5.114   9.562  11.543  1.00  0.00     0.027 C 
BRANCH   3   4
ATOM      4  C   UNL     1       4.717   8.187  12.019  1.00  0.00    -0.031 C 
ATOM      5  C   UNL     1       5.534   7.218  12.482  1.00  0.00    -0.028 C 
BRANCH   5   6
ATOM      6  C   UNL     1       7.044   7.259  12.643  1.00  0.00     0.005 C 
ATOM      7  C   UNL     1       7.746   5.990  12.139  1.00  0.00     0.012 C 
ATOM      8  C   UNL     1       7.480   7.658  14.059  1.00  0.00     0.012 C 
ENDBRANCH   5   6
ENDBRANCH   3   4
ENDBRANCH   2   3
ENDBRANCH   1   2
BRANCH   1   9
ATOM      9  C   UNL     1       1.608  10.236  12.478  1.00  0.00     0.100 C 
BRANCH   9  10
ATOM     10  C   UNL     1       1.450  11.720  12.328  1.00  0.00     0.220 C 
ATOM     11  O   UNL     1       1.634  12.468  13.327  1.00  0.00    -0.275 OA
ATOM     12  N   UNL     1       1.060  12.281  11.069  1.00  0.00    -0.352 N 
ATOM     13  H   UNL     1       0.924  11.640  10.254  1.00  0.00     0.163 HD
BRANCH  12  14
ATOM     14  C   UNL     1       0.828  13.716  10.913  1.00  0.00     0.151 C 
BRANCH  14  15
ATOM     15  C   UNL     1       2.133  14.464  10.876  1.00  0.00    -0.025 A 
ATOM     16  C   UNL     1       2.146  15.868  10.892  1.00  0.00     0.056 A 
ATOM     17  C   UNL     1       3.347  13.763  10.887  1.00  0.00     0.009 A 
ATOM     18  C   UNL     1       3.365  16.573  10.889  1.00  0.00     0.160 A 
ATOM     19  C   UNL     1       4.559  14.457  10.886  1.00  0.00     0.050 A 
ATOM     20  C   UNL     1       4.571  15.858  10.884  1.00  0.00     0.157 A 
BRANCH  18  21
ATOM     21  O   UNL     1       3.419  17.976  10.894  1.00  0.00    -0.493 OA
ATOM     22  C   UNL     1       3.083  18.791  12.013  1.00  0.00     0.278 C 
ENDBRANCH  18  21
BRANCH  20  23
ATOM     23  O   UNL     1       5.782  16.550  10.877  1.00  0.00    -0.504 OA
ATOM     24  H   UNL     1       6.281  16.753  11.735  1.00  0.00     0.293 HD
ENDBRANCH  20  23
ENDBRANCH  14  15
ENDBRANCH  12  14
ENDBRANCH   9  10
ENDBRANCH   1   9
TORSDOF 10
ENDMDL
