MODEL 1
REMARK VINA RESULT:    -5.406      0.000      0.000
REMARK INTER + INTRA:          -6.831
REMARK INTER:                  -6.512
REMARK INTRA:                  -0.319
REMARK UNBOUND:                -0.319
REMARK SMILES Oc1cc(O)c2c(c1)O[C@H](c1ccc(O)c(O)c1)[C@H](O)C2
REMARK SMILES IDX 21 1 19 2 10 3 9 4 7 5 8 6 2 7 3 8 4 9 6 10 20 11 11 13
REMARK SMILES IDX 18 14 12 15 16 16 13 17 14 18 17 19 15 21 5 23 1 25
REMARK H PARENT 20 12 17 20 15 22 5 24 1 26
REMARK Flexibility Score: inf
ROOT
ATOM      1  C   UNL     1     -16.510 -19.712 -11.753  1.00  0.00     0.079 C 
ATOM      2  C   UNL     1     -17.041 -18.289 -12.027  1.00  0.00     0.164 C 
ATOM      3  C   UNL     1     -16.100 -17.527 -12.992  1.00  0.00     0.232 C 
ATOM      4  O   UNL     1     -14.772 -17.540 -12.463  1.00  0.00    -0.482 OA
ATOM      5  C   UNL     1     -14.216 -18.657 -11.832  1.00  0.00     0.131 A 
ATOM      6  C   UNL     1     -12.847 -18.664 -11.551  1.00  0.00     0.093 A 
ATOM      7  C   UNL     1     -12.261 -19.769 -10.932  1.00  0.00     0.122 A 
ATOM      8  C   UNL     1     -13.047 -20.878 -10.600  1.00  0.00     0.092 A 
ATOM      9  C   UNL     1     -14.419 -20.887 -10.873  1.00  0.00     0.126 A 
ATOM     10  C   UNL     1     -15.025 -19.752 -11.463  1.00  0.00     0.039 A 
ENDROOT
BRANCH   2  11
ATOM     11  O   UNL     1     -17.229 -17.580 -10.825  1.00  0.00    -0.389 OA
ATOM     12  H   UNL     1     -17.876 -18.086 -10.269  1.00  0.00     0.211 HD
ENDBRANCH   2  11
BRANCH   3  13
ATOM     13  C   UNL     1     -16.513 -16.093 -13.300  1.00  0.00    -0.001 A 
ATOM     14  C   UNL     1     -15.895 -15.040 -12.598  1.00  0.00     0.057 A 
ATOM     15  C   UNL     1     -17.414 -15.768 -14.336  1.00  0.00     0.012 A 
ATOM     16  C   UNL     1     -16.207 -13.702 -12.883  1.00  0.00     0.157 A 
ATOM     17  C   UNL     1     -17.725 -14.435 -14.618  1.00  0.00     0.050 A 
ATOM     18  C   UNL     1     -17.127 -13.400 -13.892  1.00  0.00     0.157 A 
BRANCH  16  19
ATOM     19  O   UNL     1     -15.600 -12.669 -12.172  1.00  0.00    -0.504 OA
ATOM     20  H   UNL     1     -15.332 -11.800 -12.622  1.00  0.00     0.293 HD
ENDBRANCH  16  19
BRANCH  18  21
ATOM     21  O   UNL     1     -17.438 -12.070 -14.170  1.00  0.00    -0.504 OA
ATOM     22  H   UNL     1     -17.138 -11.624 -15.029  1.00  0.00     0.293 HD
ENDBRANCH  18  21
ENDBRANCH   3  13
BRANCH   9  23
ATOM     23  O   UNL     1     -15.145 -22.039 -10.558  1.00  0.00    -0.507 OA
ATOM     24  H   UNL     1     -15.367 -22.757 -11.233  1.00  0.00     0.293 HD
ENDBRANCH   9  23
BRANCH   7  25
ATOM     25  O   UNL     1     -10.894 -19.759 -10.659  1.00  0.00    -0.508 OA
ATOM     26  H   UNL     1     -10.539 -19.945  -9.729  1.00  0.00     0.293 HD
ENDBRANCH   7  25
TORSDOF 6
ENDMDL
MODEL 2
REMARK VINA RESULT:    -5.252      3.374      8.575
REMARK INTER + INTRA:          -6.646
REMARK INTER:                  -6.405
REMARK INTRA:                  -0.241
REMARK UNBOUND:                -0.319
REMARK SMILES Oc1cc(O)c2c(c1)O[C@H](c1ccc(O)c(O)c1)[C@H](O)C2
REMARK SMILES IDX 21 1 19 2 10 3 9 4 7 5 8 6 2 7 3 8 4 9 6 10 20 11 11 13
REMARK SMILES IDX 18 14 12 15 16 16 13 17 14 18 17 19 15 21 5 23 1 25
REMARK H PARENT 20 12 17 20 15 22 5 24 1 26
REMARK Flexibility Score: inf
ROOT
ATOM      1  C   UNL     1     -14.046 -21.885  -9.288  1.00  0.00     0.079 C 
ATOM      2  C   UNL     1     -12.907 -22.805  -9.774  1.00  0.00     0.164 C 
ATOM      3  C   UNL     1     -11.619 -21.988 -10.046  1.00  0.00     0.232 C 
ATOM      4  O   UNL     1     -11.916 -20.930 -10.960  1.00  0.00    -0.482 OA
ATOM      5  C   UNL     1     -13.102 -20.190 -10.906  1.00  0.00     0.131 A 
ATOM      6  C   UNL     1     -13.214 -19.033 -11.681  1.00  0.00     0.093 A 
ATOM      7  C   UNL     1     -14.380 -18.267 -11.640  1.00  0.00     0.122 A 
ATOM      8  C   UNL     1     -15.438 -18.656 -10.811  1.00  0.00     0.092 A 
ATOM      9  C   UNL     1     -15.343 -19.813 -10.029  1.00  0.00     0.126 A 
ATOM     10  C   UNL     1     -14.179 -20.614 -10.100  1.00  0.00     0.039 A 
ENDROOT
BRANCH   2  11
ATOM     11  O   UNL     1     -13.299 -23.539 -10.910  1.00  0.00    -0.389 OA
ATOM     12  H   UNL     1     -12.577 -23.468 -11.585  1.00  0.00     0.211 HD
ENDBRANCH   2  11
BRANCH   3  13
ATOM     13  C   UNL     1     -10.439 -22.798 -10.570  1.00  0.00    -0.001 A 
ATOM     14  C   UNL     1      -9.497 -22.167 -11.407  1.00  0.00     0.057 A 
ATOM     15  C   UNL     1     -10.189 -24.126 -10.164  1.00  0.00     0.012 A 
ATOM     16  C   UNL     1      -8.369 -22.858 -11.872  1.00  0.00     0.157 A 
ATOM     17  C   UNL     1      -9.065 -24.814 -10.629  1.00  0.00     0.050 A 
ATOM     18  C   UNL     1      -8.155 -24.185 -11.485  1.00  0.00     0.157 A 
BRANCH  16  19
ATOM     19  O   UNL     1      -7.452 -22.229 -12.712  1.00  0.00    -0.504 OA
ATOM     20  H   UNL     1      -6.935 -22.746 -13.415  1.00  0.00     0.293 HD
ENDBRANCH  16  19
BRANCH  18  21
ATOM     21  O   UNL     1      -7.034 -24.871 -11.952  1.00  0.00    -0.504 OA
ATOM     22  H   UNL     1      -6.899 -25.857 -11.762  1.00  0.00     0.293 HD
ENDBRANCH  18  21
ENDBRANCH   3  13
BRANCH   9  23
ATOM     23  O   UNL     1     -16.414 -20.128  -9.190  1.00  0.00    -0.507 OA
ATOM     24  H   UNL     1     -17.191 -19.503  -9.022  1.00  0.00     0.293 HD
ENDBRANCH   9  23
BRANCH   7  25
ATOM     25  O   UNL     1     -14.475 -17.117 -12.421  1.00  0.00    -0.508 OA
ATOM     26  H   UNL     1     -14.799 -16.239 -12.033  1.00  0.00     0.293 HD
ENDBRANCH   7  25
TORSDOF 6
ENDMDL
MODEL 3
REMARK VINA RESULT:    -5.250      8.664     11.995
REMARK INTER + INTRA:          -6.643
REMARK INTER:                  -6.369
REMARK INTRA:                  -0.273
REMARK UNBOUND:                -0.319
REMARK SMILES Oc1cc(O)c2c(c1)O[C@H](c1ccc(O)c(O)c1)[C@H](O)C2
REMARK SMILES IDX 21 1 19 2 10 3 9 4 7 5 8 6 2 7 3 8 4 9 6 10 20 11 11 13
REMARK SMILES IDX 18 14 12 15 16 16 13 17 14 18 17 19 15 21 5 23 1 25
REMARK H PARENT 20 12 17 20 15 22 5 24 1 26
REMARK Flexibility Score: inf
ROOT
ATOM      1  C   UNL     1      -4.374 -24.767 -12.889  1.00  0.00     0.079 C 
ATOM      2  C   UNL     1      -5.741 -24.992 -12.209  1.00  0.00     0.164 C 
ATOM      3  C   UNL     1      -6.540 -23.667 -12.128  1.00  0.00     0.232 C 
ATOM      4  O   UNL     1      -5.744 -22.676 -11.476  1.00  0.00    -0.482 OA
ATOM      5  C   UNL     1      -4.369 -22.541 -11.694  1.00  0.00     0.131 A 
ATOM      6  C   UNL     1      -3.713 -21.411 -11.199  1.00  0.00     0.093 A 
ATOM      7  C   UNL     1      -2.344 -21.242 -11.411  1.00  0.00     0.122 A 
ATOM      8  C   UNL     1      -1.627 -22.205 -12.130  1.00  0.00     0.092 A 
ATOM      9  C   UNL     1      -2.269 -23.343 -12.632  1.00  0.00     0.126 A 
ATOM     10  C   UNL     1      -3.648 -23.538 -12.384  1.00  0.00     0.039 A 
ENDROOT
BRANCH   2  11
ATOM     11  O   UNL     1      -5.582 -25.575 -10.937  1.00  0.00    -0.389 OA
ATOM     12  H   UNL     1      -5.421 -26.545 -11.063  1.00  0.00     0.211 HD
ENDBRANCH   2  11
BRANCH   3  13
ATOM     13  C   UNL     1      -7.894 -23.771 -11.437  1.00  0.00    -0.001 A 
ATOM     14  C   UNL     1      -8.370 -22.668 -10.700  1.00  0.00     0.057 A 
ATOM     15  C   UNL     1      -8.742 -24.888 -11.591  1.00  0.00     0.012 A 
ATOM     16  C   UNL     1      -9.632 -22.699 -10.089  1.00  0.00     0.157 A 
ATOM     17  C   UNL     1      -9.999 -24.918 -10.980  1.00  0.00     0.050 A 
ATOM     18  C   UNL     1     -10.445 -23.828 -10.226  1.00  0.00     0.157 A 
BRANCH  16  19
ATOM     19  O   UNL     1     -10.086 -21.607  -9.351  1.00  0.00    -0.504 OA
ATOM     20  H   UNL     1     -10.240 -21.671  -8.351  1.00  0.00     0.293 HD
ENDBRANCH  16  19
BRANCH  18  21
ATOM     21  O   UNL     1     -11.698 -23.857  -9.614  1.00  0.00    -0.504 OA
ATOM     22  H   UNL     1     -11.982 -24.632  -9.026  1.00  0.00     0.293 HD
ENDBRANCH  18  21
ENDBRANCH   3  13
BRANCH   9  23
ATOM     23  O   UNL     1      -1.511 -24.248 -13.379  1.00  0.00    -0.507 OA
ATOM     24  H   UNL     1      -0.742 -23.971 -13.974  1.00  0.00     0.293 HD
ENDBRANCH   9  23
BRANCH   7  25
ATOM     25  O   UNL     1      -1.705 -20.109 -10.909  1.00  0.00    -0.508 OA
ATOM     26  H   UNL     1      -1.082 -19.555 -11.483  1.00  0.00     0.293 HD
ENDBRANCH   7  25
TORSDOF 6
ENDMDL
MODEL 4
REMARK VINA RESULT:    -5.081      3.557      6.044
REMARK INTER + INTRA:          -6.440
REMARK INTER:                  -6.219
REMARK INTRA:                  -0.221
REMARK UNBOUND:                -0.319
REMARK SMILES Oc1cc(O)c2c(c1)O[C@H](c1ccc(O)c(O)c1)[C@H](O)C2
REMARK SMILES IDX 21 1 19 2 10 3 9 4 7 5 8 6 2 7 3 8 4 9 6 10 20 11 11 13
REMARK SMILES IDX 18 14 12 15 16 16 13 17 14 18 17 19 15 21 5 23 1 25
REMARK H PARENT 20 12 17 20 15 22 5 24 1 26
REMARK Flexibility Score: inf
ROOT
ATOM      1  C   UNL     1     -12.447 -24.232  -9.797  1.00  0.00     0.079 C 
ATOM      2  C   UNL     1     -13.434 -23.050  -9.702  1.00  0.00     0.164 C 
ATOM      3  C   UNL     1     -13.266 -22.095 -10.910  1.00  0.00     0.232 C 
ATOM      4  O   UNL     1     -11.900 -21.682 -10.998  1.00  0.00    -0.482 OA
ATOM      5  C   UNL     1     -10.828 -22.548 -10.757  1.00  0.00     0.131 A 
ATOM      6  C   UNL     1      -9.535 -22.132 -11.086  1.00  0.00     0.093 A 
ATOM      7  C   UNL     1      -8.446 -22.977 -10.868  1.00  0.00     0.122 A 
ATOM      8  C   UNL     1      -8.652 -24.250 -10.326  1.00  0.00     0.092 A 
ATOM      9  C   UNL     1      -9.940 -24.682  -9.989  1.00  0.00     0.126 A 
ATOM     10  C   UNL     1     -11.042 -23.812 -10.170  1.00  0.00     0.039 A 
ENDROOT
BRANCH   2  11
ATOM     11  O   UNL     1     -13.285 -22.365  -8.481  1.00  0.00    -0.389 OA
ATOM     12  H   UNL     1     -13.028 -23.026  -7.788  1.00  0.00     0.211 HD
ENDBRANCH   2  11
BRANCH   3  13
ATOM     13  C   UNL     1     -14.169 -20.868 -10.894  1.00  0.00    -0.001 A 
ATOM     14  C   UNL     1     -15.478 -20.991 -10.387  1.00  0.00     0.057 A 
ATOM     15  C   UNL     1     -13.716 -19.585 -11.268  1.00  0.00     0.012 A 
ATOM     16  C   UNL     1     -16.328 -19.879 -10.306  1.00  0.00     0.157 A 
ATOM     17  C   UNL     1     -14.564 -18.478 -11.188  1.00  0.00     0.050 A 
ATOM     18  C   UNL     1     -15.871 -18.621 -10.712  1.00  0.00     0.157 A 
BRANCH  16  19
ATOM     19  O   UNL     1     -17.626 -20.016  -9.816  1.00  0.00    -0.504 OA
ATOM     20  H   UNL     1     -18.178 -19.210  -9.546  1.00  0.00     0.293 HD
ENDBRANCH  16  19
BRANCH  18  21
ATOM     21  O   UNL     1     -16.720 -17.518 -10.634  1.00  0.00    -0.504 OA
ATOM     22  H   UNL     1     -16.392 -16.619 -10.298  1.00  0.00     0.293 HD
ENDBRANCH  18  21
ENDBRANCH   3  13
BRANCH   9  23
ATOM     23  O   UNL     1     -10.089 -25.978  -9.491  1.00  0.00    -0.507 OA
ATOM     24  H   UNL     1     -10.866 -26.579  -9.729  1.00  0.00     0.293 HD
ENDBRANCH   9  23
BRANCH   7  25
ATOM     25  O   UNL     1      -7.164 -22.545 -11.202  1.00  0.00    -0.508 OA
ATOM     26  H   UNL     1      -6.345 -22.898 -10.721  1.00  0.00     0.293 HD
ENDBRANCH   7  25
TORSDOF 6
ENDMDL
MODEL 5
REMARK VINA RESULT:    -4.953     14.362     15.705
REMARK INTER + INTRA:          -6.285
REMARK INTER:                  -6.076
REMARK INTRA:                  -0.209
REMARK UNBOUND:                -0.319
REMARK SMILES Oc1cc(O)c2c(c1)O[C@H](c1ccc(O)c(O)c1)[C@H](O)C2
REMARK SMILES IDX 21 1 19 2 10 3 9 4 7 5 8 6 2 7 3 8 4 9 6 10 20 11 11 13
REMARK SMILES IDX 18 14 12 15 16 16 13 17 14 18 17 19 15 21 5 23 1 25
REMARK H PARENT 20 12 17 20 15 22 5 24 1 26
REMARK Flexibility Score: inf
ROOT
ATOM      1  C   UNL     1      -1.637 -21.819  -4.460  1.00  0.00     0.079 C 
ATOM      2  C   UNL     1      -1.312 -21.885  -5.967  1.00  0.00     0.164 C 
ATOM      3  C   UNL     1      -0.920 -20.487  -6.506  1.00  0.00     0.232 C 
ATOM      4  O   UNL     1      -1.958 -19.554  -6.195  1.00  0.00    -0.482 OA
ATOM      5  C   UNL     1      -2.646 -19.562  -4.978  1.00  0.00     0.131 A 
ATOM      6  C   UNL     1      -3.478 -18.483  -4.664  1.00  0.00     0.093 A 
ATOM      7  C   UNL     1      -4.169 -18.456  -3.452  1.00  0.00     0.122 A 
ATOM      8  C   UNL     1      -4.021 -19.510  -2.544  1.00  0.00     0.092 A 
ATOM      9  C   UNL     1      -3.194 -20.598  -2.843  1.00  0.00     0.126 A 
ATOM     10  C   UNL     1      -2.523 -20.649  -4.088  1.00  0.00     0.039 A 
ENDROOT
BRANCH   2  11
ATOM     11  O   UNL     1      -2.387 -22.433  -6.692  1.00  0.00    -0.389 OA
ATOM     12  H   UNL     1      -2.338 -22.088  -7.620  1.00  0.00     0.211 HD
ENDBRANCH   2  11
BRANCH   3  13
ATOM     13  C   UNL     1      -0.616 -20.432  -7.998  1.00  0.00    -0.001 A 
ATOM     14  C   UNL     1      -1.674 -20.219  -8.903  1.00  0.00     0.057 A 
ATOM     15  C   UNL     1       0.699 -20.480  -8.507  1.00  0.00     0.012 A 
ATOM     16  C   UNL     1      -1.435 -20.112 -10.281  1.00  0.00     0.157 A 
ATOM     17  C   UNL     1       0.936 -20.374  -9.881  1.00  0.00     0.050 A 
ATOM     18  C   UNL     1      -0.128 -20.194 -10.770  1.00  0.00     0.157 A 
BRANCH  16  19
ATOM     19  O   UNL     1      -2.492 -19.916 -11.168  1.00  0.00    -0.504 OA
ATOM     20  H   UNL     1      -2.794 -20.646 -11.803  1.00  0.00     0.293 HD
ENDBRANCH  16  19
BRANCH  18  21
ATOM     21  O   UNL     1       0.107 -20.090 -12.141  1.00  0.00    -0.504 OA
ATOM     22  H   UNL     1      -0.651 -20.125 -12.812  1.00  0.00     0.293 HD
ENDBRANCH  18  21
ENDBRANCH   3  13
BRANCH   9  23
ATOM     23  O   UNL     1      -3.052 -21.600  -1.880  1.00  0.00    -0.507 OA
ATOM     24  H   UNL     1      -3.715 -22.354  -1.761  1.00  0.00     0.293 HD
ENDBRANCH   9  23
BRANCH   7  25
ATOM     25  O   UNL     1      -4.995 -17.374  -3.156  1.00  0.00    -0.508 OA
ATOM     26  H   UNL     1      -5.709 -17.432  -2.440  1.00  0.00     0.293 HD
ENDBRANCH   7  25
TORSDOF 6
ENDMDL
MODEL 6
REMARK VINA RESULT:    -4.947      5.759      7.514
REMARK INTER + INTRA:          -6.278
REMARK INTER:                  -5.955
REMARK INTRA:                  -0.323
REMARK UNBOUND:                -0.319
REMARK SMILES Oc1cc(O)c2c(c1)O[C@H](c1ccc(O)c(O)c1)[C@H](O)C2
REMARK SMILES IDX 21 1 19 2 10 3 9 4 7 5 8 6 2 7 3 8 4 9 6 10 20 11 11 13
REMARK SMILES IDX 18 14 12 15 16 16 13 17 14 18 17 19 15 21 5 23 1 25
REMARK H PARENT 20 12 17 20 15 22 5 24 1 26
REMARK Flexibility Score: inf
ROOT
ATOM      1  C   UNL     1     -16.327 -16.948 -16.577  1.00  0.00     0.079 C 
ATOM      2  C   UNL     1     -15.920 -17.747 -17.833  1.00  0.00     0.164 C 
ATOM      3  C   UNL     1     -15.944 -19.270 -17.547  1.00  0.00     0.232 C 
ATOM      4  O   UNL     1     -15.123 -19.549 -16.412  1.00  0.00    -0.482 OA
ATOM      5  C   UNL     1     -15.079 -18.723 -15.284  1.00  0.00     0.131 A 
ATOM      6  C   UNL     1     -14.433 -19.182 -14.133  1.00  0.00     0.093 A 
ATOM      7  C   UNL     1     -14.382 -18.386 -12.988  1.00  0.00     0.122 A 
ATOM      8  C   UNL     1     -14.988 -17.125 -12.991  1.00  0.00     0.092 A 
ATOM      9  C   UNL     1     -15.638 -16.649 -14.136  1.00  0.00     0.126 A 
ATOM     10  C   UNL     1     -15.656 -17.436 -15.311  1.00  0.00     0.039 A 
ENDROOT
BRANCH   2  11
ATOM     11  O   UNL     1     -14.661 -17.334 -18.308  1.00  0.00    -0.389 OA
ATOM     12  H   UNL     1     -14.314 -16.639 -17.692  1.00  0.00     0.211 HD
ENDBRANCH   2  11
BRANCH   3  13
ATOM     13  C   UNL     1     -15.519 -20.153 -18.714  1.00  0.00    -0.001 A 
ATOM     14  C   UNL     1     -14.204 -20.657 -18.744  1.00  0.00     0.057 A 
ATOM     15  C   UNL     1     -16.420 -20.576 -19.714  1.00  0.00     0.012 A 
ATOM     16  C   UNL     1     -13.783 -21.514 -19.772  1.00  0.00     0.157 A 
ATOM     17  C   UNL     1     -16.000 -21.429 -20.738  1.00  0.00     0.050 A 
ATOM     18  C   UNL     1     -14.682 -21.896 -20.772  1.00  0.00     0.157 A 
BRANCH  16  19
ATOM     19  O   UNL     1     -12.476 -21.994 -19.799  1.00  0.00    -0.504 OA
ATOM     20  H   UNL     1     -11.807 -21.756 -19.075  1.00  0.00     0.293 HD
ENDBRANCH  16  19
BRANCH  18  21
ATOM     21  O   UNL     1     -14.260 -22.746 -21.794  1.00  0.00    -0.504 OA
ATOM     22  H   UNL     1     -13.281 -22.970 -21.927  1.00  0.00     0.293 HD
ENDBRANCH  18  21
ENDBRANCH   3  13
BRANCH   9  23
ATOM     23  O   UNL     1     -16.261 -15.400 -14.066  1.00  0.00    -0.507 OA
ATOM     24  H   UNL     1     -16.104 -14.742 -13.314  1.00  0.00     0.293 HD
ENDBRANCH   9  23
BRANCH   7  25
ATOM     25  O   UNL     1     -13.733 -18.860 -11.850  1.00  0.00    -0.508 OA
ATOM     26  H   UNL     1     -13.165 -19.698 -11.874  1.00  0.00     0.293 HD
ENDBRANCH   7  25
TORSDOF 6
ENDMDL
MODEL 7
REMARK VINA RESULT:    -4.855      6.533      9.764
REMARK INTER + INTRA:          -6.167
REMARK INTER:                  -5.846
REMARK INTRA:                  -0.321
REMARK UNBOUND:                -0.319
REMARK SMILES Oc1cc(O)c2c(c1)O[C@H](c1ccc(O)c(O)c1)[C@H](O)C2
REMARK SMILES IDX 21 1 19 2 10 3 9 4 7 5 8 6 2 7 3 8 4 9 6 10 20 11 11 13
REMARK SMILES IDX 18 14 12 15 16 16 13 17 14 18 17 19 15 21 5 23 1 25
REMARK H PARENT 20 12 17 20 15 22 5 24 1 26
REMARK Flexibility Score: inf
ROOT
ATOM      1  C   UNL     1     -11.886 -21.251 -10.095  1.00  0.00     0.079 C 
ATOM      2  C   UNL     1     -10.375 -21.474 -10.310  1.00  0.00     0.164 C 
ATOM      3  C   UNL     1     -10.124 -22.692 -11.234  1.00  0.00     0.232 C 
ATOM      4  O   UNL     1     -10.790 -23.836 -10.696  1.00  0.00    -0.482 OA
ATOM      5  C   UNL     1     -12.059 -23.771 -10.111  1.00  0.00     0.131 A 
ATOM      6  C   UNL     1     -12.732 -24.961  -9.821  1.00  0.00     0.093 A 
ATOM      7  C   UNL     1     -14.004 -24.929  -9.248  1.00  0.00     0.122 A 
ATOM      8  C   UNL     1     -14.611 -23.699  -8.971  1.00  0.00     0.092 A 
ATOM      9  C   UNL     1     -13.951 -22.498  -9.254  1.00  0.00     0.126 A 
ATOM     10  C   UNL     1     -12.644 -22.527  -9.797  1.00  0.00     0.039 A 
ENDROOT
BRANCH   2  11
ATOM     11  O   UNL     1      -9.705 -21.615  -9.080  1.00  0.00    -0.389 OA
ATOM     12  H   UNL     1      -9.252 -20.757  -8.877  1.00  0.00     0.211 HD
ENDBRANCH   2  11
BRANCH   3  13
ATOM     13  C   UNL     1      -8.657 -23.024 -11.480  1.00  0.00    -0.001 A 
ATOM     14  C   UNL     1      -7.772 -21.986 -11.832  1.00  0.00     0.057 A 
ATOM     15  C   UNL     1      -8.124 -24.313 -11.267  1.00  0.00     0.012 A 
ATOM     16  C   UNL     1      -6.405 -22.235 -12.019  1.00  0.00     0.157 A 
ATOM     17  C   UNL     1      -6.762 -24.561 -11.456  1.00  0.00     0.050 A 
ATOM     18  C   UNL     1      -5.901 -23.527 -11.835  1.00  0.00     0.157 A 
BRANCH  16  19
ATOM     19  O   UNL     1      -5.542 -21.203 -12.381  1.00  0.00    -0.504 OA
ATOM     20  H   UNL     1      -4.551 -21.242 -12.171  1.00  0.00     0.293 HD
ENDBRANCH  16  19
BRANCH  18  21
ATOM     21  O   UNL     1      -4.542 -23.773 -12.026  1.00  0.00    -0.504 OA
ATOM     22  H   UNL     1      -4.064 -23.485 -12.872  1.00  0.00     0.293 HD
ENDBRANCH  18  21
ENDBRANCH   3  13
BRANCH   9  23
ATOM     23  O   UNL     1     -14.624 -21.301  -8.995  1.00  0.00    -0.507 OA
ATOM     24  H   UNL     1     -14.277 -20.596  -8.359  1.00  0.00     0.293 HD
ENDBRANCH   9  23
BRANCH   7  25
ATOM     25  O   UNL     1     -14.661 -26.125  -8.964  1.00  0.00    -0.508 OA
ATOM     26  H   UNL     1     -15.289 -26.555  -9.632  1.00  0.00     0.293 HD
ENDBRANCH   7  25
TORSDOF 6
ENDMDL
MODEL 8
REMARK VINA RESULT:    -4.832      5.602      6.377
REMARK INTER + INTRA:          -6.140
REMARK INTER:                  -6.035
REMARK INTRA:                  -0.105
REMARK UNBOUND:                -0.319
REMARK SMILES Oc1cc(O)c2c(c1)O[C@H](c1ccc(O)c(O)c1)[C@H](O)C2
REMARK SMILES IDX 21 1 19 2 10 3 9 4 7 5 8 6 2 7 3 8 4 9 6 10 20 11 11 13
REMARK SMILES IDX 18 14 12 15 16 16 13 17 14 18 17 19 15 21 5 23 1 25
REMARK H PARENT 20 12 17 20 15 22 5 24 1 26
REMARK Flexibility Score: inf
ROOT
ATOM      1  C   UNL     1     -15.838 -20.904 -18.023  1.00  0.00     0.079 C 
ATOM      2  C   UNL     1     -16.015 -20.170 -16.678  1.00  0.00     0.164 C 
ATOM      3  C   UNL     1     -15.714 -18.659 -16.832  1.00  0.00     0.232 C 
ATOM      4  O   UNL     1     -14.411 -18.493 -17.395  1.00  0.00    -0.482 OA
ATOM      5  C   UNL     1     -13.912 -19.316 -18.410  1.00  0.00     0.131 A 
ATOM      6  C   UNL     1     -12.731 -18.948 -19.060  1.00  0.00     0.093 A 
ATOM      7  C   UNL     1     -12.213 -19.742 -20.084  1.00  0.00     0.122 A 
ATOM      8  C   UNL     1     -12.886 -20.908 -20.467  1.00  0.00     0.092 A 
ATOM      9  C   UNL     1     -14.069 -21.292 -19.825  1.00  0.00     0.126 A 
ATOM     10  C   UNL     1     -14.574 -20.511 -18.759  1.00  0.00     0.039 A 
ENDROOT
BRANCH   2  11
ATOM     11  O   UNL     1     -15.217 -20.754 -15.675  1.00  0.00    -0.389 OA
ATOM     12  H   UNL     1     -15.040 -21.694 -15.934  1.00  0.00     0.211 HD
ENDBRANCH   2  11
BRANCH   3  13
ATOM     13  C   UNL     1     -15.823 -17.844 -15.549  1.00  0.00    -0.001 A 
ATOM     14  C   UNL     1     -14.760 -17.882 -14.625  1.00  0.00     0.057 A 
ATOM     15  C   UNL     1     -16.898 -16.967 -15.294  1.00  0.00     0.012 A 
ATOM     16  C   UNL     1     -14.793 -17.110 -13.455  1.00  0.00     0.157 A 
ATOM     17  C   UNL     1     -16.932 -16.200 -14.127  1.00  0.00     0.050 A 
ATOM     18  C   UNL     1     -15.883 -16.271 -13.204  1.00  0.00     0.157 A 
BRANCH  16  19
ATOM     19  O   UNL     1     -13.742 -17.166 -12.541  1.00  0.00    -0.504 OA
ATOM     20  H   UNL     1     -13.586 -16.426 -11.866  1.00  0.00     0.293 HD
ENDBRANCH  16  19
BRANCH  18  21
ATOM     21  O   UNL     1     -15.916 -15.507 -12.038  1.00  0.00    -0.504 OA
ATOM     22  H   UNL     1     -16.322 -15.865 -11.181  1.00  0.00     0.293 HD
ENDBRANCH  18  21
ENDBRANCH   3  13
BRANCH   9  23
ATOM     23  O   UNL     1     -14.718 -22.443 -20.278  1.00  0.00    -0.507 OA
ATOM     24  H   UNL     1     -15.067 -22.549 -21.222  1.00  0.00     0.293 HD
ENDBRANCH   9  23
BRANCH   7  25
ATOM     25  O   UNL     1     -11.034 -19.360 -20.721  1.00  0.00    -0.508 OA
ATOM     26  H   UNL     1     -10.389 -20.045 -21.096  1.00  0.00     0.293 HD
ENDBRANCH   7  25
TORSDOF 6
ENDMDL
MODEL 9
REMARK VINA RESULT:    -4.788      5.697      9.193
REMARK INTER + INTRA:          -6.086
REMARK INTER:                  -5.777
REMARK INTRA:                  -0.310
REMARK UNBOUND:                -0.319
REMARK SMILES Oc1cc(O)c2c(c1)O[C@H](c1ccc(O)c(O)c1)[C@H](O)C2
REMARK SMILES IDX 21 1 19 2 10 3 9 4 7 5 8 6 2 7 3 8 4 9 6 10 20 11 11 13
REMARK SMILES IDX 18 14 12 15 16 16 13 17 14 18 17 19 15 21 5 23 1 25
REMARK H PARENT 20 12 17 20 15 22 5 24 1 26
REMARK Flexibility Score: inf
ROOT
ATOM      1  C   UNL     1      -7.892 -25.318 -10.751  1.00  0.00     0.079 C 
ATOM      2  C   UNL     1      -9.203 -24.649 -10.286  1.00  0.00     0.164 C 
ATOM      3  C   UNL     1      -9.593 -23.487 -11.232  1.00  0.00     0.232 C 
ATOM      4  O   UNL     1      -8.500 -22.572 -11.331  1.00  0.00    -0.482 OA
ATOM      5  C   UNL     1      -7.166 -22.987 -11.401  1.00  0.00     0.131 A 
ATOM      6  C   UNL     1      -6.181 -22.050 -11.726  1.00  0.00     0.093 A 
ATOM      7  C   UNL     1      -4.843 -22.436 -11.814  1.00  0.00     0.122 A 
ATOM      8  C   UNL     1      -4.488 -23.770 -11.586  1.00  0.00     0.092 A 
ATOM      9  C   UNL     1      -5.461 -24.721 -11.259  1.00  0.00     0.126 A 
ATOM     10  C   UNL     1      -6.813 -24.325 -11.127  1.00  0.00     0.039 A 
ENDROOT
BRANCH   2  11
ATOM     11  O   UNL     1      -9.101 -24.213  -8.951  1.00  0.00    -0.389 OA
ATOM     12  H   UNL     1      -9.482 -23.299  -8.898  1.00  0.00     0.211 HD
ENDBRANCH   2  11
BRANCH   3  13
ATOM     13  C   UNL     1     -10.857 -22.731 -10.840  1.00  0.00    -0.001 A 
ATOM     14  C   UNL     1     -10.907 -21.336 -11.039  1.00  0.00     0.057 A 
ATOM     15  C   UNL     1     -12.022 -23.383 -10.384  1.00  0.00     0.012 A 
ATOM     16  C   UNL     1     -12.066 -20.606 -10.739  1.00  0.00     0.157 A 
ATOM     17  C   UNL     1     -13.176 -22.654 -10.085  1.00  0.00     0.050 A 
ATOM     18  C   UNL     1     -13.201 -21.267 -10.257  1.00  0.00     0.157 A 
BRANCH  16  19
ATOM     19  O   UNL     1     -12.100 -19.226 -10.926  1.00  0.00    -0.504 OA
ATOM     20  H   UNL     1     -11.249 -18.676 -10.970  1.00  0.00     0.293 HD
ENDBRANCH  16  19
BRANCH  18  21
ATOM     21  O   UNL     1     -14.351 -20.538  -9.957  1.00  0.00    -0.504 OA
ATOM     22  H   UNL     1     -15.045 -20.327 -10.665  1.00  0.00     0.293 HD
ENDBRANCH  18  21
ENDBRANCH   3  13
BRANCH   9  23
ATOM     23  O   UNL     1      -5.052 -26.045 -11.083  1.00  0.00    -0.507 OA
ATOM     24  H   UNL     1      -4.340 -26.487 -11.649  1.00  0.00     0.293 HD
ENDBRANCH   9  23
BRANCH   7  25
ATOM     25  O   UNL     1      -3.874 -21.488 -12.138  1.00  0.00    -0.508 OA
ATOM     26  H   UNL     1      -2.983 -21.758 -12.536  1.00  0.00     0.293 HD
ENDBRANCH   7  25
TORSDOF 6
ENDMDL
