MODEL 1
REMARK VINA RESULT:    -3.639      0.000      0.000
REMARK INTER + INTRA:         -11.681
REMARK INTER:                  -8.320
REMARK INTRA:                  -3.362
REMARK UNBOUND:                -3.362
REMARK SMILES CCCCCCCCCCCCCCCCCCCCCCCC(=O)[O-]
REMARK SMILES IDX 13 1 14 2 15 3 16 4 17 5 18 6 19 7 20 8 21 9 22 10 23 11
REMARK SMILES IDX 24 12 25 13 26 14 12 15 11 16 10 17 9 18 8 19 7 20 6 21 5 22
REMARK SMILES IDX 4 23 3 24 2 25 1 26
REMARK H PARENT
REMARK Flexibility Score: inf
ROOT
ATOM      1  C   UNL     1     -42.681 -45.895  73.303  1.00  0.00     0.000 C 
ENDROOT
BRANCH   1   2
ATOM      2  C   UNL     1     -44.048 -45.278  73.659  1.00  0.00     0.000 C 
BRANCH   2   3
ATOM      3  C   UNL     1     -43.958 -44.014  74.544  1.00  0.00     0.000 C 
BRANCH   3   4
ATOM      4  C   UNL     1     -42.874 -42.998  74.128  1.00  0.00     0.000 C 
BRANCH   4   5
ATOM      5  C   UNL     1     -43.246 -42.068  72.955  1.00  0.00     0.000 C 
BRANCH   5   6
ATOM      6  C   UNL     1     -42.375 -42.287  71.708  1.00  0.00     0.000 C 
BRANCH   6   7
ATOM      7  C   UNL     1     -42.725 -41.269  70.610  1.00  0.00     0.000 C 
BRANCH   7   8
ATOM      8  C   UNL     1     -42.993 -41.932  69.250  1.00  0.00     0.000 C 
BRANCH   8   9
ATOM      9  C   UNL     1     -43.012 -43.466  69.327  1.00  0.00     0.000 C 
BRANCH   9  10
ATOM     10  C   UNL     1     -41.825 -44.068  68.565  1.00  0.00     0.006 C 
BRANCH  10  11
ATOM     11  C   UNL     1     -42.300 -44.887  67.360  1.00  0.00     0.053 C 
BRANCH  11  12
ATOM     12  C   UNL     1     -42.231 -46.351  67.659  1.00  0.00     0.041 C 
ATOM     13  O   UNL     1     -41.318 -46.803  68.402  1.00  0.00    -0.550 OA
ATOM     14  O   UNL     1     -43.144 -47.224  67.082  1.00  0.00    -0.550 OA
ENDBRANCH  11  12
ENDBRANCH  10  11
ENDBRANCH   9  10
ENDBRANCH   8   9
ENDBRANCH   7   8
ENDBRANCH   6   7
ENDBRANCH   5   6
ENDBRANCH   4   5
ENDBRANCH   3   4
ENDBRANCH   2   3
ENDBRANCH   1   2
BRANCH   1  15
ATOM     15  C   UNL     1     -42.508 -46.297  71.827  1.00  0.00     0.000 C 
BRANCH  15  16
ATOM     16  C   UNL     1     -43.822 -46.473  71.036  1.00  0.00     0.000 C 
BRANCH  16  17
ATOM     17  C   UNL     1     -44.085 -47.900  70.524  1.00  0.00     0.000 C 
BRANCH  17  18
ATOM     18  C   UNL     1     -45.525 -48.370  70.776  1.00  0.00    -0.000 C 
BRANCH  18  19
ATOM     19  C   UNL     1     -46.413 -47.195  71.213  1.00  0.00    -0.000 C 
BRANCH  19  20
ATOM     20  C   UNL     1     -47.909 -47.456  70.980  1.00  0.00    -0.000 C 
BRANCH  20  21
ATOM     21  C   UNL     1     -48.183 -48.855  70.402  1.00  0.00    -0.000 C 
BRANCH  21  22
ATOM     22  C   UNL     1     -49.053 -48.808  69.135  1.00  0.00    -0.000 C 
BRANCH  22  23
ATOM     23  C   UNL     1     -48.481 -47.865  68.061  1.00  0.00    -0.000 C 
BRANCH  23  24
ATOM     24  C   UNL     1     -47.832 -48.622  66.888  1.00  0.00    -0.000 C 
BRANCH  24  25
ATOM     25  C   UNL     1     -46.297 -48.702  66.946  1.00  0.00    -0.003 C 
ATOM     26  C   UNL     1     -45.789 -50.029  67.512  1.00  0.00     0.004 C 
ENDBRANCH  24  25
ENDBRANCH  23  24
ENDBRANCH  22  23
ENDBRANCH  21  22
ENDBRANCH  20  21
ENDBRANCH  19  20
ENDBRANCH  18  19
ENDBRANCH  17  18
ENDBRANCH  16  17
ENDBRANCH  15  16
ENDBRANCH   1  15
TORSDOF 22
ENDMDL
MODEL 2
REMARK VINA RESULT:    -3.487      2.992      7.836
REMARK INTER + INTRA:         -11.333
REMARK INTER:                  -7.525
REMARK INTRA:                  -3.808
REMARK UNBOUND:                -3.362
REMARK SMILES CCCCCCCCCCCCCCCCCCCCCCCC(=O)[O-]
REMARK SMILES IDX 13 1 14 2 15 3 16 4 17 5 18 6 19 7 20 8 21 9 22 10 23 11
REMARK SMILES IDX 24 12 25 13 26 14 12 15 11 16 10 17 9 18 8 19 7 20 6 21 5 22
REMARK SMILES IDX 4 23 3 24 2 25 1 26
REMARK H PARENT
REMARK Flexibility Score: inf
ROOT
ATOM      1  C   UNL     1     -47.554 -48.649  70.779  1.00  0.00     0.000 C 
ENDROOT
BRANCH   1   2
ATOM      2  C   UNL     1     -46.468 -49.720  70.562  1.00  0.00     0.000 C 
BRANCH   2   3
ATOM      3  C   UNL     1     -46.557 -50.440  69.197  1.00  0.00     0.000 C 
BRANCH   3   4
ATOM      4  C   UNL     1     -45.692 -49.828  68.075  1.00  0.00     0.000 C 
BRANCH   4   5
ATOM      5  C   UNL     1     -46.298 -48.605  67.357  1.00  0.00     0.000 C 
BRANCH   5   6
ATOM      6  C   UNL     1     -47.613 -48.921  66.628  1.00  0.00     0.000 C 
BRANCH   6   7
ATOM      7  C   UNL     1     -48.708 -47.913  67.012  1.00  0.00     0.000 C 
BRANCH   7   8
ATOM      8  C   UNL     1     -49.680 -48.466  68.066  1.00  0.00     0.000 C 
BRANCH   8   9
ATOM      9  C   UNL     1     -50.210 -49.865  67.715  1.00  0.00     0.000 C 
BRANCH   9  10
ATOM     10  C   UNL     1     -50.168 -50.789  68.937  1.00  0.00     0.006 C 
BRANCH  10  11
ATOM     11  C   UNL     1     -50.818 -50.125  70.155  1.00  0.00     0.053 C 
BRANCH  11  12
ATOM     12  C   UNL     1     -50.499 -50.886  71.402  1.00  0.00     0.041 C 
ATOM     13  O   UNL     1     -51.273 -50.826  72.396  1.00  0.00    -0.550 OA
ATOM     14  O   UNL     1     -49.326 -51.625  71.488  1.00  0.00    -0.550 OA
ENDBRANCH  11  12
ENDBRANCH  10  11
ENDBRANCH   9  10
ENDBRANCH   8   9
ENDBRANCH   7   8
ENDBRANCH   6   7
ENDBRANCH   5   6
ENDBRANCH   4   5
ENDBRANCH   3   4
ENDBRANCH   2   3
ENDBRANCH   1   2
BRANCH   1  15
ATOM     15  C   UNL     1     -47.066 -47.192  70.685  1.00  0.00     0.000 C 
BRANCH  15  16
ATOM     16  C   UNL     1     -45.715 -46.907  71.374  1.00  0.00     0.000 C 
BRANCH  16  17
ATOM     17  C   UNL     1     -44.536 -46.660  70.416  1.00  0.00     0.000 C 
BRANCH  17  18
ATOM     18  C   UNL     1     -43.173 -46.713  71.119  1.00  0.00    -0.000 C 
BRANCH  18  19
ATOM     19  C   UNL     1     -42.940 -45.445  71.954  1.00  0.00    -0.000 C 
BRANCH  19  20
ATOM     20  C   UNL     1     -42.045 -44.417  71.246  1.00  0.00    -0.000 C 
BRANCH  20  21
ATOM     21  C   UNL     1     -42.838 -43.214  70.705  1.00  0.00    -0.000 C 
BRANCH  21  22
ATOM     22  C   UNL     1     -43.156 -43.346  69.207  1.00  0.00    -0.000 C 
BRANCH  22  23
ATOM     23  C   UNL     1     -41.962 -43.877  68.393  1.00  0.00    -0.000 C 
BRANCH  23  24
ATOM     24  C   UNL     1     -42.378 -44.904  67.325  1.00  0.00    -0.000 C 
BRANCH  24  25
ATOM     25  C   UNL     1     -42.024 -46.363  67.664  1.00  0.00    -0.003 C 
ATOM     26  C   UNL     1     -42.832 -47.376  66.853  1.00  0.00     0.004 C 
ENDBRANCH  24  25
ENDBRANCH  23  24
ENDBRANCH  22  23
ENDBRANCH  21  22
ENDBRANCH  20  21
ENDBRANCH  19  20
ENDBRANCH  18  19
ENDBRANCH  17  18
ENDBRANCH  16  17
ENDBRANCH  15  16
ENDBRANCH   1  15
TORSDOF 22
ENDMDL
MODEL 3
REMARK VINA RESULT:    -3.456      3.419      7.589
REMARK INTER + INTRA:         -11.262
REMARK INTER:                  -7.409
REMARK INTRA:                  -3.853
REMARK UNBOUND:                -3.362
REMARK SMILES CCCCCCCCCCCCCCCCCCCCCCCC(=O)[O-]
REMARK SMILES IDX 13 1 14 2 15 3 16 4 17 5 18 6 19 7 20 8 21 9 22 10 23 11
REMARK SMILES IDX 24 12 25 13 26 14 12 15 11 16 10 17 9 18 8 19 7 20 6 21 5 22
REMARK SMILES IDX 4 23 3 24 2 25 1 26
REMARK H PARENT
REMARK Flexibility Score: inf
ROOT
ATOM      1  C   UNL     1     -48.931 -50.348  69.555  1.00  0.00     0.000 C 
ENDROOT
BRANCH   1   2
ATOM      2  C   UNL     1     -48.024 -50.947  70.648  1.00  0.00     0.000 C 
BRANCH   2   3
ATOM      3  C   UNL     1     -46.546 -51.103  70.224  1.00  0.00     0.000 C 
BRANCH   3   4
ATOM      4  C   UNL     1     -46.253 -50.798  68.740  1.00  0.00     0.000 C 
BRANCH   4   5
ATOM      5  C   UNL     1     -45.213 -49.690  68.479  1.00  0.00     0.000 C 
BRANCH   5   6
ATOM      6  C   UNL     1     -45.628 -48.720  67.362  1.00  0.00     0.000 C 
BRANCH   6   7
ATOM      7  C   UNL     1     -46.846 -49.258  66.595  1.00  0.00     0.000 C 
BRANCH   7   8
ATOM      8  C   UNL     1     -48.014 -48.259  66.561  1.00  0.00     0.000 C 
BRANCH   8   9
ATOM      9  C   UNL     1     -48.477 -47.931  65.133  1.00  0.00     0.000 C 
BRANCH   9  10
ATOM     10  C   UNL     1     -49.641 -46.932  65.151  1.00  0.00     0.006 C 
BRANCH  10  11
ATOM     11  C   UNL     1     -50.151 -46.704  66.578  1.00  0.00     0.053 C 
BRANCH  11  12
ATOM     12  C   UNL     1     -51.557 -47.193  66.718  1.00  0.00     0.041 C 
ATOM     13  O   UNL     1     -51.790 -48.299  67.278  1.00  0.00    -0.550 OA
ATOM     14  O   UNL     1     -52.609 -46.453  66.192  1.00  0.00    -0.550 OA
ENDBRANCH  11  12
ENDBRANCH  10  11
ENDBRANCH   9  10
ENDBRANCH   8   9
ENDBRANCH   7   8
ENDBRANCH   6   7
ENDBRANCH   5   6
ENDBRANCH   4   5
ENDBRANCH   3   4
ENDBRANCH   2   3
ENDBRANCH   1   2
BRANCH   1  15
ATOM     15  C   UNL     1     -49.317 -48.872  69.760  1.00  0.00     0.000 C 
BRANCH  15  16
ATOM     16  C   UNL     1     -48.537 -48.137  70.870  1.00  0.00     0.000 C 
BRANCH  16  17
ATOM     17  C   UNL     1     -47.408 -47.217  70.372  1.00  0.00     0.000 C 
BRANCH  17  18
ATOM     18  C   UNL     1     -46.114 -47.364  71.185  1.00  0.00    -0.000 C 
BRANCH  18  19
ATOM     19  C   UNL     1     -45.045 -46.379  70.691  1.00  0.00    -0.000 C 
BRANCH  19  20
ATOM     20  C   UNL     1     -43.651 -46.669  71.269  1.00  0.00    -0.000 C 
BRANCH  20  21
ATOM     21  C   UNL     1     -43.085 -48.022  70.802  1.00  0.00    -0.000 C 
BRANCH  21  22
ATOM     22  C   UNL     1     -41.937 -47.862  69.793  1.00  0.00    -0.000 C 
BRANCH  22  23
ATOM     23  C   UNL     1     -42.402 -47.243  68.462  1.00  0.00    -0.000 C 
BRANCH  23  24
ATOM     24  C   UNL     1     -41.565 -46.019  68.049  1.00  0.00    -0.000 C 
BRANCH  24  25
ATOM     25  C   UNL     1     -42.387 -44.816  67.555  1.00  0.00    -0.003 C 
ATOM     26  C   UNL     1     -42.626 -43.770  68.644  1.00  0.00     0.004 C 
ENDBRANCH  24  25
ENDBRANCH  23  24
ENDBRANCH  22  23
ENDBRANCH  21  22
ENDBRANCH  20  21
ENDBRANCH  19  20
ENDBRANCH  18  19
ENDBRANCH  17  18
ENDBRANCH  16  17
ENDBRANCH  15  16
ENDBRANCH   1  15
TORSDOF 22
ENDMDL
MODEL 4
REMARK VINA RESULT:    -3.441      3.421      7.907
REMARK INTER + INTRA:         -11.228
REMARK INTER:                  -8.315
REMARK INTRA:                  -2.913
REMARK UNBOUND:                -3.362
REMARK SMILES CCCCCCCCCCCCCCCCCCCCCCCC(=O)[O-]
REMARK SMILES IDX 13 1 14 2 15 3 16 4 17 5 18 6 19 7 20 8 21 9 22 10 23 11
REMARK SMILES IDX 24 12 25 13 26 14 12 15 11 16 10 17 9 18 8 19 7 20 6 21 5 22
REMARK SMILES IDX 4 23 3 24 2 25 1 26
REMARK H PARENT
REMARK Flexibility Score: inf
ROOT
ATOM      1  C   UNL     1     -42.982 -42.760  70.563  1.00  0.00     0.000 C 
ENDROOT
BRANCH   1   2
ATOM      2  C   UNL     1     -41.744 -42.660  71.476  1.00  0.00     0.000 C 
BRANCH   2   3
ATOM      3  C   UNL     1     -42.025 -42.011  72.849  1.00  0.00     0.000 C 
BRANCH   3   4
ATOM      4  C   UNL     1     -43.289 -42.522  73.571  1.00  0.00     0.000 C 
BRANCH   4   5
ATOM      5  C   UNL     1     -43.071 -43.699  74.545  1.00  0.00     0.000 C 
BRANCH   5   6
ATOM      6  C   UNL     1     -43.875 -44.953  74.168  1.00  0.00     0.000 C 
BRANCH   6   7
ATOM      7  C   UNL     1     -43.149 -45.762  73.081  1.00  0.00     0.000 C 
BRANCH   7   8
ATOM      8  C   UNL     1     -44.022 -46.003  71.839  1.00  0.00     0.000 C 
BRANCH   8   9
ATOM      9  C   UNL     1     -43.638 -47.281  71.078  1.00  0.00     0.000 C 
BRANCH   9  10
ATOM     10  C   UNL     1     -44.870 -47.922  70.429  1.00  0.00     0.006 C 
BRANCH  10  11
ATOM     11  C   UNL     1     -46.144 -47.144  70.773  1.00  0.00     0.053 C 
BRANCH  11  12
ATOM     12  C   UNL     1     -47.303 -48.077  70.931  1.00  0.00     0.041 C 
ATOM     13  O   UNL     1     -48.441 -47.626  71.235  1.00  0.00    -0.550 OA
ATOM     14  O   UNL     1     -47.121 -49.447  70.790  1.00  0.00    -0.550 OA
ENDBRANCH  11  12
ENDBRANCH  10  11
ENDBRANCH   9  10
ENDBRANCH   8   9
ENDBRANCH   7   8
ENDBRANCH   6   7
ENDBRANCH   5   6
ENDBRANCH   4   5
ENDBRANCH   3   4
ENDBRANCH   2   3
ENDBRANCH   1   2
BRANCH   1  15
ATOM     15  C   UNL     1     -42.940 -41.879  69.302  1.00  0.00     0.000 C 
BRANCH  15  16
ATOM     16  C   UNL     1     -41.627 -41.095  69.093  1.00  0.00     0.000 C 
BRANCH  16  17
ATOM     17  C   UNL     1     -41.788 -39.566  69.018  1.00  0.00     0.000 C 
BRANCH  17  18
ATOM     18  C   UNL     1     -41.790 -38.898  70.401  1.00  0.00    -0.000 C 
BRANCH  18  19
ATOM     19  C   UNL     1     -43.157 -38.264  70.699  1.00  0.00    -0.000 C 
BRANCH  19  20
ATOM     20  C   UNL     1     -43.799 -38.804  71.986  1.00  0.00    -0.000 C 
BRANCH  20  21
ATOM     21  C   UNL     1     -44.859 -39.885  71.711  1.00  0.00    -0.000 C 
BRANCH  21  22
ATOM     22  C   UNL     1     -46.200 -39.581  72.398  1.00  0.00    -0.000 C 
BRANCH  22  23
ATOM     23  C   UNL     1     -46.575 -38.090  72.328  1.00  0.00    -0.000 C 
BRANCH  23  24
ATOM     24  C   UNL     1     -48.039 -37.825  72.724  1.00  0.00    -0.000 C 
BRANCH  24  25
ATOM     25  C   UNL     1     -48.272 -37.632  74.232  1.00  0.00    -0.003 C 
ATOM     26  C   UNL     1     -47.053 -37.059  74.956  1.00  0.00     0.004 C 
ENDBRANCH  24  25
ENDBRANCH  23  24
ENDBRANCH  22  23
ENDBRANCH  21  22
ENDBRANCH  20  21
ENDBRANCH  19  20
ENDBRANCH  18  19
ENDBRANCH  17  18
ENDBRANCH  16  17
ENDBRANCH  15  16
ENDBRANCH   1  15
TORSDOF 22
ENDMDL
MODEL 5
REMARK VINA RESULT:    -3.417      1.352      3.001
REMARK INTER + INTRA:         -11.174
REMARK INTER:                  -7.346
REMARK INTRA:                  -3.828
REMARK UNBOUND:                -3.362
REMARK SMILES CCCCCCCCCCCCCCCCCCCCCCCC(=O)[O-]
REMARK SMILES IDX 13 1 14 2 15 3 16 4 17 5 18 6 19 7 20 8 21 9 22 10 23 11
REMARK SMILES IDX 24 12 25 13 26 14 12 15 11 16 10 17 9 18 8 19 7 20 6 21 5 22
REMARK SMILES IDX 4 23 3 24 2 25 1 26
REMARK H PARENT
REMARK Flexibility Score: inf
ROOT
ATOM      1  C   UNL     1     -44.809 -46.484  70.641  1.00  0.00     0.000 C 
ENDROOT
BRANCH   1   2
ATOM      2  C   UNL     1     -43.520 -47.300  70.855  1.00  0.00     0.000 C 
BRANCH   2   3
ATOM      3  C   UNL     1     -42.397 -46.526  71.582  1.00  0.00     0.000 C 
BRANCH   3   4
ATOM      4  C   UNL     1     -42.867 -45.631  72.749  1.00  0.00     0.000 C 
BRANCH   4   5
ATOM      5  C   UNL     1     -42.623 -44.119  72.570  1.00  0.00     0.000 C 
BRANCH   5   6
ATOM      6  C   UNL     1     -42.000 -43.762  71.211  1.00  0.00     0.000 C 
BRANCH   6   7
ATOM      7  C   UNL     1     -42.972 -42.920  70.368  1.00  0.00     0.000 C 
BRANCH   7   8
ATOM      8  C   UNL     1     -43.034 -43.377  68.902  1.00  0.00     0.000 C 
BRANCH   8   9
ATOM      9  C   UNL     1     -41.898 -44.340  68.527  1.00  0.00     0.000 C 
BRANCH   9  10
ATOM     10  C   UNL     1     -42.424 -45.508  67.686  1.00  0.00     0.006 C 
BRANCH  10  11
ATOM     11  C   UNL     1     -41.550 -46.754  67.862  1.00  0.00     0.053 C 
BRANCH  11  12
ATOM     12  C   UNL     1     -41.988 -47.841  66.932  1.00  0.00     0.041 C 
ATOM     13  O   UNL     1     -41.408 -48.960  66.949  1.00  0.00    -0.550 OA
ATOM     14  O   UNL     1     -43.004 -47.605  66.014  1.00  0.00    -0.550 OA
ENDBRANCH  11  12
ENDBRANCH  10  11
ENDBRANCH   9  10
ENDBRANCH   8   9
ENDBRANCH   7   8
ENDBRANCH   6   7
ENDBRANCH   5   6
ENDBRANCH   4   5
ENDBRANCH   3   4
ENDBRANCH   2   3
ENDBRANCH   1   2
BRANCH   1  15
ATOM     15  C   UNL     1     -46.022 -46.946  71.468  1.00  0.00     0.000 C 
BRANCH  15  16
ATOM     16  C   UNL     1     -47.245 -47.399  70.643  1.00  0.00     0.000 C 
BRANCH  16  17
ATOM     17  C   UNL     1     -47.539 -48.909  70.692  1.00  0.00     0.000 C 
BRANCH  17  18
ATOM     18  C   UNL     1     -46.281 -49.769  70.504  1.00  0.00    -0.000 C 
BRANCH  18  19
ATOM     19  C   UNL     1     -46.123 -50.190  69.035  1.00  0.00    -0.000 C 
BRANCH  19  20
ATOM     20  C   UNL     1     -45.483 -49.098  68.164  1.00  0.00    -0.000 C 
BRANCH  20  21
ATOM     21  C   UNL     1     -46.364 -48.704  66.966  1.00  0.00    -0.000 C 
BRANCH  21  22
ATOM     22  C   UNL     1     -47.448 -49.751  66.665  1.00  0.00    -0.000 C 
BRANCH  22  23
ATOM     23  C   UNL     1     -48.865 -49.148  66.659  1.00  0.00    -0.000 C 
BRANCH  23  24
ATOM     24  C   UNL     1     -48.953 -47.826  67.442  1.00  0.00    -0.000 C 
BRANCH  24  25
ATOM     25  C   UNL     1     -49.830 -46.747  66.783  1.00  0.00    -0.003 C 
ATOM     26  C   UNL     1     -49.814 -46.815  65.256  1.00  0.00     0.004 C 
ENDBRANCH  24  25
ENDBRANCH  23  24
ENDBRANCH  22  23
ENDBRANCH  21  22
ENDBRANCH  20  21
ENDBRANCH  19  20
ENDBRANCH  18  19
ENDBRANCH  17  18
ENDBRANCH  16  17
ENDBRANCH  15  16
ENDBRANCH   1  15
TORSDOF 22
ENDMDL
MODEL 6
REMARK VINA RESULT:    -3.394      2.880      5.729
REMARK INTER + INTRA:         -11.121
REMARK INTER:                  -7.082
REMARK INTRA:                  -4.039
REMARK UNBOUND:                -3.362
REMARK SMILES CCCCCCCCCCCCCCCCCCCCCCCC(=O)[O-]
REMARK SMILES IDX 13 1 14 2 15 3 16 4 17 5 18 6 19 7 20 8 21 9 22 10 23 11
REMARK SMILES IDX 24 12 25 13 26 14 12 15 11 16 10 17 9 18 8 19 7 20 6 21 5 22
REMARK SMILES IDX 4 23 3 24 2 25 1 26
REMARK H PARENT
REMARK Flexibility Score: inf
ROOT
ATOM      1  C   UNL     1     -43.018 -47.446  67.062  1.00  0.00     0.000 C 
ENDROOT
BRANCH   1   2
ATOM      2  C   UNL     1     -41.613 -46.891  67.365  1.00  0.00     0.000 C 
BRANCH   2   3
ATOM      3  C   UNL     1     -41.466 -45.374  67.109  1.00  0.00     0.000 C 
BRANCH   3   4
ATOM      4  C   UNL     1     -42.567 -44.493  67.738  1.00  0.00     0.000 C 
BRANCH   4   5
ATOM      5  C   UNL     1     -42.078 -43.439  68.753  1.00  0.00     0.000 C 
BRANCH   5   6
ATOM      6  C   UNL     1     -43.208 -42.547  69.290  1.00  0.00     0.000 C 
BRANCH   6   7
ATOM      7  C   UNL     1     -42.908 -42.092  70.728  1.00  0.00     0.000 C 
BRANCH   7   8
ATOM      8  C   UNL     1     -41.965 -43.052  71.470  1.00  0.00     0.000 C 
BRANCH   8   9
ATOM      9  C   UNL     1     -42.149 -43.010  72.994  1.00  0.00     0.000 C 
BRANCH   9  10
ATOM     10  C   UNL     1     -43.517 -43.573  73.397  1.00  0.00     0.006 C 
BRANCH  10  11
ATOM     11  C   UNL     1     -43.378 -44.961  74.030  1.00  0.00     0.053 C 
BRANCH  11  12
ATOM     12  C   UNL     1     -43.738 -44.916  75.481  1.00  0.00     0.041 C 
ATOM     13  O   UNL     1     -44.258 -43.877  75.972  1.00  0.00    -0.550 OA
ATOM     14  O   UNL     1     -43.456 -45.999  76.304  1.00  0.00    -0.550 OA
ENDBRANCH  11  12
ENDBRANCH  10  11
ENDBRANCH   9  10
ENDBRANCH   8   9
ENDBRANCH   7   8
ENDBRANCH   6   7
ENDBRANCH   5   6
ENDBRANCH   4   5
ENDBRANCH   3   4
ENDBRANCH   2   3
ENDBRANCH   1   2
BRANCH   1  15
ATOM     15  C   UNL     1     -43.465 -48.620  67.952  1.00  0.00     0.000 C 
BRANCH  15  16
ATOM     16  C   UNL     1     -44.969 -48.644  68.300  1.00  0.00     0.000 C 
BRANCH  16  17
ATOM     17  C   UNL     1     -45.358 -49.612  69.432  1.00  0.00     0.000 C 
BRANCH  17  18
ATOM     18  C   UNL     1     -46.346 -48.995  70.432  1.00  0.00    -0.000 C 
BRANCH  18  19
ATOM     19  C   UNL     1     -46.236 -47.463  70.433  1.00  0.00    -0.000 C 
BRANCH  19  20
ATOM     20  C   UNL     1     -45.133 -46.942  71.368  1.00  0.00    -0.000 C 
BRANCH  20  21
ATOM     21  C   UNL     1     -44.153 -45.994  70.656  1.00  0.00    -0.000 C 
BRANCH  21  22
ATOM     22  C   UNL     1     -42.687 -46.423  70.832  1.00  0.00    -0.000 C 
BRANCH  22  23
ATOM     23  C   UNL     1     -42.551 -47.888  71.283  1.00  0.00    -0.000 C 
BRANCH  23  24
ATOM     24  C   UNL     1     -41.096 -48.389  71.250  1.00  0.00    -0.000 C 
BRANCH  24  25
ATOM     25  C   UNL     1     -40.938 -49.914  71.387  1.00  0.00    -0.003 C 
ATOM     26  C   UNL     1     -42.034 -50.694  70.662  1.00  0.00     0.004 C 
ENDBRANCH  24  25
ENDBRANCH  23  24
ENDBRANCH  22  23
ENDBRANCH  21  22
ENDBRANCH  20  21
ENDBRANCH  19  20
ENDBRANCH  18  19
ENDBRANCH  17  18
ENDBRANCH  16  17
ENDBRANCH  15  16
ENDBRANCH   1  15
TORSDOF 22
ENDMDL
MODEL 7
REMARK VINA RESULT:    -3.381      3.284      7.612
REMARK INTER + INTRA:         -11.091
REMARK INTER:                  -7.140
REMARK INTRA:                  -3.951
REMARK UNBOUND:                -3.362
REMARK SMILES CCCCCCCCCCCCCCCCCCCCCCCC(=O)[O-]
REMARK SMILES IDX 13 1 14 2 15 3 16 4 17 5 18 6 19 7 20 8 21 9 22 10 23 11
REMARK SMILES IDX 24 12 25 13 26 14 12 15 11 16 10 17 9 18 8 19 7 20 6 21 5 22
REMARK SMILES IDX 4 23 3 24 2 25 1 26
REMARK H PARENT
REMARK Flexibility Score: inf
ROOT
ATOM      1  C   UNL     1     -45.955 -48.621  70.819  1.00  0.00     0.000 C 
ENDROOT
BRANCH   1   2
ATOM      2  C   UNL     1     -44.586 -49.228  70.453  1.00  0.00     0.000 C 
BRANCH   2   3
ATOM      3  C   UNL     1     -44.671 -50.442  69.500  1.00  0.00     0.000 C 
BRANCH   3   4
ATOM      4  C   UNL     1     -43.938 -50.271  68.153  1.00  0.00     0.000 C 
BRANCH   4   5
ATOM      5  C   UNL     1     -44.842 -50.029  66.928  1.00  0.00     0.000 C 
BRANCH   5   6
ATOM      6  C   UNL     1     -45.505 -48.643  66.928  1.00  0.00     0.000 C 
BRANCH   6   7
ATOM      7  C   UNL     1     -46.986 -48.744  66.530  1.00  0.00     0.000 C 
BRANCH   7   8
ATOM      8  C   UNL     1     -47.934 -48.271  67.643  1.00  0.00     0.000 C 
BRANCH   8   9
ATOM      9  C   UNL     1     -48.440 -49.421  68.526  1.00  0.00     0.000 C 
BRANCH   9  10
ATOM     10  C   UNL     1     -49.715 -49.017  69.275  1.00  0.00     0.006 C 
BRANCH  10  11
ATOM     11  C   UNL     1     -49.592 -49.309  70.774  1.00  0.00     0.053 C 
BRANCH  11  12
ATOM     12  C   UNL     1     -50.884 -49.028  71.473  1.00  0.00     0.041 C 
ATOM     13  O   UNL     1     -50.903 -48.294  72.498  1.00  0.00    -0.550 OA
ATOM     14  O   UNL     1     -52.061 -49.613  71.023  1.00  0.00    -0.550 OA
ENDBRANCH  11  12
ENDBRANCH  10  11
ENDBRANCH   9  10
ENDBRANCH   8   9
ENDBRANCH   7   8
ENDBRANCH   6   7
ENDBRANCH   5   6
ENDBRANCH   4   5
ENDBRANCH   3   4
ENDBRANCH   2   3
ENDBRANCH   1   2
BRANCH   1  15
ATOM     15  C   UNL     1     -45.974 -47.088  70.964  1.00  0.00     0.000 C 
BRANCH  15  16
ATOM     16  C   UNL     1     -44.626 -46.386  70.693  1.00  0.00     0.000 C 
BRANCH  16  17
ATOM     17  C   UNL     1     -43.868 -45.929  71.951  1.00  0.00     0.000 C 
BRANCH  17  18
ATOM     18  C   UNL     1     -42.504 -46.617  72.111  1.00  0.00    -0.000 C 
BRANCH  18  19
ATOM     19  C   UNL     1     -41.589 -46.296  70.920  1.00  0.00    -0.000 C 
BRANCH  19  20
ATOM     20  C   UNL     1     -41.274 -47.528  70.057  1.00  0.00    -0.000 C 
BRANCH  20  21
ATOM     21  C   UNL     1     -41.036 -47.171  68.580  1.00  0.00    -0.000 C 
BRANCH  21  22
ATOM     22  C   UNL     1     -42.347 -46.917  67.818  1.00  0.00    -0.000 C 
BRANCH  22  23
ATOM     23  C   UNL     1     -42.453 -45.475  67.290  1.00  0.00    -0.000 C 
BRANCH  23  24
ATOM     24  C   UNL     1     -41.250 -44.603  67.692  1.00  0.00    -0.000 C 
BRANCH  24  25
ATOM     25  C   UNL     1     -41.609 -43.347  68.504  1.00  0.00    -0.003 C 
ATOM     26  C   UNL     1     -43.026 -43.391  69.076  1.00  0.00     0.004 C 
ENDBRANCH  24  25
ENDBRANCH  23  24
ENDBRANCH  22  23
ENDBRANCH  21  22
ENDBRANCH  20  21
ENDBRANCH  19  20
ENDBRANCH  18  19
ENDBRANCH  17  18
ENDBRANCH  16  17
ENDBRANCH  15  16
ENDBRANCH   1  15
TORSDOF 22
ENDMDL
MODEL 8
REMARK VINA RESULT:    -3.379      3.037      5.396
REMARK INTER + INTRA:         -11.086
REMARK INTER:                  -7.708
REMARK INTRA:                  -3.378
REMARK UNBOUND:                -3.362
REMARK SMILES CCCCCCCCCCCCCCCCCCCCCCCC(=O)[O-]
REMARK SMILES IDX 13 1 14 2 15 3 16 4 17 5 18 6 19 7 20 8 21 9 22 10 23 11
REMARK SMILES IDX 24 12 25 13 26 14 12 15 11 16 10 17 9 18 8 19 7 20 6 21 5 22
REMARK SMILES IDX 4 23 3 24 2 25 1 26
REMARK H PARENT
REMARK Flexibility Score: inf
ROOT
ATOM      1  C   UNL     1     -42.394 -44.123  68.135  1.00  0.00     0.000 C 
ENDROOT
BRANCH   1   2
ATOM      2  C   UNL     1     -41.445 -43.797  69.306  1.00  0.00     0.000 C 
BRANCH   2   3
ATOM      3  C   UNL     1     -42.100 -43.921  70.700  1.00  0.00     0.000 C 
BRANCH   3   4
ATOM      4  C   UNL     1     -43.401 -44.750  70.743  1.00  0.00     0.000 C 
BRANCH   4   5
ATOM      5  C   UNL     1     -43.342 -46.040  71.587  1.00  0.00     0.000 C 
BRANCH   5   6
ATOM      6  C   UNL     1     -41.927 -46.629  71.695  1.00  0.00     0.000 C 
BRANCH   6   7
ATOM      7  C   UNL     1     -41.538 -46.852  73.166  1.00  0.00     0.000 C 
BRANCH   7   8
ATOM      8  C   UNL     1     -41.628 -45.568  74.005  1.00  0.00     0.000 C 
BRANCH   8   9
ATOM      9  C   UNL     1     -42.581 -45.703  75.202  1.00  0.00     0.000 C 
BRANCH   9  10
ATOM     10  C   UNL     1     -43.929 -45.036  74.908  1.00  0.00     0.006 C 
BRANCH  10  11
ATOM     11  C   UNL     1     -43.746 -43.558  74.544  1.00  0.00     0.053 C 
BRANCH  11  12
ATOM     12  C   UNL     1     -44.515 -42.686  75.486  1.00  0.00     0.041 C 
ATOM     13  O   UNL     1     -44.698 -43.050  76.679  1.00  0.00    -0.550 OA
ATOM     14  O   UNL     1     -45.070 -41.494  75.037  1.00  0.00    -0.550 OA
ENDBRANCH  11  12
ENDBRANCH  10  11
ENDBRANCH   9  10
ENDBRANCH   8   9
ENDBRANCH   7   8
ENDBRANCH   6   7
ENDBRANCH   5   6
ENDBRANCH   4   5
ENDBRANCH   3   4
ENDBRANCH   2   3
ENDBRANCH   1   2
BRANCH   1  15
ATOM     15  C   UNL     1     -42.004 -45.355  67.299  1.00  0.00     0.000 C 
BRANCH  15  16
ATOM     16  C   UNL     1     -42.772 -46.650  67.642  1.00  0.00     0.000 C 
BRANCH  16  17
ATOM     17  C   UNL     1     -41.892 -47.820  68.117  1.00  0.00     0.000 C 
BRANCH  17  18
ATOM     18  C   UNL     1     -42.708 -48.979  68.707  1.00  0.00    -0.000 C 
BRANCH  18  19
ATOM     19  C   UNL     1     -44.092 -48.495  69.163  1.00  0.00    -0.000 C 
BRANCH  19  20
ATOM     20  C   UNL     1     -44.579 -49.193  70.443  1.00  0.00    -0.000 C 
BRANCH  20  21
ATOM     21  C   UNL     1     -46.104 -49.097  70.626  1.00  0.00    -0.000 C 
BRANCH  21  22
ATOM     22  C   UNL     1     -46.560 -47.686  71.031  1.00  0.00    -0.000 C 
BRANCH  22  23
ATOM     23  C   UNL     1     -47.554 -47.076  70.026  1.00  0.00    -0.000 C 
BRANCH  23  24
ATOM     24  C   UNL     1     -48.483 -48.128  69.394  1.00  0.00    -0.000 C 
BRANCH  24  25
ATOM     25  C   UNL     1     -48.458 -48.165  67.856  1.00  0.00    -0.003 C 
ATOM     26  C   UNL     1     -49.367 -47.113  67.220  1.00  0.00     0.004 C 
ENDBRANCH  24  25
ENDBRANCH  23  24
ENDBRANCH  22  23
ENDBRANCH  21  22
ENDBRANCH  20  21
ENDBRANCH  19  20
ENDBRANCH  18  19
ENDBRANCH  17  18
ENDBRANCH  16  17
ENDBRANCH  15  16
ENDBRANCH   1  15
TORSDOF 22
ENDMDL
MODEL 9
REMARK VINA RESULT:    -3.328      2.230      7.432
REMARK INTER + INTRA:         -10.971
REMARK INTER:                  -7.286
REMARK INTRA:                  -3.685
REMARK UNBOUND:                -3.362
REMARK SMILES CCCCCCCCCCCCCCCCCCCCCCCC(=O)[O-]
REMARK SMILES IDX 13 1 14 2 15 3 16 4 17 5 18 6 19 7 20 8 21 9 22 10 23 11
REMARK SMILES IDX 24 12 25 13 26 14 12 15 11 16 10 17 9 18 8 19 7 20 6 21 5 22
REMARK SMILES IDX 4 23 3 24 2 25 1 26
REMARK H PARENT
REMARK Flexibility Score: inf
ROOT
ATOM      1  C   UNL     1     -47.258 -47.002  70.431  1.00  0.00     0.000 C 
ENDROOT
BRANCH   1   2
ATOM      2  C   UNL     1     -48.324 -47.919  71.061  1.00  0.00     0.000 C 
BRANCH   2   3
ATOM      3  C   UNL     1     -48.165 -49.412  70.697  1.00  0.00     0.000 C 
BRANCH   3   4
ATOM      4  C   UNL     1     -49.478 -50.224  70.669  1.00  0.00     0.000 C 
BRANCH   4   5
ATOM      5  C   UNL     1     -50.770 -49.397  70.518  1.00  0.00     0.000 C 
BRANCH   5   6
ATOM      6  C   UNL     1     -51.568 -49.744  69.251  1.00  0.00     0.000 C 
BRANCH   6   7
ATOM      7  C   UNL     1     -51.334 -48.695  68.152  1.00  0.00     0.000 C 
BRANCH   7   8
ATOM      8  C   UNL     1     -50.156 -49.052  67.232  1.00  0.00     0.000 C 
BRANCH   8   9
ATOM      9  C   UNL     1     -48.992 -48.055  67.338  1.00  0.00     0.000 C 
BRANCH   9  10
ATOM     10  C   UNL     1     -47.863 -48.425  66.371  1.00  0.00     0.006 C 
BRANCH  10  11
ATOM     11  C   UNL     1     -46.553 -48.683  67.123  1.00  0.00     0.053 C 
BRANCH  11  12
ATOM     12  C   UNL     1     -46.331 -50.151  67.305  1.00  0.00     0.041 C 
ATOM     13  O   UNL     1     -45.305 -50.566  67.910  1.00  0.00    -0.550 OA
ATOM     14  O   UNL     1     -47.229 -51.064  66.768  1.00  0.00    -0.550 OA
ENDBRANCH  11  12
ENDBRANCH  10  11
ENDBRANCH   9  10
ENDBRANCH   8   9
ENDBRANCH   7   8
ENDBRANCH   6   7
ENDBRANCH   5   6
ENDBRANCH   4   5
ENDBRANCH   3   4
ENDBRANCH   2   3
ENDBRANCH   1   2
BRANCH   1  15
ATOM     15  C   UNL     1     -45.853 -47.107  71.052  1.00  0.00     0.000 C 
BRANCH  15  16
ATOM     16  C   UNL     1     -44.870 -48.028  70.300  1.00  0.00     0.000 C 
BRANCH  16  17
ATOM     17  C   UNL     1     -43.403 -47.919  70.751  1.00  0.00     0.000 C 
BRANCH  17  18
ATOM     18  C   UNL     1     -42.436 -47.666  69.585  1.00  0.00    -0.000 C 
BRANCH  18  19
ATOM     19  C   UNL     1     -43.207 -47.428  68.279  1.00  0.00    -0.000 C 
BRANCH  19  20
ATOM     20  C   UNL     1     -42.291 -47.055  67.102  1.00  0.00    -0.000 C 
BRANCH  20  21
ATOM     21  C   UNL     1     -42.300 -45.547  66.800  1.00  0.00    -0.000 C 
BRANCH  21  22
ATOM     22  C   UNL     1     -41.037 -44.837  67.312  1.00  0.00    -0.000 C 
BRANCH  22  23
ATOM     23  C   UNL     1     -41.289 -44.043  68.607  1.00  0.00    -0.000 C 
BRANCH  23  24
ATOM     24  C   UNL     1     -42.762 -43.628  68.773  1.00  0.00    -0.000 C 
BRANCH  24  25
ATOM     25  C   UNL     1     -43.415 -44.093  70.086  1.00  0.00    -0.003 C 
ATOM     26  C   UNL     1     -42.402 -44.335  71.204  1.00  0.00     0.004 C 
ENDBRANCH  24  25
ENDBRANCH  23  24
ENDBRANCH  22  23
ENDBRANCH  21  22
ENDBRANCH  20  21
ENDBRANCH  19  20
ENDBRANCH  18  19
ENDBRANCH  17  18
ENDBRANCH  16  17
ENDBRANCH  15  16
ENDBRANCH   1  15
TORSDOF 22
ENDMDL
