MODEL 1
REMARK VINA RESULT:    -3.098      0.000      0.000
REMARK INTER + INTRA:          -3.924
REMARK INTER:                  -3.822
REMARK INTRA:                  -0.103
REMARK UNBOUND:                -0.103
REMARK SMILES CCCCCC(=O)[O-]
REMARK SMILES IDX 4 1 5 2 6 3 7 4 8 5 3 6 2 7 1 8
REMARK H PARENT
REMARK Flexibility Score: inf
ROOT
ATOM      1  C   UNL     1      16.814  26.486  11.488  1.00  0.00     0.006 C 
ENDROOT
BRANCH   1   2
ATOM      2  C   UNL     1      17.907  26.912  12.471  1.00  0.00     0.053 C 
BRANCH   2   3
ATOM      3  C   UNL     1      17.458  26.694  13.881  1.00  0.00     0.041 C 
ATOM      4  O   UNL     1      17.842  27.469  14.796  1.00  0.00    -0.550 OA
ATOM      5  O   UNL     1      16.653  25.606  14.194  1.00  0.00    -0.550 OA
ENDBRANCH   2   3
ENDBRANCH   1   2
BRANCH   1   6
ATOM      6  C   UNL     1      15.649  27.482  11.497  1.00  0.00     0.000 C 
BRANCH   6   7
ATOM      7  C   UNL     1      14.875  27.436  10.174  1.00  0.00    -0.003 C 
ATOM      8  C   UNL     1      14.875  26.027   9.584  1.00  0.00     0.004 C 
ENDBRANCH   6   7
ENDBRANCH   1   6
TORSDOF 4
ENDMDL
MODEL 2
REMARK VINA RESULT:    -3.014      1.346      1.750
REMARK INTER + INTRA:          -3.821
REMARK INTER:                  -3.706
REMARK INTRA:                  -0.116
REMARK UNBOUND:                -0.103
REMARK SMILES CCCCCC(=O)[O-]
REMARK SMILES IDX 4 1 5 2 6 3 7 4 8 5 3 6 2 7 1 8
REMARK H PARENT
REMARK Flexibility Score: inf
ROOT
ATOM      1  C   UNL     1      15.022  27.605  12.135  1.00  0.00     0.006 C 
ENDROOT
BRANCH   1   2
ATOM      2  C   UNL     1      15.682  26.369  12.752  1.00  0.00     0.053 C 
BRANCH   2   3
ATOM      3  C   UNL     1      17.112  26.654  13.091  1.00  0.00     0.041 C 
ATOM      4  O   UNL     1      17.510  26.573  14.282  1.00  0.00    -0.550 OA
ATOM      5  O   UNL     1      17.995  27.055  12.096  1.00  0.00    -0.550 OA
ENDBRANCH   2   3
ENDBRANCH   1   2
BRANCH   1   6
ATOM      6  C   UNL     1      14.999  27.511  10.606  1.00  0.00     0.000 C 
BRANCH   6   7
ATOM      7  C   UNL     1      14.965  26.049  10.145  1.00  0.00    -0.003 C 
ATOM      8  C   UNL     1      14.875  25.952   8.624  1.00  0.00     0.004 C 
ENDBRANCH   6   7
ENDBRANCH   1   6
TORSDOF 4
ENDMDL
MODEL 3
REMARK VINA RESULT:    -2.945     22.404     23.037
REMARK INTER + INTRA:          -3.736
REMARK INTER:                  -3.501
REMARK INTRA:                  -0.235
REMARK UNBOUND:                -0.103
REMARK SMILES CCCCCC(=O)[O-]
REMARK SMILES IDX 4 1 5 2 6 3 7 4 8 5 3 6 2 7 1 8
REMARK H PARENT
REMARK Flexibility Score: inf
ROOT
ATOM      1  C   UNL     1      34.415  37.326  -0.217  1.00  0.00     0.006 C 
ENDROOT
BRANCH   1   2
ATOM      2  C   UNL     1      34.165  37.355   1.292  1.00  0.00     0.053 C 
BRANCH   2   3
ATOM      3  C   UNL     1      33.041  36.436   1.655  1.00  0.00     0.041 C 
ATOM      4  O   UNL     1      32.074  36.857   2.341  1.00  0.00    -0.550 OA
ATOM      5  O   UNL     1      33.086  35.101   1.276  1.00  0.00    -0.550 OA
ENDBRANCH   2   3
ENDBRANCH   1   2
BRANCH   1   6
ATOM      6  C   UNL     1      33.393  38.193  -0.961  1.00  0.00     0.000 C 
BRANCH   6   7
ATOM      7  C   UNL     1      33.008  37.560  -2.304  1.00  0.00    -0.003 C 
ATOM      8  C   UNL     1      32.544  36.117  -2.120  1.00  0.00     0.004 C 
ENDBRANCH   6   7
ENDBRANCH   1   6
TORSDOF 4
ENDMDL
MODEL 4
REMARK VINA RESULT:    -2.885     23.060     23.694
REMARK INTER + INTRA:          -3.662
REMARK INTER:                  -3.581
REMARK INTRA:                  -0.081
REMARK UNBOUND:                -0.103
REMARK SMILES CCCCCC(=O)[O-]
REMARK SMILES IDX 4 1 5 2 6 3 7 4 8 5 3 6 2 7 1 8
REMARK H PARENT
REMARK Flexibility Score: inf
ROOT
ATOM      1  C   UNL     1      33.444  36.539  -1.082  1.00  0.00     0.006 C 
ENDROOT
BRANCH   1   2
ATOM      2  C   UNL     1      33.627  37.345   0.207  1.00  0.00     0.053 C 
BRANCH   2   3
ATOM      3  C   UNL     1      33.220  36.532   1.396  1.00  0.00     0.041 C 
ATOM      4  O   UNL     1      33.649  35.358   1.539  1.00  0.00    -0.550 OA
ATOM      5  O   UNL     1      32.327  37.056   2.322  1.00  0.00    -0.550 OA
ENDBRANCH   2   3
ENDBRANCH   1   2
BRANCH   1   6
ATOM      6  C   UNL     1      32.926  37.428  -2.218  1.00  0.00     0.000 C 
BRANCH   6   7
ATOM      7  C   UNL     1      33.782  38.693  -2.360  1.00  0.00    -0.003 C 
ATOM      8  C   UNL     1      34.024  39.032  -3.829  1.00  0.00     0.004 C 
ENDBRANCH   6   7
ENDBRANCH   1   6
TORSDOF 4
ENDMDL
MODEL 5
REMARK VINA RESULT:    -2.838     23.145     23.970
REMARK INTER + INTRA:          -3.604
REMARK INTER:                  -3.511
REMARK INTRA:                  -0.093
REMARK UNBOUND:                -0.103
REMARK SMILES CCCCCC(=O)[O-]
REMARK SMILES IDX 4 1 5 2 6 3 7 4 8 5 3 6 2 7 1 8
REMARK H PARENT
REMARK Flexibility Score: inf
ROOT
ATOM      1  C   UNL     1      33.824  37.628  -0.689  1.00  0.00     0.006 C 
ENDROOT
BRANCH   1   2
ATOM      2  C   UNL     1      33.229  36.285  -1.120  1.00  0.00     0.053 C 
BRANCH   2   3
ATOM      3  C   UNL     1      32.630  36.392  -2.487  1.00  0.00     0.041 C 
ATOM      4  O   UNL     1      32.785  37.439  -3.168  1.00  0.00    -0.550 OA
ATOM      5  O   UNL     1      31.857  35.353  -2.991  1.00  0.00    -0.550 OA
ENDBRANCH   2   3
ENDBRANCH   1   2
BRANCH   1   6
ATOM      6  C   UNL     1      34.753  37.455   0.518  1.00  0.00     0.000 C 
BRANCH   6   7
ATOM      7  C   UNL     1      34.007  36.823   1.699  1.00  0.00    -0.003 C 
ATOM      8  C   UNL     1      34.980  36.358   2.780  1.00  0.00     0.004 C 
ENDBRANCH   6   7
ENDBRANCH   1   6
TORSDOF 4
ENDMDL
MODEL 6
REMARK VINA RESULT:    -2.667      2.660      3.923
REMARK INTER + INTRA:          -3.393
REMARK INTER:                  -3.345
REMARK INTRA:                  -0.049
REMARK UNBOUND:                -0.103
REMARK SMILES CCCCCC(=O)[O-]
REMARK SMILES IDX 4 1 5 2 6 3 7 4 8 5 3 6 2 7 1 8
REMARK H PARENT
REMARK Flexibility Score: inf
ROOT
ATOM      1  C   UNL     1      16.259  26.242  12.856  1.00  0.00     0.006 C 
ENDROOT
BRANCH   1   2
ATOM      2  C   UNL     1      15.070  27.086  12.391  1.00  0.00     0.053 C 
BRANCH   2   3
ATOM      3  C   UNL     1      14.994  27.106  10.896  1.00  0.00     0.041 C 
ATOM      4  O   UNL     1      14.994  28.201  10.276  1.00  0.00    -0.550 OA
ATOM      5  O   UNL     1      14.875  25.916  10.190  1.00  0.00    -0.550 OA
ENDBRANCH   2   3
ENDBRANCH   1   2
BRANCH   1   6
ATOM      6  C   UNL     1      17.561  27.050  12.805  1.00  0.00     0.000 C 
BRANCH   6   7
ATOM      7  C   UNL     1      18.345  26.750  11.522  1.00  0.00    -0.003 C 
ATOM      8  C   UNL     1      19.736  27.378  11.567  1.00  0.00     0.004 C 
ENDBRANCH   6   7
ENDBRANCH   1   6
TORSDOF 4
ENDMDL
MODEL 7
REMARK VINA RESULT:    -2.456     22.414     23.087
REMARK INTER + INTRA:          -3.133
REMARK INTER:                  -3.021
REMARK INTRA:                  -0.112
REMARK UNBOUND:                -0.103
REMARK SMILES CCCCCC(=O)[O-]
REMARK SMILES IDX 4 1 5 2 6 3 7 4 8 5 3 6 2 7 1 8
REMARK H PARENT
REMARK Flexibility Score: inf
ROOT
ATOM      1  C   UNL     1      33.022  36.012   0.358  1.00  0.00     0.006 C 
ENDROOT
BRANCH   1   2
ATOM      2  C   UNL     1      33.605  36.209   1.759  1.00  0.00     0.053 C 
BRANCH   2   3
ATOM      3  C   UNL     1      33.331  37.595   2.252  1.00  0.00     0.041 C 
ATOM      4  O   UNL     1      34.283  38.355   2.569  1.00  0.00    -0.550 OA
ATOM      5  O   UNL     1      32.021  38.031   2.406  1.00  0.00    -0.550 OA
ENDBRANCH   2   3
ENDBRANCH   1   2
BRANCH   1   6
ATOM      6  C   UNL     1      33.706  36.934  -0.657  1.00  0.00     0.000 C 
BRANCH   6   7
ATOM      7  C   UNL     1      32.971  36.912  -2.003  1.00  0.00    -0.003 C 
ATOM      8  C   UNL     1      33.194  38.211  -2.774  1.00  0.00     0.004 C 
ENDBRANCH   6   7
ENDBRANCH   1   6
TORSDOF 4
ENDMDL
MODEL 8
REMARK VINA RESULT:    -2.238     22.714     23.583
REMARK INTER + INTRA:          -2.864
REMARK INTER:                  -2.709
REMARK INTRA:                  -0.155
REMARK UNBOUND:                -0.103
REMARK SMILES CCCCCC(=O)[O-]
REMARK SMILES IDX 4 1 5 2 6 3 7 4 8 5 3 6 2 7 1 8
REMARK H PARENT
REMARK Flexibility Score: inf
ROOT
ATOM      1  C   UNL     1      33.059  36.134   0.500  1.00  0.00     0.006 C 
ENDROOT
BRANCH   1   2
ATOM      2  C   UNL     1      34.067  36.976  -0.287  1.00  0.00     0.053 C 
BRANCH   2   3
ATOM      3  C   UNL     1      33.359  37.877  -1.249  1.00  0.00     0.041 C 
ATOM      4  O   UNL     1      33.090  39.064  -0.926  1.00  0.00    -0.550 OA
ATOM      5  O   UNL     1      32.954  37.392  -2.486  1.00  0.00    -0.550 OA
ENDBRANCH   2   3
ENDBRANCH   1   2
BRANCH   1   6
ATOM      6  C   UNL     1      32.891  36.669   1.927  1.00  0.00     0.000 C 
BRANCH   6   7
ATOM      7  C   UNL     1      34.230  37.160   2.491  1.00  0.00    -0.003 C 
ATOM      8  C   UNL     1      34.034  37.888   3.819  1.00  0.00     0.004 C 
ENDBRANCH   6   7
ENDBRANCH   1   6
TORSDOF 4
ENDMDL
MODEL 9
REMARK VINA RESULT:    -2.177     22.918     23.793
REMARK INTER + INTRA:          -2.789
REMARK INTER:                  -2.609
REMARK INTRA:                  -0.180
REMARK UNBOUND:                -0.103
REMARK SMILES CCCCCC(=O)[O-]
REMARK SMILES IDX 4 1 5 2 6 3 7 4 8 5 3 6 2 7 1 8
REMARK H PARENT
REMARK Flexibility Score: inf
ROOT
ATOM      1  C   UNL     1      33.744  38.544   0.812  1.00  0.00     0.006 C 
ENDROOT
BRANCH   1   2
ATOM      2  C   UNL     1      34.088  37.876  -0.521  1.00  0.00     0.053 C 
BRANCH   2   3
ATOM      3  C   UNL     1      33.356  36.578  -0.662  1.00  0.00     0.041 C 
ATOM      4  O   UNL     1      33.224  35.814   0.329  1.00  0.00    -0.550 OA
ATOM      5  O   UNL     1      32.861  36.190  -1.900  1.00  0.00    -0.550 OA
ENDBRANCH   2   3
ENDBRANCH   1   2
BRANCH   1   6
ATOM      6  C   UNL     1      35.012  39.006   1.539  1.00  0.00     0.000 C 
BRANCH   6   7
ATOM      7  C   UNL     1      34.957  38.638   3.027  1.00  0.00    -0.003 C 
ATOM      8  C   UNL     1      33.846  37.629   3.305  1.00  0.00     0.004 C 
ENDBRANCH   6   7
ENDBRANCH   1   6
TORSDOF 4
ENDMDL
