MODEL 1
REMARK VINA RESULT:    -3.369      0.000      0.000
REMARK INTER + INTRA:          -5.523
REMARK INTER:                  -4.944
REMARK INTRA:                  -0.579
REMARK UNBOUND:                -0.579
REMARK SMILES O=C([O-])CCCCCCCC(=O)[O-]
REMARK SMILES IDX 7 1 6 2 5 3 4 4 2 5 1 6 3 7 8 8 9 9 10 10 11 11 12 12 13 13
REMARK H PARENT
REMARK Flexibility Score: inf
ROOT
ATOM      1  C   UNL     1      -3.875  -9.889  40.297  1.00  0.00     0.000 C 
ENDROOT
BRANCH   1   2
ATOM      2  C   UNL     1      -3.950  -8.480  39.700  1.00  0.00     0.000 C 
BRANCH   2   3
ATOM      3  C   UNL     1      -2.590  -8.045  39.140  1.00  0.00     0.006 C 
BRANCH   3   4
ATOM      4  C   UNL     1      -1.446  -8.547  40.025  1.00  0.00     0.053 C 
BRANCH   4   5
ATOM      5  C   UNL     1      -0.485  -9.369  39.225  1.00  0.00     0.041 C 
ATOM      6  O   UNL     1      -0.014  -8.922  38.146  1.00  0.00    -0.550 OA
ATOM      7  O   UNL     1      -0.069 -10.607  39.697  1.00  0.00    -0.550 OA
ENDBRANCH   4   5
ENDBRANCH   3   4
ENDBRANCH   2   3
ENDBRANCH   1   2
BRANCH   1   8
ATOM      8  C   UNL     1      -4.344  -9.895  41.756  1.00  0.00     0.000 C 
BRANCH   8   9
ATOM      9  C   UNL     1      -3.742 -11.081  42.524  1.00  0.00     0.006 C 
BRANCH   9  10
ATOM     10  C   UNL     1      -2.801 -11.921  41.651  1.00  0.00     0.053 C 
BRANCH  10  11
ATOM     11  C   UNL     1      -1.657 -12.479  42.440  1.00  0.00     0.041 C 
ATOM     12  O   UNL     1      -0.708 -11.731  42.795  1.00  0.00    -0.550 OA
ATOM     13  O   UNL     1      -1.622 -13.832  42.755  1.00  0.00    -0.550 OA
ENDBRANCH  10  11
ENDBRANCH   9  10
ENDBRANCH   8   9
ENDBRANCH   1   8
TORSDOF 8
ENDMDL
MODEL 2
REMARK VINA RESULT:    -3.352      3.531      4.781
REMARK INTER + INTRA:          -5.499
REMARK INTER:                  -5.110
REMARK INTRA:                  -0.389
REMARK UNBOUND:                -0.579
REMARK SMILES O=C([O-])CCCCCCCC(=O)[O-]
REMARK SMILES IDX 7 1 6 2 5 3 4 4 2 5 1 6 3 7 8 8 9 9 10 10 11 11 12 12 13 13
REMARK H PARENT
REMARK Flexibility Score: inf
ROOT
ATOM      1  C   UNL     1      -3.513  -8.251  38.730  1.00  0.00     0.000 C 
ENDROOT
BRANCH   1   2
ATOM      2  C   UNL     1      -4.383  -7.351  37.846  1.00  0.00     0.000 C 
BRANCH   2   3
ATOM      3  C   UNL     1      -3.528  -6.314  37.107  1.00  0.00     0.006 C 
BRANCH   3   4
ATOM      4  C   UNL     1      -4.392  -5.165  36.580  1.00  0.00     0.053 C 
BRANCH   4   5
ATOM      5  C   UNL     1      -4.114  -4.921  35.130  1.00  0.00     0.041 C 
ATOM      6  O   UNL     1      -3.979  -3.746  34.699  1.00  0.00    -0.550 OA
ATOM      7  O   UNL     1      -3.952  -5.995  34.263  1.00  0.00    -0.550 OA
ENDBRANCH   4   5
ENDBRANCH   3   4
ENDBRANCH   2   3
ENDBRANCH   1   2
BRANCH   1   8
ATOM      8  C   UNL     1      -2.072  -7.733  38.795  1.00  0.00     0.000 C 
BRANCH   8   9
ATOM      9  C   UNL     1      -1.383  -8.181  40.092  1.00  0.00     0.006 C 
BRANCH   9  10
ATOM     10  C   UNL     1      -2.041  -9.426  40.699  1.00  0.00     0.053 C 
BRANCH  10  11
ATOM     11  C   UNL     1      -1.151 -10.628  40.609  1.00  0.00     0.041 C 
ATOM     12  O   UNL     1      -1.238 -11.546  41.466  1.00  0.00    -0.550 OA
ATOM     13  O   UNL     1      -0.202 -10.717  39.598  1.00  0.00    -0.550 OA
ENDBRANCH  10  11
ENDBRANCH   9  10
ENDBRANCH   8   9
ENDBRANCH   1   8
TORSDOF 8
ENDMDL
MODEL 3
REMARK VINA RESULT:    -3.343      3.570      6.737
REMARK INTER + INTRA:          -5.484
REMARK INTER:                  -5.096
REMARK INTRA:                  -0.389
REMARK UNBOUND:                -0.579
REMARK SMILES O=C([O-])CCCCCCCC(=O)[O-]
REMARK SMILES IDX 7 1 6 2 5 3 4 4 2 5 1 6 3 7 8 8 9 9 10 10 11 11 12 12 13 13
REMARK H PARENT
REMARK Flexibility Score: inf
ROOT
ATOM      1  C   UNL     1      -3.565  -8.185  38.762  1.00  0.00     0.000 C 
ENDROOT
BRANCH   1   2
ATOM      2  C   UNL     1      -2.098  -7.744  38.735  1.00  0.00     0.000 C 
BRANCH   2   3
ATOM      3  C   UNL     1      -1.380  -8.139  40.032  1.00  0.00     0.006 C 
BRANCH   3   4
ATOM      4  C   UNL     1      -2.056  -9.346  40.688  1.00  0.00     0.053 C 
BRANCH   4   5
ATOM      5  C   UNL     1      -1.167 -10.547  40.620  1.00  0.00     0.041 C 
ATOM      6  O   UNL     1      -1.227 -11.432  41.514  1.00  0.00    -0.550 OA
ATOM      7  O   UNL     1      -0.307 -10.716  39.543  1.00  0.00    -0.550 OA
ENDBRANCH   4   5
ENDBRANCH   3   4
ENDBRANCH   2   3
ENDBRANCH   1   2
BRANCH   1   8
ATOM      8  C   UNL     1      -4.404  -7.367  37.773  1.00  0.00     0.000 C 
BRANCH   8   9
ATOM      9  C   UNL     1      -3.559  -6.269  37.110  1.00  0.00     0.006 C 
BRANCH   9  10
ATOM     10  C   UNL     1      -4.416  -5.101  36.606  1.00  0.00     0.053 C 
BRANCH  10  11
ATOM     11  C   UNL     1      -4.113  -4.763  35.178  1.00  0.00     0.041 C 
ATOM     12  O   UNL     1      -4.604  -3.728  34.655  1.00  0.00    -0.550 OA
ATOM     13  O   UNL     1      -3.316  -5.609  34.416  1.00  0.00    -0.550 OA
ENDBRANCH  10  11
ENDBRANCH   9  10
ENDBRANCH   8   9
ENDBRANCH   1   8
TORSDOF 8
ENDMDL
MODEL 4
REMARK VINA RESULT:    -3.328      2.521      3.401
REMARK INTER + INTRA:          -5.462
REMARK INTER:                  -4.915
REMARK INTRA:                  -0.547
REMARK UNBOUND:                -0.579
REMARK SMILES O=C([O-])CCCCCCCC(=O)[O-]
REMARK SMILES IDX 7 1 6 2 5 3 4 4 2 5 1 6 3 7 8 8 9 9 10 10 11 11 12 12 13 13
REMARK H PARENT
REMARK Flexibility Score: inf
ROOT
ATOM      1  C   UNL     1      -1.548 -10.679  39.909  1.00  0.00     0.000 C 
ENDROOT
BRANCH   1   2
ATOM      2  C   UNL     1      -0.559  -9.600  39.456  1.00  0.00     0.000 C 
BRANCH   2   3
ATOM      3  C   UNL     1      -1.152  -8.197  39.641  1.00  0.00     0.006 C 
BRANCH   3   4
ATOM      4  C   UNL     1      -2.472  -8.054  38.880  1.00  0.00     0.053 C 
BRANCH   4   5
ATOM      5  C   UNL     1      -2.303  -7.150  37.700  1.00  0.00     0.041 C 
ATOM      6  O   UNL     1      -3.133  -6.229  37.482  1.00  0.00    -0.550 OA
ATOM      7  O   UNL     1      -1.199  -7.291  36.869  1.00  0.00    -0.550 OA
ENDBRANCH   4   5
ENDBRANCH   3   4
ENDBRANCH   2   3
ENDBRANCH   1   2
BRANCH   1   8
ATOM      8  C   UNL     1      -1.214 -11.175  41.321  1.00  0.00     0.000 C 
BRANCH   8   9
ATOM      9  C   UNL     1      -2.475 -11.233  42.196  1.00  0.00     0.006 C 
BRANCH   9  10
ATOM     10  C   UNL     1      -3.540 -10.224  41.751  1.00  0.00     0.053 C 
BRANCH  10  11
ATOM     11  C   UNL     1      -4.726 -10.224  42.665  1.00  0.00     0.041 C 
ATOM     12  O   UNL     1      -5.399  -9.173  42.829  1.00  0.00    -0.550 OA
ATOM     13  O   UNL     1      -5.068 -11.377  43.362  1.00  0.00    -0.550 OA
ENDBRANCH  10  11
ENDBRANCH   9  10
ENDBRANCH   8   9
ENDBRANCH   1   8
TORSDOF 8
ENDMDL
MODEL 5
REMARK VINA RESULT:    -3.326      2.547      5.753
REMARK INTER + INTRA:          -5.461
REMARK INTER:                  -4.926
REMARK INTRA:                  -0.535
REMARK UNBOUND:                -0.579
REMARK SMILES O=C([O-])CCCCCCCC(=O)[O-]
REMARK SMILES IDX 7 1 6 2 5 3 4 4 2 5 1 6 3 7 8 8 9 9 10 10 11 11 12 12 13 13
REMARK H PARENT
REMARK Flexibility Score: inf
ROOT
ATOM      1  C   UNL     1      -1.645 -10.629  39.866  1.00  0.00     0.000 C 
ENDROOT
BRANCH   1   2
ATOM      2  C   UNL     1      -1.269 -11.223  41.228  1.00  0.00     0.000 C 
BRANCH   2   3
ATOM      3  C   UNL     1      -2.377 -10.977  42.260  1.00  0.00     0.006 C 
BRANCH   3   4
ATOM      4  C   UNL     1      -3.571 -10.258  41.625  1.00  0.00     0.053 C 
BRANCH   4   5
ATOM      5  C   UNL     1      -4.722 -10.208  42.579  1.00  0.00     0.041 C 
ATOM      6  O   UNL     1      -5.432  -9.171  42.662  1.00  0.00    -0.550 OA
ATOM      7  O   UNL     1      -5.043 -11.324  43.340  1.00  0.00    -0.550 OA
ENDBRANCH   4   5
ENDBRANCH   3   4
ENDBRANCH   2   3
ENDBRANCH   1   2
BRANCH   1   8
ATOM      8  C   UNL     1      -0.645  -9.547  39.442  1.00  0.00     0.000 C 
BRANCH   8   9
ATOM      9  C   UNL     1      -1.217  -8.143  39.686  1.00  0.00     0.006 C 
BRANCH   9  10
ATOM     10  C   UNL     1      -2.544  -7.920  38.949  1.00  0.00     0.053 C 
BRANCH  10  11
ATOM     11  C   UNL     1      -2.368  -7.068  37.729  1.00  0.00     0.041 C 
ATOM     12  O   UNL     1      -3.218  -6.182  37.449  1.00  0.00    -0.550 OA
ATOM     13  O   UNL     1      -1.284  -7.276  36.885  1.00  0.00    -0.550 OA
ENDBRANCH  10  11
ENDBRANCH   9  10
ENDBRANCH   8   9
ENDBRANCH   1   8
TORSDOF 8
ENDMDL
MODEL 6
REMARK VINA RESULT:    -3.317      3.200      4.169
REMARK INTER + INTRA:          -5.446
REMARK INTER:                  -5.123
REMARK INTRA:                  -0.324
REMARK UNBOUND:                -0.579
REMARK SMILES O=C([O-])CCCCCCCC(=O)[O-]
REMARK SMILES IDX 7 1 6 2 5 3 4 4 2 5 1 6 3 7 8 8 9 9 10 10 11 11 12 12 13 13
REMARK H PARENT
REMARK Flexibility Score: inf
ROOT
ATOM      1  C   UNL     1      -1.854  -7.769  38.703  1.00  0.00     0.000 C 
ENDROOT
BRANCH   1   2
ATOM      2  C   UNL     1      -3.339  -8.037  38.971  1.00  0.00     0.000 C 
BRANCH   2   3
ATOM      3  C   UNL     1      -4.214  -7.450  37.857  1.00  0.00     0.006 C 
BRANCH   3   4
ATOM      4  C   UNL     1      -3.502  -6.293  37.150  1.00  0.00     0.053 C 
BRANCH   4   5
ATOM      5  C   UNL     1      -4.493  -5.399  36.476  1.00  0.00     0.041 C 
ATOM      6  O   UNL     1      -4.119  -4.602  35.575  1.00  0.00    -0.550 OA
ATOM      7  O   UNL     1      -5.840  -5.481  36.805  1.00  0.00    -0.550 OA
ENDBRANCH   4   5
ENDBRANCH   3   4
ENDBRANCH   2   3
ENDBRANCH   1   2
BRANCH   1   8
ATOM      8  C   UNL     1      -0.972  -8.472  39.742  1.00  0.00     0.000 C 
BRANCH   8   9
ATOM      9  C   UNL     1      -1.812  -9.369  40.662  1.00  0.00     0.006 C 
BRANCH   9  10
ATOM     10  C   UNL     1      -1.265 -10.800  40.736  1.00  0.00     0.053 C 
BRANCH  10  11
ATOM     11  C   UNL     1      -1.617 -11.466  42.031  1.00  0.00     0.041 C 
ATOM     12  O   UNL     1      -2.812 -11.487  42.427  1.00  0.00    -0.550 OA
ATOM     13  O   UNL     1      -0.621 -12.033  42.816  1.00  0.00    -0.550 OA
ENDBRANCH  10  11
ENDBRANCH   9  10
ENDBRANCH   8   9
ENDBRANCH   1   8
TORSDOF 8
ENDMDL
MODEL 7
REMARK VINA RESULT:    -3.279      2.316      3.308
REMARK INTER + INTRA:          -5.391
REMARK INTER:                  -4.722
REMARK INTRA:                  -0.669
REMARK UNBOUND:                -0.579
REMARK SMILES O=C([O-])CCCCCCCC(=O)[O-]
REMARK SMILES IDX 7 1 6 2 5 3 4 4 2 5 1 6 3 7 8 8 9 9 10 10 11 11 12 12 13 13
REMARK H PARENT
REMARK Flexibility Score: inf
ROOT
ATOM      1  C   UNL     1      -0.590  -9.426  38.878  1.00  0.00     0.000 C 
ENDROOT
BRANCH   1   2
ATOM      2  C   UNL     1      -1.228  -8.261  39.644  1.00  0.00     0.000 C 
BRANCH   2   3
ATOM      3  C   UNL     1      -2.421  -7.683  38.875  1.00  0.00     0.006 C 
BRANCH   3   4
ATOM      4  C   UNL     1      -3.498  -8.748  38.650  1.00  0.00     0.053 C 
BRANCH   4   5
ATOM      5  C   UNL     1      -4.627  -8.564  39.614  1.00  0.00     0.041 C 
ATOM      6  O   UNL     1      -4.567  -9.072  40.765  1.00  0.00    -0.550 OA
ATOM      7  O   UNL     1      -5.724  -7.789  39.261  1.00  0.00    -0.550 OA
ENDBRANCH   4   5
ENDBRANCH   3   4
ENDBRANCH   2   3
ENDBRANCH   1   2
BRANCH   1   8
ATOM      8  C   UNL     1      -0.485 -10.675  39.762  1.00  0.00     0.000 C 
BRANCH   8   9
ATOM      9  C   UNL     1      -1.268 -10.491  41.070  1.00  0.00     0.006 C 
BRANCH   9  10
ATOM     10  C   UNL     1      -2.270 -11.627  41.312  1.00  0.00     0.053 C 
BRANCH  10  11
ATOM     11  C   UNL     1      -1.743 -12.638  42.283  1.00  0.00     0.041 C 
ATOM     12  O   UNL     1      -0.715 -12.385  42.965  1.00  0.00    -0.550 OA
ATOM     13  O   UNL     1      -2.367 -13.873  42.410  1.00  0.00    -0.550 OA
ENDBRANCH  10  11
ENDBRANCH   9  10
ENDBRANCH   8   9
ENDBRANCH   1   8
TORSDOF 8
ENDMDL
MODEL 8
REMARK VINA RESULT:    -3.275      3.263      6.656
REMARK INTER + INTRA:          -5.385
REMARK INTER:                  -4.980
REMARK INTRA:                  -0.406
REMARK UNBOUND:                -0.579
REMARK SMILES O=C([O-])CCCCCCCC(=O)[O-]
REMARK SMILES IDX 7 1 6 2 5 3 4 4 2 5 1 6 3 7 8 8 9 9 10 10 11 11 12 12 13 13
REMARK H PARENT
REMARK Flexibility Score: inf
ROOT
ATOM      1  C   UNL     1      -2.844 -13.264  42.164  1.00  0.00     0.000 C 
ENDROOT
BRANCH   1   2
ATOM      2  C   UNL     1      -3.130 -14.770  42.170  1.00  0.00     0.000 C 
BRANCH   2   3
ATOM      3  C   UNL     1      -3.148 -15.321  43.601  1.00  0.00     0.006 C 
BRANCH   3   4
ATOM      4  C   UNL     1      -2.113 -16.437  43.773  1.00  0.00     0.053 C 
BRANCH   4   5
ATOM      5  C   UNL     1      -2.540 -17.667  43.037  1.00  0.00     0.041 C 
ATOM      6  O   UNL     1      -1.714 -18.300  42.328  1.00  0.00    -0.550 OA
ATOM      7  O   UNL     1      -3.836 -18.146  43.176  1.00  0.00    -0.550 OA
ENDBRANCH   4   5
ENDBRANCH   3   4
ENDBRANCH   2   3
ENDBRANCH   1   2
BRANCH   1   8
ATOM      8  C   UNL     1      -1.423 -12.972  42.662  1.00  0.00     0.000 C 
BRANCH   8   9
ATOM      9  C   UNL     1      -1.075 -11.486  42.494  1.00  0.00     0.006 C 
BRANCH   9  10
ATOM     10  C   UNL     1      -1.375 -10.975  41.079  1.00  0.00     0.053 C 
BRANCH  10  11
ATOM     11  C   UNL     1      -2.127  -9.679  41.102  1.00  0.00     0.041 C 
ATOM     12  O   UNL     1      -3.291  -9.631  41.581  1.00  0.00    -0.550 OA
ATOM     13  O   UNL     1      -1.555  -8.533  40.564  1.00  0.00    -0.550 OA
ENDBRANCH  10  11
ENDBRANCH   9  10
ENDBRANCH   8   9
ENDBRANCH   1   8
TORSDOF 8
ENDMDL
MODEL 9
REMARK VINA RESULT:    -3.270      3.697      7.032
REMARK INTER + INTRA:          -5.379
REMARK INTER:                  -5.239
REMARK INTRA:                  -0.140
REMARK UNBOUND:                -0.579
REMARK SMILES O=C([O-])CCCCCCCC(=O)[O-]
REMARK SMILES IDX 7 1 6 2 5 3 4 4 2 5 1 6 3 7 8 8 9 9 10 10 11 11 12 12 13 13
REMARK H PARENT
REMARK Flexibility Score: inf
ROOT
ATOM      1  C   UNL     1      -2.766  -8.052  38.825  1.00  0.00     0.000 C 
ENDROOT
BRANCH   1   2
ATOM      2  C   UNL     1      -1.545  -8.274  39.724  1.00  0.00     0.000 C 
BRANCH   2   3
ATOM      3  C   UNL     1      -1.898  -9.164  40.922  1.00  0.00     0.006 C 
BRANCH   3   4
ATOM      4  C   UNL     1      -1.344 -10.580  40.737  1.00  0.00     0.053 C 
BRANCH   4   5
ATOM      5  C   UNL     1      -1.629 -11.417  41.943  1.00  0.00     0.041 C 
ATOM      6  O   UNL     1      -0.685 -11.820  42.673  1.00  0.00    -0.550 OA
ATOM      7  O   UNL     1      -2.941 -11.709  42.293  1.00  0.00    -0.550 OA
ENDBRANCH   4   5
ENDBRANCH   3   4
ENDBRANCH   2   3
ENDBRANCH   1   2
BRANCH   1   8
ATOM      8  C   UNL     1      -2.431  -7.108  37.664  1.00  0.00     0.000 C 
BRANCH   8   9
ATOM      9  C   UNL     1      -3.659  -6.281  37.254  1.00  0.00     0.006 C 
BRANCH   9  10
ATOM     10  C   UNL     1      -3.678  -5.976  35.751  1.00  0.00     0.053 C 
BRANCH  10  11
ATOM     11  C   UNL     1      -4.401  -4.698  35.451  1.00  0.00     0.041 C 
ATOM     12  O   UNL     1      -5.503  -4.449  36.008  1.00  0.00    -0.550 OA
ATOM     13  O   UNL     1      -3.875  -3.800  34.531  1.00  0.00    -0.550 OA
ENDBRANCH  10  11
ENDBRANCH   9  10
ENDBRANCH   8   9
ENDBRANCH   1   8
TORSDOF 8
ENDMDL
