MODEL 1
REMARK VINA RESULT:    -3.509      0.000      0.000
REMARK INTER + INTRA:          -8.005
REMARK INTER:                  -6.176
REMARK INTRA:                  -1.829
REMARK UNBOUND:                -1.829
REMARK SMILES CCCCCCC=CCCCCCCCC(=O)[O-]
REMARK SMILES IDX 10 1 11 2 12 3 13 4 14 5 15 6 16 7 17 8 18 9 9 10 8 11 7 12
REMARK SMILES IDX 6 13 5 14 4 15 3 16 2 17 1 18
REMARK H PARENT
REMARK Flexibility Score: inf
ROOT
ATOM      1  C   UNL     1      61.588  29.163  59.334  1.00  0.00     0.004 C 
ENDROOT
BRANCH   1   2
ATOM      2  C   UNL     1      61.485  29.179  60.868  1.00  0.00     0.000 C 
BRANCH   2   3
ATOM      3  C   UNL     1      62.736  28.609  61.560  1.00  0.00     0.000 C 
BRANCH   3   4
ATOM      4  C   UNL     1      64.011  29.456  61.401  1.00  0.00     0.000 C 
BRANCH   4   5
ATOM      5  C   UNL     1      65.197  28.653  60.838  1.00  0.00     0.006 C 
BRANCH   5   6
ATOM      6  C   UNL     1      66.436  29.529  60.617  1.00  0.00     0.053 C 
BRANCH   6   7
ATOM      7  C   UNL     1      66.767  29.664  59.161  1.00  0.00     0.041 C 
ATOM      8  O   UNL     1      66.052  29.096  58.294  1.00  0.00    -0.550 OA
ATOM      9  O   UNL     1      67.885  30.388  58.766  1.00  0.00    -0.550 OA
ENDBRANCH   6   7
ENDBRANCH   5   6
ENDBRANCH   4   5
ENDBRANCH   3   4
ENDBRANCH   2   3
ENDBRANCH   1   2
BRANCH   1  10
ATOM     10  C   UNL     1      61.152  30.499  58.711  1.00  0.00     0.027 C 
BRANCH  10  11
ATOM     11  C   UNL     1      62.166  31.591  58.927  1.00  0.00    -0.031 C 
ATOM     12  C   UNL     1      63.424  31.481  58.475  1.00  0.00    -0.031 C 
BRANCH  12  13
ATOM     13  C   UNL     1      64.439  32.571  58.693  1.00  0.00     0.027 C 
BRANCH  13  14
ATOM     14  C   UNL     1      64.743  32.796  60.182  1.00  0.00     0.004 C 
BRANCH  14  15
ATOM     15  C   UNL     1      64.942  34.286  60.513  1.00  0.00     0.000 C 
BRANCH  15  16
ATOM     16  C   UNL     1      63.612  35.043  60.652  1.00  0.00    -0.000 C 
BRANCH  16  17
ATOM     17  C   UNL     1      63.641  36.082  61.783  1.00  0.00    -0.003 C 
ATOM     18  C   UNL     1      64.880  35.907  62.657  1.00  0.00     0.004 C 
ENDBRANCH  16  17
ENDBRANCH  15  16
ENDBRANCH  14  15
ENDBRANCH  13  14
ENDBRANCH  12  13
ENDBRANCH  10  11
ENDBRANCH   1  10
TORSDOF 13
ENDMDL
MODEL 2
REMARK VINA RESULT:    -3.304     13.319     15.385
REMARK INTER + INTRA:          -7.643
REMARK INTER:                  -6.884
REMARK INTRA:                  -0.760
REMARK UNBOUND:                -1.829
REMARK SMILES CCCCCCC=CCCCCCCCC(=O)[O-]
REMARK SMILES IDX 10 1 11 2 12 3 13 4 14 5 15 6 16 7 17 8 18 9 9 10 8 11 7 12
REMARK SMILES IDX 6 13 5 14 4 15 3 16 2 17 1 18
REMARK H PARENT
REMARK Flexibility Score: inf
ROOT
ATOM      1  C   UNL     1      61.931  22.611  50.680  1.00  0.00     0.004 C 
ENDROOT
BRANCH   1   2
ATOM      2  C   UNL     1      61.418  22.067  49.336  1.00  0.00     0.000 C 
BRANCH   2   3
ATOM      3  C   UNL     1      60.527  20.822  49.494  1.00  0.00     0.000 C 
BRANCH   3   4
ATOM      4  C   UNL     1      61.029  19.788  50.517  1.00  0.00     0.000 C 
BRANCH   4   5
ATOM      5  C   UNL     1      60.077  18.588  50.671  1.00  0.00     0.006 C 
BRANCH   5   6
ATOM      6  C   UNL     1      59.157  18.420  49.455  1.00  0.00     0.053 C 
BRANCH   6   7
ATOM      7  C   UNL     1      58.553  17.050  49.403  1.00  0.00     0.041 C 
ATOM      8  O   UNL     1      57.727  16.687  50.283  1.00  0.00    -0.550 OA
ATOM      9  O   UNL     1      58.928  16.161  48.403  1.00  0.00    -0.550 OA
ENDBRANCH   6   7
ENDBRANCH   5   6
ENDBRANCH   4   5
ENDBRANCH   3   4
ENDBRANCH   2   3
ENDBRANCH   1   2
BRANCH   1  10
ATOM     10  C   UNL     1      61.739  24.131  50.800  1.00  0.00     0.027 C 
BRANCH  10  11
ATOM     11  C   UNL     1      60.507  24.612  50.080  1.00  0.00    -0.031 C 
ATOM     12  C   UNL     1      59.336  24.766  50.716  1.00  0.00    -0.031 C 
BRANCH  12  13
ATOM     13  C   UNL     1      58.104  25.243  49.996  1.00  0.00     0.027 C 
BRANCH  13  14
ATOM     14  C   UNL     1      57.096  25.912  50.945  1.00  0.00     0.004 C 
BRANCH  14  15
ATOM     15  C   UNL     1      55.643  25.701  50.485  1.00  0.00     0.000 C 
BRANCH  15  16
ATOM     16  C   UNL     1      54.914  27.023  50.204  1.00  0.00    -0.000 C 
BRANCH  16  17
ATOM     17  C   UNL     1      53.876  26.897  49.079  1.00  0.00    -0.003 C 
ATOM     18  C   UNL     1      54.112  25.634  48.255  1.00  0.00     0.004 C 
ENDBRANCH  16  17
ENDBRANCH  15  16
ENDBRANCH  14  15
ENDBRANCH  13  14
ENDBRANCH  12  13
ENDBRANCH  10  11
ENDBRANCH   1  10
TORSDOF 13
ENDMDL
MODEL 3
REMARK VINA RESULT:    -3.165      4.446      7.052
REMARK INTER + INTRA:          -7.400
REMARK INTER:                  -6.598
REMARK INTRA:                  -0.802
REMARK UNBOUND:                -1.829
REMARK SMILES CCCCCCC=CCCCCCCCC(=O)[O-]
REMARK SMILES IDX 10 1 11 2 12 3 13 4 14 5 15 6 16 7 17 8 18 9 9 10 8 11 7 12
REMARK SMILES IDX 6 13 5 14 4 15 3 16 2 17 1 18
REMARK H PARENT
REMARK Flexibility Score: inf
ROOT
ATOM      1  C   UNL     1      66.993  29.273  60.573  1.00  0.00     0.004 C 
ENDROOT
BRANCH   1   2
ATOM      2  C   UNL     1      65.491  29.007  60.771  1.00  0.00     0.000 C 
BRANCH   2   3
ATOM      3  C   UNL     1      64.616  30.226  60.431  1.00  0.00     0.000 C 
BRANCH   3   4
ATOM      4  C   UNL     1      65.105  31.563  61.016  1.00  0.00     0.000 C 
BRANCH   4   5
ATOM      5  C   UNL     1      65.048  32.718  60.001  1.00  0.00     0.006 C 
BRANCH   5   6
ATOM      6  C   UNL     1      64.858  34.079  60.682  1.00  0.00     0.053 C 
BRANCH   6   7
ATOM      7  C   UNL     1      63.524  34.679  60.361  1.00  0.00     0.041 C 
ATOM      8  O   UNL     1      63.067  35.621  61.063  1.00  0.00    -0.550 OA
ATOM      9  O   UNL     1      62.768  34.175  59.311  1.00  0.00    -0.550 OA
ENDBRANCH   6   7
ENDBRANCH   5   6
ENDBRANCH   4   5
ENDBRANCH   3   4
ENDBRANCH   2   3
ENDBRANCH   1   2
BRANCH   1  10
ATOM     10  C   UNL     1      67.864  28.323  61.410  1.00  0.00     0.027 C 
BRANCH  10  11
ATOM     11  C   UNL     1      69.281  28.250  60.907  1.00  0.00    -0.031 C 
ATOM     12  C   UNL     1      70.239  29.058  61.385  1.00  0.00    -0.031 C 
BRANCH  12  13
ATOM     13  C   UNL     1      71.655  28.988  60.881  1.00  0.00     0.027 C 
BRANCH  13  14
ATOM     14  C   UNL     1      72.616  29.845  61.719  1.00  0.00     0.004 C 
BRANCH  14  15
ATOM     15  C   UNL     1      73.312  30.927  60.874  1.00  0.00     0.000 C 
BRANCH  15  16
ATOM     16  C   UNL     1      72.686  31.079  59.478  1.00  0.00    -0.000 C 
BRANCH  16  17
ATOM     17  C   UNL     1      71.847  32.358  59.345  1.00  0.00    -0.003 C 
ATOM     18  C   UNL     1      72.084  33.295  60.526  1.00  0.00     0.004 C 
ENDBRANCH  16  17
ENDBRANCH  15  16
ENDBRANCH  14  15
ENDBRANCH  13  14
ENDBRANCH  12  13
ENDBRANCH  10  11
ENDBRANCH   1  10
TORSDOF 13
ENDMDL
MODEL 4
REMARK VINA RESULT:    -3.126     12.447     15.710
REMARK INTER + INTRA:          -7.332
REMARK INTER:                  -6.353
REMARK INTRA:                  -0.978
REMARK UNBOUND:                -1.829
REMARK SMILES CCCCCCC=CCCCCCCCC(=O)[O-]
REMARK SMILES IDX 10 1 11 2 12 3 13 4 14 5 15 6 16 7 17 8 18 9 9 10 8 11 7 12
REMARK SMILES IDX 6 13 5 14 4 15 3 16 2 17 1 18
REMARK H PARENT
REMARK Flexibility Score: inf
ROOT
ATOM      1  C   UNL     1      61.766  25.458  50.083  1.00  0.00     0.004 C 
ENDROOT
BRANCH   1   2
ATOM      2  C   UNL     1      60.483  26.195  49.661  1.00  0.00     0.000 C 
BRANCH   2   3
ATOM      3  C   UNL     1      59.334  26.025  50.671  1.00  0.00     0.000 C 
BRANCH   3   4
ATOM      4  C   UNL     1      58.133  25.210  50.159  1.00  0.00     0.000 C 
BRANCH   4   5
ATOM      5  C   UNL     1      56.793  25.682  50.750  1.00  0.00     0.006 C 
BRANCH   5   6
ATOM      6  C   UNL     1      55.665  25.670  49.711  1.00  0.00     0.053 C 
BRANCH   6   7
ATOM      7  C   UNL     1      54.643  26.730  49.988  1.00  0.00     0.041 C 
ATOM      8  O   UNL     1      53.986  27.240  49.042  1.00  0.00    -0.550 OA
ATOM      9  O   UNL     1      54.442  27.180  51.287  1.00  0.00    -0.550 OA
ENDBRANCH   6   7
ENDBRANCH   5   6
ENDBRANCH   4   5
ENDBRANCH   3   4
ENDBRANCH   2   3
ENDBRANCH   1   2
BRANCH   1  10
ATOM     10  C   UNL     1      61.503  24.427  51.192  1.00  0.00     0.027 C 
BRANCH  10  11
ATOM     11  C   UNL     1      61.607  23.010  50.694  1.00  0.00    -0.031 C 
ATOM     12  C   UNL     1      60.772  22.531  49.760  1.00  0.00    -0.031 C 
BRANCH  12  13
ATOM     13  C   UNL     1      60.872  21.113  49.264  1.00  0.00     0.027 C 
BRANCH  13  14
ATOM     14  C   UNL     1      61.411  20.156  50.338  1.00  0.00     0.004 C 
BRANCH  14  15
ATOM     15  C   UNL     1      60.384  19.073  50.714  1.00  0.00     0.000 C 
BRANCH  15  16
ATOM     16  C   UNL     1      59.256  18.943  49.679  1.00  0.00    -0.000 C 
BRANCH  16  17
ATOM     17  C   UNL     1      58.422  17.669  49.873  1.00  0.00    -0.003 C 
ATOM     18  C   UNL     1      59.214  16.428  49.470  1.00  0.00     0.004 C 
ENDBRANCH  16  17
ENDBRANCH  15  16
ENDBRANCH  14  15
ENDBRANCH  13  14
ENDBRANCH  12  13
ENDBRANCH  10  11
ENDBRANCH   1  10
TORSDOF 13
ENDMDL
MODEL 5
REMARK VINA RESULT:    -3.075      1.548      2.512
REMARK INTER + INTRA:          -7.240
REMARK INTER:                  -4.953
REMARK INTRA:                  -2.287
REMARK UNBOUND:                -1.829
REMARK SMILES CCCCCCC=CCCCCCCCC(=O)[O-]
REMARK SMILES IDX 10 1 11 2 12 3 13 4 14 5 15 6 16 7 17 8 18 9 9 10 8 11 7 12
REMARK SMILES IDX 6 13 5 14 4 15 3 16 2 17 1 18
REMARK H PARENT
REMARK Flexibility Score: inf
ROOT
ATOM      1  C   UNL     1      61.658  30.304  59.466  1.00  0.00     0.004 C 
ENDROOT
BRANCH   1   2
ATOM      2  C   UNL     1      61.406  29.078  60.361  1.00  0.00     0.000 C 
BRANCH   2   3
ATOM      3  C   UNL     1      62.498  28.877  61.426  1.00  0.00     0.000 C 
BRANCH   3   4
ATOM      4  C   UNL     1      63.218  27.517  61.370  1.00  0.00     0.000 C 
BRANCH   4   5
ATOM      5  C   UNL     1      64.615  27.606  60.731  1.00  0.00     0.006 C 
BRANCH   5   6
ATOM      6  C   UNL     1      65.384  28.851  61.190  1.00  0.00     0.053 C 
BRANCH   6   7
ATOM      7  C   UNL     1      66.787  28.861  60.665  1.00  0.00     0.041 C 
ATOM      8  O   UNL     1      67.152  29.751  59.851  1.00  0.00    -0.550 OA
ATOM      9  O   UNL     1      67.681  27.869  61.047  1.00  0.00    -0.550 OA
ENDBRANCH   6   7
ENDBRANCH   5   6
ENDBRANCH   4   5
ENDBRANCH   3   4
ENDBRANCH   2   3
ENDBRANCH   1   2
BRANCH   1  10
ATOM     10  C   UNL     1      62.798  30.064  58.465  1.00  0.00     0.027 C 
BRANCH  10  11
ATOM     11  C   UNL     1      63.946  31.018  58.663  1.00  0.00    -0.031 C 
ATOM     12  C   UNL     1      64.014  31.824  59.733  1.00  0.00    -0.031 C 
BRANCH  12  13
ATOM     13  C   UNL     1      65.159  32.780  59.930  1.00  0.00     0.027 C 
BRANCH  13  14
ATOM     14  C   UNL     1      64.782  34.224  59.563  1.00  0.00     0.004 C 
BRANCH  14  15
ATOM     15  C   UNL     1      63.377  34.600  60.065  1.00  0.00     0.000 C 
BRANCH  15  16
ATOM     16  C   UNL     1      62.457  35.089  58.935  1.00  0.00    -0.000 C 
BRANCH  16  17
ATOM     17  C   UNL     1      61.282  34.134  58.678  1.00  0.00    -0.003 C 
ATOM     18  C   UNL     1      61.425  33.439  57.327  1.00  0.00     0.004 C 
ENDBRANCH  16  17
ENDBRANCH  15  16
ENDBRANCH  14  15
ENDBRANCH  13  14
ENDBRANCH  12  13
ENDBRANCH  10  11
ENDBRANCH   1  10
TORSDOF 13
ENDMDL
MODEL 6
REMARK VINA RESULT:    -3.058      3.931      6.603
REMARK INTER + INTRA:          -7.212
REMARK INTER:                  -6.072
REMARK INTRA:                  -1.140
REMARK UNBOUND:                -1.829
REMARK SMILES CCCCCCC=CCCCCCCCC(=O)[O-]
REMARK SMILES IDX 10 1 11 2 12 3 13 4 14 5 15 6 16 7 17 8 18 9 9 10 8 11 7 12
REMARK SMILES IDX 6 13 5 14 4 15 3 16 2 17 1 18
REMARK H PARENT
REMARK Flexibility Score: inf
ROOT
ATOM      1  C   UNL     1      69.623  27.810  60.576  1.00  0.00     0.004 C 
ENDROOT
BRANCH   1   2
ATOM      2  C   UNL     1      70.998  28.464  60.358  1.00  0.00     0.000 C 
BRANCH   2   3
ATOM      3  C   UNL     1      71.260  29.644  61.311  1.00  0.00     0.000 C 
BRANCH   3   4
ATOM      4  C   UNL     1      72.741  30.025  61.482  1.00  0.00     0.000 C 
BRANCH   4   5
ATOM      5  C   UNL     1      73.199  31.110  60.491  1.00  0.00     0.006 C 
BRANCH   5   6
ATOM      6  C   UNL     1      72.217  32.286  60.428  1.00  0.00     0.053 C 
BRANCH   6   7
ATOM      7  C   UNL     1      71.718  32.518  59.034  1.00  0.00     0.041 C 
ATOM      8  O   UNL     1      72.101  33.526  58.383  1.00  0.00    -0.550 OA
ATOM      9  O   UNL     1      70.802  31.641  58.467  1.00  0.00    -0.550 OA
ENDBRANCH   6   7
ENDBRANCH   5   6
ENDBRANCH   4   5
ENDBRANCH   3   4
ENDBRANCH   2   3
ENDBRANCH   1   2
BRANCH   1  10
ATOM     10  C   UNL     1      68.808  28.526  61.665  1.00  0.00     0.027 C 
BRANCH  10  11
ATOM     11  C   UNL     1      67.360  28.687  61.286  1.00  0.00    -0.031 C 
ATOM     12  C   UNL     1      66.700  27.733  60.612  1.00  0.00    -0.031 C 
BRANCH  12  13
ATOM     13  C   UNL     1      65.253  27.894  60.230  1.00  0.00     0.027 C 
BRANCH  13  14
ATOM     14  C   UNL     1      65.083  28.460  58.812  1.00  0.00     0.004 C 
BRANCH  14  15
ATOM     15  C   UNL     1      65.263  29.987  58.774  1.00  0.00     0.000 C 
BRANCH  15  16
ATOM     16  C   UNL     1      64.380  30.712  59.801  1.00  0.00    -0.000 C 
BRANCH  16  17
ATOM     17  C   UNL     1      65.180  31.676  60.690  1.00  0.00    -0.003 C 
ATOM     18  C   UNL     1      64.845  33.129  60.362  1.00  0.00     0.004 C 
ENDBRANCH  16  17
ENDBRANCH  15  16
ENDBRANCH  14  15
ENDBRANCH  13  14
ENDBRANCH  12  13
ENDBRANCH  10  11
ENDBRANCH   1  10
TORSDOF 13
ENDMDL
MODEL 7
REMARK VINA RESULT:    -3.052      1.972      5.231
REMARK INTER + INTRA:          -7.200
REMARK INTER:                  -5.042
REMARK INTRA:                  -2.158
REMARK UNBOUND:                -1.829
REMARK SMILES CCCCCCC=CCCCCCCCC(=O)[O-]
REMARK SMILES IDX 10 1 11 2 12 3 13 4 14 5 15 6 16 7 17 8 18 9 9 10 8 11 7 12
REMARK SMILES IDX 6 13 5 14 4 15 3 16 2 17 1 18
REMARK H PARENT
REMARK Flexibility Score: inf
ROOT
ATOM      1  C   UNL     1      63.657  32.217  58.008  1.00  0.00     0.004 C 
ENDROOT
BRANCH   1   2
ATOM      2  C   UNL     1      63.698  32.831  59.418  1.00  0.00     0.000 C 
BRANCH   2   3
ATOM      3  C   UNL     1      65.044  32.609  60.131  1.00  0.00     0.000 C 
BRANCH   3   4
ATOM      4  C   UNL     1      65.154  31.289  60.916  1.00  0.00     0.000 C 
BRANCH   4   5
ATOM      5  C   UNL     1      65.992  30.226  60.184  1.00  0.00     0.006 C 
BRANCH   5   6
ATOM      6  C   UNL     1      66.184  28.959  61.028  1.00  0.00     0.053 C 
BRANCH   6   7
ATOM      7  C   UNL     1      67.570  28.406  60.890  1.00  0.00     0.041 C 
ATOM      8  O   UNL     1      68.402  28.545  61.825  1.00  0.00    -0.550 OA
ATOM      9  O   UNL     1      67.953  27.770  59.716  1.00  0.00    -0.550 OA
ENDBRANCH   6   7
ENDBRANCH   5   6
ENDBRANCH   4   5
ENDBRANCH   3   4
ENDBRANCH   2   3
ENDBRANCH   1   2
BRANCH   1  10
ATOM     10  C   UNL     1      62.467  31.261  57.829  1.00  0.00     0.027 C 
BRANCH  10  11
ATOM     11  C   UNL     1      62.384  30.235  58.927  1.00  0.00    -0.031 C 
ATOM     12  C   UNL     1      61.254  30.039  59.621  1.00  0.00    -0.031 C 
BRANCH  12  13
ATOM     13  C   UNL     1      61.170  29.015  60.722  1.00  0.00     0.027 C 
BRANCH  13  14
ATOM     14  C   UNL     1      62.524  28.790  61.413  1.00  0.00     0.004 C 
BRANCH  14  15
ATOM     15  C   UNL     1      62.745  27.313  61.783  1.00  0.00     0.000 C 
BRANCH  15  16
ATOM     16  C   UNL     1      62.719  26.386  60.558  1.00  0.00    -0.000 C 
BRANCH  16  17
ATOM     17  C   UNL     1      63.858  26.682  59.571  1.00  0.00    -0.003 C 
ATOM     18  C   UNL     1      63.333  26.783  58.141  1.00  0.00     0.004 C 
ENDBRANCH  16  17
ENDBRANCH  15  16
ENDBRANCH  14  15
ENDBRANCH  13  14
ENDBRANCH  12  13
ENDBRANCH  10  11
ENDBRANCH   1  10
TORSDOF 13
ENDMDL
MODEL 8
REMARK VINA RESULT:    -3.021     10.792     12.789
REMARK INTER + INTRA:          -7.145
REMARK INTER:                  -4.985
REMARK INTRA:                  -2.160
REMARK UNBOUND:                -1.829
REMARK SMILES CCCCCCC=CCCCCCCCC(=O)[O-]
REMARK SMILES IDX 10 1 11 2 12 3 13 4 14 5 15 6 16 7 17 8 18 9 9 10 8 11 7 12
REMARK SMILES IDX 6 13 5 14 4 15 3 16 2 17 1 18
REMARK H PARENT
REMARK Flexibility Score: inf
ROOT
ATOM      1  C   UNL     1      64.893  25.347  50.181  1.00  0.00     0.004 C 
ENDROOT
BRANCH   1   2
ATOM      2  C   UNL     1      66.092  25.663  49.271  1.00  0.00     0.000 C 
BRANCH   2   3
ATOM      3  C   UNL     1      66.170  27.147  48.872  1.00  0.00     0.000 C 
BRANCH   3   4
ATOM      4  C   UNL     1      65.495  27.497  47.533  1.00  0.00     0.000 C 
BRANCH   4   5
ATOM      5  C   UNL     1      64.799  28.869  47.555  1.00  0.00     0.006 C 
BRANCH   5   6
ATOM      6  C   UNL     1      65.065  29.632  48.858  1.00  0.00     0.053 C 
BRANCH   6   7
ATOM      7  C   UNL     1      64.030  30.688  49.104  1.00  0.00     0.041 C 
ATOM      8  O   UNL     1      62.873  30.364  49.482  1.00  0.00    -0.550 OA
ATOM      9  O   UNL     1      64.332  32.025  48.881  1.00  0.00    -0.550 OA
ENDBRANCH   6   7
ENDBRANCH   5   6
ENDBRANCH   4   5
ENDBRANCH   3   4
ENDBRANCH   2   3
ENDBRANCH   1   2
BRANCH   1  10
ATOM     10  C   UNL     1      64.380  26.596  50.915  1.00  0.00     0.027 C 
BRANCH  10  11
ATOM     11  C   UNL     1      62.905  26.817  50.710  1.00  0.00    -0.031 C 
ATOM     12  C   UNL     1      62.380  26.958  49.484  1.00  0.00    -0.031 C 
BRANCH  12  13
ATOM     13  C   UNL     1      60.906  27.183  49.278  1.00  0.00     0.027 C 
BRANCH  13  14
ATOM     14  C   UNL     1      60.054  26.497  50.358  1.00  0.00     0.004 C 
BRANCH  14  15
ATOM     15  C   UNL     1      59.331  25.251  49.818  1.00  0.00     0.000 C 
BRANCH  15  16
ATOM     16  C   UNL     1      59.705  23.972  50.583  1.00  0.00    -0.000 C 
BRANCH  16  17
ATOM     17  C   UNL     1      60.810  23.167  49.882  1.00  0.00    -0.003 C 
ATOM     18  C   UNL     1      62.082  23.134  50.723  1.00  0.00     0.004 C 
ENDBRANCH  16  17
ENDBRANCH  15  16
ENDBRANCH  14  15
ENDBRANCH  13  14
ENDBRANCH  12  13
ENDBRANCH  10  11
ENDBRANCH   1  10
TORSDOF 13
ENDMDL
MODEL 9
REMARK VINA RESULT:    -3.014      1.373      1.956
REMARK INTER + INTRA:          -7.134
REMARK INTER:                  -5.555
REMARK INTRA:                  -1.579
REMARK UNBOUND:                -1.829
REMARK SMILES CCCCCCC=CCCCCCCCC(=O)[O-]
REMARK SMILES IDX 10 1 11 2 12 3 13 4 14 5 15 6 16 7 17 8 18 9 9 10 8 11 7 12
REMARK SMILES IDX 6 13 5 14 4 15 3 16 2 17 1 18
REMARK H PARENT
REMARK Flexibility Score: inf
ROOT
ATOM      1  C   UNL     1      62.072  28.842  59.162  1.00  0.00     0.004 C 
ENDROOT
BRANCH   1   2
ATOM      2  C   UNL     1      61.699  28.654  60.642  1.00  0.00     0.000 C 
BRANCH   2   3
ATOM      3  C   UNL     1      62.848  29.011  61.602  1.00  0.00     0.000 C 
BRANCH   3   4
ATOM      4  C   UNL     1      64.260  28.878  61.004  1.00  0.00     0.000 C 
BRANCH   4   5
ATOM      5  C   UNL     1      65.101  30.156  61.165  1.00  0.00     0.006 C 
BRANCH   5   6
ATOM      6  C   UNL     1      64.600  31.295  60.268  1.00  0.00     0.053 C 
BRANCH   6   7
ATOM      7  C   UNL     1      65.332  31.335  58.962  1.00  0.00     0.041 C 
ATOM      8  O   UNL     1      65.985  32.361  58.632  1.00  0.00    -0.550 OA
ATOM      9  O   UNL     1      65.265  30.254  58.092  1.00  0.00    -0.550 OA
ENDBRANCH   6   7
ENDBRANCH   5   6
ENDBRANCH   4   5
ENDBRANCH   3   4
ENDBRANCH   2   3
ENDBRANCH   1   2
BRANCH   1  10
ATOM     10  C   UNL     1      61.136  29.831  58.451  1.00  0.00     0.027 C 
BRANCH  10  11
ATOM     11  C   UNL     1      61.238  31.224  59.013  1.00  0.00    -0.031 C 
ATOM     12  C   UNL     1      61.261  32.303  58.217  1.00  0.00    -0.031 C 
BRANCH  12  13
ATOM     13  C   UNL     1      61.367  33.696  58.778  1.00  0.00     0.027 C 
BRANCH  13  14
ATOM     14  C   UNL     1      62.820  34.192  58.838  1.00  0.00     0.004 C 
BRANCH  14  15
ATOM     15  C   UNL     1      62.931  35.572  59.510  1.00  0.00     0.000 C 
BRANCH  15  16
ATOM     16  C   UNL     1      63.272  35.476  61.005  1.00  0.00    -0.000 C 
BRANCH  16  17
ATOM     17  C   UNL     1      64.662  34.873  61.254  1.00  0.00    -0.003 C 
ATOM     18  C   UNL     1      65.327  35.512  62.471  1.00  0.00     0.004 C 
ENDBRANCH  16  17
ENDBRANCH  15  16
ENDBRANCH  14  15
ENDBRANCH  13  14
ENDBRANCH  12  13
ENDBRANCH  10  11
ENDBRANCH   1  10
TORSDOF 13
ENDMDL
