MODEL 1
REMARK VINA RESULT:    -5.259      0.000      0.000
REMARK INTER + INTRA:          -5.721
REMARK INTER:                  -5.721
REMARK INTRA:                   0.000
REMARK UNBOUND:                 0.000
REMARK SMILES Oc1cccc(O)c1O
REMARK SMILES IDX 4 1 5 2 6 3 8 4 2 5 3 6 7 7 1 9 9 11
REMARK H PARENT 7 8 1 10 9 12
REMARK Flexibility Score: inf
ROOT
ATOM      1  C   UNL     1     -33.701  44.821  38.847  1.00  0.00     0.008 A 
ATOM      2  C   UNL     1     -32.386  45.014  38.422  1.00  0.00     0.050 A 
ATOM      3  C   UNL     1     -32.112  45.739  37.256  1.00  0.00     0.161 A 
ATOM      4  C   UNL     1     -33.185  46.280  36.503  1.00  0.00     0.200 A 
ATOM      5  C   UNL     1     -34.505  46.081  36.940  1.00  0.00     0.161 A 
ATOM      6  C   UNL     1     -34.758  45.353  38.109  1.00  0.00     0.050 A 
ENDROOT
BRANCH   3   7
ATOM      7  O   UNL     1     -30.775  45.895  36.885  1.00  0.00    -0.504 OA
ATOM      8  H   UNL     1     -30.086  45.158  36.930  1.00  0.00     0.293 HD
ENDBRANCH   3   7
BRANCH   5   9
ATOM      9  O   UNL     1     -35.561  46.613  36.202  1.00  0.00    -0.504 OA
ATOM     10  H   UNL     1     -36.469  46.780  36.620  1.00  0.00     0.293 HD
ENDBRANCH   5   9
BRANCH   4  11
ATOM     11  O   UNL     1     -32.984  47.013  35.331  1.00  0.00    -0.502 OA
ATOM     12  H   UNL     1     -32.128  47.002  34.797  1.00  0.00     0.293 HD
ENDBRANCH   4  11
TORSDOF 3
ENDMDL
MODEL 2
REMARK VINA RESULT:    -5.132      1.041      2.815
REMARK INTER + INTRA:          -5.582
REMARK INTER:                  -5.582
REMARK INTRA:                   0.000
REMARK UNBOUND:                 0.000
REMARK SMILES Oc1cccc(O)c1O
REMARK SMILES IDX 4 1 5 2 6 3 8 4 2 5 3 6 7 7 1 9 9 11
REMARK H PARENT 7 8 1 10 9 12
REMARK Flexibility Score: inf
ROOT
ATOM      1  C   UNL     1     -34.958  45.513  38.228  1.00  0.00     0.008 A 
ATOM      2  C   UNL     1     -34.627  46.191  37.054  1.00  0.00     0.050 A 
ATOM      3  C   UNL     1     -33.305  46.218  36.594  1.00  0.00     0.161 A 
ATOM      4  C   UNL     1     -32.297  45.547  37.332  1.00  0.00     0.200 A 
ATOM      5  C   UNL     1     -32.641  44.867  38.511  1.00  0.00     0.161 A 
ATOM      6  C   UNL     1     -33.969  44.853  38.955  1.00  0.00     0.050 A 
ENDROOT
BRANCH   3   7
ATOM      7  O   UNL     1     -33.040  46.914  35.413  1.00  0.00    -0.504 OA
ATOM      8  H   UNL     1     -33.639  47.634  35.035  1.00  0.00     0.293 HD
ENDBRANCH   3   7
BRANCH   5   9
ATOM      9  O   UNL     1     -31.651  44.207  39.238  1.00  0.00    -0.504 OA
ATOM     10  H   UNL     1     -31.871  43.425  39.844  1.00  0.00     0.293 HD
ENDBRANCH   5   9
BRANCH   4  11
ATOM     11  O   UNL     1     -30.959  45.533  36.932  1.00  0.00    -0.502 OA
ATOM     12  H   UNL     1     -30.221  46.034  37.405  1.00  0.00     0.293 HD
ENDBRANCH   4  11
TORSDOF 3
ENDMDL
MODEL 3
REMARK VINA RESULT:    -5.050      0.874      2.902
REMARK INTER + INTRA:          -5.492
REMARK INTER:                  -5.492
REMARK INTRA:                   0.000
REMARK UNBOUND:                 0.000
REMARK SMILES Oc1cccc(O)c1O
REMARK SMILES IDX 4 1 5 2 6 3 8 4 2 5 3 6 7 7 1 9 9 11
REMARK H PARENT 7 8 1 10 9 12
REMARK Flexibility Score: inf
ROOT
ATOM      1  C   UNL     1     -33.238  44.496  39.513  1.00  0.00     0.008 A 
ATOM      2  C   UNL     1     -34.514  44.926  39.146  1.00  0.00     0.050 A 
ATOM      3  C   UNL     1     -34.698  45.725  38.011  1.00  0.00     0.161 A 
ATOM      4  C   UNL     1     -33.573  46.097  37.231  1.00  0.00     0.200 A 
ATOM      5  C   UNL     1     -32.294  45.658  37.609  1.00  0.00     0.161 A 
ATOM      6  C   UNL     1     -32.131  44.860  38.748  1.00  0.00     0.050 A 
ENDROOT
BRANCH   3   7
ATOM      7  O   UNL     1     -35.999  46.123  37.698  1.00  0.00    -0.504 OA
ATOM      8  H   UNL     1     -36.485  45.853  36.854  1.00  0.00     0.293 HD
ENDBRANCH   3   7
BRANCH   5   9
ATOM      9  O   UNL     1     -31.188  46.022  36.844  1.00  0.00    -0.504 OA
ATOM     10  H   UNL     1     -30.844  45.434  36.094  1.00  0.00     0.293 HD
ENDBRANCH   5   9
BRANCH   4  11
ATOM     11  O   UNL     1     -33.684  46.892  36.087  1.00  0.00    -0.502 OA
ATOM     12  H   UNL     1     -33.098  47.691  35.895  1.00  0.00     0.293 HD
ENDBRANCH   4  11
TORSDOF 3
ENDMDL
MODEL 4
REMARK VINA RESULT:    -5.046      1.199      2.038
REMARK INTER + INTRA:          -5.489
REMARK INTER:                  -5.489
REMARK INTRA:                   0.000
REMARK UNBOUND:                 0.000
REMARK SMILES Oc1cccc(O)c1O
REMARK SMILES IDX 4 1 5 2 6 3 8 4 2 5 3 6 7 7 1 9 9 11
REMARK H PARENT 7 8 1 10 9 12
REMARK Flexibility Score: inf
ROOT
ATOM      1  C   UNL     1     -34.832  45.242  38.745  1.00  0.00     0.008 A 
ATOM      2  C   UNL     1     -33.748  44.600  39.344  1.00  0.00     0.050 A 
ATOM      3  C   UNL     1     -32.472  44.668  38.771  1.00  0.00     0.161 A 
ATOM      4  C   UNL     1     -32.286  45.399  37.570  1.00  0.00     0.200 A 
ATOM      5  C   UNL     1     -33.383  46.042  36.976  1.00  0.00     0.161 A 
ATOM      6  C   UNL     1     -34.651  45.962  37.565  1.00  0.00     0.050 A 
ENDROOT
BRANCH   3   7
ATOM      7  O   UNL     1     -31.430  44.003  39.420  1.00  0.00    -0.504 OA
ATOM      8  H   UNL     1     -31.154  43.052  39.219  1.00  0.00     0.293 HD
ENDBRANCH   3   7
BRANCH   5   9
ATOM      9  O   UNL     1     -33.203  46.762  35.796  1.00  0.00    -0.504 OA
ATOM     10  H   UNL     1     -32.410  47.379  35.667  1.00  0.00     0.293 HD
ENDBRANCH   5   9
BRANCH   4  11
ATOM     11  O   UNL     1     -31.042  45.509  36.944  1.00  0.00    -0.502 OA
ATOM     12  H   UNL     1     -30.551  44.735  36.521  1.00  0.00     0.293 HD
ENDBRANCH   4  11
TORSDOF 3
ENDMDL
MODEL 5
REMARK VINA RESULT:    -4.956     13.177     14.333
REMARK INTER + INTRA:          -5.391
REMARK INTER:                  -5.391
REMARK INTRA:                   0.000
REMARK UNBOUND:                 0.000
REMARK SMILES Oc1cccc(O)c1O
REMARK SMILES IDX 4 1 5 2 6 3 8 4 2 5 3 6 7 7 1 9 9 11
REMARK H PARENT 7 8 1 10 9 12
REMARK Flexibility Score: inf
ROOT
ATOM      1  C   UNL     1     -38.231  38.920  46.068  1.00  0.00     0.008 A 
ATOM      2  C   UNL     1     -37.909  38.551  47.374  1.00  0.00     0.050 A 
ATOM      3  C   UNL     1     -38.917  38.269  48.305  1.00  0.00     0.161 A 
ATOM      4  C   UNL     1     -40.275  38.361  47.910  1.00  0.00     0.200 A 
ATOM      5  C   UNL     1     -40.589  38.732  46.593  1.00  0.00     0.161 A 
ATOM      6  C   UNL     1     -39.566  39.010  45.677  1.00  0.00     0.050 A 
ENDROOT
BRANCH   3   7
ATOM      7  O   UNL     1     -38.528  37.906  49.596  1.00  0.00    -0.504 OA
ATOM      8  H   UNL     1     -39.058  38.123  50.428  1.00  0.00     0.293 HD
ENDBRANCH   3   7
BRANCH   5   9
ATOM      9  O   UNL     1     -41.924  38.822  46.202  1.00  0.00    -0.504 OA
ATOM     10  H   UNL     1     -42.404  39.713  46.155  1.00  0.00     0.293 HD
ENDBRANCH   5   9
BRANCH   4  11
ATOM     11  O   UNL     1     -41.331  38.094  48.786  1.00  0.00    -0.502 OA
ATOM     12  H   UNL     1     -42.122  38.706  48.922  1.00  0.00     0.293 HD
ENDBRANCH   4  11
TORSDOF 3
ENDMDL
MODEL 6
REMARK VINA RESULT:    -4.936      3.017      4.032
REMARK INTER + INTRA:          -5.369
REMARK INTER:                  -5.369
REMARK INTRA:                   0.000
REMARK UNBOUND:                 0.000
REMARK SMILES Oc1cccc(O)c1O
REMARK SMILES IDX 4 1 5 2 6 3 8 4 2 5 3 6 7 7 1 9 9 11
REMARK H PARENT 7 8 1 10 9 12
REMARK Flexibility Score: inf
ROOT
ATOM      1  C   UNL     1     -35.121  44.031  41.320  1.00  0.00     0.008 A 
ATOM      2  C   UNL     1     -35.153  45.166  40.509  1.00  0.00     0.050 A 
ATOM      3  C   UNL     1     -34.791  45.088  39.158  1.00  0.00     0.161 A 
ATOM      4  C   UNL     1     -34.389  43.841  38.615  1.00  0.00     0.200 A 
ATOM      5  C   UNL     1     -34.361  42.705  39.440  1.00  0.00     0.161 A 
ATOM      6  C   UNL     1     -34.727  42.804  40.789  1.00  0.00     0.050 A 
ENDROOT
BRANCH   3   7
ATOM      7  O   UNL     1     -34.844  46.260  38.401  1.00  0.00    -0.504 OA
ATOM      8  H   UNL     1     -34.051  46.658  37.919  1.00  0.00     0.293 HD
ENDBRANCH   3   7
BRANCH   5   9
ATOM      9  O   UNL     1     -33.967  41.478  38.909  1.00  0.00    -0.504 OA
ATOM     10  H   UNL     1     -33.899  41.331  37.909  1.00  0.00     0.293 HD
ENDBRANCH   5   9
BRANCH   4  11
ATOM     11  O   UNL     1     -34.015  43.691  37.278  1.00  0.00    -0.502 OA
ATOM     12  H   UNL     1     -34.561  44.025  36.497  1.00  0.00     0.293 HD
ENDBRANCH   4  11
TORSDOF 3
ENDMDL
MODEL 7
REMARK VINA RESULT:    -4.923     13.176     14.572
REMARK INTER + INTRA:          -5.354
REMARK INTER:                  -5.354
REMARK INTRA:                   0.000
REMARK UNBOUND:                 0.000
REMARK SMILES Oc1cccc(O)c1O
REMARK SMILES IDX 4 1 5 2 6 3 8 4 2 5 3 6 7 7 1 9 9 11
REMARK H PARENT 7 8 1 10 9 12
REMARK Flexibility Score: inf
ROOT
ATOM      1  C   UNL     1     -38.287  38.975  46.085  1.00  0.00     0.008 A 
ATOM      2  C   UNL     1     -39.623  39.023  45.684  1.00  0.00     0.050 A 
ATOM      3  C   UNL     1     -40.650  38.722  46.588  1.00  0.00     0.161 A 
ATOM      4  C   UNL     1     -40.323  38.367  47.921  1.00  0.00     0.200 A 
ATOM      5  C   UNL     1     -38.975  38.323  48.314  1.00  0.00     0.161 A 
ATOM      6  C   UNL     1     -37.963  38.627  47.395  1.00  0.00     0.050 A 
ENDROOT
BRANCH   3   7
ATOM      7  O   UNL     1     -41.965  38.788  46.125  1.00  0.00    -0.504 OA
ATOM      8  H   UNL     1     -42.218  38.906  45.154  1.00  0.00     0.293 HD
ENDBRANCH   3   7
BRANCH   5   9
ATOM      9  O   UNL     1     -38.651  37.975  49.624  1.00  0.00    -0.504 OA
ATOM     10  H   UNL     1     -38.172  37.109  49.840  1.00  0.00     0.293 HD
ENDBRANCH   5   9
BRANCH   4  11
ATOM     11  O   UNL     1     -41.295  38.056  48.875  1.00  0.00    -0.502 OA
ATOM     12  H   UNL     1     -42.191  38.516  48.940  1.00  0.00     0.293 HD
ENDBRANCH   4  11
TORSDOF 3
ENDMDL
MODEL 8
REMARK VINA RESULT:    -4.919      2.988      3.657
REMARK INTER + INTRA:          -5.351
REMARK INTER:                  -5.351
REMARK INTRA:                   0.000
REMARK UNBOUND:                 0.000
REMARK SMILES Oc1cccc(O)c1O
REMARK SMILES IDX 4 1 5 2 6 3 8 4 2 5 3 6 7 7 1 9 9 11
REMARK H PARENT 7 8 1 10 9 12
REMARK Flexibility Score: inf
ROOT
ATOM      1  C   UNL     1     -35.126  44.030  41.288  1.00  0.00     0.008 A 
ATOM      2  C   UNL     1     -34.735  42.807  40.741  1.00  0.00     0.050 A 
ATOM      3  C   UNL     1     -34.355  42.716  39.396  1.00  0.00     0.161 A 
ATOM      4  C   UNL     1     -34.369  43.880  38.588  1.00  0.00     0.200 A 
ATOM      5  C   UNL     1     -34.763  45.106  39.148  1.00  0.00     0.161 A 
ATOM      6  C   UNL     1     -35.141  45.176  40.495  1.00  0.00     0.050 A 
ENDROOT
BRANCH   3   7
ATOM      7  O   UNL     1     -33.974  41.463  38.910  1.00  0.00    -0.504 OA
ATOM      8  H   UNL     1     -33.607  40.720  39.488  1.00  0.00     0.293 HD
ENDBRANCH   3   7
BRANCH   5   9
ATOM      9  O   UNL     1     -34.777  46.252  38.355  1.00  0.00    -0.504 OA
ATOM     10  H   UNL     1     -35.218  46.261  37.443  1.00  0.00     0.293 HD
ENDBRANCH   5   9
BRANCH   4  11
ATOM     11  O   UNL     1     -34.002  43.862  37.240  1.00  0.00    -0.502 OA
ATOM     12  H   UNL     1     -33.182  43.393  36.883  1.00  0.00     0.293 HD
ENDBRANCH   4  11
TORSDOF 3
ENDMDL
MODEL 9
REMARK VINA RESULT:    -4.878     13.402     14.496
REMARK INTER + INTRA:          -5.306
REMARK INTER:                  -5.306
REMARK INTRA:                   0.000
REMARK UNBOUND:                 0.000
REMARK SMILES Oc1cccc(O)c1O
REMARK SMILES IDX 4 1 5 2 6 3 8 4 2 5 3 6 7 7 1 9 9 11
REMARK H PARENT 7 8 1 10 9 12
REMARK Flexibility Score: inf
ROOT
ATOM      1  C   UNL     1     -39.397  38.946  45.867  1.00  0.00     0.008 A 
ATOM      2  C   UNL     1     -38.124  38.702  46.385  1.00  0.00     0.050 A 
ATOM      3  C   UNL     1     -37.963  38.252  47.702  1.00  0.00     0.161 A 
ATOM      4  C   UNL     1     -39.109  38.046  48.512  1.00  0.00     0.200 A 
ATOM      5  C   UNL     1     -40.384  38.294  47.981  1.00  0.00     0.161 A 
ATOM      6  C   UNL     1     -40.524  38.743  46.662  1.00  0.00     0.050 A 
ENDROOT
BRANCH   3   7
ATOM      7  O   UNL     1     -36.664  38.027  48.159  1.00  0.00    -0.504 OA
ATOM      8  H   UNL     1     -36.381  38.116  49.125  1.00  0.00     0.293 HD
ENDBRANCH   3   7
BRANCH   5   9
ATOM      9  O   UNL     1     -41.512  38.091  48.775  1.00  0.00    -0.504 OA
ATOM     10  H   UNL     1     -42.338  37.628  48.416  1.00  0.00     0.293 HD
ENDBRANCH   5   9
BRANCH   4  11
ATOM     11  O   UNL     1     -39.022  37.599  49.833  1.00  0.00    -0.502 OA
ATOM     12  H   UNL     1     -38.226  37.759  50.433  1.00  0.00     0.293 HD
ENDBRANCH   4  11
TORSDOF 3
ENDMDL
