MODEL 1
REMARK VINA RESULT:    -4.984      0.000      0.000
REMARK INTER + INTRA:          -9.294
REMARK INTER:                  -7.606
REMARK INTRA:                  -1.688
REMARK UNBOUND:                -1.688
REMARK SMILES CC(=O)CCC=C(C)CCC=C(C)CCC=C(C)C
REMARK SMILES IDX 10 1 11 2 12 3 13 4 14 5 15 6 16 7 18 8 17 9 19 10 9 11 7 12
REMARK SMILES IDX 6 13 8 14 5 15 4 16 2 17 3 18 1 19
REMARK H PARENT
REMARK Flexibility Score: inf
ROOT
ATOM      1  C   UNL     1      18.380  22.222  25.913  1.00  0.00     0.032 C 
ENDROOT
BRANCH   1   2
ATOM      2  C   UNL     1      19.018  23.297  26.761  1.00  0.00    -0.028 C 
ATOM      3  C   UNL     1      20.183  23.918  26.469  1.00  0.00    -0.077 C 
ATOM      4  C   UNL     1      20.924  23.661  25.178  1.00  0.00     0.039 C 
BRANCH   3   5
ATOM      5  C   UNL     1      20.747  24.914  27.459  1.00  0.00     0.034 C 
BRANCH   5   6
ATOM      6  C   UNL     1      19.681  25.322  28.483  1.00  0.00     0.032 C 
BRANCH   6   7
ATOM      7  C   UNL     1      19.805  26.783  28.834  1.00  0.00    -0.028 C 
ATOM      8  C   UNL     1      17.916  27.457  27.334  1.00  0.00     0.039 C 
ATOM      9  C   UNL     1      19.034  27.758  28.301  1.00  0.00    -0.080 C 
ATOM     10  C   UNL     1      19.260  29.193  28.698  1.00  0.00     0.039 C 
ENDBRANCH   6   7
ENDBRANCH   5   6
ENDBRANCH   3   5
ENDBRANCH   1   2
BRANCH   1  11
ATOM     11  C   UNL     1      16.947  22.589  25.497  1.00  0.00     0.034 C 
BRANCH  11  12
ATOM     12  C   UNL     1      16.104  23.000  26.685  1.00  0.00    -0.077 C 
ATOM     13  C   UNL     1      16.009  24.310  27.005  1.00  0.00    -0.028 C 
ATOM     14  C   UNL     1      15.327  21.938  27.427  1.00  0.00     0.039 C 
BRANCH  13  15
ATOM     15  C   UNL     1      15.188  24.858  28.148  1.00  0.00     0.035 C 
BRANCH  15  16
ATOM     16  C   UNL     1      16.015  24.982  29.433  1.00  0.00     0.079 C 
BRANCH  16  17
ATOM     17  C   UNL     1      15.213  24.602  30.649  1.00  0.00     0.130 C 
ATOM     18  O   UNL     1      14.800  25.475  31.398  1.00  0.00    -0.300 OA
ATOM     19  C   UNL     1      14.875  23.169  30.934  1.00  0.00     0.087 C 
ENDBRANCH  16  17
ENDBRANCH  15  16
ENDBRANCH  13  15
ENDBRANCH  11  12
ENDBRANCH   1  11
TORSDOF 9
ENDMDL
MODEL 2
REMARK VINA RESULT:    -4.870      3.630      7.068
REMARK INTER + INTRA:          -9.120
REMARK INTER:                  -7.573
REMARK INTRA:                  -1.547
REMARK UNBOUND:                -1.688
REMARK SMILES CC(=O)CCC=C(C)CCC=C(C)CCC=C(C)C
REMARK SMILES IDX 10 1 11 2 12 3 13 4 14 5 15 6 16 7 18 8 17 9 19 10 9 11 7 12
REMARK SMILES IDX 6 13 8 14 5 15 4 16 2 17 3 18 1 19
REMARK H PARENT
REMARK Flexibility Score: inf
ROOT
ATOM      1  C   UNL     1      19.231  29.674  29.444  1.00  0.00     0.032 C 
ENDROOT
BRANCH   1   2
ATOM      2  C   UNL     1      18.619  30.952  28.922  1.00  0.00    -0.028 C 
ATOM      3  C   UNL     1      18.584  32.122  29.598  1.00  0.00    -0.077 C 
ATOM      4  C   UNL     1      19.263  32.292  30.936  1.00  0.00     0.039 C 
BRANCH   3   5
ATOM      5  C   UNL     1      17.857  33.299  28.982  1.00  0.00     0.034 C 
BRANCH   5   6
ATOM      6  C   UNL     1      16.372  32.974  28.783  1.00  0.00     0.032 C 
BRANCH   6   7
ATOM      7  C   UNL     1      15.682  32.780  30.110  1.00  0.00    -0.028 C 
ATOM      8  C   UNL     1      14.886  30.479  29.530  1.00  0.00     0.039 C 
ATOM      9  C   UNL     1      14.985  31.672  30.447  1.00  0.00    -0.080 C 
ATOM     10  C   UNL     1      14.308  31.592  31.790  1.00  0.00     0.039 C 
ENDBRANCH   6   7
ENDBRANCH   5   6
ENDBRANCH   3   5
ENDBRANCH   1   2
BRANCH   1  11
ATOM     11  C   UNL     1      18.175  28.731  30.042  1.00  0.00     0.034 C 
BRANCH  11  12
ATOM     12  C   UNL     1      17.862  27.576  29.114  1.00  0.00    -0.077 C 
ATOM     13  C   UNL     1      18.867  26.997  28.420  1.00  0.00    -0.028 C 
ATOM     14  C   UNL     1      16.446  27.055  29.056  1.00  0.00     0.039 C 
BRANCH  13  15
ATOM     15  C   UNL     1      18.698  25.828  27.480  1.00  0.00     0.035 C 
BRANCH  15  16
ATOM     16  C   UNL     1      19.722  24.722  27.758  1.00  0.00     0.079 C 
BRANCH  16  17
ATOM     17  C   UNL     1      19.870  23.793  26.583  1.00  0.00     0.130 C 
ATOM     18  O   UNL     1      19.056  22.898  26.413  1.00  0.00    -0.300 OA
ATOM     19  C   UNL     1      20.980  23.974  25.590  1.00  0.00     0.087 C 
ENDBRANCH  16  17
ENDBRANCH  15  16
ENDBRANCH  13  15
ENDBRANCH  11  12
ENDBRANCH   1  11
TORSDOF 9
ENDMDL
MODEL 3
REMARK VINA RESULT:    -4.869      3.693      6.550
REMARK INTER + INTRA:          -9.120
REMARK INTER:                  -7.709
REMARK INTRA:                  -1.410
REMARK UNBOUND:                -1.688
REMARK SMILES CC(=O)CCC=C(C)CCC=C(C)CCC=C(C)C
REMARK SMILES IDX 10 1 11 2 12 3 13 4 14 5 15 6 16 7 18 8 17 9 19 10 9 11 7 12
REMARK SMILES IDX 6 13 8 14 5 15 4 16 2 17 3 18 1 19
REMARK H PARENT
REMARK Flexibility Score: inf
ROOT
ATOM      1  C   UNL     1      18.340  27.698  28.104  1.00  0.00     0.032 C 
ENDROOT
BRANCH   1   2
ATOM      2  C   UNL     1      19.528  28.348  28.774  1.00  0.00    -0.028 C 
ATOM      3  C   UNL     1      19.599  29.653  29.121  1.00  0.00    -0.077 C 
ATOM      4  C   UNL     1      18.423  30.587  28.959  1.00  0.00     0.039 C 
BRANCH   3   5
ATOM      5  C   UNL     1      20.890  30.183  29.705  1.00  0.00     0.034 C 
BRANCH   5   6
ATOM      6  C   UNL     1      21.790  29.030  30.165  1.00  0.00     0.032 C 
BRANCH   6   7
ATOM      7  C   UNL     1      23.209  29.238  29.697  1.00  0.00    -0.028 C 
ATOM      8  C   UNL     1      22.946  27.704  27.736  1.00  0.00     0.039 C 
ATOM      9  C   UNL     1      23.749  28.624  28.620  1.00  0.00    -0.080 C 
ATOM     10  C   UNL     1      25.188  28.879  28.255  1.00  0.00     0.039 C 
ENDBRANCH   6   7
ENDBRANCH   5   6
ENDBRANCH   3   5
ENDBRANCH   1   2
BRANCH   1  11
ATOM     11  C   UNL     1      18.220  26.208  28.460  1.00  0.00     0.034 C 
BRANCH  11  12
ATOM     12  C   UNL     1      19.498  25.453  28.159  1.00  0.00    -0.077 C 
ATOM     13  C   UNL     1      19.789  25.134  26.878  1.00  0.00    -0.028 C 
ATOM     14  C   UNL     1      20.448  25.152  29.294  1.00  0.00     0.039 C 
BRANCH  13  15
ATOM     15  C   UNL     1      21.035  24.405  26.437  1.00  0.00     0.035 C 
BRANCH  15  16
ATOM     16  C   UNL     1      20.773  23.523  25.211  1.00  0.00     0.079 C 
BRANCH  16  17
ATOM     17  C   UNL     1      21.628  23.931  24.040  1.00  0.00     0.130 C 
ATOM     18  O   UNL     1      21.944  25.103  23.901  1.00  0.00    -0.300 OA
ATOM     19  C   UNL     1      22.134  22.914  23.062  1.00  0.00     0.087 C 
ENDBRANCH  16  17
ENDBRANCH  15  16
ENDBRANCH  13  15
ENDBRANCH  11  12
ENDBRANCH   1  11
TORSDOF 9
ENDMDL
MODEL 4
REMARK VINA RESULT:    -4.851      3.753      6.641
REMARK INTER + INTRA:          -9.091
REMARK INTER:                  -8.030
REMARK INTRA:                  -1.062
REMARK UNBOUND:                -1.688
REMARK SMILES CC(=O)CCC=C(C)CCC=C(C)CCC=C(C)C
REMARK SMILES IDX 10 1 11 2 12 3 13 4 14 5 15 6 16 7 18 8 17 9 19 10 9 11 7 12
REMARK SMILES IDX 6 13 8 14 5 15 4 16 2 17 3 18 1 19
REMARK H PARENT
REMARK Flexibility Score: inf
ROOT
ATOM      1  C   UNL     1      18.026  26.786  27.600  1.00  0.00     0.032 C 
ENDROOT
BRANCH   1   2
ATOM      2  C   UNL     1      17.778  27.649  28.814  1.00  0.00    -0.028 C 
ATOM      3  C   UNL     1      18.669  28.524  29.333  1.00  0.00    -0.077 C 
ATOM      4  C   UNL     1      19.996  28.803  28.667  1.00  0.00     0.039 C 
BRANCH   3   5
ATOM      5  C   UNL     1      18.313  29.257  30.608  1.00  0.00     0.034 C 
BRANCH   5   6
ATOM      6  C   UNL     1      17.349  30.413  30.318  1.00  0.00     0.032 C 
BRANCH   6   7
ATOM      7  C   UNL     1      18.101  31.707  30.136  1.00  0.00    -0.028 C 
ATOM      8  C   UNL     1      16.190  32.828  28.969  1.00  0.00     0.039 C 
ATOM      9  C   UNL     1      17.599  32.793  29.505  1.00  0.00    -0.080 C 
ATOM     10  C   UNL     1      18.447  34.029  29.352  1.00  0.00     0.039 C 
ENDBRANCH   6   7
ENDBRANCH   5   6
ENDBRANCH   3   5
ENDBRANCH   1   2
BRANCH   1  11
ATOM     11  C   UNL     1      18.278  25.318  27.977  1.00  0.00     0.034 C 
BRANCH  11  12
ATOM     12  C   UNL     1      19.651  24.852  27.539  1.00  0.00    -0.077 C 
ATOM     13  C   UNL     1      19.785  24.221  26.351  1.00  0.00    -0.028 C 
ATOM     14  C   UNL     1      20.841  25.180  28.409  1.00  0.00     0.039 C 
BRANCH  13  15
ATOM     15  C   UNL     1      21.094  23.726  25.786  1.00  0.00     0.035 C 
BRANCH  15  16
ATOM     16  C   UNL     1      21.408  24.370  24.431  1.00  0.00     0.079 C 
BRANCH  16  17
ATOM     17  C   UNL     1      22.000  23.377  23.466  1.00  0.00     0.130 C 
ATOM     18  O   UNL     1      23.214  23.296  23.350  1.00  0.00    -0.300 OA
ATOM     19  C   UNL     1      21.124  22.452  22.675  1.00  0.00     0.087 C 
ENDBRANCH  16  17
ENDBRANCH  15  16
ENDBRANCH  13  15
ENDBRANCH  11  12
ENDBRANCH   1  11
TORSDOF 9
ENDMDL
MODEL 5
REMARK VINA RESULT:    -4.837      3.976      6.877
REMARK INTER + INTRA:          -9.071
REMARK INTER:                  -8.211
REMARK INTRA:                  -0.860
REMARK UNBOUND:                -1.688
REMARK SMILES CC(=O)CCC=C(C)CCC=C(C)CCC=C(C)C
REMARK SMILES IDX 10 1 11 2 12 3 13 4 14 5 15 6 16 7 18 8 17 9 19 10 9 11 7 12
REMARK SMILES IDX 6 13 8 14 5 15 4 16 2 17 3 18 1 19
REMARK H PARENT
REMARK Flexibility Score: inf
ROOT
ATOM      1  C   UNL     1      21.392  27.012  28.836  1.00  0.00     0.032 C 
ENDROOT
BRANCH   1   2
ATOM      2  C   UNL     1      20.468  28.182  29.080  1.00  0.00    -0.028 C 
ATOM      3  C   UNL     1      20.451  28.928  30.208  1.00  0.00    -0.077 C 
ATOM      4  C   UNL     1      21.454  28.720  31.318  1.00  0.00     0.039 C 
BRANCH   3   5
ATOM      5  C   UNL     1      19.408  30.015  30.347  1.00  0.00     0.034 C 
BRANCH   5   6
ATOM      6  C   UNL     1      19.043  30.595  28.976  1.00  0.00     0.032 C 
BRANCH   6   7
ATOM      7  C   UNL     1      17.714  31.306  29.030  1.00  0.00    -0.028 C 
ATOM      8  C   UNL     1      18.761  33.558  29.350  1.00  0.00     0.039 C 
ATOM      9  C   UNL     1      17.573  32.636  29.227  1.00  0.00    -0.080 C 
ATOM     10  C   UNL     1      16.196  33.243  29.293  1.00  0.00     0.039 C 
ENDBRANCH   6   7
ENDBRANCH   5   6
ENDBRANCH   3   5
ENDBRANCH   1   2
BRANCH   1  11
ATOM     11  C   UNL     1      20.690  25.664  29.065  1.00  0.00     0.034 C 
BRANCH  11  12
ATOM     12  C   UNL     1      20.200  25.057  27.767  1.00  0.00    -0.077 C 
ATOM     13  C   UNL     1      21.074  24.393  26.979  1.00  0.00    -0.028 C 
ATOM     14  C   UNL     1      18.729  25.144  27.435  1.00  0.00     0.039 C 
BRANCH  13  15
ATOM     15  C   UNL     1      20.715  23.723  25.674  1.00  0.00     0.035 C 
BRANCH  15  16
ATOM     16  C   UNL     1      21.377  24.418  24.478  1.00  0.00     0.079 C 
BRANCH  16  17
ATOM     17  C   UNL     1      21.912  23.423  23.483  1.00  0.00     0.130 C 
ATOM     18  O   UNL     1      23.119  23.304  23.335  1.00  0.00    -0.300 OA
ATOM     19  C   UNL     1      20.986  22.541  22.699  1.00  0.00     0.087 C 
ENDBRANCH  16  17
ENDBRANCH  15  16
ENDBRANCH  13  15
ENDBRANCH  11  12
ENDBRANCH   1  11
TORSDOF 9
ENDMDL
MODEL 6
REMARK VINA RESULT:    -4.837      3.868      7.436
REMARK INTER + INTRA:          -9.070
REMARK INTER:                  -7.536
REMARK INTRA:                  -1.534
REMARK UNBOUND:                -1.688
REMARK SMILES CC(=O)CCC=C(C)CCC=C(C)CCC=C(C)C
REMARK SMILES IDX 10 1 11 2 12 3 13 4 14 5 15 6 16 7 18 8 17 9 19 10 9 11 7 12
REMARK SMILES IDX 6 13 8 14 5 15 4 16 2 17 3 18 1 19
REMARK H PARENT
REMARK Flexibility Score: inf
ROOT
ATOM      1  C   UNL     1      20.022  25.170  27.384  1.00  0.00     0.032 C 
ENDROOT
BRANCH   1   2
ATOM      2  C   UNL     1      18.601  25.059  27.886  1.00  0.00    -0.028 C 
ATOM      3  C   UNL     1      17.731  26.090  27.973  1.00  0.00    -0.077 C 
ATOM      4  C   UNL     1      18.076  27.470  27.465  1.00  0.00     0.039 C 
BRANCH   3   5
ATOM      5  C   UNL     1      16.367  25.844  28.579  1.00  0.00     0.034 C 
BRANCH   5   6
ATOM      6  C   UNL     1      15.387  25.329  27.519  1.00  0.00     0.032 C 
BRANCH   6   7
ATOM      7  C   UNL     1      14.894  23.947  27.869  1.00  0.00    -0.028 C 
ATOM      8  C   UNL     1      16.187  22.854  26.024  1.00  0.00     0.039 C 
ATOM      9  C   UNL     1      15.225  22.829  27.186  1.00  0.00    -0.080 C 
ATOM     10  C   UNL     1      14.653  21.499  27.602  1.00  0.00     0.039 C 
ENDBRANCH   6   7
ENDBRANCH   5   6
ENDBRANCH   3   5
ENDBRANCH   1   2
BRANCH   1  11
ATOM     11  C   UNL     1      21.036  25.252  28.535  1.00  0.00     0.034 C 
BRANCH  11  12
ATOM     12  C   UNL     1      21.579  26.655  28.708  1.00  0.00    -0.077 C 
ATOM     13  C   UNL     1      22.490  27.123  27.825  1.00  0.00    -0.028 C 
ATOM     14  C   UNL     1      21.023  27.518  29.815  1.00  0.00     0.039 C 
BRANCH  13  15
ATOM     15  C   UNL     1      23.095  28.505  27.867  1.00  0.00     0.035 C 
BRANCH  15  16
ATOM     16  C   UNL     1      24.617  28.454  28.046  1.00  0.00     0.079 C 
BRANCH  16  17
ATOM     17  C   UNL     1      25.081  29.392  29.128  1.00  0.00     0.130 C 
ATOM     18  O   UNL     1      25.938  30.227  28.878  1.00  0.00    -0.300 OA
ATOM     19  C   UNL     1      24.478  29.347  30.500  1.00  0.00     0.087 C 
ENDBRANCH  16  17
ENDBRANCH  15  16
ENDBRANCH  13  15
ENDBRANCH  11  12
ENDBRANCH   1  11
TORSDOF 9
ENDMDL
MODEL 7
REMARK VINA RESULT:    -4.819      2.461      6.219
REMARK INTER + INTRA:          -9.043
REMARK INTER:                  -7.271
REMARK INTRA:                  -1.771
REMARK UNBOUND:                -1.688
REMARK SMILES CC(=O)CCC=C(C)CCC=C(C)CCC=C(C)C
REMARK SMILES IDX 10 1 11 2 12 3 13 4 14 5 15 6 16 7 18 8 17 9 19 10 9 11 7 12
REMARK SMILES IDX 6 13 8 14 5 15 4 16 2 17 3 18 1 19
REMARK H PARENT
REMARK Flexibility Score: inf
ROOT
ATOM      1  C   UNL     1      19.886  25.102  27.138  1.00  0.00     0.032 C 
ENDROOT
BRANCH   1   2
ATOM      2  C   UNL     1      18.496  25.045  27.728  1.00  0.00    -0.028 C 
ATOM      3  C   UNL     1      17.661  26.103  27.838  1.00  0.00    -0.077 C 
ATOM      4  C   UNL     1      18.011  27.458  27.271  1.00  0.00     0.039 C 
BRANCH   3   5
ATOM      5  C   UNL     1      16.330  25.912  28.532  1.00  0.00     0.034 C 
BRANCH   5   6
ATOM      6  C   UNL     1      15.302  25.299  27.575  1.00  0.00     0.032 C 
BRANCH   6   7
ATOM      7  C   UNL     1      14.968  23.885  27.979  1.00  0.00    -0.028 C 
ATOM      8  C   UNL     1      16.082  22.889  25.970  1.00  0.00     0.039 C 
ATOM      9  C   UNL     1      15.289  22.793  27.250  1.00  0.00    -0.080 C 
ATOM     10  C   UNL     1      14.882  21.425  27.730  1.00  0.00     0.039 C 
ENDBRANCH   6   7
ENDBRANCH   5   6
ENDBRANCH   3   5
ENDBRANCH   1   2
BRANCH   1  11
ATOM     11  C   UNL     1      20.975  25.057  28.221  1.00  0.00     0.034 C 
BRANCH  11  12
ATOM     12  C   UNL     1      21.296  26.437  28.755  1.00  0.00    -0.077 C 
ATOM     13  C   UNL     1      20.626  26.898  29.835  1.00  0.00    -0.028 C 
ATOM     14  C   UNL     1      22.413  27.223  28.112  1.00  0.00     0.039 C 
BRANCH  13  15
ATOM     15  C   UNL     1      20.861  28.242  30.481  1.00  0.00     0.035 C 
BRANCH  15  16
ATOM     16  C   UNL     1      19.574  29.072  30.547  1.00  0.00     0.079 C 
BRANCH  16  17
ATOM     17  C   UNL     1      19.575  30.181  29.528  1.00  0.00     0.130 C 
ATOM     18  O   UNL     1      20.627  30.525  29.010  1.00  0.00    -0.300 OA
ATOM     19  C   UNL     1      18.297  30.843  29.106  1.00  0.00     0.087 C 
ENDBRANCH  16  17
ENDBRANCH  15  16
ENDBRANCH  13  15
ENDBRANCH  11  12
ENDBRANCH   1  11
TORSDOF 9
ENDMDL
MODEL 8
REMARK VINA RESULT:    -4.810      2.891      6.487
REMARK INTER + INTRA:          -9.029
REMARK INTER:                  -6.958
REMARK INTRA:                  -2.071
REMARK UNBOUND:                -1.688
REMARK SMILES CC(=O)CCC=C(C)CCC=C(C)CCC=C(C)C
REMARK SMILES IDX 10 1 11 2 12 3 13 4 14 5 15 6 16 7 18 8 17 9 19 10 9 11 7 12
REMARK SMILES IDX 6 13 8 14 5 15 4 16 2 17 3 18 1 19
REMARK H PARENT
REMARK Flexibility Score: inf
ROOT
ATOM      1  C   UNL     1      19.654  30.748  29.326  1.00  0.00     0.032 C 
ENDROOT
BRANCH   1   2
ATOM      2  C   UNL     1      19.026  29.745  28.388  1.00  0.00    -0.028 C 
ATOM      3  C   UNL     1      18.547  28.537  28.759  1.00  0.00    -0.077 C 
ATOM      4  C   UNL     1      18.501  28.107  30.206  1.00  0.00     0.039 C 
BRANCH   3   5
ATOM      5  C   UNL     1      18.025  27.599  27.692  1.00  0.00     0.034 C 
BRANCH   5   6
ATOM      6  C   UNL     1      18.000  26.155  28.205  1.00  0.00     0.032 C 
BRANCH   6   7
ATOM      7  C   UNL     1      18.737  25.237  27.262  1.00  0.00    -0.028 C 
ATOM      8  C   UNL     1      20.861  25.338  28.584  1.00  0.00     0.039 C 
ATOM      9  C   UNL     1      20.035  24.885  27.406  1.00  0.00    -0.080 C 
ATOM     10  C   UNL     1      20.685  23.984  26.389  1.00  0.00     0.039 C 
ENDBRANCH   6   7
ENDBRANCH   5   6
ENDBRANCH   3   5
ENDBRANCH   1   2
BRANCH   1  11
ATOM     11  C   UNL     1      18.807  32.024  29.459  1.00  0.00     0.034 C 
BRANCH  11  12
ATOM     12  C   UNL     1      17.502  31.761  30.178  1.00  0.00    -0.077 C 
ATOM     13  C   UNL     1      16.349  31.753  29.471  1.00  0.00    -0.028 C 
ATOM     14  C   UNL     1      17.537  31.434  31.652  1.00  0.00     0.039 C 
BRANCH  13  15
ATOM     15  C   UNL     1      14.985  31.484  30.057  1.00  0.00     0.035 C 
BRANCH  15  16
ATOM     16  C   UNL     1      14.361  30.206  29.482  1.00  0.00     0.079 C 
BRANCH  16  17
ATOM     17  C   UNL     1      14.739  28.992  30.289  1.00  0.00     0.130 C 
ATOM     18  O   UNL     1      14.927  29.098  31.491  1.00  0.00    -0.300 OA
ATOM     19  C   UNL     1      14.847  27.641  29.646  1.00  0.00     0.087 C 
ENDBRANCH  16  17
ENDBRANCH  15  16
ENDBRANCH  13  15
ENDBRANCH  11  12
ENDBRANCH   1  11
TORSDOF 9
ENDMDL
MODEL 9
REMARK VINA RESULT:    -4.707      3.172      7.203
REMARK INTER + INTRA:          -8.872
REMARK INTER:                  -7.124
REMARK INTRA:                  -1.748
REMARK UNBOUND:                -1.688
REMARK SMILES CC(=O)CCC=C(C)CCC=C(C)CCC=C(C)C
REMARK SMILES IDX 10 1 11 2 12 3 13 4 14 5 15 6 16 7 18 8 17 9 19 10 9 11 7 12
REMARK SMILES IDX 6 13 8 14 5 15 4 16 2 17 3 18 1 19
REMARK H PARENT
REMARK Flexibility Score: inf
ROOT
ATOM      1  C   UNL     1      20.295  29.349  29.936  1.00  0.00     0.032 C 
ENDROOT
BRANCH   1   2
ATOM      2  C   UNL     1      19.633  28.472  28.900  1.00  0.00    -0.028 C 
ATOM      3  C   UNL     1      18.350  28.047  28.956  1.00  0.00    -0.077 C 
ATOM      4  C   UNL     1      17.403  28.507  30.039  1.00  0.00     0.039 C 
BRANCH   3   5
ATOM      5  C   UNL     1      17.849  27.098  27.889  1.00  0.00     0.034 C 
BRANCH   5   6
ATOM      6  C   UNL     1      18.088  25.642  28.304  1.00  0.00     0.032 C 
BRANCH   6   7
ATOM      7  C   UNL     1      18.791  24.880  27.209  1.00  0.00    -0.028 C 
ATOM      8  C   UNL     1      21.022  25.021  28.336  1.00  0.00     0.039 C 
ATOM      9  C   UNL     1      20.118  24.618  27.198  1.00  0.00    -0.080 C 
ATOM     10  C   UNL     1      20.726  23.873  26.039  1.00  0.00     0.039 C 
ENDBRANCH   6   7
ENDBRANCH   5   6
ENDBRANCH   3   5
ENDBRANCH   1   2
BRANCH   1  11
ATOM     11  C   UNL     1      20.408  30.809  29.470  1.00  0.00     0.034 C 
BRANCH  11  12
ATOM     12  C   UNL     1      19.328  31.679  30.077  1.00  0.00    -0.077 C 
ATOM     13  C   UNL     1      18.596  32.480  29.269  1.00  0.00    -0.028 C 
ATOM     14  C   UNL     1      19.046  31.563  31.556  1.00  0.00     0.039 C 
BRANCH  13  15
ATOM     15  C   UNL     1      17.478  33.379  29.738  1.00  0.00     0.035 C 
BRANCH  15  16
ATOM     16  C   UNL     1      16.130  32.974  29.128  1.00  0.00     0.079 C 
BRANCH  16  17
ATOM     17  C   UNL     1      15.424  31.947  29.974  1.00  0.00     0.130 C 
ATOM     18  O   UNL     1      14.975  30.938  29.451  1.00  0.00    -0.300 OA
ATOM     19  C   UNL     1      15.299  32.123  31.458  1.00  0.00     0.087 C 
ENDBRANCH  16  17
ENDBRANCH  15  16
ENDBRANCH  13  15
ENDBRANCH  11  12
ENDBRANCH   1  11
TORSDOF 9
ENDMDL
