MODEL 1
REMARK VINA RESULT:    -2.619      0.000      0.000
REMARK INTER + INTRA:          -2.849
REMARK INTER:                  -2.849
REMARK INTRA:                   0.000
REMARK UNBOUND:                 0.000
REMARK SMILES [NH3+]CC(=O)[O-]
REMARK SMILES IDX 2 1 1 2 3 6 4 7 5 8
REMARK H PARENT 1 3 1 4 1 5
REMARK Flexibility Score: inf
ROOT
ATOM      1  C   UNL     1      20.533  29.053  43.161  1.00  0.00     0.312 C 
ENDROOT
BRANCH   1   2
ATOM      2  N   UNL     1      20.938  27.878  43.932  1.00  0.00    -0.353 N 
ATOM      3  H   UNL     1      20.305  27.777  44.758  1.00  0.00     0.344 HD
ATOM      4  H   UNL     1      20.864  27.018  43.341  1.00  0.00     0.344 HD
ATOM      5  H   UNL     1      21.921  27.992  44.270  1.00  0.00     0.344 HD
ENDBRANCH   1   2
BRANCH   1   6
ATOM      6  C   UNL     1      19.855  30.055  44.043  1.00  0.00     0.096 C 
ATOM      7  O   UNL     1      20.260  31.246  44.078  1.00  0.00    -0.544 OA
ATOM      8  O   UNL     1      18.805  29.661  44.864  1.00  0.00    -0.544 OA
ENDBRANCH   1   6
TORSDOF 2
ENDMDL
MODEL 2
REMARK VINA RESULT:    -2.552      0.330      1.457
REMARK INTER + INTRA:          -2.776
REMARK INTER:                  -2.776
REMARK INTRA:                   0.000
REMARK UNBOUND:                 0.000
REMARK SMILES [NH3+]CC(=O)[O-]
REMARK SMILES IDX 2 1 1 2 3 6 4 7 5 8
REMARK H PARENT 1 3 1 4 1 5
REMARK Flexibility Score: inf
ROOT
ATOM      1  C   UNL     1      20.806  29.119  43.240  1.00  0.00     0.312 C 
ENDROOT
BRANCH   1   2
ATOM      2  N   UNL     1      20.876  27.875  44.005  1.00  0.00    -0.353 N 
ATOM      3  H   UNL     1      21.080  28.100  45.005  1.00  0.00     0.344 HD
ATOM      4  H   UNL     1      19.962  27.369  43.951  1.00  0.00     0.344 HD
ATOM      5  H   UNL     1      21.640  27.266  43.631  1.00  0.00     0.344 HD
ENDBRANCH   1   2
BRANCH   1   6
ATOM      6  C   UNL     1      19.911  30.107  43.920  1.00  0.00     0.096 C 
ATOM      7  O   UNL     1      19.054  29.716  44.756  1.00  0.00    -0.544 OA
ATOM      8  O   UNL     1      19.989  31.456  43.594  1.00  0.00    -0.544 OA
ENDBRANCH   1   6
TORSDOF 2
ENDMDL
MODEL 3
REMARK VINA RESULT:    -2.474      3.536      3.612
REMARK INTER + INTRA:          -2.691
REMARK INTER:                  -2.691
REMARK INTRA:                   0.000
REMARK UNBOUND:                 0.000
REMARK SMILES [NH3+]CC(=O)[O-]
REMARK SMILES IDX 2 1 1 2 3 6 4 7 5 8
REMARK H PARENT 1 3 1 4 1 5
REMARK Flexibility Score: inf
ROOT
ATOM      1  C   UNL     1      17.590  31.279  44.716  1.00  0.00     0.312 C 
ENDROOT
BRANCH   1   2
ATOM      2  N   UNL     1      18.899  31.885  44.954  1.00  0.00    -0.353 N 
ATOM      3  H   UNL     1      19.564  31.562  44.216  1.00  0.00     0.344 HD
ATOM      4  H   UNL     1      18.824  32.928  44.911  1.00  0.00     0.344 HD
ATOM      5  H   UNL     1      19.264  31.595  45.891  1.00  0.00     0.344 HD
ENDBRANCH   1   2
BRANCH   1   6
ATOM      6  C   UNL     1      17.345  31.110  43.249  1.00  0.00     0.096 C 
ATOM      7  O   UNL     1      17.149  32.116  42.519  1.00  0.00    -0.544 OA
ATOM      8  O   UNL     1      17.285  29.836  42.696  1.00  0.00    -0.544 OA
ENDBRANCH   1   6
TORSDOF 2
ENDMDL
MODEL 4
REMARK VINA RESULT:    -2.419      2.469      2.705
REMARK INTER + INTRA:          -2.631
REMARK INTER:                  -2.631
REMARK INTRA:                   0.000
REMARK UNBOUND:                 0.000
REMARK SMILES [NH3+]CC(=O)[O-]
REMARK SMILES IDX 2 1 1 2 3 6 4 7 5 8
REMARK H PARENT 1 3 1 4 1 5
REMARK Flexibility Score: inf
ROOT
ATOM      1  C   UNL     1      20.106  30.913  44.305  1.00  0.00     0.312 C 
ENDROOT
BRANCH   1   2
ATOM      2  N   UNL     1      18.916  31.534  44.885  1.00  0.00    -0.353 N 
ATOM      3  H   UNL     1      18.874  32.536  44.588  1.00  0.00     0.344 HD
ATOM      4  H   UNL     1      18.055  31.044  44.548  1.00  0.00     0.344 HD
ATOM      5  H   UNL     1      18.961  31.491  45.929  1.00  0.00     0.344 HD
ENDBRANCH   1   2
BRANCH   1   6
ATOM      6  C   UNL     1      19.731  29.717  43.487  1.00  0.00     0.096 C 
ATOM      7  O   UNL     1      18.627  29.682  42.883  1.00  0.00    -0.544 OA
ATOM      8  O   UNL     1      20.580  28.618  43.432  1.00  0.00    -0.544 OA
ENDBRANCH   1   6
TORSDOF 2
ENDMDL
MODEL 5
REMARK VINA RESULT:    -2.405      1.815      2.273
REMARK INTER + INTRA:          -2.616
REMARK INTER:                  -2.616
REMARK INTRA:                   0.000
REMARK UNBOUND:                 0.000
REMARK SMILES [NH3+]CC(=O)[O-]
REMARK SMILES IDX 2 1 1 2 3 6 4 7 5 8
REMARK H PARENT 1 3 1 4 1 5
REMARK Flexibility Score: inf
ROOT
ATOM      1  C   UNL     1      20.252  29.196  44.009  1.00  0.00     0.312 C 
ENDROOT
BRANCH   1   2
ATOM      2  N   UNL     1      20.879  27.875  43.997  1.00  0.00    -0.353 N 
ATOM      3  H   UNL     1      21.805  27.941  43.516  1.00  0.00     0.344 HD
ATOM      4  H   UNL     1      21.029  27.540  44.977  1.00  0.00     0.344 HD
ATOM      5  H   UNL     1      20.275  27.196  43.479  1.00  0.00     0.344 HD
ENDBRANCH   1   2
BRANCH   1   6
ATOM      6  C   UNL     1      20.163  29.750  42.621  1.00  0.00     0.096 C 
ATOM      7  O   UNL     1      19.063  29.751  42.008  1.00  0.00    -0.544 OA
ATOM      8  O   UNL     1      21.306  30.222  41.987  1.00  0.00    -0.544 OA
ENDBRANCH   1   6
TORSDOF 2
ENDMDL
MODEL 6
REMARK VINA RESULT:    -2.278      5.798      5.964
REMARK INTER + INTRA:          -2.478
REMARK INTER:                  -2.478
REMARK INTRA:                   0.000
REMARK UNBOUND:                 0.000
REMARK SMILES [NH3+]CC(=O)[O-]
REMARK SMILES IDX 2 1 1 2 3 6 4 7 5 8
REMARK H PARENT 1 3 1 4 1 5
REMARK Flexibility Score: inf
ROOT
ATOM      1  C   UNL     1      23.872  30.368  40.451  1.00  0.00     0.312 C 
ENDROOT
BRANCH   1   2
ATOM      2  N   UNL     1      24.466  30.555  39.128  1.00  0.00    -0.353 N 
ATOM      3  H   UNL     1      24.754  29.625  38.748  1.00  0.00     0.344 HD
ATOM      4  H   UNL     1      23.768  30.986  38.478  1.00  0.00     0.344 HD
ATOM      5  H   UNL     1      25.311  31.169  39.197  1.00  0.00     0.344 HD
ENDBRANCH   1   2
BRANCH   1   6
ATOM      6  C   UNL     1      24.934  30.110  41.474  1.00  0.00     0.096 C 
ATOM      7  O   UNL     1      25.858  30.946  41.655  1.00  0.00    -0.544 OA
ATOM      8  O   UNL     1      24.932  28.921  42.194  1.00  0.00    -0.544 OA
ENDBRANCH   1   6
TORSDOF 2
ENDMDL
MODEL 7
REMARK VINA RESULT:    -2.278      2.531      2.780
REMARK INTER + INTRA:          -2.477
REMARK INTER:                  -2.477
REMARK INTRA:                   0.000
REMARK UNBOUND:                 0.000
REMARK SMILES [NH3+]CC(=O)[O-]
REMARK SMILES IDX 2 1 1 2 3 6 4 7 5 8
REMARK H PARENT 1 3 1 4 1 5
REMARK Flexibility Score: inf
ROOT
ATOM      1  C   UNL     1      17.442  30.205  42.793  1.00  0.00     0.312 C 
ENDROOT
BRANCH   1   2
ATOM      2  N   UNL     1      18.518  29.386  42.237  1.00  0.00    -0.353 N 
ATOM      3  H   UNL     1      18.648  29.631  41.229  1.00  0.00     0.344 HD
ATOM      4  H   UNL     1      19.411  29.572  42.749  1.00  0.00     0.344 HD
ATOM      5  H   UNL     1      18.272  28.372  42.311  1.00  0.00     0.344 HD
ENDBRANCH   1   2
BRANCH   1   6
ATOM      6  C   UNL     1      17.695  30.499  44.239  1.00  0.00     0.096 C 
ATOM      7  O   UNL     1      18.630  29.918  44.850  1.00  0.00    -0.544 OA
ATOM      8  O   UNL     1      16.866  31.378  44.925  1.00  0.00    -0.544 OA
ENDBRANCH   1   6
TORSDOF 2
ENDMDL
MODEL 8
REMARK VINA RESULT:    -2.259     19.976     20.436
REMARK INTER + INTRA:          -2.457
REMARK INTER:                  -2.457
REMARK INTRA:                   0.000
REMARK UNBOUND:                 0.000
REMARK SMILES [NH3+]CC(=O)[O-]
REMARK SMILES IDX 2 1 1 2 3 6 4 7 5 8
REMARK H PARENT 1 3 1 4 1 5
REMARK Flexibility Score: inf
ROOT
ATOM      1  C   UNL     1      29.510  39.123  27.598  1.00  0.00     0.312 C 
ENDROOT
BRANCH   1   2
ATOM      2  N   UNL     1      30.594  38.421  28.284  1.00  0.00    -0.353 N 
ATOM      3  H   UNL     1      30.277  37.454  28.522  1.00  0.00     0.344 HD
ATOM      4  H   UNL     1      31.432  38.359  27.660  1.00  0.00     0.344 HD
ATOM      5  H   UNL     1      30.846  38.923  29.166  1.00  0.00     0.344 HD
ENDBRANCH   1   2
BRANCH   1   6
ATOM      6  C   UNL     1      28.241  38.331  27.669  1.00  0.00     0.096 C 
ATOM      7  O   UNL     1      27.235  38.686  27.000  1.00  0.00    -0.544 OA
ATOM      8  O   UNL     1      28.155  37.230  28.511  1.00  0.00    -0.544 OA
ENDBRANCH   1   6
TORSDOF 2
ENDMDL
MODEL 9
REMARK VINA RESULT:    -2.234     12.127     12.530
REMARK INTER + INTRA:          -2.429
REMARK INTER:                  -2.429
REMARK INTRA:                   0.000
REMARK UNBOUND:                 0.000
REMARK SMILES [NH3+]CC(=O)[O-]
REMARK SMILES IDX 2 1 1 2 3 6 4 7 5 8
REMARK H PARENT 1 3 1 4 1 5
REMARK Flexibility Score: inf
ROOT
ATOM      1  C   UNL     1      24.953  29.472  32.440  1.00  0.00     0.312 C 
ENDROOT
BRANCH   1   2
ATOM      2  N   UNL     1      24.808  29.318  33.887  1.00  0.00    -0.353 N 
ATOM      3  H   UNL     1      24.272  28.443  34.085  1.00  0.00     0.344 HD
ATOM      4  H   UNL     1      25.751  29.248  34.336  1.00  0.00     0.344 HD
ATOM      5  H   UNL     1      24.286  30.133  34.284  1.00  0.00     0.344 HD
ENDBRANCH   1   2
BRANCH   1   6
ATOM      6  C   UNL     1      24.197  30.671  31.958  1.00  0.00     0.096 C 
ATOM      7  O   UNL     1      23.694  30.682  30.804  1.00  0.00    -0.544 OA
ATOM      8  O   UNL     1      24.089  31.796  32.767  1.00  0.00    -0.544 OA
ENDBRANCH   1   6
TORSDOF 2
ENDMDL
