MODEL 1
REMARK VINA RESULT:    -3.910      0.000      0.000
REMARK INTER + INTRA:          -5.274
REMARK INTER:                  -5.053
REMARK INTRA:                  -0.222
REMARK UNBOUND:                -0.222
REMARK SMILES CCCCCCC(C)=O
REMARK SMILES IDX 4 1 3 2 2 3 1 4 5 5 6 6 7 7 9 8 8 9
REMARK H PARENT
REMARK Flexibility Score: inf
ROOT
ATOM      1  C   UNL     1      25.253  58.214  -8.385  1.00  0.00     0.000 C 
ENDROOT
BRANCH   1   2
ATOM      2  C   UNL     1      25.787  56.828  -8.770  1.00  0.00    -0.000 C 
BRANCH   2   3
ATOM      3  C   UNL     1      25.449  55.791  -7.693  1.00  0.00    -0.003 C 
ATOM      4  C   UNL     1      23.952  55.494  -7.665  1.00  0.00     0.004 C 
ENDBRANCH   2   3
ENDBRANCH   1   2
BRANCH   1   5
ATOM      5  C   UNL     1      26.191  59.322  -8.879  1.00  0.00     0.008 C 
BRANCH   5   6
ATOM      6  C   UNL     1      27.165  58.789  -9.935  1.00  0.00     0.075 C 
BRANCH   6   7
ATOM      7  C   UNL     1      28.365  59.690 -10.057  1.00  0.00     0.129 C 
ATOM      8  O   UNL     1      29.212  59.451 -10.905  1.00  0.00    -0.300 OA
ATOM      9  C   UNL     1      28.541  60.884  -9.166  1.00  0.00     0.087 C 
ENDBRANCH   6   7
ENDBRANCH   5   6
ENDBRANCH   1   5
TORSDOF 5
ENDMDL
MODEL 2
REMARK VINA RESULT:    -3.811      1.248      1.491
REMARK INTER + INTRA:          -5.147
REMARK INTER:                  -5.042
REMARK INTRA:                  -0.104
REMARK UNBOUND:                -0.222
REMARK SMILES CCCCCCC(C)=O
REMARK SMILES IDX 4 1 3 2 2 3 1 4 5 5 6 6 7 7 9 8 8 9
REMARK H PARENT
REMARK Flexibility Score: inf
ROOT
ATOM      1  C   UNL     1      25.798  57.048  -8.371  1.00  0.00     0.000 C 
ENDROOT
BRANCH   1   2
ATOM      2  C   UNL     1      24.316  56.665  -8.274  1.00  0.00    -0.000 C 
BRANCH   2   3
ATOM      3  C   UNL     1      24.154  55.188  -7.898  1.00  0.00    -0.003 C 
ATOM      4  C   UNL     1      23.079  55.006  -6.830  1.00  0.00     0.004 C 
ENDBRANCH   2   3
ENDBRANCH   1   2
BRANCH   1   5
ATOM      5  C   UNL     1      25.962  58.510  -8.801  1.00  0.00     0.008 C 
BRANCH   5   6
ATOM      6  C   UNL     1      26.938  58.633  -9.976  1.00  0.00     0.075 C 
BRANCH   6   7
ATOM      7  C   UNL     1      27.933  59.736  -9.731  1.00  0.00     0.129 C 
ATOM      8  O   UNL     1      27.728  60.542  -8.835  1.00  0.00    -0.300 OA
ATOM      9  C   UNL     1      29.179  59.864 -10.556  1.00  0.00     0.087 C 
ENDBRANCH   6   7
ENDBRANCH   5   6
ENDBRANCH   1   5
TORSDOF 5
ENDMDL
MODEL 3
REMARK VINA RESULT:    -3.680     18.270     20.096
REMARK INTER + INTRA:          -4.977
REMARK INTER:                  -4.495
REMARK INTRA:                  -0.482
REMARK UNBOUND:                -0.222
REMARK SMILES CCCCCCC(C)=O
REMARK SMILES IDX 4 1 3 2 2 3 1 4 5 5 6 6 7 7 9 8 8 9
REMARK H PARENT
REMARK Flexibility Score: inf
ROOT
ATOM      1  C   UNL     1      16.219  42.875   1.477  1.00  0.00     0.000 C 
ENDROOT
BRANCH   1   2
ATOM      2  C   UNL     1      15.861  44.230   2.100  1.00  0.00    -0.000 C 
BRANCH   2   3
ATOM      3  C   UNL     1      15.070  45.096   1.113  1.00  0.00    -0.003 C 
ATOM      4  C   UNL     1      15.905  45.429  -0.119  1.00  0.00     0.004 C 
ENDBRANCH   2   3
ENDBRANCH   1   2
BRANCH   1   5
ATOM      5  C   UNL     1      17.600  42.402   1.945  1.00  0.00     0.008 C 
BRANCH   5   6
ATOM      6  C   UNL     1      18.458  43.582   2.412  1.00  0.00     0.075 C 
BRANCH   6   7
ATOM      7  C   UNL     1      19.597  43.825   1.458  1.00  0.00     0.129 C 
ATOM      8  O   UNL     1      20.626  43.176   1.573  1.00  0.00    -0.300 OA
ATOM      9  C   UNL     1      19.495  44.842   0.361  1.00  0.00     0.087 C 
ENDBRANCH   6   7
ENDBRANCH   5   6
ENDBRANCH   1   5
TORSDOF 5
ENDMDL
MODEL 4
REMARK VINA RESULT:    -3.663      2.333      5.355
REMARK INTER + INTRA:          -4.955
REMARK INTER:                  -4.850
REMARK INTRA:                  -0.105
REMARK UNBOUND:                -0.222
REMARK SMILES CCCCCCC(C)=O
REMARK SMILES IDX 4 1 3 2 2 3 1 4 5 5 6 6 7 7 9 8 8 9
REMARK H PARENT
REMARK Flexibility Score: inf
ROOT
ATOM      1  C   UNL     1      26.401  58.131  -9.177  1.00  0.00     0.000 C 
ENDROOT
BRANCH   1   2
ATOM      2  C   UNL     1      26.927  59.571  -9.129  1.00  0.00    -0.000 C 
BRANCH   2   3
ATOM      3  C   UNL     1      28.306  59.675  -9.790  1.00  0.00    -0.003 C 
ATOM      4  C   UNL     1      28.779  61.124  -9.855  1.00  0.00     0.004 C 
ENDBRANCH   2   3
ENDBRANCH   1   2
BRANCH   1   5
ATOM      5  C   UNL     1      25.147  57.974  -8.310  1.00  0.00     0.008 C 
BRANCH   5   6
ATOM      6  C   UNL     1      24.401  56.679  -8.650  1.00  0.00     0.075 C 
BRANCH   6   7
ATOM      7  C   UNL     1      24.633  55.635  -7.590  1.00  0.00     0.129 C 
ATOM      8  O   UNL     1      25.749  55.159  -7.450  1.00  0.00    -0.300 OA
ATOM      9  C   UNL     1      23.524  55.171  -6.693  1.00  0.00     0.087 C 
ENDBRANCH   6   7
ENDBRANCH   5   6
ENDBRANCH   1   5
TORSDOF 5
ENDMDL
MODEL 5
REMARK VINA RESULT:    -3.552     18.179     20.249
REMARK INTER + INTRA:          -4.812
REMARK INTER:                  -4.217
REMARK INTRA:                  -0.595
REMARK UNBOUND:                -0.222
REMARK SMILES CCCCCCC(C)=O
REMARK SMILES IDX 4 1 3 2 2 3 1 4 5 5 6 6 7 7 9 8 8 9
REMARK H PARENT
REMARK Flexibility Score: inf
ROOT
ATOM      1  C   UNL     1      16.890  42.139   1.782  1.00  0.00     0.000 C 
ENDROOT
BRANCH   1   2
ATOM      2  C   UNL     1      15.987  42.180   0.542  1.00  0.00    -0.000 C 
BRANCH   2   3
ATOM      3  C   UNL     1      16.820  42.265  -0.742  1.00  0.00    -0.003 C 
ATOM      4  C   UNL     1      17.901  41.188  -0.769  1.00  0.00     0.004 C 
ENDBRANCH   2   3
ENDBRANCH   1   2
BRANCH   1   5
ATOM      5  C   UNL     1      17.394  43.541   2.142  1.00  0.00     0.008 C 
BRANCH   5   6
ATOM      6  C   UNL     1      18.897  43.528   2.440  1.00  0.00     0.075 C 
BRANCH   6   7
ATOM      7  C   UNL     1      19.691  43.793   1.189  1.00  0.00     0.129 C 
ATOM      8  O   UNL     1      20.620  43.054   0.899  1.00  0.00    -0.300 OA
ATOM      9  C   UNL     1      19.362  44.940   0.281  1.00  0.00     0.087 C 
ENDBRANCH   6   7
ENDBRANCH   5   6
ENDBRANCH   1   5
TORSDOF 5
ENDMDL
MODEL 6
REMARK VINA RESULT:    -3.542     18.222     20.451
REMARK INTER + INTRA:          -4.799
REMARK INTER:                  -4.312
REMARK INTRA:                  -0.486
REMARK UNBOUND:                -0.222
REMARK SMILES CCCCCCC(C)=O
REMARK SMILES IDX 4 1 3 2 2 3 1 4 5 5 6 6 7 7 9 8 8 9
REMARK H PARENT
REMARK Flexibility Score: inf
ROOT
ATOM      1  C   UNL     1      18.391  43.503   2.488  1.00  0.00     0.000 C 
ENDROOT
BRANCH   1   2
ATOM      2  C   UNL     1      19.836  43.746   2.033  1.00  0.00    -0.000 C 
BRANCH   2   3
ATOM      3  C   UNL     1      19.897  44.027   0.527  1.00  0.00    -0.003 C 
ATOM      4  C   UNL     1      19.131  45.298   0.172  1.00  0.00     0.004 C 
ENDBRANCH   2   3
ENDBRANCH   1   2
BRANCH   1   5
ATOM      5  C   UNL     1      17.819  42.232   1.850  1.00  0.00     0.008 C 
BRANCH   5   6
ATOM      6  C   UNL     1      16.580  42.550   1.006  1.00  0.00     0.075 C 
BRANCH   6   7
ATOM      7  C   UNL     1      16.773  42.101  -0.418  1.00  0.00     0.129 C 
ATOM      8  O   UNL     1      15.936  42.393  -1.259  1.00  0.00    -0.300 OA
ATOM      9  C   UNL     1      17.978  41.310  -0.832  1.00  0.00     0.087 C 
ENDBRANCH   6   7
ENDBRANCH   5   6
ENDBRANCH   1   5
TORSDOF 5
ENDMDL
MODEL 7
REMARK VINA RESULT:    -3.541     18.484     19.506
REMARK INTER + INTRA:          -4.797
REMARK INTER:                  -4.616
REMARK INTRA:                  -0.181
REMARK UNBOUND:                -0.222
REMARK SMILES CCCCCCC(C)=O
REMARK SMILES IDX 4 1 3 2 2 3 1 4 5 5 6 6 7 7 9 8 8 9
REMARK H PARENT
REMARK Flexibility Score: inf
ROOT
ATOM      1  C   UNL     1      16.764  45.554  -0.246  1.00  0.00     0.000 C 
ENDROOT
BRANCH   1   2
ATOM      2  C   UNL     1      15.297  45.496   0.198  1.00  0.00    -0.000 C 
BRANCH   2   3
ATOM      3  C   UNL     1      15.142  44.659   1.473  1.00  0.00    -0.003 C 
ATOM      4  C   UNL     1      14.297  45.390   2.512  1.00  0.00     0.004 C 
ENDBRANCH   2   3
ENDBRANCH   1   2
BRANCH   1   5
ATOM      5  C   UNL     1      17.584  44.441   0.416  1.00  0.00     0.008 C 
BRANCH   5   6
ATOM      6  C   UNL     1      19.086  44.720   0.302  1.00  0.00     0.075 C 
BRANCH   6   7
ATOM      7  C   UNL     1      19.861  43.888   1.289  1.00  0.00     0.129 C 
ATOM      8  O   UNL     1      19.799  44.156   2.480  1.00  0.00    -0.300 OA
ATOM      9  C   UNL     1      20.702  42.728   0.845  1.00  0.00     0.087 C 
ENDBRANCH   6   7
ENDBRANCH   5   6
ENDBRANCH   1   5
TORSDOF 5
ENDMDL
MODEL 8
REMARK VINA RESULT:    -3.514     18.497     20.290
REMARK INTER + INTRA:          -4.763
REMARK INTER:                  -4.271
REMARK INTRA:                  -0.492
REMARK UNBOUND:                -0.222
REMARK SMILES CCCCCCC(C)=O
REMARK SMILES IDX 4 1 3 2 2 3 1 4 5 5 6 6 7 7 9 8 8 9
REMARK H PARENT
REMARK Flexibility Score: inf
ROOT
ATOM      1  C   UNL     1      17.836  42.485   1.582  1.00  0.00     0.000 C 
ENDROOT
BRANCH   1   2
ATOM      2  C   UNL     1      18.543  43.558   2.418  1.00  0.00    -0.000 C 
BRANCH   2   3
ATOM      3  C   UNL     1      19.802  44.067   1.708  1.00  0.00    -0.003 C 
ATOM      4  C   UNL     1      19.447  44.829   0.434  1.00  0.00     0.004 C 
ENDBRANCH   2   3
ENDBRANCH   1   2
BRANCH   1   5
ATOM      5  C   UNL     1      16.349  42.815   1.405  1.00  0.00     0.008 C 
BRANCH   5   6
ATOM      6  C   UNL     1      16.011  44.177   2.019  1.00  0.00     0.075 C 
BRANCH   6   7
ATOM      7  C   UNL     1      15.419  45.097   0.984  1.00  0.00     0.129 C 
ATOM      8  O   UNL     1      14.499  45.839   1.295  1.00  0.00    -0.300 OA
ATOM      9  C   UNL     1      15.940  45.132  -0.422  1.00  0.00     0.087 C 
ENDBRANCH   6   7
ENDBRANCH   5   6
ENDBRANCH   1   5
TORSDOF 5
ENDMDL
MODEL 9
REMARK VINA RESULT:    -3.389      3.575      5.408
REMARK INTER + INTRA:          -4.601
REMARK INTER:                  -4.407
REMARK INTRA:                  -0.194
REMARK UNBOUND:                -0.222
REMARK SMILES CCCCCCC(C)=O
REMARK SMILES IDX 4 1 3 2 2 3 1 4 5 5 6 6 7 7 9 8 8 9
REMARK H PARENT
REMARK Flexibility Score: inf
ROOT
ATOM      1  C   UNL     1      30.688  59.545 -10.264  1.00  0.00     0.000 C 
ENDROOT
BRANCH   1   2
ATOM      2  C   UNL     1      29.221  59.640 -10.701  1.00  0.00    -0.000 C 
BRANCH   2   3
ATOM      3  C   UNL     1      28.321  60.028  -9.523  1.00  0.00    -0.003 C 
ATOM      4  C   UNL     1      27.071  59.154  -9.473  1.00  0.00     0.004 C 
ENDBRANCH   2   3
ENDBRANCH   1   2
BRANCH   1   5
ATOM      5  C   UNL     1      31.547  58.900 -11.358  1.00  0.00     0.008 C 
BRANCH   5   6
ATOM      6  C   UNL     1      30.677  58.368 -12.501  1.00  0.00     0.075 C 
BRANCH   6   7
ATOM      7  C   UNL     1      31.353  57.216 -13.197  1.00  0.00     0.129 C 
ATOM      8  O   UNL     1      30.717  56.200 -13.432  1.00  0.00    -0.300 OA
ATOM      9  C   UNL     1      32.791  57.292 -13.618  1.00  0.00     0.087 C 
ENDBRANCH   6   7
ENDBRANCH   5   6
ENDBRANCH   1   5
TORSDOF 5
ENDMDL
