MODEL 1
REMARK VINA RESULT:    -1.652      0.000      0.000
REMARK INTER + INTRA:          -1.898
REMARK INTER:                  -1.989
REMARK INTRA:                   0.091
REMARK UNBOUND:                 0.091
REMARK SMILES [NH3+][C@H](Cc1c[nH]c2ccccc12)C(=O)[O-]
REMARK SMILES IDX 3 1 2 2 1 3 13 7 14 8 15 9 4 10 12 11 5 12 7 13 11 14 6 15
REMARK SMILES IDX 8 16 10 17 9 19
REMARK H PARENT 1 4 1 5 1 6 6 18
REMARK Flexibility Score: inf
ROOT
ATOM      1  C   UNL     1      -4.672  -7.815  -0.124  1.00  0.00     0.109 C 
ENDROOT
BRANCH   1   2
ATOM      2  C   UNL     1      -3.943  -7.870   1.234  1.00  0.00     0.232 C 
BRANCH   2   3
ATOM      3  N   UNL     1      -4.894  -7.928   2.353  1.00  0.00    -0.350 N 
ATOM      4  H   UNL     1      -5.821  -8.272   2.014  1.00  0.00     0.345 HD
ATOM      5  H   UNL     1      -4.552  -8.598   3.079  1.00  0.00     0.345 HD
ATOM      6  H   UNL     1      -5.016  -6.984   2.787  1.00  0.00     0.345 HD
ENDBRANCH   2   3
BRANCH   2   7
ATOM      7  C   UNL     1      -3.031  -9.066   1.269  1.00  0.00     0.099 C 
ATOM      8  O   UNL     1      -2.212  -9.209   2.215  1.00  0.00    -0.544 OA
ATOM      9  O   UNL     1      -3.071 -10.009   0.249  1.00  0.00    -0.544 OA
ENDBRANCH   2   7
ENDBRANCH   1   2
BRANCH   1  10
ATOM     10  C   UNL     1      -6.011  -8.491  -0.066  1.00  0.00    -0.016 A 
ATOM     11  C   UNL     1      -7.261  -7.901  -0.078  1.00  0.00     0.003 A 
ATOM     12  C   UNL     1      -6.244  -9.863  -0.070  1.00  0.00     0.087 A 
ATOM     13  C   UNL     1      -8.180  -8.919  -0.076  1.00  0.00     0.046 A 
ATOM     14  C   UNL     1      -7.650  -6.561  -0.105  1.00  0.00     0.010 A 
ATOM     15  N   UNL     1      -7.572 -10.118  -0.070  1.00  0.00    -0.361 N 
ATOM     16  C   UNL     1      -9.551  -8.669  -0.096  1.00  0.00     0.026 A 
ATOM     17  C   UNL     1      -9.028  -6.278  -0.124  1.00  0.00     0.001 A 
ATOM     18  H   UNL     1      -8.029 -11.058  -0.077  1.00  0.00     0.166 HD
ATOM     19  C   UNL     1      -9.975  -7.327  -0.119  1.00  0.00     0.002 A 
ENDBRANCH   1  10
TORSDOF 4
ENDMDL
MODEL 2
REMARK VINA RESULT:     0.188      2.406      5.314
REMARK INTER + INTRA:           0.318
REMARK INTER:                   0.196
REMARK INTRA:                   0.122
REMARK UNBOUND:                 0.091
REMARK SMILES [NH3+][C@H](Cc1c[nH]c2ccccc12)C(=O)[O-]
REMARK SMILES IDX 3 1 2 2 1 3 13 7 14 8 15 9 4 10 12 11 5 12 7 13 11 14 6 15
REMARK SMILES IDX 8 16 10 17 9 19
REMARK H PARENT 1 4 1 5 1 6 6 18
REMARK Flexibility Score: inf
ROOT
ATOM      1  C   UNL     1      -5.803  -6.685   0.324  1.00  0.00     0.109 C 
ENDROOT
BRANCH   1   2
ATOM      2  C   UNL     1      -7.183  -7.186   0.796  1.00  0.00     0.232 C 
BRANCH   2   3
ATOM      3  N   UNL     1      -8.251  -6.773  -0.124  1.00  0.00    -0.350 N 
ATOM      4  H   UNL     1      -8.960  -6.201   0.389  1.00  0.00     0.345 HD
ATOM      5  H   UNL     1      -7.856  -6.179  -0.889  1.00  0.00     0.345 HD
ATOM      6  H   UNL     1      -8.723  -7.606  -0.545  1.00  0.00     0.345 HD
ENDBRANCH   2   3
BRANCH   2   7
ATOM      7  C   UNL     1      -7.160  -8.686   0.920  1.00  0.00     0.099 C 
ATOM      8  O   UNL     1      -7.571  -9.405  -0.029  1.00  0.00    -0.544 OA
ATOM      9  O   UNL     1      -6.704  -9.286   2.087  1.00  0.00    -0.544 OA
ENDBRANCH   2   7
ENDBRANCH   1   2
BRANCH   1  10
ATOM     10  C   UNL     1      -4.697  -7.176   1.213  1.00  0.00    -0.016 A 
ATOM     11  C   UNL     1      -3.825  -8.224   0.983  1.00  0.00     0.003 A 
ATOM     12  C   UNL     1      -4.290  -6.606   2.415  1.00  0.00     0.087 A 
ATOM     13  C   UNL     1      -2.952  -8.253   2.040  1.00  0.00     0.046 A 
ATOM     14  C   UNL     1      -3.730  -9.132  -0.073  1.00  0.00     0.010 A 
ATOM     15  N   UNL     1      -3.227  -7.272   2.919  1.00  0.00    -0.361 N 
ATOM     16  C   UNL     1      -1.926  -9.193   2.118  1.00  0.00     0.026 A 
ATOM     17  C   UNL     1      -2.704 -10.094  -0.020  1.00  0.00     0.001 A 
ATOM     18  H   UNL     1      -2.716  -7.058   3.805  1.00  0.00     0.166 HD
ATOM     19  C   UNL     1      -1.807 -10.124   1.070  1.00  0.00     0.002 A 
ENDBRANCH   1  10
TORSDOF 4
ENDMDL
MODEL 3
REMARK VINA RESULT:     0.927      1.949      2.522
REMARK INTER + INTRA:           1.209
REMARK INTER:                   1.170
REMARK INTRA:                   0.039
REMARK UNBOUND:                 0.091
REMARK SMILES [NH3+][C@H](Cc1c[nH]c2ccccc12)C(=O)[O-]
REMARK SMILES IDX 3 1 2 2 1 3 13 7 14 8 15 9 4 10 12 11 5 12 7 13 11 14 6 15
REMARK SMILES IDX 8 16 10 17 9 19
REMARK H PARENT 1 4 1 5 1 6 6 18
REMARK Flexibility Score: inf
ROOT
ATOM      1  C   UNL     1      -4.778  -9.543   1.348  1.00  0.00     0.109 C 
ENDROOT
BRANCH   1   2
ATOM      2  C   UNL     1      -3.493  -9.037   0.661  1.00  0.00     0.232 C 
BRANCH   2   3
ATOM      3  N   UNL     1      -3.744  -7.820  -0.122  1.00  0.00    -0.350 N 
ATOM      4  H   UNL     1      -4.522  -7.273   0.312  1.00  0.00     0.345 HD
ATOM      5  H   UNL     1      -2.892  -7.214  -0.126  1.00  0.00     0.345 HD
ATOM      6  H   UNL     1      -4.001  -8.059  -1.108  1.00  0.00     0.345 HD
ENDBRANCH   2   3
BRANCH   2   7
ATOM      7  C   UNL     1      -2.436  -8.774   1.700  1.00  0.00     0.099 C 
ATOM      8  O   UNL     1      -2.018  -7.603   1.894  1.00  0.00    -0.544 OA
ATOM      9  O   UNL     1      -1.901  -9.824   2.438  1.00  0.00    -0.544 OA
ENDBRANCH   2   7
ENDBRANCH   1   2
BRANCH   1  10
ATOM     10  C   UNL     1      -5.967  -8.696   0.998  1.00  0.00    -0.016 A 
ATOM     11  C   UNL     1      -6.388  -7.530   1.609  1.00  0.00     0.003 A 
ATOM     12  C   UNL     1      -6.833  -8.891  -0.075  1.00  0.00     0.087 A 
ATOM     13  C   UNL     1      -7.476  -7.083   0.903  1.00  0.00     0.046 A 
ATOM     14  C   UNL     1      -5.890  -6.832   2.710  1.00  0.00     0.010 A 
ATOM     15  N   UNL     1      -7.756  -7.905  -0.123  1.00  0.00    -0.361 N 
ATOM     16  C   UNL     1      -8.144  -5.910   1.252  1.00  0.00     0.026 A 
ATOM     17  C   UNL     1      -6.546  -5.645   3.086  1.00  0.00     0.001 A 
ATOM     18  H   UNL     1      -8.522  -7.799  -0.826  1.00  0.00     0.166 HD
ATOM     19  C   UNL     1      -7.668  -5.187   2.361  1.00  0.00     0.002 A 
ENDBRANCH   1  10
TORSDOF 4
ENDMDL
