MODEL 1
REMARK VINA RESULT:    -5.032      0.000      0.000
REMARK INTER + INTRA:          -7.210
REMARK INTER:                  -6.209
REMARK INTRA:                  -1.002
REMARK UNBOUND:                -1.002
REMARK SMILES C=C(CCC=C(C)C)[C@H]1CC=C(C)CC1
REMARK SMILES IDX 3 1 2 2 1 3 9 4 13 5 12 6 11 7 14 8 10 9 15 10 4 11 5 12
REMARK SMILES IDX 6 13 7 14 8 15
REMARK H PARENT
REMARK Flexibility Score: inf
ROOT
ATOM      1  C   UNL     1       5.954   4.953  12.586  1.00  0.00     0.035 C 
ENDROOT
BRANCH   1   2
ATOM      2  C   UNL     1       4.644   5.691  12.417  1.00  0.00    -0.074 C 
ATOM      3  C   UNL     1       3.506   4.985  12.286  1.00  0.00     0.008 C 
BRANCH   2   4
ATOM      4  C   UNL     1       4.636   7.214  12.419  1.00  0.00     0.018 C 
ATOM      5  C   UNL     1       3.623  11.451  12.000  1.00  0.00     0.039 C 
ATOM      6  C   UNL     1       3.826   9.964  12.106  1.00  0.00    -0.077 C 
ATOM      7  C   UNL     1       4.230   9.278  11.014  1.00  0.00    -0.027 C 
ATOM      8  C   UNL     1       3.700   9.303  13.466  1.00  0.00     0.031 C 
ATOM      9  C   UNL     1       4.411   7.780  11.005  1.00  0.00     0.035 C 
ATOM     10  C   UNL     1       3.579   7.776  13.382  1.00  0.00     0.013 C 
ENDBRANCH   2   4
ENDBRANCH   1   2
BRANCH   1  11
ATOM     11  C   UNL     1       6.674   5.412  13.858  1.00  0.00     0.032 C 
BRANCH  11  12
ATOM     12  C   UNL     1       7.870   6.274  13.531  1.00  0.00    -0.028 C 
ATOM     13  C   UNL     1       8.006   7.541  13.980  1.00  0.00    -0.080 C 
ATOM     14  C   UNL     1       9.228   8.344  13.617  1.00  0.00     0.039 C 
ATOM     15  C   UNL     1       6.960   8.188  14.852  1.00  0.00     0.039 C 
ENDBRANCH  11  12
ENDBRANCH   1  11
TORSDOF 4
ENDMDL
MODEL 2
REMARK VINA RESULT:    -4.702      0.638      1.469
REMARK INTER + INTRA:          -6.803
REMARK INTER:                  -7.731
REMARK INTRA:                   0.927
REMARK UNBOUND:                -1.002
REMARK SMILES C=C(CCC=C(C)C)[C@H]1CC=C(C)CC1
REMARK SMILES IDX 3 1 2 2 1 3 9 4 13 5 12 6 11 7 14 8 10 9 15 10 4 11 5 12
REMARK SMILES IDX 6 13 7 14 8 15
REMARK H PARENT
REMARK Flexibility Score: inf
ROOT
ATOM      1  C   UNL     1       5.863   5.845  13.415  1.00  0.00     0.035 C 
ENDROOT
BRANCH   1   2
ATOM      2  C   UNL     1       4.534   5.993  12.707  1.00  0.00    -0.074 C 
ATOM      3  C   UNL     1       3.842   4.888  12.374  1.00  0.00     0.008 C 
BRANCH   2   4
ATOM      4  C   UNL     1       3.997   7.385  12.403  1.00  0.00     0.018 C 
ATOM      5  C   UNL     1       3.433  11.693  11.879  1.00  0.00     0.039 C 
ATOM      6  C   UNL     1       3.773  10.243  12.089  1.00  0.00    -0.077 C 
ATOM      7  C   UNL     1       3.656   9.715  13.327  1.00  0.00    -0.027 C 
ATOM      8  C   UNL     1       4.110   9.388  10.882  1.00  0.00     0.031 C 
ATOM      9  C   UNL     1       4.023   8.287  13.650  1.00  0.00     0.035 C 
ATOM     10  C   UNL     1       4.769   8.055  11.256  1.00  0.00     0.013 C 
ENDBRANCH   2   4
ENDBRANCH   1   2
BRANCH   1  11
ATOM     11  C   UNL     1       6.992   5.621  12.404  1.00  0.00     0.032 C 
BRANCH  11  12
ATOM     12  C   UNL     1       8.150   6.555  12.659  1.00  0.00    -0.028 C 
ATOM     13  C   UNL     1       8.157   7.459  13.664  1.00  0.00    -0.080 C 
ATOM     14  C   UNL     1       9.349   8.360  13.861  1.00  0.00     0.039 C 
ATOM     15  C   UNL     1       6.993   7.596  14.612  1.00  0.00     0.039 C 
ENDBRANCH  11  12
ENDBRANCH   1  11
TORSDOF 4
ENDMDL
MODEL 3
REMARK VINA RESULT:    -4.600      1.942      6.021
REMARK INTER + INTRA:          -6.677
REMARK INTER:                  -6.439
REMARK INTRA:                  -0.237
REMARK UNBOUND:                -1.002
REMARK SMILES C=C(CCC=C(C)C)[C@H]1CC=C(C)CC1
REMARK SMILES IDX 3 1 2 2 1 3 9 4 13 5 12 6 11 7 14 8 10 9 15 10 4 11 5 12
REMARK SMILES IDX 6 13 7 14 8 15
REMARK H PARENT
REMARK Flexibility Score: inf
ROOT
ATOM      1  C   UNL     1       3.781  10.485  12.516  1.00  0.00     0.035 C 
ENDROOT
BRANCH   1   2
ATOM      2  C   UNL     1       3.667   9.483  13.644  1.00  0.00    -0.074 C 
ATOM      3  C   UNL     1       2.857   9.755  14.684  1.00  0.00     0.008 C 
BRANCH   2   4
ATOM      4  C   UNL     1       4.454   8.181  13.574  1.00  0.00     0.018 C 
ATOM      5  C   UNL     1       7.378   5.031  12.749  1.00  0.00     0.039 C 
ATOM      6  C   UNL     1       6.470   6.210  12.966  1.00  0.00    -0.077 C 
ATOM      7  C   UNL     1       5.552   6.512  12.021  1.00  0.00    -0.027 C 
ATOM      8  C   UNL     1       6.524   6.942  14.293  1.00  0.00     0.031 C 
ATOM      9  C   UNL     1       4.632   7.705  12.121  1.00  0.00     0.035 C 
ATOM     10  C   UNL     1       5.825   8.307  14.255  1.00  0.00     0.013 C 
ENDBRANCH   2   4
ENDBRANCH   1   2
BRANCH   1  11
ATOM     11  C   UNL     1       2.916  10.060  11.326  1.00  0.00     0.032 C 
BRANCH  11  12
ATOM     12  C   UNL     1       1.998  11.176  10.888  1.00  0.00    -0.028 C 
ATOM     13  C   UNL     1       0.737  11.315  11.354  1.00  0.00    -0.080 C 
ATOM     14  C   UNL     1      -0.124  12.455  10.875  1.00  0.00     0.039 C 
ATOM     15  C   UNL     1       0.154  10.352  12.357  1.00  0.00     0.039 C 
ENDBRANCH  11  12
ENDBRANCH   1  11
TORSDOF 4
ENDMDL
MODEL 4
REMARK VINA RESULT:    -4.505      1.827      3.409
REMARK INTER + INTRA:          -6.560
REMARK INTER:                  -5.953
REMARK INTRA:                  -0.608
REMARK UNBOUND:                -1.002
REMARK SMILES C=C(CCC=C(C)C)[C@H]1CC=C(C)CC1
REMARK SMILES IDX 3 1 2 2 1 3 9 4 13 5 12 6 11 7 14 8 10 9 15 10 4 11 5 12
REMARK SMILES IDX 6 13 7 14 8 15
REMARK H PARENT
REMARK Flexibility Score: inf
ROOT
ATOM      1  C   UNL     1       5.679   8.793  13.713  1.00  0.00     0.035 C 
ENDROOT
BRANCH   1   2
ATOM      2  C   UNL     1       4.234   8.894  14.150  1.00  0.00    -0.074 C 
ATOM      3  C   UNL     1       3.910   8.595  15.421  1.00  0.00     0.008 C 
BRANCH   2   4
ATOM      4  C   UNL     1       3.178   9.349  13.151  1.00  0.00     0.018 C 
ATOM      5  C   UNL     1       0.165  11.562  10.875  1.00  0.00     0.039 C 
ATOM      6  C   UNL     1       1.227  10.931  11.733  1.00  0.00    -0.077 C 
ATOM      7  C   UNL     1       0.868  10.348  12.898  1.00  0.00    -0.027 C 
ATOM      8  C   UNL     1       2.646  10.853  11.203  1.00  0.00     0.031 C 
ATOM      9  C   UNL     1       1.864   9.735  13.852  1.00  0.00     0.035 C 
ATOM     10  C   UNL     1       3.676  10.520  12.290  1.00  0.00     0.013 C 
ENDBRANCH   2   4
ENDBRANCH   1   2
BRANCH   1  11
ATOM     11  C   UNL     1       6.419   7.733  14.534  1.00  0.00     0.032 C 
BRANCH  11  12
ATOM     12  C   UNL     1       7.280   6.859  13.653  1.00  0.00    -0.028 C 
ATOM     13  C   UNL     1       6.797   5.789  12.984  1.00  0.00    -0.080 C 
ATOM     14  C   UNL     1       7.713   4.961  12.120  1.00  0.00     0.039 C 
ATOM     15  C   UNL     1       5.345   5.391  13.072  1.00  0.00     0.039 C 
ENDBRANCH  11  12
ENDBRANCH   1  11
TORSDOF 4
ENDMDL
MODEL 5
REMARK VINA RESULT:    -4.019      1.152      5.135
REMARK INTER + INTRA:          -5.961
REMARK INTER:                  -5.640
REMARK INTRA:                  -0.321
REMARK UNBOUND:                -1.002
REMARK SMILES C=C(CCC=C(C)C)[C@H]1CC=C(C)CC1
REMARK SMILES IDX 3 1 2 2 1 3 9 4 13 5 12 6 11 7 14 8 10 9 15 10 4 11 5 12
REMARK SMILES IDX 6 13 7 14 8 15
REMARK H PARENT
REMARK Flexibility Score: inf
ROOT
ATOM      1  C   UNL     1       3.273   7.780  13.828  1.00  0.00     0.035 C 
ENDROOT
BRANCH   1   2
ATOM      2  C   UNL     1       4.381   7.002  13.151  1.00  0.00    -0.074 C 
ATOM      3  C   UNL     1       4.079   5.867  12.496  1.00  0.00     0.008 C 
BRANCH   2   4
ATOM      4  C   UNL     1       5.809   7.528  13.208  1.00  0.00     0.018 C 
ATOM      5  C   UNL     1      10.017   8.284  14.147  1.00  0.00     0.039 C 
ATOM      6  C   UNL     1       8.580   7.902  13.915  1.00  0.00    -0.077 C 
ATOM      7  C   UNL     1       7.629   8.404  14.732  1.00  0.00    -0.027 C 
ATOM      8  C   UNL     1       8.231   7.072  12.694  1.00  0.00     0.031 C 
ATOM      9  C   UNL     1       6.169   8.040  14.615  1.00  0.00     0.035 C 
ATOM     10  C   UNL     1       6.825   6.464  12.763  1.00  0.00     0.013 C 
ENDBRANCH   2   4
ENDBRANCH   1   2
BRANCH   1  11
ATOM     11  C   UNL     1       3.601   9.276  13.853  1.00  0.00     0.032 C 
BRANCH  11  12
ATOM     12  C   UNL     1       2.581  10.075  13.077  1.00  0.00    -0.028 C 
ATOM     13  C   UNL     1       2.737  10.397  11.774  1.00  0.00    -0.080 C 
ATOM     14  C   UNL     1       1.677  11.195  11.061  1.00  0.00     0.039 C 
ATOM     15  C   UNL     1       3.957   9.973  10.996  1.00  0.00     0.039 C 
ENDBRANCH  11  12
ENDBRANCH   1  11
TORSDOF 4
ENDMDL
MODEL 6
REMARK VINA RESULT:    -2.295      1.602      5.099
REMARK INTER + INTRA:          -3.833
REMARK INTER:                  -2.847
REMARK INTRA:                  -0.986
REMARK UNBOUND:                -1.002
REMARK SMILES C=C(CCC=C(C)C)[C@H]1CC=C(C)CC1
REMARK SMILES IDX 3 1 2 2 1 3 9 4 13 5 12 6 11 7 14 8 10 9 15 10 4 11 5 12
REMARK SMILES IDX 6 13 7 14 8 15
REMARK H PARENT
REMARK Flexibility Score: inf
ROOT
ATOM      1  C   UNL     1       2.237   8.485  13.563  1.00  0.00     0.035 C 
ENDROOT
BRANCH   1   2
ATOM      2  C   UNL     1       3.522   8.400  14.358  1.00  0.00    -0.074 C 
ATOM      3  C   UNL     1       3.651   9.137  15.476  1.00  0.00     0.008 C 
BRANCH   2   4
ATOM      4  C   UNL     1       4.634   7.471  13.889  1.00  0.00     0.018 C 
ATOM      5  C   UNL     1       8.137   5.674  11.977  1.00  0.00     0.039 C 
ATOM      6  C   UNL     1       6.980   6.425  12.577  1.00  0.00    -0.077 C 
ATOM      7  C   UNL     1       5.838   6.547  11.865  1.00  0.00    -0.027 C 
ATOM      8  C   UNL     1       7.085   6.908  14.011  1.00  0.00     0.031 C 
ATOM      9  C   UNL     1       4.642   7.324  12.357  1.00  0.00     0.035 C 
ATOM     10  C   UNL     1       6.013   7.942  14.376  1.00  0.00     0.013 C 
ENDBRANCH   2   4
ENDBRANCH   1   2
BRANCH   1  11
ATOM     11  C   UNL     1       1.812   9.944  13.376  1.00  0.00     0.032 C 
BRANCH  11  12
ATOM     12  C   UNL     1       2.420  10.538  12.129  1.00  0.00    -0.028 C 
ATOM     13  C   UNL     1       3.420  11.447  12.160  1.00  0.00    -0.080 C 
ATOM     14  C   UNL     1       3.982  11.997  10.875  1.00  0.00     0.039 C 
ATOM     15  C   UNL     1       4.004  11.935  13.462  1.00  0.00     0.039 C 
ENDBRANCH  11  12
ENDBRANCH   1  11
TORSDOF 4
ENDMDL
MODEL 7
REMARK VINA RESULT:    -2.159      2.008      5.892
REMARK INTER + INTRA:          -3.666
REMARK INTER:                  -3.093
REMARK INTRA:                  -0.573
REMARK UNBOUND:                -1.002
REMARK SMILES C=C(CCC=C(C)C)[C@H]1CC=C(C)CC1
REMARK SMILES IDX 3 1 2 2 1 3 9 4 13 5 12 6 11 7 14 8 10 9 15 10 4 11 5 12
REMARK SMILES IDX 6 13 7 14 8 15
REMARK H PARENT
REMARK Flexibility Score: inf
ROOT
ATOM      1  C   UNL     1       4.105  10.163  14.304  1.00  0.00     0.035 C 
ENDROOT
BRANCH   1   2
ATOM      2  C   UNL     1       4.308   8.689  14.578  1.00  0.00    -0.074 C 
ATOM      3  C   UNL     1       3.611   8.104  15.568  1.00  0.00     0.008 C 
BRANCH   2   4
ATOM      4  C   UNL     1       5.281   7.894  13.718  1.00  0.00     0.018 C 
ATOM      5  C   UNL     1       7.971   4.876  12.042  1.00  0.00     0.039 C 
ATOM      6  C   UNL     1       7.008   5.809  12.723  1.00  0.00    -0.077 C 
ATOM      7  C   UNL     1       7.459   6.607  13.715  1.00  0.00    -0.027 C 
ATOM      8  C   UNL     1       5.593   5.920  12.187  1.00  0.00     0.031 C 
ATOM      9  C   UNL     1       6.562   7.538  14.494  1.00  0.00     0.035 C 
ATOM     10  C   UNL     1       4.635   6.616  13.161  1.00  0.00     0.013 C 
ENDBRANCH   2   4
ENDBRANCH   1   2
BRANCH   1  11
ATOM     11  C   UNL     1       2.613  10.496  14.215  1.00  0.00     0.032 C 
BRANCH  11  12
ATOM     12  C   UNL     1       2.184  10.721  12.785  1.00  0.00    -0.028 C 
ATOM     13  C   UNL     1       0.938  10.446  12.339  1.00  0.00    -0.080 C 
ATOM     14  C   UNL     1       0.579  10.698  10.898  1.00  0.00     0.039 C 
ATOM     15  C   UNL     1      -0.123   9.890  13.254  1.00  0.00     0.039 C 
ENDBRANCH  11  12
ENDBRANCH   1  11
TORSDOF 4
ENDMDL
