MODEL 1
REMARK VINA RESULT:    -6.243      0.000      0.000
REMARK INTER + INTRA:         -10.535
REMARK INTER:                  -9.710
REMARK INTRA:                  -0.825
REMARK UNBOUND:                -0.825
REMARK SMILES COc1cc(CNC(=O)CCCCC=CC(C)C)ccc1O
REMARK SMILES IDX 11 1 12 2 13 3 14 4 15 5 16 6 17 7 18 8 10 9 8 10 9 11 7 12
REMARK SMILES IDX 6 14 5 15 4 16 19 17 3 18 20 19 21 20 2 21 1 22 22 23
REMARK H PARENT 7 13 22 24
REMARK Flexibility Score: inf
ROOT
ATOM      1  C   UNL     1       9.604 -24.318  19.681  1.00  0.00     0.010 C 
ENDROOT
BRANCH   1   2
ATOM      2  C   UNL     1      10.517 -24.226  20.913  1.00  0.00     0.005 C 
BRANCH   2   3
ATOM      3  C   UNL     1       9.851 -24.778  22.182  1.00  0.00     0.027 C 
BRANCH   3   4
ATOM      4  C   UNL     1       8.613 -25.584  21.872  1.00  0.00    -0.031 C 
ATOM      5  C   UNL     1       8.321 -26.853  22.238  1.00  0.00    -0.028 C 
BRANCH   5   6
ATOM      6  C   UNL     1       9.165 -27.891  22.966  1.00  0.00     0.005 C 
ATOM      7  C   UNL     1       8.315 -29.094  23.391  1.00  0.00     0.012 C 
ATOM      8  C   UNL     1      10.462 -28.322  22.274  1.00  0.00     0.012 C 
ENDBRANCH   5   6
ENDBRANCH   3   4
ENDBRANCH   2   3
ENDBRANCH   1   2
BRANCH   1   9
ATOM      9  C   UNL     1      10.078 -25.371  18.671  1.00  0.00     0.100 C 
BRANCH   9  10
ATOM     10  C   UNL     1      11.164 -24.811  17.804  1.00  0.00     0.220 C 
ATOM     11  O   UNL     1      10.878 -23.950  16.928  1.00  0.00    -0.275 OA
ATOM     12  N   UNL     1      12.510 -25.290  17.939  1.00  0.00    -0.352 N 
ATOM     13  H   UNL     1      12.712 -26.046  18.631  1.00  0.00     0.163 HD
BRANCH  12  14
ATOM     14  C   UNL     1      13.609 -24.778  17.125  1.00  0.00     0.151 C 
BRANCH  14  15
ATOM     15  C   UNL     1      14.367 -25.917  16.497  1.00  0.00    -0.025 A 
ATOM     16  C   UNL     1      15.665 -25.709  16.006  1.00  0.00     0.056 A 
ATOM     17  C   UNL     1      13.775 -27.181  16.369  1.00  0.00     0.009 A 
ATOM     18  C   UNL     1      16.380 -26.760  15.398  1.00  0.00     0.160 A 
ATOM     19  C   UNL     1      14.477 -28.227  15.766  1.00  0.00     0.050 A 
ATOM     20  C   UNL     1      15.773 -28.025  15.283  1.00  0.00     0.157 A 
BRANCH  18  21
ATOM     21  O   UNL     1      17.682 -26.585  14.903  1.00  0.00    -0.493 OA
ATOM     22  C   UNL     1      18.854 -26.542  15.709  1.00  0.00     0.278 C 
ENDBRANCH  18  21
BRANCH  20  23
ATOM     23  O   UNL     1      16.444 -29.094  14.687  1.00  0.00    -0.504 OA
ATOM     24  H   UNL     1      15.956 -29.830  14.193  1.00  0.00     0.293 HD
ENDBRANCH  20  23
ENDBRANCH  14  15
ENDBRANCH  12  14
ENDBRANCH   9  10
ENDBRANCH   1   9
TORSDOF 10
ENDMDL
MODEL 2
REMARK VINA RESULT:    -6.177      2.369      3.117
REMARK INTER + INTRA:         -10.432
REMARK INTER:                  -9.033
REMARK INTRA:                  -1.399
REMARK UNBOUND:                -0.825
REMARK SMILES COc1cc(CNC(=O)CCCCC=CC(C)C)ccc1O
REMARK SMILES IDX 11 1 12 2 13 3 14 4 15 5 16 6 17 7 18 8 10 9 8 10 9 11 7 12
REMARK SMILES IDX 6 14 5 15 4 16 19 17 3 18 20 19 21 20 2 21 1 22 22 23
REMARK H PARENT 7 13 22 24
REMARK Flexibility Score: inf
ROOT
ATOM      1  C   UNL     1      11.188 -23.349  20.876  1.00  0.00     0.010 C 
ENDROOT
BRANCH   1   2
ATOM      2  C   UNL     1      10.941 -24.710  21.545  1.00  0.00     0.005 C 
BRANCH   2   3
ATOM      3  C   UNL     1       9.678 -24.717  22.418  1.00  0.00     0.027 C 
BRANCH   3   4
ATOM      4  C   UNL     1       8.614 -25.641  21.874  1.00  0.00    -0.031 C 
ATOM      5  C   UNL     1       8.431 -26.957  22.129  1.00  0.00    -0.028 C 
BRANCH   5   6
ATOM      6  C   UNL     1       9.276 -27.934  22.936  1.00  0.00     0.005 C 
ATOM      7  C   UNL     1       8.436 -29.121  23.420  1.00  0.00     0.012 C 
ATOM      8  C   UNL     1      10.592 -28.388  22.295  1.00  0.00     0.012 C 
ENDBRANCH   5   6
ENDBRANCH   3   4
ENDBRANCH   2   3
ENDBRANCH   1   2
BRANCH   1   9
ATOM      9  C   UNL     1      10.271 -23.108  19.670  1.00  0.00     0.100 C 
BRANCH   9  10
ATOM     10  C   UNL     1      10.584 -24.080  18.574  1.00  0.00     0.220 C 
ATOM     11  O   UNL     1       9.678 -24.848  18.147  1.00  0.00    -0.275 OA
ATOM     12  N   UNL     1      11.917 -24.170  18.052  1.00  0.00    -0.352 N 
ATOM     13  H   UNL     1      12.664 -23.566  18.462  1.00  0.00     0.163 HD
BRANCH  12  14
ATOM     14  C   UNL     1      12.279 -25.095  16.981  1.00  0.00     0.151 C 
BRANCH  14  15
ATOM     15  C   UNL     1      12.989 -26.296  17.546  1.00  0.00    -0.025 A 
ATOM     16  C   UNL     1      13.073 -26.469  18.936  1.00  0.00     0.056 A 
ATOM     17  C   UNL     1      13.596 -27.230  16.696  1.00  0.00     0.009 A 
ATOM     18  C   UNL     1      13.751 -27.577  19.482  1.00  0.00     0.160 A 
ATOM     19  C   UNL     1      14.270 -28.331  17.230  1.00  0.00     0.050 A 
ATOM     20  C   UNL     1      14.350 -28.510  18.614  1.00  0.00     0.157 A 
BRANCH  18  21
ATOM     21  O   UNL     1      13.848 -27.781  20.868  1.00  0.00    -0.493 OA
ATOM     22  C   UNL     1      14.048 -26.746  21.825  1.00  0.00     0.278 C 
ENDBRANCH  18  21
BRANCH  20  23
ATOM     23  O   UNL     1      15.031 -29.622  19.111  1.00  0.00    -0.504 OA
ATOM     24  H   UNL     1      15.588 -29.581  19.955  1.00  0.00     0.293 HD
ENDBRANCH  20  23
ENDBRANCH  14  15
ENDBRANCH  12  14
ENDBRANCH   9  10
ENDBRANCH   1   9
TORSDOF 10
ENDMDL
MODEL 3
REMARK VINA RESULT:    -6.138      1.655      2.419
REMARK INTER + INTRA:         -10.371
REMARK INTER:                  -8.798
REMARK INTRA:                  -1.574
REMARK UNBOUND:                -0.825
REMARK SMILES COc1cc(CNC(=O)CCCCC=CC(C)C)ccc1O
REMARK SMILES IDX 11 1 12 2 13 3 14 4 15 5 16 6 17 7 18 8 10 9 8 10 9 11 7 12
REMARK SMILES IDX 6 14 5 15 4 16 19 17 3 18 20 19 21 20 2 21 1 22 22 23
REMARK H PARENT 7 13 22 24
REMARK Flexibility Score: inf
ROOT
ATOM      1  C   UNL     1       9.919 -24.593  21.226  1.00  0.00     0.010 C 
ENDROOT
BRANCH   1   2
ATOM      2  C   UNL     1       9.648 -25.698  22.259  1.00  0.00     0.005 C 
BRANCH   2   3
ATOM      3  C   UNL     1       9.600 -27.096  21.627  1.00  0.00     0.027 C 
BRANCH   3   4
ATOM      4  C   UNL     1      10.536 -28.063  22.310  1.00  0.00    -0.031 C 
ATOM      5  C   UNL     1      11.888 -28.092  22.278  1.00  0.00    -0.028 C 
BRANCH   5   6
ATOM      6  C   UNL     1      12.876 -27.252  21.478  1.00  0.00     0.005 C 
ATOM      7  C   UNL     1      13.388 -26.067  22.304  1.00  0.00     0.012 C 
ATOM      8  C   UNL     1      14.018 -28.011  20.795  1.00  0.00     0.012 C 
ENDBRANCH   5   6
ENDBRANCH   3   4
ENDBRANCH   2   3
ENDBRANCH   1   2
BRANCH   1   9
ATOM      9  C   UNL     1       9.609 -25.037  19.791  1.00  0.00     0.100 C 
BRANCH   9  10
ATOM     10  C   UNL     1      10.717 -24.631  18.867  1.00  0.00     0.220 C 
ATOM     11  O   UNL     1      10.481 -23.819  17.932  1.00  0.00    -0.275 OA
ATOM     12  N   UNL     1      12.024 -25.204  19.019  1.00  0.00    -0.352 N 
ATOM     13  H   UNL     1      12.182 -25.919  19.764  1.00  0.00     0.163 HD
BRANCH  12  14
ATOM     14  C   UNL     1      13.143 -24.843  18.152  1.00  0.00     0.151 C 
BRANCH  14  15
ATOM     15  C   UNL     1      13.604 -26.043  17.368  1.00  0.00    -0.025 A 
ATOM     16  C   UNL     1      14.751 -25.956  16.565  1.00  0.00     0.056 A 
ATOM     17  C   UNL     1      12.878 -27.241  17.409  1.00  0.00     0.009 A 
ATOM     18  C   UNL     1      15.184 -27.065  15.811  1.00  0.00     0.160 A 
ATOM     19  C   UNL     1      13.300 -28.343  16.662  1.00  0.00     0.050 A 
ATOM     20  C   UNL     1      14.446 -28.263  15.867  1.00  0.00     0.157 A 
BRANCH  18  21
ATOM     21  O   UNL     1      16.331 -27.012  15.002  1.00  0.00    -0.493 OA
ATOM     22  C   UNL     1      17.552 -26.381  15.373  1.00  0.00     0.278 C 
ENDBRANCH  18  21
BRANCH  20  23
ATOM     23  O   UNL     1      14.839 -29.385  15.136  1.00  0.00    -0.504 OA
ATOM     24  H   UNL     1      14.169 -30.034  14.742  1.00  0.00     0.293 HD
ENDBRANCH  20  23
ENDBRANCH  14  15
ENDBRANCH  12  14
ENDBRANCH   9  10
ENDBRANCH   1   9
TORSDOF 10
ENDMDL
MODEL 4
REMARK VINA RESULT:    -6.067      3.143      7.888
REMARK INTER + INTRA:         -10.261
REMARK INTER:                  -8.725
REMARK INTRA:                  -1.536
REMARK UNBOUND:                -0.825
REMARK SMILES COc1cc(CNC(=O)CCCCC=CC(C)C)ccc1O
REMARK SMILES IDX 11 1 12 2 13 3 14 4 15 5 16 6 17 7 18 8 10 9 8 10 9 11 7 12
REMARK SMILES IDX 6 14 5 15 4 16 19 17 3 18 20 19 21 20 2 21 1 22 22 23
REMARK H PARENT 7 13 22 24
REMARK Flexibility Score: inf
ROOT
ATOM      1  C   UNL     1      15.174 -27.451  17.776  1.00  0.00     0.010 C 
ENDROOT
BRANCH   1   2
ATOM      2  C   UNL     1      13.928 -27.755  16.930  1.00  0.00     0.005 C 
BRANCH   2   3
ATOM      3  C   UNL     1      12.693 -26.973  17.398  1.00  0.00     0.027 C 
BRANCH   3   4
ATOM      4  C   UNL     1      13.064 -25.747  18.198  1.00  0.00    -0.031 C 
ATOM      5  C   UNL     1      12.361 -24.602  18.358  1.00  0.00    -0.028 C 
BRANCH   5   6
ATOM      6  C   UNL     1      11.058 -24.144  17.717  1.00  0.00     0.005 C 
ATOM      7  C   UNL     1      11.265 -23.783  16.242  1.00  0.00     0.012 C 
ATOM      8  C   UNL     1       9.842 -25.053  17.919  1.00  0.00     0.012 C 
ENDBRANCH   5   6
ENDBRANCH   3   4
ENDBRANCH   2   3
ENDBRANCH   1   2
BRANCH   1   9
ATOM      9  C   UNL     1      15.488 -28.561  18.787  1.00  0.00     0.100 C 
BRANCH   9  10
ATOM     10  C   UNL     1      15.098 -28.133  20.169  1.00  0.00     0.220 C 
ATOM     11  O   UNL     1      15.933 -27.519  20.888  1.00  0.00    -0.275 OA
ATOM     12  N   UNL     1      13.801 -28.466  20.685  1.00  0.00    -0.352 N 
ATOM     13  H   UNL     1      13.148 -29.026  20.093  1.00  0.00     0.163 HD
BRANCH  12  14
ATOM     14  C   UNL     1      13.364 -28.071  22.023  1.00  0.00     0.151 C 
BRANCH  14  15
ATOM     15  C   UNL     1      11.971 -27.506  21.970  1.00  0.00    -0.025 A 
ATOM     16  C   UNL     1      10.871 -28.325  22.268  1.00  0.00     0.056 A 
ATOM     17  C   UNL     1      11.757 -26.172  21.596  1.00  0.00     0.009 A 
ATOM     18  C   UNL     1       9.559 -27.815  22.204  1.00  0.00     0.160 A 
ATOM     19  C   UNL     1      10.459 -25.660  21.530  1.00  0.00     0.050 A 
ATOM     20  C   UNL     1       9.362 -26.471  21.832  1.00  0.00     0.157 A 
BRANCH  18  21
ATOM     21  O   UNL     1       8.438 -28.607  22.501  1.00  0.00    -0.493 OA
ATOM     22  C   UNL     1       8.312 -29.428  23.658  1.00  0.00     0.278 C 
ENDBRANCH  18  21
BRANCH  20  23
ATOM     23  O   UNL     1       8.080 -25.926  21.757  1.00  0.00    -0.504 OA
ATOM     24  H   UNL     1       7.292 -26.328  22.249  1.00  0.00     0.293 HD
ENDBRANCH  20  23
ENDBRANCH  14  15
ENDBRANCH  12  14
ENDBRANCH   9  10
ENDBRANCH   1   9
TORSDOF 10
ENDMDL
MODEL 5
REMARK VINA RESULT:    -5.953      1.491      1.871
REMARK INTER + INTRA:         -10.083
REMARK INTER:                  -8.983
REMARK INTRA:                  -1.101
REMARK UNBOUND:                -0.825
REMARK SMILES COc1cc(CNC(=O)CCCCC=CC(C)C)ccc1O
REMARK SMILES IDX 11 1 12 2 13 3 14 4 15 5 16 6 17 7 18 8 10 9 8 10 9 11 7 12
REMARK SMILES IDX 6 14 5 15 4 16 19 17 3 18 20 19 21 20 2 21 1 22 22 23
REMARK H PARENT 7 13 22 24
REMARK Flexibility Score: inf
ROOT
ATOM      1  C   UNL     1      11.082 -23.322  20.549  1.00  0.00     0.010 C 
ENDROOT
BRANCH   1   2
ATOM      2  C   UNL     1      11.036 -24.678  21.270  1.00  0.00     0.005 C 
BRANCH   2   3
ATOM      3  C   UNL     1       9.921 -24.746  22.324  1.00  0.00     0.027 C 
BRANCH   3   4
ATOM      4  C   UNL     1       8.763 -25.603  21.874  1.00  0.00    -0.031 C 
ATOM      5  C   UNL     1       8.514 -26.901  22.163  1.00  0.00    -0.028 C 
BRANCH   5   6
ATOM      6  C   UNL     1       9.350 -27.923  22.922  1.00  0.00     0.005 C 
ATOM      7  C   UNL     1       8.494 -29.113  23.370  1.00  0.00     0.012 C 
ATOM      8  C   UNL     1      10.650 -28.374  22.250  1.00  0.00     0.012 C 
ENDBRANCH   5   6
ENDBRANCH   3   4
ENDBRANCH   2   3
ENDBRANCH   1   2
BRANCH   1   9
ATOM      9  C   UNL     1      10.113 -23.250  19.363  1.00  0.00     0.100 C 
BRANCH   9  10
ATOM     10  C   UNL     1      10.664 -24.004  18.191  1.00  0.00     0.220 C 
ATOM     11  O   UNL     1       9.910 -24.776  17.538  1.00  0.00    -0.275 OA
ATOM     12  N   UNL     1      12.053 -23.886  17.850  1.00  0.00    -0.352 N 
ATOM     13  H   UNL     1      12.672 -23.287  18.441  1.00  0.00     0.163 HD
BRANCH  12  14
ATOM     14  C   UNL     1      12.645 -24.593  16.716  1.00  0.00     0.151 C 
BRANCH  14  15
ATOM     15  C   UNL     1      13.440 -25.777  17.198  1.00  0.00    -0.025 A 
ATOM     16  C   UNL     1      14.526 -26.245  16.443  1.00  0.00     0.056 A 
ATOM     17  C   UNL     1      13.086 -26.437  18.383  1.00  0.00     0.009 A 
ATOM     18  C   UNL     1      15.268 -27.364  16.871  1.00  0.00     0.160 A 
ATOM     19  C   UNL     1      13.817 -27.548  18.813  1.00  0.00     0.050 A 
ATOM     20  C   UNL     1      14.903 -28.013  18.067  1.00  0.00     0.157 A 
BRANCH  18  21
ATOM     21  O   UNL     1      16.363 -27.854  16.141  1.00  0.00    -0.493 OA
ATOM     22  C   UNL     1      16.335 -28.159  14.751  1.00  0.00     0.278 C 
ENDBRANCH  18  21
BRANCH  20  23
ATOM     23  O   UNL     1      15.610 -29.124  18.527  1.00  0.00    -0.504 OA
ATOM     24  H   UNL     1      16.406 -29.502  18.028  1.00  0.00     0.293 HD
ENDBRANCH  20  23
ENDBRANCH  14  15
ENDBRANCH  12  14
ENDBRANCH   9  10
ENDBRANCH   1   9
TORSDOF 10
ENDMDL
MODEL 6
REMARK VINA RESULT:    -5.949      1.797      2.942
REMARK INTER + INTRA:         -10.077
REMARK INTER:                  -8.870
REMARK INTRA:                  -1.207
REMARK UNBOUND:                -0.825
REMARK SMILES COc1cc(CNC(=O)CCCCC=CC(C)C)ccc1O
REMARK SMILES IDX 11 1 12 2 13 3 14 4 15 5 16 6 17 7 18 8 10 9 8 10 9 11 7 12
REMARK SMILES IDX 6 14 5 15 4 16 19 17 3 18 20 19 21 20 2 21 1 22 22 23
REMARK H PARENT 7 13 22 24
REMARK Flexibility Score: inf
ROOT
ATOM      1  C   UNL     1      10.658 -24.505  21.794  1.00  0.00     0.010 C 
ENDROOT
BRANCH   1   2
ATOM      2  C   UNL     1      11.825 -25.432  21.420  1.00  0.00     0.005 C 
BRANCH   2   3
ATOM      3  C   UNL     1      11.351 -26.821  20.969  1.00  0.00     0.027 C 
BRANCH   3   4
ATOM      4  C   UNL     1      11.550 -27.868  22.038  1.00  0.00    -0.031 C 
ATOM      5  C   UNL     1      10.616 -28.614  22.671  1.00  0.00    -0.028 C 
BRANCH   5   6
ATOM      6  C   UNL     1       9.095 -28.568  22.593  1.00  0.00     0.005 C 
ATOM      7  C   UNL     1       8.461 -29.496  23.634  1.00  0.00     0.012 C 
ATOM      8  C   UNL     1       8.454 -27.176  22.599  1.00  0.00     0.012 C 
ENDBRANCH   5   6
ENDBRANCH   3   4
ENDBRANCH   2   3
ENDBRANCH   1   2
BRANCH   1   9
ATOM      9  C   UNL     1       9.690 -24.273  20.627  1.00  0.00     0.100 C 
BRANCH   9  10
ATOM     10  C   UNL     1      10.409 -23.657  19.466  1.00  0.00     0.220 C 
ATOM     11  O   UNL     1      10.850 -22.479  19.562  1.00  0.00    -0.275 OA
ATOM     12  N   UNL     1      10.549 -24.387  18.239  1.00  0.00    -0.352 N 
ATOM     13  H   UNL     1      10.125 -25.338  18.163  1.00  0.00     0.163 HD
BRANCH  12  14
ATOM     14  C   UNL     1      11.244 -23.839  17.076  1.00  0.00     0.151 C 
BRANCH  14  15
ATOM     15  C   UNL     1      12.463 -24.665  16.761  1.00  0.00    -0.025 A 
ATOM     16  C   UNL     1      12.668 -25.889  17.416  1.00  0.00     0.056 A 
ATOM     17  C   UNL     1      13.415 -24.206  15.840  1.00  0.00     0.009 A 
ATOM     18  C   UNL     1      13.814 -26.663  17.146  1.00  0.00     0.160 A 
ATOM     19  C   UNL     1      14.554 -24.968  15.569  1.00  0.00     0.050 A 
ATOM     20  C   UNL     1      14.758 -26.191  16.214  1.00  0.00     0.157 A 
BRANCH  18  21
ATOM     21  O   UNL     1      14.045 -27.895  17.781  1.00  0.00    -0.493 OA
ATOM     22  C   UNL     1      14.415 -28.042  19.148  1.00  0.00     0.278 C 
ENDBRANCH  18  21
BRANCH  20  23
ATOM     23  O   UNL     1      15.906 -26.926  15.917  1.00  0.00    -0.504 OA
ATOM     24  H   UNL     1      16.110 -27.255  14.981  1.00  0.00     0.293 HD
ENDBRANCH  20  23
ENDBRANCH  14  15
ENDBRANCH  12  14
ENDBRANCH   9  10
ENDBRANCH   1   9
TORSDOF 10
ENDMDL
MODEL 7
REMARK VINA RESULT:    -5.932      3.082      4.937
REMARK INTER + INTRA:         -10.051
REMARK INTER:                  -8.036
REMARK INTRA:                  -2.015
REMARK UNBOUND:                -0.825
REMARK SMILES COc1cc(CNC(=O)CCCCC=CC(C)C)ccc1O
REMARK SMILES IDX 11 1 12 2 13 3 14 4 15 5 16 6 17 7 18 8 10 9 8 10 9 11 7 12
REMARK SMILES IDX 6 14 5 15 4 16 19 17 3 18 20 19 21 20 2 21 1 22 22 23
REMARK H PARENT 7 13 22 24
REMARK Flexibility Score: inf
ROOT
ATOM      1  C   UNL     1       9.989 -24.405  22.879  1.00  0.00     0.010 C 
ENDROOT
BRANCH   1   2
ATOM      2  C   UNL     1       9.982 -23.144  23.756  1.00  0.00     0.005 C 
BRANCH   2   3
ATOM      3  C   UNL     1      11.382 -22.534  23.922  1.00  0.00     0.027 C 
BRANCH   3   4
ATOM      4  C   UNL     1      11.517 -21.212  23.207  1.00  0.00    -0.031 C 
ATOM      5  C   UNL     1      11.531 -20.972  21.875  1.00  0.00    -0.028 C 
BRANCH   5   6
ATOM      6  C   UNL     1      11.527 -21.938  20.697  1.00  0.00     0.005 C 
ATOM      7  C   UNL     1      10.882 -21.298  19.462  1.00  0.00     0.012 C 
ATOM      8  C   UNL     1      12.861 -22.611  20.363  1.00  0.00     0.012 C 
ENDBRANCH   5   6
ENDBRANCH   3   4
ENDBRANCH   2   3
ENDBRANCH   1   2
BRANCH   1   9
ATOM      9  C   UNL     1       8.913 -24.370  21.786  1.00  0.00     0.100 C 
BRANCH   9  10
ATOM     10  C   UNL     1       9.334 -25.203  20.613  1.00  0.00     0.220 C 
ATOM     11  O   UNL     1       9.774 -26.369  20.805  1.00  0.00    -0.275 OA
ATOM     12  N   UNL     1       9.282 -24.656  19.288  1.00  0.00    -0.352 N 
ATOM     13  H   UNL     1       8.970 -23.667  19.159  1.00  0.00     0.163 HD
BRANCH  12  14
ATOM     14  C   UNL     1       9.675 -25.421  18.107  1.00  0.00     0.151 C 
BRANCH  14  15
ATOM     15  C   UNL     1      11.112 -25.143  17.759  1.00  0.00    -0.025 A 
ATOM     16  C   UNL     1      12.117 -26.034  18.166  1.00  0.00     0.056 A 
ATOM     17  C   UNL     1      11.463 -23.981  17.057  1.00  0.00     0.009 A 
ATOM     18  C   UNL     1      13.469 -25.777  17.865  1.00  0.00     0.160 A 
ATOM     19  C   UNL     1      12.801 -23.720  16.756  1.00  0.00     0.050 A 
ATOM     20  C   UNL     1      13.804 -24.609  17.153  1.00  0.00     0.157 A 
BRANCH  18  21
ATOM     21  O   UNL     1      14.497 -26.652  18.253  1.00  0.00    -0.493 OA
ATOM     22  C   UNL     1      14.338 -28.055  18.433  1.00  0.00     0.278 C 
ENDBRANCH  18  21
BRANCH  20  23
ATOM     23  O   UNL     1      15.130 -24.315  16.834  1.00  0.00    -0.504 OA
ATOM     24  H   UNL     1      15.613 -24.767  16.067  1.00  0.00     0.293 HD
ENDBRANCH  20  23
ENDBRANCH  14  15
ENDBRANCH  12  14
ENDBRANCH   9  10
ENDBRANCH   1   9
TORSDOF 10
ENDMDL
MODEL 8
REMARK VINA RESULT:    -5.924      3.544      4.324
REMARK INTER + INTRA:         -10.038
REMARK INTER:                  -8.712
REMARK INTRA:                  -1.327
REMARK UNBOUND:                -0.825
REMARK SMILES COc1cc(CNC(=O)CCCCC=CC(C)C)ccc1O
REMARK SMILES IDX 11 1 12 2 13 3 14 4 15 5 16 6 17 7 18 8 10 9 8 10 9 11 7 12
REMARK SMILES IDX 6 14 5 15 4 16 19 17 3 18 20 19 21 20 2 21 1 22 22 23
REMARK H PARENT 7 13 22 24
REMARK Flexibility Score: inf
ROOT
ATOM      1  C   UNL     1       9.990 -25.132  19.446  1.00  0.00     0.010 C 
ENDROOT
BRANCH   1   2
ATOM      2  C   UNL     1      10.499 -24.363  20.674  1.00  0.00     0.005 C 
BRANCH   2   3
ATOM      3  C   UNL     1       9.964 -24.939  21.993  1.00  0.00     0.027 C 
BRANCH   3   4
ATOM      4  C   UNL     1       8.633 -25.630  21.815  1.00  0.00    -0.031 C 
ATOM      5  C   UNL     1       8.244 -26.839  22.280  1.00  0.00    -0.028 C 
BRANCH   5   6
ATOM      6  C   UNL     1       9.030 -27.915  23.019  1.00  0.00     0.005 C 
ATOM      7  C   UNL     1       8.110 -29.046  23.489  1.00  0.00     0.012 C 
ATOM      8  C   UNL     1      10.280 -28.450  22.313  1.00  0.00     0.012 C 
ENDBRANCH   5   6
ENDBRANCH   3   4
ENDBRANCH   2   3
ENDBRANCH   1   2
BRANCH   1   9
ATOM      9  C   UNL     1      10.752 -24.771  18.164  1.00  0.00     0.100 C 
BRANCH   9  10
ATOM     10  C   UNL     1      12.196 -25.153  18.290  1.00  0.00     0.220 C 
ATOM     11  O   UNL     1      13.082 -24.257  18.242  1.00  0.00    -0.275 OA
ATOM     12  N   UNL     1      12.565 -26.534  18.413  1.00  0.00    -0.352 N 
ATOM     13  H   UNL     1      11.818 -27.264  18.391  1.00  0.00     0.163 HD
BRANCH  12  14
ATOM     14  C   UNL     1      13.955 -26.966  18.543  1.00  0.00     0.151 C 
BRANCH  14  15
ATOM     15  C   UNL     1      14.180 -27.597  19.891  1.00  0.00    -0.025 A 
ATOM     16  C   UNL     1      14.972 -28.750  20.001  1.00  0.00     0.056 A 
ATOM     17  C   UNL     1      13.580 -27.059  21.038  1.00  0.00     0.009 A 
ATOM     18  C   UNL     1      15.177 -29.363  21.253  1.00  0.00     0.160 A 
ATOM     19  C   UNL     1      13.778 -27.663  22.282  1.00  0.00     0.050 A 
ATOM     20  C   UNL     1      14.571 -28.808  22.396  1.00  0.00     0.157 A 
BRANCH  18  21
ATOM     21  O   UNL     1      15.968 -30.515  21.397  1.00  0.00    -0.493 OA
ATOM     22  C   UNL     1      16.601 -31.199  20.320  1.00  0.00     0.278 C 
ENDBRANCH  18  21
BRANCH  20  23
ATOM     23  O   UNL     1      14.747 -29.382  23.656  1.00  0.00    -0.504 OA
ATOM     24  H   UNL     1      15.615 -29.827  23.930  1.00  0.00     0.293 HD
ENDBRANCH  20  23
ENDBRANCH  14  15
ENDBRANCH  12  14
ENDBRANCH   9  10
ENDBRANCH   1   9
TORSDOF 10
ENDMDL
MODEL 9
REMARK VINA RESULT:    -5.841      2.369      4.236
REMARK INTER + INTRA:          -9.910
REMARK INTER:                  -7.886
REMARK INTRA:                  -2.025
REMARK UNBOUND:                -0.825
REMARK SMILES COc1cc(CNC(=O)CCCCC=CC(C)C)ccc1O
REMARK SMILES IDX 11 1 12 2 13 3 14 4 15 5 16 6 17 7 18 8 10 9 8 10 9 11 7 12
REMARK SMILES IDX 6 14 5 15 4 16 19 17 3 18 20 19 21 20 2 21 1 22 22 23
REMARK H PARENT 7 13 22 24
REMARK Flexibility Score: inf
ROOT
ATOM      1  C   UNL     1      10.238 -25.639  21.882  1.00  0.00     0.010 C 
ENDROOT
BRANCH   1   2
ATOM      2  C   UNL     1       9.128 -25.103  20.964  1.00  0.00     0.005 C 
BRANCH   2   3
ATOM      3  C   UNL     1       9.684 -24.375  19.732  1.00  0.00     0.027 C 
BRANCH   3   4
ATOM      4  C   UNL     1      10.097 -25.333  18.641  1.00  0.00    -0.031 C 
ATOM      5  C   UNL     1      11.164 -25.258  17.813  1.00  0.00    -0.028 C 
BRANCH   5   6
ATOM      6  C   UNL     1      12.206 -24.160  17.641  1.00  0.00     0.005 C 
ATOM      7  C   UNL     1      13.050 -23.996  18.910  1.00  0.00     0.012 C 
ATOM      8  C   UNL     1      13.075 -24.237  16.382  1.00  0.00     0.012 C 
ENDBRANCH   5   6
ENDBRANCH   3   4
ENDBRANCH   2   3
ENDBRANCH   1   2
BRANCH   1   9
ATOM      9  C   UNL     1      10.345 -27.168  21.849  1.00  0.00     0.100 C 
BRANCH   9  10
ATOM     10  C   UNL     1      11.774 -27.588  21.684  1.00  0.00     0.220 C 
ATOM     11  O   UNL     1      12.292 -28.375  22.523  1.00  0.00    -0.275 OA
ATOM     12  N   UNL     1      12.559 -27.056  20.607  1.00  0.00    -0.352 N 
ATOM     13  H   UNL     1      12.127 -26.360  19.959  1.00  0.00     0.163 HD
BRANCH  12  14
ATOM     14  C   UNL     1      13.955 -27.432  20.394  1.00  0.00     0.151 C 
BRANCH  14  15
ATOM     15  C   UNL     1      14.259 -27.494  18.921  1.00  0.00    -0.025 A 
ATOM     16  C   UNL     1      15.403 -26.859  18.415  1.00  0.00     0.056 A 
ATOM     17  C   UNL     1      13.391 -28.156  18.042  1.00  0.00     0.009 A 
ATOM     18  C   UNL     1      15.691 -26.892  17.036  1.00  0.00     0.160 A 
ATOM     19  C   UNL     1      13.669 -28.192  16.674  1.00  0.00     0.050 A 
ATOM     20  C   UNL     1      14.812 -27.566  16.167  1.00  0.00     0.157 A 
BRANCH  18  21
ATOM     21  O   UNL     1      16.831 -26.272  16.500  1.00  0.00    -0.493 OA
ATOM     22  C   UNL     1      16.959 -24.871  16.277  1.00  0.00     0.278 C 
ENDBRANCH  18  21
BRANCH  20  23
ATOM     23  O   UNL     1      15.058 -27.624  14.795  1.00  0.00    -0.504 OA
ATOM     24  H   UNL     1      15.995 -27.574  14.412  1.00  0.00     0.293 HD
ENDBRANCH  20  23
ENDBRANCH  14  15
ENDBRANCH  12  14
ENDBRANCH   9  10
ENDBRANCH   1   9
TORSDOF 10
ENDMDL
