MODEL 1
REMARK VINA RESULT:    -4.413      0.000      0.000
REMARK INTER + INTRA:          -5.359
REMARK INTER:                  -5.445
REMARK INTRA:                   0.086
REMARK UNBOUND:                 0.086
REMARK SMILES O=C1c2c(O)cc(O)cc2O[C@@H](c2cc(O)c(O)c(O)c2)[C@@H]1O
REMARK SMILES IDX 12 1 22 2 2 3 1 4 3 5 4 6 6 7 7 8 9 9 10 10 11 11 13 12
REMARK SMILES IDX 14 13 15 14 21 15 17 16 19 17 16 18 18 20 20 22 23 24 5 26
REMARK SMILES IDX 8 28
REMARK H PARENT 16 19 18 21 20 23 23 25 5 27 8 29
REMARK Flexibility Score: inf
ROOT
ATOM      1  C   UNL     1      10.966   6.895  -2.924  1.00  0.00     0.240 C 
ATOM      2  C   UNL     1       9.732   7.030  -1.997  1.00  0.00     0.231 C 
ATOM      3  C   UNL     1       9.387   8.482  -1.744  1.00  0.00     0.202 C 
ATOM      4  O   UNL     1       8.258   8.759  -1.247  1.00  0.00    -0.291 OA
ATOM      5  C   UNL     1      10.397   9.549  -1.951  1.00  0.00     0.105 A 
ATOM      6  C   UNL     1      10.112  10.919  -1.761  1.00  0.00     0.133 A 
ATOM      7  C   UNL     1      11.135  11.870  -1.914  1.00  0.00     0.093 A 
ATOM      8  C   UNL     1      12.430  11.469  -2.257  1.00  0.00     0.123 A 
ATOM      9  C   UNL     1      12.707  10.115  -2.455  1.00  0.00     0.093 A 
ATOM     10  C   UNL     1      11.695   9.161  -2.322  1.00  0.00     0.138 A 
ATOM     11  O   UNL     1      11.989   7.815  -2.547  1.00  0.00    -0.481 OA
ENDROOT
BRANCH   1  12
ATOM     12  C   UNL     1      11.519   5.487  -2.892  1.00  0.00     0.003 A 
ATOM     13  C   UNL     1      10.654   4.386  -2.981  1.00  0.00     0.058 A 
ATOM     14  C   UNL     1      11.156   3.082  -3.046  1.00  0.00     0.161 A 
ATOM     15  C   UNL     1      12.906   5.268  -2.834  1.00  0.00     0.058 A 
ATOM     16  C   UNL     1      12.559   2.868  -3.027  1.00  0.00     0.200 A 
ATOM     17  C   UNL     1      13.424   3.970  -2.912  1.00  0.00     0.161 A 
BRANCH  14  18
ATOM     18  O   UNL     1      10.236   2.034  -3.125  1.00  0.00    -0.504 OA
ATOM     19  H   UNL     1       9.378   2.076  -3.667  1.00  0.00     0.293 HD
ENDBRANCH  14  18
BRANCH  16  20
ATOM     20  O   UNL     1      13.120   1.596  -3.124  1.00  0.00    -0.502 OA
ATOM     21  H   UNL     1      12.585   0.751  -3.259  1.00  0.00     0.293 HD
ENDBRANCH  16  20
BRANCH  17  22
ATOM     22  O   UNL     1      14.807   3.793  -2.890  1.00  0.00    -0.504 OA
ATOM     23  H   UNL     1      15.448   4.580  -2.908  1.00  0.00     0.293 HD
ENDBRANCH  17  22
ENDBRANCH   1  12
BRANCH   2  24
ATOM     24  O   UNL     1       8.623   6.389  -2.583  1.00  0.00    -0.381 OA
ATOM     25  H   UNL     1       8.076   7.086  -3.035  1.00  0.00     0.211 HD
ENDBRANCH   2  24
BRANCH   6  26
ATOM     26  O   UNL     1       8.829  11.341  -1.412  1.00  0.00    -0.507 OA
ATOM     27  H   UNL     1       8.679  12.114  -0.771  1.00  0.00     0.293 HD
ENDBRANCH   6  26
BRANCH   8  28
ATOM     28  O   UNL     1      13.445  12.408  -2.396  1.00  0.00    -0.508 OA
ATOM     29  H   UNL     1      14.393  12.134  -2.603  1.00  0.00     0.293 HD
ENDBRANCH   8  28
TORSDOF 7
ENDMDL
MODEL 2
REMARK VINA RESULT:    -4.124      1.592      3.868
REMARK INTER + INTRA:          -5.003
REMARK INTER:                  -4.933
REMARK INTRA:                  -0.070
REMARK UNBOUND:                 0.086
REMARK SMILES O=C1c2c(O)cc(O)cc2O[C@@H](c2cc(O)c(O)c(O)c2)[C@@H]1O
REMARK SMILES IDX 12 1 22 2 2 3 1 4 3 5 4 6 6 7 7 8 9 9 10 10 11 11 13 12
REMARK SMILES IDX 14 13 15 14 21 15 17 16 19 17 16 18 18 20 20 22 23 24 5 26
REMARK SMILES IDX 8 28
REMARK H PARENT 16 19 18 21 20 23 23 25 5 27 8 29
REMARK Flexibility Score: inf
ROOT
ATOM      1  C   UNL     1      11.952   8.677  -1.760  1.00  0.00     0.240 C 
ATOM      2  C   UNL     1      13.063   9.171  -2.719  1.00  0.00     0.231 C 
ATOM      3  C   UNL     1      13.252  10.669  -2.623  1.00  0.00     0.202 C 
ATOM      4  O   UNL     1      14.293  11.184  -3.124  1.00  0.00    -0.291 OA
ATOM      5  C   UNL     1      12.181  11.535  -2.070  1.00  0.00     0.105 A 
ATOM      6  C   UNL     1      12.324  12.932  -1.928  1.00  0.00     0.133 A 
ATOM      7  C   UNL     1      11.245  13.698  -1.455  1.00  0.00     0.093 A 
ATOM      8  C   UNL     1      10.034  13.085  -1.119  1.00  0.00     0.123 A 
ATOM      9  C   UNL     1       9.898  11.701  -1.250  1.00  0.00     0.093 A 
ATOM     10  C   UNL     1      10.969  10.927  -1.703  1.00  0.00     0.138 A 
ATOM     11  O   UNL     1      10.818   9.543  -1.805  1.00  0.00    -0.481 OA
ENDROOT
BRANCH   1  12
ATOM     12  C   UNL     1      11.523   7.268  -2.103  1.00  0.00     0.003 A 
ATOM     13  C   UNL     1      12.418   6.199  -1.946  1.00  0.00     0.058 A 
ATOM     14  C   UNL     1      12.009   4.880  -2.171  1.00  0.00     0.161 A 
ATOM     15  C   UNL     1      10.207   7.006  -2.523  1.00  0.00     0.058 A 
ATOM     16  C   UNL     1      10.668   4.618  -2.556  1.00  0.00     0.200 A 
ATOM     17  C   UNL     1       9.778   5.691  -2.737  1.00  0.00     0.161 A 
BRANCH  14  18
ATOM     18  O   UNL     1      12.956   3.868  -2.004  1.00  0.00    -0.504 OA
ATOM     19  H   UNL     1      12.763   2.985  -1.538  1.00  0.00     0.293 HD
ENDBRANCH  14  18
BRANCH  16  20
ATOM     20  O   UNL     1      10.192   3.324  -2.760  1.00  0.00    -0.502 OA
ATOM     21  H   UNL     1      10.691   2.489  -2.493  1.00  0.00     0.293 HD
ENDBRANCH  16  20
BRANCH  17  22
ATOM     22  O   UNL     1       8.455   5.466  -3.116  1.00  0.00    -0.504 OA
ATOM     23  H   UNL     1       7.809   6.231  -3.283  1.00  0.00     0.293 HD
ENDBRANCH  17  22
ENDBRANCH   1  12
BRANCH   2  24
ATOM     24  O   UNL     1      14.280   8.533  -2.409  1.00  0.00    -0.381 OA
ATOM     25  H   UNL     1      15.004   9.012  -2.894  1.00  0.00     0.211 HD
ENDBRANCH   2  24
BRANCH   6  26
ATOM     26  O   UNL     1      13.521  13.567  -2.262  1.00  0.00    -0.507 OA
ATOM     27  H   UNL     1      13.847  13.617  -3.223  1.00  0.00     0.293 HD
ENDBRANCH   6  26
BRANCH   8  28
ATOM     28  O   UNL     1       8.962  13.843  -0.664  1.00  0.00    -0.508 OA
ATOM     29  H   UNL     1       8.356  14.336  -1.300  1.00  0.00     0.293 HD
ENDBRANCH   8  28
TORSDOF 7
ENDMDL
MODEL 3
REMARK VINA RESULT:    -4.067      1.361      6.983
REMARK INTER + INTRA:          -4.932
REMARK INTER:                  -4.883
REMARK INTRA:                  -0.049
REMARK UNBOUND:                 0.086
REMARK SMILES O=C1c2c(O)cc(O)cc2O[C@@H](c2cc(O)c(O)c(O)c2)[C@@H]1O
REMARK SMILES IDX 12 1 22 2 2 3 1 4 3 5 4 6 6 7 7 8 9 9 10 10 11 11 13 12
REMARK SMILES IDX 14 13 15 14 21 15 17 16 19 17 16 18 18 20 20 22 23 24 5 26
REMARK SMILES IDX 8 28
REMARK H PARENT 16 19 18 21 20 23 23 25 5 27 8 29
REMARK Flexibility Score: inf
ROOT
ATOM      1  C   UNL     1      10.873   9.257  -1.536  1.00  0.00     0.240 C 
ATOM      2  C   UNL     1       9.547   8.915  -2.261  1.00  0.00     0.231 C 
ATOM      3  C   UNL     1       9.334   7.419  -2.347  1.00  0.00     0.202 C 
ATOM      4  O   UNL     1       8.186   6.987  -2.653  1.00  0.00    -0.291 OA
ATOM      5  C   UNL     1      10.474   6.480  -2.207  1.00  0.00     0.105 A 
ATOM      6  C   UNL     1      10.320   5.078  -2.246  1.00  0.00     0.133 A 
ATOM      7  C   UNL     1      11.453   4.250  -2.169  1.00  0.00     0.093 A 
ATOM      8  C   UNL     1      12.730   4.807  -2.048  1.00  0.00     0.123 A 
ATOM      9  C   UNL     1      12.880   6.195  -1.999  1.00  0.00     0.093 A 
ATOM     10  C   UNL     1      11.760   7.027  -2.058  1.00  0.00     0.138 A 
ATOM     11  O   UNL     1      11.931   8.411  -1.984  1.00  0.00    -0.481 OA
ENDROOT
BRANCH   1  12
ATOM     12  C   UNL     1      11.258  10.703  -1.757  1.00  0.00     0.003 A 
ATOM     13  C   UNL     1      10.443  11.733  -1.265  1.00  0.00     0.058 A 
ATOM     14  C   UNL     1      10.830  13.073  -1.381  1.00  0.00     0.161 A 
ATOM     15  C   UNL     1      12.463  11.029  -2.402  1.00  0.00     0.058 A 
ATOM     16  C   UNL     1      12.067  13.394  -1.997  1.00  0.00     0.200 A 
ATOM     17  C   UNL     1      12.872  12.363  -2.512  1.00  0.00     0.161 A 
BRANCH  14  18
ATOM     18  O   UNL     1       9.966  14.046  -0.876  1.00  0.00    -0.504 OA
ATOM     19  H   UNL     1      10.279  14.902  -0.426  1.00  0.00     0.293 HD
ENDBRANCH  14  18
BRANCH  16  20
ATOM     20  O   UNL     1      12.524  14.707  -2.111  1.00  0.00    -0.502 OA
ATOM     21  H   UNL     1      11.925  15.501  -2.280  1.00  0.00     0.293 HD
ENDBRANCH  16  20
BRANCH  17  22
ATOM     22  O   UNL     1      14.092  12.647  -3.125  1.00  0.00    -0.504 OA
ATOM     23  H   UNL     1      14.675  11.916  -3.521  1.00  0.00     0.293 HD
ENDBRANCH  17  22
ENDBRANCH   1  12
BRANCH   2  24
ATOM     24  O   UNL     1       8.464   9.495  -1.572  1.00  0.00    -0.381 OA
ATOM     25  H   UNL     1       7.727   8.828  -1.552  1.00  0.00     0.211 HD
ENDBRANCH   2  24
BRANCH   6  26
ATOM     26  O   UNL     1       9.056   4.501  -2.372  1.00  0.00    -0.507 OA
ATOM     27  H   UNL     1       8.939   3.527  -2.634  1.00  0.00     0.293 HD
ENDBRANCH   6  26
BRANCH   8  28
ATOM     28  O   UNL     1      13.853   3.989  -1.985  1.00  0.00    -0.508 OA
ATOM     29  H   UNL     1      14.407   3.789  -2.803  1.00  0.00     0.293 HD
ENDBRANCH   8  28
TORSDOF 7
ENDMDL
MODEL 4
REMARK VINA RESULT:    -3.985      2.289      8.092
REMARK INTER + INTRA:          -4.831
REMARK INTER:                  -4.877
REMARK INTRA:                   0.046
REMARK UNBOUND:                 0.086
REMARK SMILES O=C1c2c(O)cc(O)cc2O[C@@H](c2cc(O)c(O)c(O)c2)[C@@H]1O
REMARK SMILES IDX 12 1 22 2 2 3 1 4 3 5 4 6 6 7 7 8 9 9 10 10 11 11 13 12
REMARK SMILES IDX 14 13 15 14 21 15 17 16 19 17 16 18 18 20 20 22 23 24 5 26
REMARK SMILES IDX 8 28
REMARK H PARENT 16 19 18 21 20 23 23 25 5 27 8 29
REMARK Flexibility Score: inf
ROOT
ATOM      1  C   UNL     1      10.474  10.950  -2.329  1.00  0.00     0.240 C 
ATOM      2  C   UNL     1      11.982  10.948  -1.972  1.00  0.00     0.231 C 
ATOM      3  C   UNL     1      12.593   9.577  -2.159  1.00  0.00     0.202 C 
ATOM      4  O   UNL     1      13.852   9.471  -2.181  1.00  0.00    -0.291 OA
ATOM      5  C   UNL     1      11.740   8.363  -2.183  1.00  0.00     0.105 A 
ATOM      6  C   UNL     1      12.259   7.066  -2.388  1.00  0.00     0.133 A 
ATOM      7  C   UNL     1      11.401   5.955  -2.337  1.00  0.00     0.093 A 
ATOM      8  C   UNL     1      10.035   6.127  -2.090  1.00  0.00     0.123 A 
ATOM      9  C   UNL     1       9.520   7.411  -1.898  1.00  0.00     0.093 A 
ATOM     10  C   UNL     1      10.362   8.524  -1.963  1.00  0.00     0.138 A 
ATOM     11  O   UNL     1       9.822   9.800  -1.791  1.00  0.00    -0.481 OA
ENDROOT
BRANCH   1  12
ATOM     12  C   UNL     1       9.794  12.200  -1.816  1.00  0.00     0.003 A 
ATOM     13  C   UNL     1       8.628  12.102  -1.042  1.00  0.00     0.058 A 
ATOM     14  C   UNL     1       8.039  13.241  -0.483  1.00  0.00     0.161 A 
ATOM     15  C   UNL     1      10.355  13.466  -2.056  1.00  0.00     0.058 A 
ATOM     16  C   UNL     1       8.632  14.513  -0.695  1.00  0.00     0.200 A 
ATOM     17  C   UNL     1       9.786  14.614  -1.491  1.00  0.00     0.161 A 
BRANCH  14  18
ATOM     18  O   UNL     1       6.875  13.070   0.269  1.00  0.00    -0.504 OA
ATOM     19  H   UNL     1       5.951  13.350  -0.048  1.00  0.00     0.293 HD
ENDBRANCH  14  18
BRANCH  16  20
ATOM     20  O   UNL     1       8.112  15.680  -0.136  1.00  0.00    -0.502 OA
ATOM     21  H   UNL     1       7.767  16.460  -0.675  1.00  0.00     0.293 HD
ENDBRANCH  16  20
BRANCH  17  22
ATOM     22  O   UNL     1      10.391  15.849  -1.719  1.00  0.00    -0.504 OA
ATOM     23  H   UNL     1      11.361  16.024  -1.474  1.00  0.00     0.293 HD
ENDBRANCH  17  22
ENDBRANCH   1  12
BRANCH   2  24
ATOM     24  O   UNL     1      12.665  11.871  -2.788  1.00  0.00    -0.381 OA
ATOM     25  H   UNL     1      12.669  11.510  -3.715  1.00  0.00     0.211 HD
ENDBRANCH   2  24
BRANCH   6  26
ATOM     26  O   UNL     1      13.619   6.871  -2.631  1.00  0.00    -0.507 OA
ATOM     27  H   UNL     1      14.282   6.741  -1.872  1.00  0.00     0.293 HD
ENDBRANCH   6  26
BRANCH   8  28
ATOM     28  O   UNL     1       9.187   5.027  -2.025  1.00  0.00    -0.508 OA
ATOM     29  H   UNL     1       8.772   4.731  -1.156  1.00  0.00     0.293 HD
ENDBRANCH   8  28
TORSDOF 7
ENDMDL
MODEL 5
REMARK VINA RESULT:    -3.963      1.286      3.351
REMARK INTER + INTRA:          -4.803
REMARK INTER:                  -4.895
REMARK INTRA:                   0.092
REMARK UNBOUND:                 0.086
REMARK SMILES O=C1c2c(O)cc(O)cc2O[C@@H](c2cc(O)c(O)c(O)c2)[C@@H]1O
REMARK SMILES IDX 12 1 22 2 2 3 1 4 3 5 4 6 6 7 7 8 9 9 10 10 11 11 13 12
REMARK SMILES IDX 14 13 15 14 21 15 17 16 19 17 16 18 18 20 20 22 23 24 5 26
REMARK SMILES IDX 8 28
REMARK H PARENT 16 19 18 21 20 23 23 25 5 27 8 29
REMARK Flexibility Score: inf
ROOT
ATOM      1  C   UNL     1      11.689   7.191  -1.944  1.00  0.00     0.240 C 
ATOM      2  C   UNL     1      12.743   8.103  -2.620  1.00  0.00     0.231 C 
ATOM      3  C   UNL     1      12.353   9.562  -2.528  1.00  0.00     0.202 C 
ATOM      4  O   UNL     1      13.227  10.441  -2.777  1.00  0.00    -0.291 OA
ATOM      5  C   UNL     1      10.944   9.957  -2.280  1.00  0.00     0.105 A 
ATOM      6  C   UNL     1      10.537  11.302  -2.153  1.00  0.00     0.133 A 
ATOM      7  C   UNL     1       9.176  11.605  -1.981  1.00  0.00     0.093 A 
ATOM      8  C   UNL     1       8.224  10.583  -1.931  1.00  0.00     0.123 A 
ATOM      9  C   UNL     1       8.629   9.251  -2.047  1.00  0.00     0.093 A 
ATOM     10  C   UNL     1       9.981   8.937  -2.201  1.00  0.00     0.138 A 
ATOM     11  O   UNL     1      10.366   7.598  -2.291  1.00  0.00    -0.481 OA
ENDROOT
BRANCH   1  12
ATOM     12  C   UNL     1      11.890   5.744  -2.336  1.00  0.00     0.003 A 
ATOM     13  C   UNL     1      13.178   5.190  -2.357  1.00  0.00     0.058 A 
ATOM     14  C   UNL     1      13.372   3.831  -2.628  1.00  0.00     0.161 A 
ATOM     15  C   UNL     1      10.785   4.924  -2.624  1.00  0.00     0.058 A 
ATOM     16  C   UNL     1      12.250   2.999  -2.878  1.00  0.00     0.200 A 
ATOM     17  C   UNL     1      10.961   3.560  -2.881  1.00  0.00     0.161 A 
BRANCH  14  18
ATOM     18  O   UNL     1      14.683   3.350  -2.640  1.00  0.00    -0.504 OA
ATOM     19  H   UNL     1      15.263   3.269  -1.810  1.00  0.00     0.293 HD
ENDBRANCH  14  18
BRANCH  16  20
ATOM     20  O   UNL     1      12.375   1.632  -3.119  1.00  0.00    -0.502 OA
ATOM     21  H   UNL     1      12.462   1.225  -4.039  1.00  0.00     0.293 HD
ENDBRANCH  16  20
BRANCH  17  22
ATOM     22  O   UNL     1       9.838   2.769  -3.125  1.00  0.00    -0.504 OA
ATOM     23  H   UNL     1       8.986   3.155  -3.521  1.00  0.00     0.293 HD
ENDBRANCH  17  22
ENDBRANCH   1  12
BRANCH   2  24
ATOM     24  O   UNL     1      13.996   7.923  -2.002  1.00  0.00    -0.381 OA
ATOM     25  H   UNL     1      14.677   8.386  -2.559  1.00  0.00     0.211 HD
ENDBRANCH   2  24
BRANCH   6  26
ATOM     26  O   UNL     1      11.469  12.339  -2.206  1.00  0.00    -0.507 OA
ATOM     27  H   UNL     1      11.550  12.942  -3.019  1.00  0.00     0.293 HD
ENDBRANCH   6  26
BRANCH   8  28
ATOM     28  O   UNL     1       6.875  10.882  -1.775  1.00  0.00    -0.508 OA
ATOM     29  H   UNL     1       6.162  10.388  -2.288  1.00  0.00     0.293 HD
ENDBRANCH   8  28
TORSDOF 7
ENDMDL
MODEL 6
REMARK VINA RESULT:    -3.959      1.060      6.945
REMARK INTER + INTRA:          -4.799
REMARK INTER:                  -4.871
REMARK INTRA:                   0.071
REMARK UNBOUND:                 0.086
REMARK SMILES O=C1c2c(O)cc(O)cc2O[C@@H](c2cc(O)c(O)c(O)c2)[C@@H]1O
REMARK SMILES IDX 12 1 22 2 2 3 1 4 3 5 4 6 6 7 7 8 9 9 10 10 11 11 13 12
REMARK SMILES IDX 14 13 15 14 21 15 17 16 19 17 16 18 18 20 20 22 23 24 5 26
REMARK SMILES IDX 8 28
REMARK H PARENT 16 19 18 21 20 23 23 25 5 27 8 29
REMARK Flexibility Score: inf
ROOT
ATOM      1  C   UNL     1      11.499   7.105  -1.894  1.00  0.00     0.240 C 
ATOM      2  C   UNL     1      10.174   6.711  -2.592  1.00  0.00     0.231 C 
ATOM      3  C   UNL     1      10.091   5.217  -2.819  1.00  0.00     0.202 C 
ATOM      4  O   UNL     1       8.972   4.710  -3.117  1.00  0.00    -0.291 OA
ATOM      5  C   UNL     1      11.316   4.381  -2.823  1.00  0.00     0.105 A 
ATOM      6  C   UNL     1      11.286   2.980  -2.996  1.00  0.00     0.133 A 
ATOM      7  C   UNL     1      12.491   2.259  -3.051  1.00  0.00     0.093 A 
ATOM      8  C   UNL     1      13.718   2.919  -2.930  1.00  0.00     0.123 A 
ATOM      9  C   UNL     1      13.746   4.304  -2.748  1.00  0.00     0.093 A 
ATOM     10  C   UNL     1      12.554   5.029  -2.675  1.00  0.00     0.138 A 
ATOM     11  O   UNL     1      12.604   6.409  -2.470  1.00  0.00    -0.481 OA
ENDROOT
BRANCH   1  12
ATOM     12  C   UNL     1      11.741   8.596  -1.985  1.00  0.00     0.003 A 
ATOM     13  C   UNL     1      13.004   9.084  -2.351  1.00  0.00     0.058 A 
ATOM     14  C   UNL     1      13.220  10.455  -2.530  1.00  0.00     0.161 A 
ATOM     15  C   UNL     1      10.691   9.503  -1.765  1.00  0.00     0.058 A 
ATOM     16  C   UNL     1      12.145  11.364  -2.345  1.00  0.00     0.200 A 
ATOM     17  C   UNL     1      10.886  10.876  -1.954  1.00  0.00     0.161 A 
BRANCH  14  18
ATOM     18  O   UNL     1      14.504  10.871  -2.886  1.00  0.00    -0.504 OA
ATOM     19  H   UNL     1      14.912  11.756  -2.597  1.00  0.00     0.293 HD
ENDBRANCH  14  18
BRANCH  16  20
ATOM     20  O   UNL     1      12.288  12.737  -2.542  1.00  0.00    -0.502 OA
ATOM     21  H   UNL     1      13.139  13.249  -2.358  1.00  0.00     0.293 HD
ENDBRANCH  16  20
BRANCH  17  22
ATOM     22  O   UNL     1       9.811  11.743  -1.763  1.00  0.00    -0.504 OA
ATOM     23  H   UNL     1       9.898  12.744  -1.911  1.00  0.00     0.293 HD
ENDBRANCH  17  22
ENDBRANCH   1  12
BRANCH   2  24
ATOM     24  O   UNL     1       9.080   7.118  -1.803  1.00  0.00    -0.381 OA
ATOM     25  H   UNL     1       9.035   6.513  -1.015  1.00  0.00     0.211 HD
ENDBRANCH   2  24
BRANCH   6  26
ATOM     26  O   UNL     1      10.074   2.302  -3.125  1.00  0.00    -0.507 OA
ATOM     27  H   UNL     1       9.946   1.365  -2.753  1.00  0.00     0.293 HD
ENDBRANCH   6  26
BRANCH   8  28
ATOM     28  O   UNL     1      14.911   2.209  -2.998  1.00  0.00    -0.508 OA
ATOM     29  H   UNL     1      14.999   1.377  -3.560  1.00  0.00     0.293 HD
ENDBRANCH   8  28
TORSDOF 7
ENDMDL
MODEL 7
REMARK VINA RESULT:    -3.919      2.161      8.175
REMARK INTER + INTRA:          -4.750
REMARK INTER:                  -4.792
REMARK INTRA:                   0.042
REMARK UNBOUND:                 0.086
REMARK SMILES O=C1c2c(O)cc(O)cc2O[C@@H](c2cc(O)c(O)c(O)c2)[C@@H]1O
REMARK SMILES IDX 12 1 22 2 2 3 1 4 3 5 4 6 6 7 7 8 9 9 10 10 11 11 13 12
REMARK SMILES IDX 14 13 15 14 21 15 17 16 19 17 16 18 18 20 20 22 23 24 5 26
REMARK SMILES IDX 8 28
REMARK H PARENT 16 19 18 21 20 23 23 25 5 27 8 29
REMARK Flexibility Score: inf
ROOT
ATOM      1  C   UNL     1      10.774  10.777  -2.339  1.00  0.00     0.240 C 
ATOM      2  C   UNL     1      12.297  10.665  -2.079  1.00  0.00     0.231 C 
ATOM      3  C   UNL     1      12.803   9.264  -2.346  1.00  0.00     0.202 C 
ATOM      4  O   UNL     1      14.049   9.079  -2.452  1.00  0.00    -0.291 OA
ATOM      5  C   UNL     1      11.871   8.109  -2.354  1.00  0.00     0.105 A 
ATOM      6  C   UNL     1      12.290   6.790  -2.631  1.00  0.00     0.133 A 
ATOM      7  C   UNL     1      11.364   5.736  -2.560  1.00  0.00     0.093 A 
ATOM      8  C   UNL     1      10.030   5.986  -2.220  1.00  0.00     0.123 A 
ATOM      9  C   UNL     1       9.615   7.293  -1.956  1.00  0.00     0.093 A 
ATOM     10  C   UNL     1      10.523   8.352  -2.041  1.00  0.00     0.138 A 
ATOM     11  O   UNL     1      10.081   9.653  -1.795  1.00  0.00    -0.481 OA
ENDROOT
BRANCH   1  12
ATOM     12  C   UNL     1      10.212  12.049  -1.745  1.00  0.00     0.003 A 
ATOM     13  C   UNL     1      10.791  13.289  -2.055  1.00  0.00     0.058 A 
ATOM     14  C   UNL     1      10.227  14.481  -1.588  1.00  0.00     0.161 A 
ATOM     15  C   UNL     1       9.069  12.010  -0.928  1.00  0.00     0.058 A 
ATOM     16  C   UNL     1       9.051  14.438  -0.796  1.00  0.00     0.200 A 
ATOM     17  C   UNL     1       8.485  13.195  -0.466  1.00  0.00     0.161 A 
BRANCH  14  18
ATOM     18  O   UNL     1      10.862  15.678  -1.929  1.00  0.00    -0.504 OA
ATOM     19  H   UNL     1      11.652  16.063  -1.418  1.00  0.00     0.293 HD
ENDBRANCH  14  18
BRANCH  16  20
ATOM     20  O   UNL     1       8.423  15.593  -0.332  1.00  0.00    -0.502 OA
ATOM     21  H   UNL     1       8.505  16.498  -0.772  1.00  0.00     0.293 HD
ENDBRANCH  16  20
BRANCH  17  22
ATOM     22  O   UNL     1       7.329  13.120   0.312  1.00  0.00    -0.504 OA
ATOM     23  H   UNL     1       6.411  12.998  -0.104  1.00  0.00     0.293 HD
ENDBRANCH  17  22
ENDBRANCH   1  12
BRANCH   2  24
ATOM     24  O   UNL     1      12.989  11.570  -2.908  1.00  0.00    -0.381 OA
ATOM     25  H   UNL     1      13.591  12.110  -2.329  1.00  0.00     0.211 HD
ENDBRANCH   2  24
BRANCH   6  26
ATOM     26  O   UNL     1      13.616   6.516  -2.966  1.00  0.00    -0.507 OA
ATOM     27  H   UNL     1      13.921   5.579  -3.209  1.00  0.00     0.293 HD
ENDBRANCH   6  26
BRANCH   8  28
ATOM     28  O   UNL     1       9.116   4.942  -2.136  1.00  0.00    -0.508 OA
ATOM     29  H   UNL     1       9.387   4.029  -1.807  1.00  0.00     0.293 HD
ENDBRANCH   8  28
TORSDOF 7
ENDMDL
MODEL 8
REMARK VINA RESULT:    -3.866      2.830      4.971
REMARK INTER + INTRA:          -4.684
REMARK INTER:                  -4.800
REMARK INTRA:                   0.116
REMARK UNBOUND:                 0.086
REMARK SMILES O=C1c2c(O)cc(O)cc2O[C@@H](c2cc(O)c(O)c(O)c2)[C@@H]1O
REMARK SMILES IDX 12 1 22 2 2 3 1 4 3 5 4 6 6 7 7 8 9 9 10 10 11 11 13 12
REMARK SMILES IDX 14 13 15 14 21 15 17 16 19 17 16 18 18 20 20 22 23 24 5 26
REMARK SMILES IDX 8 28
REMARK H PARENT 16 19 18 21 20 23 23 25 5 27 8 29
REMARK Flexibility Score: inf
ROOT
ATOM      1  C   UNL     1      11.202  11.825  -2.165  1.00  0.00     0.240 C 
ATOM      2  C   UNL     1       9.892  11.857  -1.338  1.00  0.00     0.231 C 
ATOM      3  C   UNL     1       9.488  13.275  -0.997  1.00  0.00     0.202 C 
ATOM      4  O   UNL     1       8.315  13.487  -0.576  1.00  0.00    -0.291 OA
ATOM      5  C   UNL     1      10.482  14.376  -1.029  1.00  0.00     0.105 A 
ATOM      6  C   UNL     1      10.146  15.719  -0.752  1.00  0.00     0.133 A 
ATOM      7  C   UNL     1      11.151  16.701  -0.739  1.00  0.00     0.093 A 
ATOM      8  C   UNL     1      12.480  16.356  -1.004  1.00  0.00     0.123 A 
ATOM      9  C   UNL     1      12.810  15.029  -1.288  1.00  0.00     0.093 A 
ATOM     10  C   UNL     1      11.817  14.048  -1.320  1.00  0.00     0.138 A 
ATOM     11  O   UNL     1      12.165  12.731  -1.628  1.00  0.00    -0.481 OA
ENDROOT
BRANCH   1  12
ATOM     12  C   UNL     1      11.789  10.431  -2.201  1.00  0.00     0.003 A 
ATOM     13  C   UNL     1      10.953   9.310  -2.090  1.00  0.00     0.058 A 
ATOM     14  C   UNL     1      11.468   8.015  -2.214  1.00  0.00     0.161 A 
ATOM     15  C   UNL     1      13.166  10.243  -2.408  1.00  0.00     0.058 A 
ATOM     16  C   UNL     1      12.853   7.832  -2.463  1.00  0.00     0.200 A 
ATOM     17  C   UNL     1      13.694   8.955  -2.550  1.00  0.00     0.161 A 
BRANCH  14  18
ATOM     18  O   UNL     1      10.579   6.946  -2.084  1.00  0.00    -0.504 OA
ATOM     19  H   UNL     1      10.586   6.297  -1.302  1.00  0.00     0.293 HD
ENDBRANCH  14  18
BRANCH  16  20
ATOM     20  O   UNL     1      13.419   6.569  -2.631  1.00  0.00    -0.502 OA
ATOM     21  H   UNL     1      12.914   5.764  -2.972  1.00  0.00     0.293 HD
ENDBRANCH  16  20
BRANCH  17  22
ATOM     22  O   UNL     1      15.060   8.808  -2.792  1.00  0.00    -0.504 OA
ATOM     23  H   UNL     1      15.462   8.979  -3.709  1.00  0.00     0.293 HD
ENDBRANCH  17  22
ENDBRANCH   1  12
BRANCH   2  24
ATOM     24  O   UNL     1       8.853  11.245  -2.066  1.00  0.00    -0.381 OA
ATOM     25  H   UNL     1       8.157  11.935  -2.236  1.00  0.00     0.211 HD
ENDBRANCH   2  24
BRANCH   6  26
ATOM     26  O   UNL     1       8.827  16.084  -0.479  1.00  0.00    -0.507 OA
ATOM     27  H   UNL     1       8.486  17.023  -0.663  1.00  0.00     0.293 HD
ENDBRANCH   6  26
BRANCH   8  28
ATOM     28  O   UNL     1      13.478  17.324  -0.979  1.00  0.00    -0.508 OA
ATOM     29  H   UNL     1      13.445  18.100  -0.335  1.00  0.00     0.293 HD
ENDBRANCH   8  28
TORSDOF 7
ENDMDL
MODEL 9
REMARK VINA RESULT:    -3.846      3.625      9.002
REMARK INTER + INTRA:          -4.660
REMARK INTER:                  -4.411
REMARK INTRA:                  -0.248
REMARK UNBOUND:                 0.086
REMARK SMILES O=C1c2c(O)cc(O)cc2O[C@@H](c2cc(O)c(O)c(O)c2)[C@@H]1O
REMARK SMILES IDX 12 1 22 2 2 3 1 4 3 5 4 6 6 7 7 8 9 9 10 10 11 11 13 12
REMARK SMILES IDX 14 13 15 14 21 15 17 16 19 17 16 18 18 20 20 22 23 24 5 26
REMARK SMILES IDX 8 28
REMARK H PARENT 16 19 18 21 20 23 23 25 5 27 8 29
REMARK Flexibility Score: inf
ROOT
ATOM      1  C   UNL     1      11.660  13.717  -0.901  1.00  0.00     0.240 C 
ATOM      2  C   UNL     1      10.327  14.084  -1.600  1.00  0.00     0.231 C 
ATOM      3  C   UNL     1       9.436  12.872  -1.764  1.00  0.00     0.202 C 
ATOM      4  O   UNL     1       8.219  13.048  -2.055  1.00  0.00    -0.291 OA
ATOM      5  C   UNL     1      10.003  11.501  -1.713  1.00  0.00     0.105 A 
ATOM      6  C   UNL     1       9.208  10.340  -1.826  1.00  0.00     0.133 A 
ATOM      7  C   UNL     1       9.820   9.075  -1.833  1.00  0.00     0.093 A 
ATOM      8  C   UNL     1      11.209   8.960  -1.723  1.00  0.00     0.123 A 
ATOM      9  C   UNL     1      11.994  10.109  -1.600  1.00  0.00     0.093 A 
ATOM     10  C   UNL     1      11.395  11.371  -1.576  1.00  0.00     0.138 A 
ATOM     11  O   UNL     1      12.196  12.505  -1.430  1.00  0.00    -0.481 OA
ENDROOT
BRANCH   1  12
ATOM     12  C   UNL     1      12.678  14.826  -1.053  1.00  0.00     0.003 A 
ATOM     13  C   UNL     1      12.692  15.900  -0.150  1.00  0.00     0.058 A 
ATOM     14  C   UNL     1      13.684  16.884  -0.221  1.00  0.00     0.161 A 
ATOM     15  C   UNL     1      13.656  14.762  -2.060  1.00  0.00     0.058 A 
ATOM     16  C   UNL     1      14.693  16.793  -1.215  1.00  0.00     0.200 A 
ATOM     17  C   UNL     1      14.663  15.731  -2.135  1.00  0.00     0.161 A 
BRANCH  14  18
ATOM     18  O   UNL     1      13.632  17.928   0.705  1.00  0.00    -0.504 OA
ATOM     19  H   UNL     1      14.389  18.156   1.344  1.00  0.00     0.293 HD
ENDBRANCH  14  18
BRANCH  16  20
ATOM     20  O   UNL     1      15.726  17.724  -1.314  1.00  0.00    -0.502 OA
ATOM     21  H   UNL     1      15.585  18.712  -1.460  1.00  0.00     0.293 HD
ENDBRANCH  16  20
BRANCH  17  22
ATOM     22  O   UNL     1      15.639  15.615  -3.124  1.00  0.00    -0.504 OA
ATOM     23  H   UNL     1      15.679  14.813  -3.745  1.00  0.00     0.293 HD
ENDBRANCH  17  22
ENDBRANCH   1  12
BRANCH   2  24
ATOM     24  O   UNL     1       9.644  15.058  -0.845  1.00  0.00    -0.381 OA
ATOM     25  H   UNL     1       8.691  14.780  -0.786  1.00  0.00     0.211 HD
ENDBRANCH   2  24
BRANCH   6  26
ATOM     26  O   UNL     1       7.821  10.431  -1.943  1.00  0.00    -0.507 OA
ATOM     27  H   UNL     1       7.341  10.180  -2.802  1.00  0.00     0.293 HD
ENDBRANCH   6  26
BRANCH   8  28
ATOM     28  O   UNL     1      11.817   7.710  -1.743  1.00  0.00    -0.508 OA
ATOM     29  H   UNL     1      12.818   7.608  -1.680  1.00  0.00     0.293 HD
ENDBRANCH   8  28
TORSDOF 7
ENDMDL
