MODEL 1
REMARK VINA RESULT:    -4.509      0.000      0.000
REMARK INTER + INTRA:          -5.830
REMARK INTER:                  -5.564
REMARK INTRA:                  -0.266
REMARK UNBOUND:                -0.266
REMARK SMILES CCCCC=CC(C)=O
REMARK SMILES IDX 4 1 3 2 2 3 1 4 5 5 6 6 7 7 9 8 8 9
REMARK H PARENT
REMARK Flexibility Score: inf
ROOT
ATOM      1  C   UNL     1      10.594  32.981  71.766  1.00  0.00     0.027 C 
ENDROOT
BRANCH   1   2
ATOM      2  C   UNL     1      11.773  32.411  72.569  1.00  0.00     0.004 C 
BRANCH   2   3
ATOM      3  C   UNL     1      11.335  31.339  73.580  1.00  0.00    -0.003 C 
ATOM      4  C   UNL     1      10.948  31.930  74.935  1.00  0.00     0.004 C 
ENDBRANCH   2   3
ENDBRANCH   1   2
BRANCH   1   5
ATOM      5  C   UNL     1      10.333  34.414  72.132  1.00  0.00    -0.023 C 
ATOM      6  C   UNL     1      11.306  35.204  72.601  1.00  0.00     0.042 C 
BRANCH   6   7
ATOM      7  C   UNL     1      11.069  36.609  72.978  1.00  0.00     0.152 C 
ATOM      8  O   UNL     1      10.257  36.903  73.898  1.00  0.00    -0.295 OA
ATOM      9  C   UNL     1      11.797  37.700  72.262  1.00  0.00     0.093 C 
ENDBRANCH   6   7
ENDBRANCH   1   5
TORSDOF 4
ENDMDL
MODEL 2
REMARK VINA RESULT:    -4.421      4.463      7.042
REMARK INTER + INTRA:          -5.720
REMARK INTER:                  -5.543
REMARK INTRA:                  -0.177
REMARK UNBOUND:                -0.266
REMARK SMILES CCCCC=CC(C)=O
REMARK SMILES IDX 4 1 3 2 2 3 1 4 5 5 6 6 7 7 9 8 8 9
REMARK H PARENT
REMARK Flexibility Score: inf
ROOT
ATOM      1  C   UNL     1      10.739  30.856  74.234  1.00  0.00     0.027 C 
ENDROOT
BRANCH   1   2
ATOM      2  C   UNL     1      11.608  30.905  72.968  1.00  0.00     0.004 C 
BRANCH   2   3
ATOM      3  C   UNL     1      11.881  32.342  72.495  1.00  0.00    -0.003 C 
ATOM      4  C   UNL     1      10.688  32.959  71.765  1.00  0.00     0.004 C 
ENDBRANCH   2   3
ENDBRANCH   1   2
BRANCH   1   5
ATOM      5  C   UNL     1      10.141  29.492  74.428  1.00  0.00    -0.023 C 
ATOM      6  C   UNL     1      10.814  28.382  74.102  1.00  0.00     0.042 C 
BRANCH   6   7
ATOM      7  C   UNL     1      10.241  27.034  74.271  1.00  0.00     0.152 C 
ATOM      8  O   UNL     1      10.661  26.263  75.177  1.00  0.00    -0.295 OA
ATOM      9  C   UNL     1       9.152  26.573  73.358  1.00  0.00     0.093 C 
ENDBRANCH   6   7
ENDBRANCH   1   5
TORSDOF 4
ENDMDL
MODEL 3
REMARK VINA RESULT:    -4.406      3.303      4.863
REMARK INTER + INTRA:          -5.702
REMARK INTER:                  -5.431
REMARK INTRA:                  -0.271
REMARK UNBOUND:                -0.266
REMARK SMILES CCCCC=CC(C)=O
REMARK SMILES IDX 4 1 3 2 2 3 1 4 5 5 6 6 7 7 9 8 8 9
REMARK H PARENT
REMARK Flexibility Score: inf
ROOT
ATOM      1  C   UNL     1      11.208  28.630  73.082  1.00  0.00     0.027 C 
ENDROOT
BRANCH   1   2
ATOM      2  C   UNL     1       9.782  28.255  73.513  1.00  0.00     0.004 C 
BRANCH   2   3
ATOM      3  C   UNL     1       9.685  26.815  74.039  1.00  0.00    -0.003 C 
ATOM      4  C   UNL     1      10.748  26.498  75.090  1.00  0.00     0.004 C 
ENDBRANCH   2   3
ENDBRANCH   1   2
BRANCH   1   5
ATOM      5  C   UNL     1      11.528  30.051  73.449  1.00  0.00    -0.023 C 
ATOM      6  C   UNL     1      10.819  30.711  74.371  1.00  0.00     0.042 C 
BRANCH   6   7
ATOM      7  C   UNL     1      11.107  32.111  74.736  1.00  0.00     0.152 C 
ATOM      8  O   UNL     1      11.061  32.486  75.939  1.00  0.00    -0.295 OA
ATOM      9  C   UNL     1      11.455  33.096  73.669  1.00  0.00     0.093 C 
ENDBRANCH   6   7
ENDBRANCH   1   5
TORSDOF 4
ENDMDL
MODEL 4
REMARK VINA RESULT:    -4.401      4.231      6.636
REMARK INTER + INTRA:          -5.695
REMARK INTER:                  -5.434
REMARK INTRA:                  -0.262
REMARK UNBOUND:                -0.266
REMARK SMILES CCCCC=CC(C)=O
REMARK SMILES IDX 4 1 3 2 2 3 1 4 5 5 6 6 7 7 9 8 8 9
REMARK H PARENT
REMARK Flexibility Score: inf
ROOT
ATOM      1  C   UNL     1       9.783  30.893  74.331  1.00  0.00     0.027 C 
ENDROOT
BRANCH   1   2
ATOM      2  C   UNL     1      10.916  31.763  74.895  1.00  0.00     0.004 C 
BRANCH   2   3
ATOM      3  C   UNL     1      11.270  32.941  73.974  1.00  0.00    -0.003 C 
ATOM      4  C   UNL     1      11.587  32.497  72.546  1.00  0.00     0.004 C 
ENDBRANCH   2   3
ENDBRANCH   1   2
BRANCH   1   5
ATOM      5  C   UNL     1      10.172  29.442  74.312  1.00  0.00    -0.023 C 
ATOM      6  C   UNL     1      11.335  29.038  73.788  1.00  0.00     0.042 C 
BRANCH   6   7
ATOM      7  C   UNL     1      11.731  27.618  73.747  1.00  0.00     0.152 C 
ATOM      8  O   UNL     1      10.871  26.713  73.568  1.00  0.00    -0.295 OA
ATOM      9  C   UNL     1      13.168  27.246  73.922  1.00  0.00     0.093 C 
ENDBRANCH   6   7
ENDBRANCH   1   5
TORSDOF 4
ENDMDL
MODEL 5
REMARK VINA RESULT:    -4.354      3.066      4.546
REMARK INTER + INTRA:          -5.638
REMARK INTER:                  -5.482
REMARK INTRA:                  -0.156
REMARK UNBOUND:                -0.266
REMARK SMILES CCCCC=CC(C)=O
REMARK SMILES IDX 4 1 3 2 2 3 1 4 5 5 6 6 7 7 9 8 8 9
REMARK H PARENT
REMARK Flexibility Score: inf
ROOT
ATOM      1  C   UNL     1      11.155  28.985  73.957  1.00  0.00     0.027 C 
ENDROOT
BRANCH   1   2
ATOM      2  C   UNL     1       9.867  28.411  73.346  1.00  0.00     0.004 C 
BRANCH   2   3
ATOM      3  C   UNL     1       9.475  27.058  73.961  1.00  0.00    -0.003 C 
ATOM      4  C   UNL     1      10.545  26.506  74.902  1.00  0.00     0.004 C 
ENDBRANCH   2   3
ENDBRANCH   1   2
BRANCH   1   5
ATOM      5  C   UNL     1      11.187  30.482  73.844  1.00  0.00    -0.023 C 
ATOM      6  C   UNL     1      11.454  31.088  72.682  1.00  0.00     0.042 C 
BRANCH   6   7
ATOM      7  C   UNL     1      11.505  32.557  72.551  1.00  0.00     0.152 C 
ATOM      8  O   UNL     1      12.376  33.230  73.166  1.00  0.00    -0.295 OA
ATOM      9  C   UNL     1      10.511  33.255  71.681  1.00  0.00     0.093 C 
ENDBRANCH   6   7
ENDBRANCH   1   5
TORSDOF 4
ENDMDL
MODEL 6
REMARK VINA RESULT:    -4.350      1.590      2.443
REMARK INTER + INTRA:          -5.633
REMARK INTER:                  -5.456
REMARK INTRA:                  -0.177
REMARK UNBOUND:                -0.266
REMARK SMILES CCCCC=CC(C)=O
REMARK SMILES IDX 4 1 3 2 2 3 1 4 5 5 6 6 7 7 9 8 8 9
REMARK H PARENT
REMARK Flexibility Score: inf
ROOT
ATOM      1  C   UNL     1      11.668  31.180  72.514  1.00  0.00     0.027 C 
ENDROOT
BRANCH   1   2
ATOM      2  C   UNL     1      11.050  30.783  73.863  1.00  0.00     0.004 C 
BRANCH   2   3
ATOM      3  C   UNL     1      10.959  29.260  74.044  1.00  0.00    -0.003 C 
ATOM      4  C   UNL     1      12.139  28.520  73.416  1.00  0.00     0.004 C 
ENDBRANCH   2   3
ENDBRANCH   1   2
BRANCH   1   5
ATOM      5  C   UNL     1      11.304  32.590  72.146  1.00  0.00    -0.023 C 
ATOM      6  C   UNL     1      11.543  33.612  72.976  1.00  0.00     0.042 C 
BRANCH   6   7
ATOM      7  C   UNL     1      11.182  35.002  72.641  1.00  0.00     0.152 C 
ATOM      8  O   UNL     1      11.937  35.960  72.961  1.00  0.00    -0.295 OA
ATOM      9  C   UNL     1       9.906  35.279  71.915  1.00  0.00     0.093 C 
ENDBRANCH   6   7
ENDBRANCH   1   5
TORSDOF 4
ENDMDL
MODEL 7
REMARK VINA RESULT:    -4.274      2.688      3.836
REMARK INTER + INTRA:          -5.539
REMARK INTER:                  -5.395
REMARK INTRA:                  -0.143
REMARK UNBOUND:                -0.266
REMARK SMILES CCCCC=CC(C)=O
REMARK SMILES IDX 4 1 3 2 2 3 1 4 5 5 6 6 7 7 9 8 8 9
REMARK H PARENT
REMARK Flexibility Score: inf
ROOT
ATOM      1  C   UNL     1      11.481  29.499  72.336  1.00  0.00     0.027 C 
ENDROOT
BRANCH   1   2
ATOM      2  C   UNL     1      11.714  28.699  73.627  1.00  0.00     0.004 C 
BRANCH   2   3
ATOM      3  C   UNL     1      10.404  28.185  74.245  1.00  0.00    -0.003 C 
ATOM      4  C   UNL     1      10.536  26.772  74.812  1.00  0.00     0.004 C 
ENDBRANCH   2   3
ENDBRANCH   1   2
BRANCH   1   5
ATOM      5  C   UNL     1      11.545  30.977  72.595  1.00  0.00    -0.023 C 
ATOM      6  C   UNL     1      10.797  31.841  71.901  1.00  0.00     0.042 C 
BRANCH   6   7
ATOM      7  C   UNL     1      10.854  33.297  72.131  1.00  0.00     0.152 C 
ATOM      8  O   UNL     1      10.044  34.074  71.554  1.00  0.00    -0.295 OA
ATOM      9  C   UNL     1      11.884  33.859  73.055  1.00  0.00     0.093 C 
ENDBRANCH   6   7
ENDBRANCH   1   5
TORSDOF 4
ENDMDL
MODEL 8
REMARK VINA RESULT:    -4.196      4.571      6.927
REMARK INTER + INTRA:          -5.443
REMARK INTER:                  -5.147
REMARK INTRA:                  -0.296
REMARK UNBOUND:                -0.266
REMARK SMILES CCCCC=CC(C)=O
REMARK SMILES IDX 4 1 3 2 2 3 1 4 5 5 6 6 7 7 9 8 8 9
REMARK H PARENT
REMARK Flexibility Score: inf
ROOT
ATOM      1  C   UNL     1      11.619  30.143  72.343  1.00  0.00     0.027 C 
ENDROOT
BRANCH   1   2
ATOM      2  C   UNL     1      10.478  31.121  72.666  1.00  0.00     0.004 C 
BRANCH   2   3
ATOM      3  C   UNL     1      10.914  32.241  73.623  1.00  0.00    -0.003 C 
ATOM      4  C   UNL     1      10.765  31.851  75.093  1.00  0.00     0.004 C 
ENDBRANCH   2   3
ENDBRANCH   1   2
BRANCH   1   5
ATOM      5  C   UNL     1      11.339  28.780  72.908  1.00  0.00    -0.023 C 
ATOM      6  C   UNL     1      10.121  28.442  73.347  1.00  0.00     0.042 C 
BRANCH   6   7
ATOM      7  C   UNL     1       9.828  27.114  73.917  1.00  0.00     0.152 C 
ATOM      8  O   UNL     1       8.858  26.429  73.491  1.00  0.00    -0.295 OA
ATOM      9  C   UNL     1      10.688  26.574  75.012  1.00  0.00     0.093 C 
ENDBRANCH   6   7
ENDBRANCH   1   5
TORSDOF 4
ENDMDL
MODEL 9
REMARK VINA RESULT:    -4.180      4.625      6.483
REMARK INTER + INTRA:          -5.424
REMARK INTER:                  -5.263
REMARK INTRA:                  -0.161
REMARK UNBOUND:                -0.266
REMARK SMILES CCCCC=CC(C)=O
REMARK SMILES IDX 4 1 3 2 2 3 1 4 5 5 6 6 7 7 9 8 8 9
REMARK H PARENT
REMARK Flexibility Score: inf
ROOT
ATOM      1  C   UNL     1       9.991  27.151  74.478  1.00  0.00     0.027 C 
ENDROOT
BRANCH   1   2
ATOM      2  C   UNL     1       9.129  26.682  73.295  1.00  0.00     0.004 C 
BRANCH   2   3
ATOM      3  C   UNL     1       9.414  25.225  72.900  1.00  0.00    -0.003 C 
ATOM      4  C   UNL     1       9.390  24.274  74.096  1.00  0.00     0.004 C 
ENDBRANCH   2   3
ENDBRANCH   1   2
BRANCH   1   5
ATOM      5  C   UNL     1      10.165  28.643  74.462  1.00  0.00    -0.023 C 
ATOM      6  C   UNL     1      11.093  29.229  73.697  1.00  0.00     0.042 C 
BRANCH   6   7
ATOM      7  C   UNL     1      11.289  30.691  73.676  1.00  0.00     0.152 C 
ATOM      8  O   UNL     1      11.784  31.262  72.666  1.00  0.00    -0.295 OA
ATOM      9  C   UNL     1      10.900  31.506  74.867  1.00  0.00     0.093 C 
ENDBRANCH   6   7
ENDBRANCH   1   5
TORSDOF 4
ENDMDL
