MODEL 1
REMARK VINA RESULT:    -4.977      0.000      0.000
REMARK INTER + INTRA:         -11.125
REMARK INTER:                  -9.341
REMARK INTRA:                  -1.784
REMARK UNBOUND:                -1.784
REMARK SMILES O=C([O-])CCCCCCCCCCCCCCC(=O)[O-]
REMARK SMILES IDX 10 1 9 2 8 3 7 4 6 5 5 6 4 7 2 8 1 9 3 10 11 11 12 12 13 13
REMARK SMILES IDX 14 14 15 15 16 16 17 17 18 18 19 19 20 20
REMARK H PARENT
REMARK Flexibility Score: inf
ROOT
ATOM      1  C   UNL     1       9.064  11.140   4.579  1.00  0.00     0.000 C 
ENDROOT
BRANCH   1   2
ATOM      2  C   UNL     1       8.859  12.283   3.569  1.00  0.00     0.000 C 
BRANCH   2   3
ATOM      3  C   UNL     1       8.194  13.549   4.146  1.00  0.00     0.000 C 
BRANCH   3   4
ATOM      4  C   UNL     1       9.079  14.811   4.149  1.00  0.00     0.000 C 
BRANCH   4   5
ATOM      5  C   UNL     1       9.748  15.132   5.498  1.00  0.00     0.000 C 
BRANCH   5   6
ATOM      6  C   UNL     1       9.210  14.269   6.652  1.00  0.00     0.006 C 
BRANCH   6   7
ATOM      7  C   UNL     1       8.354  15.080   7.632  1.00  0.00     0.053 C 
BRANCH   7   8
ATOM      8  C   UNL     1       7.099  14.354   8.011  1.00  0.00     0.041 C 
ATOM      9  O   UNL     1       6.655  14.428   9.187  1.00  0.00    -0.550 OA
ATOM     10  O   UNL     1       6.403  13.622   7.057  1.00  0.00    -0.550 OA
ENDBRANCH   7   8
ENDBRANCH   6   7
ENDBRANCH   5   6
ENDBRANCH   4   5
ENDBRANCH   3   4
ENDBRANCH   2   3
ENDBRANCH   1   2
BRANCH   1  11
ATOM     11  C   UNL     1      10.516  10.638   4.626  1.00  0.00     0.000 C 
BRANCH  11  12
ATOM     12  C   UNL     1      11.481  11.779   4.965  1.00  0.00     0.000 C 
BRANCH  12  13
ATOM     13  C   UNL     1      12.522  11.967   3.850  1.00  0.00     0.000 C 
BRANCH  13  14
ATOM     14  C   UNL     1      12.419  13.341   3.170  1.00  0.00     0.000 C 
BRANCH  14  15
ATOM     15  C   UNL     1      13.106  13.374   1.792  1.00  0.00     0.000 C 
BRANCH  15  16
ATOM     16  C   UNL     1      14.505  14.006   1.845  1.00  0.00     0.006 C 
BRANCH  16  17
ATOM     17  C   UNL     1      15.592  12.999   2.246  1.00  0.00     0.053 C 
BRANCH  17  18
ATOM     18  C   UNL     1      16.331  13.482   3.454  1.00  0.00     0.041 C 
ATOM     19  O   UNL     1      17.412  14.113   3.326  1.00  0.00    -0.550 OA
ATOM     20  O   UNL     1      15.801  13.272   4.722  1.00  0.00    -0.550 OA
ENDBRANCH  17  18
ENDBRANCH  16  17
ENDBRANCH  15  16
ENDBRANCH  14  15
ENDBRANCH  13  14
ENDBRANCH  12  13
ENDBRANCH  11  12
ENDBRANCH   1  11
TORSDOF 15
ENDMDL
MODEL 2
REMARK VINA RESULT:    -4.962      2.190      4.061
REMARK INTER + INTRA:         -11.097
REMARK INTER:                  -9.923
REMARK INTRA:                  -1.174
REMARK UNBOUND:                -1.784
REMARK SMILES O=C([O-])CCCCCCCCCCCCCCC(=O)[O-]
REMARK SMILES IDX 10 1 9 2 8 3 7 4 6 5 5 6 4 7 2 8 1 9 3 10 11 11 12 12 13 13
REMARK SMILES IDX 14 14 15 15 16 16 17 17 18 18 19 19 20 20
REMARK H PARENT
REMARK Flexibility Score: inf
ROOT
ATOM      1  C   UNL     1      12.106  14.155   2.470  1.00  0.00     0.000 C 
ENDROOT
BRANCH   1   2
ATOM      2  C   UNL     1      12.758  13.441   3.667  1.00  0.00     0.000 C 
BRANCH   2   3
ATOM      3  C   UNL     1      12.435  11.938   3.782  1.00  0.00     0.000 C 
BRANCH   3   4
ATOM      4  C   UNL     1      10.941  11.599   3.960  1.00  0.00     0.000 C 
BRANCH   4   5
ATOM      5  C   UNL     1      10.657  10.209   4.558  1.00  0.00     0.000 C 
BRANCH   5   6
ATOM      6  C   UNL     1       9.556  10.234   5.631  1.00  0.00     0.006 C 
BRANCH   6   7
ATOM      7  C   UNL     1       8.405  11.177   5.258  1.00  0.00     0.053 C 
BRANCH   7   8
ATOM      8  C   UNL     1       7.887  11.925   6.449  1.00  0.00     0.041 C 
ATOM      9  O   UNL     1       8.684  12.347   7.327  1.00  0.00    -0.550 OA
ATOM     10  O   UNL     1       6.527  12.183   6.572  1.00  0.00    -0.550 OA
ENDBRANCH   7   8
ENDBRANCH   6   7
ENDBRANCH   5   6
ENDBRANCH   4   5
ENDBRANCH   3   4
ENDBRANCH   2   3
ENDBRANCH   1   2
BRANCH   1  11
ATOM     11  C   UNL     1      12.934  14.038   1.181  1.00  0.00     0.000 C 
BRANCH  11  12
ATOM     12  C   UNL     1      12.770  15.286   0.307  1.00  0.00     0.000 C 
BRANCH  12  13
ATOM     13  C   UNL     1      14.134  15.803  -0.176  1.00  0.00     0.000 C 
BRANCH  13  14
ATOM     14  C   UNL     1      14.663  16.965   0.678  1.00  0.00     0.000 C 
BRANCH  14  15
ATOM     15  C   UNL     1      16.169  16.845   0.975  1.00  0.00     0.000 C 
BRANCH  15  16
ATOM     16  C   UNL     1      16.461  16.607   2.465  1.00  0.00     0.006 C 
BRANCH  16  17
ATOM     17  C   UNL     1      15.714  15.389   3.024  1.00  0.00     0.053 C 
BRANCH  17  18
ATOM     18  C   UNL     1      16.573  14.167   2.941  1.00  0.00     0.041 C 
ATOM     19  O   UNL     1      17.764  14.199   3.350  1.00  0.00    -0.550 OA
ATOM     20  O   UNL     1      16.044  12.979   2.452  1.00  0.00    -0.550 OA
ENDBRANCH  17  18
ENDBRANCH  16  17
ENDBRANCH  15  16
ENDBRANCH  14  15
ENDBRANCH  13  14
ENDBRANCH  12  13
ENDBRANCH  11  12
ENDBRANCH   1  11
TORSDOF 15
ENDMDL
MODEL 3
REMARK VINA RESULT:    -4.955      1.282      7.148
REMARK INTER + INTRA:         -11.085
REMARK INTER:                  -9.259
REMARK INTRA:                  -1.826
REMARK UNBOUND:                -1.784
REMARK SMILES O=C([O-])CCCCCCCCCCCCCCC(=O)[O-]
REMARK SMILES IDX 10 1 9 2 8 3 7 4 6 5 5 6 4 7 2 8 1 9 3 10 11 11 12 12 13 13
REMARK SMILES IDX 14 14 15 15 16 16 17 17 18 18 19 19 20 20
REMARK H PARENT
REMARK Flexibility Score: inf
ROOT
ATOM      1  C   UNL     1      12.310  13.542   4.392  1.00  0.00     0.000 C 
ENDROOT
BRANCH   1   2
ATOM      2  C   UNL     1      11.738  13.601   2.965  1.00  0.00     0.000 C 
BRANCH   2   3
ATOM      3  C   UNL     1      11.740  15.001   2.321  1.00  0.00     0.000 C 
BRANCH   3   4
ATOM      4  C   UNL     1      12.574  15.128   1.030  1.00  0.00     0.000 C 
BRANCH   4   5
ATOM      5  C   UNL     1      13.662  14.053   0.851  1.00  0.00     0.000 C 
BRANCH   5   6
ATOM      6  C   UNL     1      14.939  14.356   1.653  1.00  0.00     0.006 C 
BRANCH   6   7
ATOM      7  C   UNL     1      15.480  13.113   2.371  1.00  0.00     0.053 C 
BRANCH   7   8
ATOM      8  C   UNL     1      16.307  13.475   3.567  1.00  0.00     0.041 C 
ATOM      9  O   UNL     1      15.876  13.246   4.728  1.00  0.00    -0.550 OA
ATOM     10  O   UNL     1      17.567  14.037   3.399  1.00  0.00    -0.550 OA
ENDBRANCH   7   8
ENDBRANCH   6   7
ENDBRANCH   5   6
ENDBRANCH   4   5
ENDBRANCH   3   4
ENDBRANCH   2   3
ENDBRANCH   1   2
BRANCH   1  11
ATOM     11  C   UNL     1      12.119  12.170   5.057  1.00  0.00     0.000 C 
BRANCH  11  12
ATOM     12  C   UNL     1      11.461  11.178   4.091  1.00  0.00     0.000 C 
BRANCH  12  13
ATOM     13  C   UNL     1      10.483  10.253   4.833  1.00  0.00     0.000 C 
BRANCH  13  14
ATOM     14  C   UNL     1       9.178  10.962   5.224  1.00  0.00     0.000 C 
BRANCH  14  15
ATOM     15  C   UNL     1       8.683  11.934   4.137  1.00  0.00     0.000 C 
BRANCH  15  16
ATOM     16  C   UNL     1       7.904  13.124   4.720  1.00  0.00     0.006 C 
BRANCH  16  17
ATOM     17  C   UNL     1       8.824  14.268   5.167  1.00  0.00     0.053 C 
BRANCH  17  18
ATOM     18  C   UNL     1       8.172  15.070   6.249  1.00  0.00     0.041 C 
ATOM     19  O   UNL     1       8.403  14.807   7.459  1.00  0.00    -0.550 OA
ATOM     20  O   UNL     1       7.344  16.136   5.920  1.00  0.00    -0.550 OA
ENDBRANCH  17  18
ENDBRANCH  16  17
ENDBRANCH  15  16
ENDBRANCH  14  15
ENDBRANCH  13  14
ENDBRANCH  12  13
ENDBRANCH  11  12
ENDBRANCH   1  11
TORSDOF 15
ENDMDL
MODEL 4
REMARK VINA RESULT:    -4.932      1.693      7.367
REMARK INTER + INTRA:         -11.041
REMARK INTER:                  -9.327
REMARK INTRA:                  -1.714
REMARK UNBOUND:                -1.784
REMARK SMILES O=C([O-])CCCCCCCCCCCCCCC(=O)[O-]
REMARK SMILES IDX 10 1 9 2 8 3 7 4 6 5 5 6 4 7 2 8 1 9 3 10 11 11 12 12 13 13
REMARK SMILES IDX 14 14 15 15 16 16 17 17 18 18 19 19 20 20
REMARK H PARENT
REMARK Flexibility Score: inf
ROOT
ATOM      1  C   UNL     1      13.511  12.550   5.127  1.00  0.00     0.000 C 
ENDROOT
BRANCH   1   2
ATOM      2  C   UNL     1      12.469  13.298   5.977  1.00  0.00     0.000 C 
BRANCH   2   3
ATOM      3  C   UNL     1      12.446  14.827   5.781  1.00  0.00     0.000 C 
BRANCH   3   4
ATOM      4  C   UNL     1      12.279  15.299   4.322  1.00  0.00     0.000 C 
BRANCH   4   5
ATOM      5  C   UNL     1      13.495  16.038   3.735  1.00  0.00     0.000 C 
BRANCH   5   6
ATOM      6  C   UNL     1      14.353  15.147   2.821  1.00  0.00     0.006 C 
BRANCH   6   7
ATOM      7  C   UNL     1      15.835  15.165   3.219  1.00  0.00     0.053 C 
BRANCH   7   8
ATOM      8  C   UNL     1      16.470  13.816   3.072  1.00  0.00     0.041 C 
ATOM      9  O   UNL     1      15.952  12.951   2.318  1.00  0.00    -0.550 OA
ATOM     10  O   UNL     1      17.652  13.525   3.743  1.00  0.00    -0.550 OA
ENDBRANCH   7   8
ENDBRANCH   6   7
ENDBRANCH   5   6
ENDBRANCH   4   5
ENDBRANCH   3   4
ENDBRANCH   2   3
ENDBRANCH   1   2
BRANCH   1  11
ATOM     11  C   UNL     1      12.874  11.637   4.068  1.00  0.00     0.000 C 
BRANCH  11  12
ATOM     12  C   UNL     1      11.349  11.608   4.213  1.00  0.00     0.000 C 
BRANCH  12  13
ATOM     13  C   UNL     1      10.837  10.167   4.362  1.00  0.00     0.000 C 
BRANCH  13  14
ATOM     14  C   UNL     1      10.098   9.936   5.689  1.00  0.00     0.000 C 
BRANCH  14  15
ATOM     15  C   UNL     1       9.485  11.228   6.259  1.00  0.00     0.000 C 
BRANCH  15  16
ATOM     16  C   UNL     1       8.102  11.537   5.665  1.00  0.00     0.006 C 
BRANCH  16  17
ATOM     17  C   UNL     1       7.937  13.017   5.294  1.00  0.00     0.053 C 
BRANCH  17  18
ATOM     18  C   UNL     1       7.511  13.811   6.488  1.00  0.00     0.041 C 
ATOM     19  O   UNL     1       6.388  13.605   7.018  1.00  0.00    -0.550 OA
ATOM     20  O   UNL     1       8.374  14.748   7.043  1.00  0.00    -0.550 OA
ENDBRANCH  17  18
ENDBRANCH  16  17
ENDBRANCH  15  16
ENDBRANCH  14  15
ENDBRANCH  13  14
ENDBRANCH  12  13
ENDBRANCH  11  12
ENDBRANCH   1  11
TORSDOF 15
ENDMDL
MODEL 5
REMARK VINA RESULT:    -4.921      2.145      2.889
REMARK INTER + INTRA:         -11.021
REMARK INTER:                  -8.838
REMARK INTRA:                  -2.183
REMARK UNBOUND:                -1.784
REMARK SMILES O=C([O-])CCCCCCCCCCCCCCC(=O)[O-]
REMARK SMILES IDX 10 1 9 2 8 3 7 4 6 5 5 6 4 7 2 8 1 9 3 10 11 11 12 12 13 13
REMARK SMILES IDX 14 14 15 15 16 16 17 17 18 18 19 19 20 20
REMARK H PARENT
REMARK Flexibility Score: inf
ROOT
ATOM      1  C   UNL     1       8.954  11.516   4.470  1.00  0.00     0.000 C 
ENDROOT
BRANCH   1   2
ATOM      2  C   UNL     1       8.608  12.781   3.665  1.00  0.00     0.000 C 
BRANCH   2   3
ATOM      3  C   UNL     1       8.314  14.033   4.515  1.00  0.00     0.000 C 
BRANCH   3   4
ATOM      4  C   UNL     1       8.533  13.863   6.032  1.00  0.00     0.000 C 
BRANCH   4   5
ATOM      5  C   UNL     1       9.888  14.371   6.554  1.00  0.00     0.000 C 
BRANCH   5   6
ATOM      6  C   UNL     1      10.560  15.371   5.598  1.00  0.00     0.006 C 
BRANCH   6   7
ATOM      7  C   UNL     1      11.921  15.847   6.121  1.00  0.00     0.053 C 
BRANCH   7   8
ATOM      8  C   UNL     1      11.820  17.171   6.816  1.00  0.00     0.041 C 
ATOM      9  O   UNL     1      10.715  17.770   6.880  1.00  0.00    -0.550 OA
ATOM     10  O   UNL     1      12.941  17.728   7.421  1.00  0.00    -0.550 OA
ENDBRANCH   7   8
ENDBRANCH   6   7
ENDBRANCH   5   6
ENDBRANCH   4   5
ENDBRANCH   3   4
ENDBRANCH   2   3
ENDBRANCH   1   2
BRANCH   1  11
ATOM     11  C   UNL     1      10.316  10.917   4.086  1.00  0.00     0.000 C 
BRANCH  11  12
ATOM     12  C   UNL     1      11.396  11.315   5.097  1.00  0.00     0.000 C 
BRANCH  12  13
ATOM     13  C   UNL     1      12.364  12.344   4.491  1.00  0.00     0.000 C 
BRANCH  13  14
ATOM     14  C   UNL     1      12.366  12.322   2.956  1.00  0.00     0.000 C 
BRANCH  14  15
ATOM     15  C   UNL     1      12.666  13.703   2.343  1.00  0.00     0.000 C 
BRANCH  15  16
ATOM     16  C   UNL     1      13.970  14.315   2.878  1.00  0.00     0.006 C 
BRANCH  16  17
ATOM     17  C   UNL     1      15.206  13.482   2.512  1.00  0.00     0.053 C 
BRANCH  17  18
ATOM     18  C   UNL     1      16.212  13.527   3.619  1.00  0.00     0.041 C 
ATOM     19  O   UNL     1      15.882  13.204   4.790  1.00  0.00    -0.550 OA
ATOM     20  O   UNL     1      17.527  13.885   3.347  1.00  0.00    -0.550 OA
ENDBRANCH  17  18
ENDBRANCH  16  17
ENDBRANCH  15  16
ENDBRANCH  14  15
ENDBRANCH  13  14
ENDBRANCH  12  13
ENDBRANCH  11  12
ENDBRANCH   1  11
TORSDOF 15
ENDMDL
MODEL 6
REMARK VINA RESULT:    -4.915      3.100      7.747
REMARK INTER + INTRA:         -11.009
REMARK INTER:                  -9.213
REMARK INTRA:                  -1.797
REMARK UNBOUND:                -1.784
REMARK SMILES O=C([O-])CCCCCCCCCCCCCCC(=O)[O-]
REMARK SMILES IDX 10 1 9 2 8 3 7 4 6 5 5 6 4 7 2 8 1 9 3 10 11 11 12 12 13 13
REMARK SMILES IDX 14 14 15 15 16 16 17 17 18 18 19 19 20 20
REMARK H PARENT
REMARK Flexibility Score: inf
ROOT
ATOM      1  C   UNL     1      14.874  12.794   4.963  1.00  0.00     0.000 C 
ENDROOT
BRANCH   1   2
ATOM      2  C   UNL     1      15.690  13.782   4.112  1.00  0.00     0.000 C 
BRANCH   2   3
ATOM      3  C   UNL     1      15.844  13.391   2.628  1.00  0.00     0.000 C 
BRANCH   3   4
ATOM      4  C   UNL     1      14.565  13.525   1.778  1.00  0.00     0.000 C 
BRANCH   4   5
ATOM      5  C   UNL     1      13.783  14.835   1.982  1.00  0.00     0.000 C 
BRANCH   5   6
ATOM      6  C   UNL     1      14.621  16.086   1.665  1.00  0.00     0.006 C 
BRANCH   6   7
ATOM      7  C   UNL     1      14.141  16.797   0.393  1.00  0.00     0.053 C 
BRANCH   7   8
ATOM      8  C   UNL     1      15.218  16.869  -0.646  1.00  0.00     0.041 C 
ATOM      9  O   UNL     1      16.261  17.540  -0.432  1.00  0.00    -0.550 OA
ATOM     10  O   UNL     1      15.082  16.169  -1.839  1.00  0.00    -0.550 OA
ENDBRANCH   7   8
ENDBRANCH   6   7
ENDBRANCH   5   6
ENDBRANCH   4   5
ENDBRANCH   3   4
ENDBRANCH   2   3
ENDBRANCH   1   2
BRANCH   1  11
ATOM     11  C   UNL     1      13.745  13.475   5.752  1.00  0.00     0.000 C 
BRANCH  11  12
ATOM     12  C   UNL     1      12.413  12.747   5.543  1.00  0.00     0.000 C 
BRANCH  12  13
ATOM     13  C   UNL     1      12.487  11.798   4.336  1.00  0.00     0.000 C 
BRANCH  13  14
ATOM     14  C   UNL     1      11.477  12.158   3.237  1.00  0.00     0.000 C 
BRANCH  14  15
ATOM     15  C   UNL     1      10.172  12.749   3.801  1.00  0.00     0.000 C 
BRANCH  15  16
ATOM     16  C   UNL     1       9.019  11.732   3.812  1.00  0.00     0.006 C 
BRANCH  16  17
ATOM     17  C   UNL     1       8.450  11.501   5.218  1.00  0.00     0.053 C 
BRANCH  17  18
ATOM     18  C   UNL     1       9.358  10.616   6.010  1.00  0.00     0.041 C 
ATOM     19  O   UNL     1       9.515  10.810   7.244  1.00  0.00    -0.550 OA
ATOM     20  O   UNL     1       9.998   9.547   5.394  1.00  0.00    -0.550 OA
ENDBRANCH  17  18
ENDBRANCH  16  17
ENDBRANCH  15  16
ENDBRANCH  14  15
ENDBRANCH  13  14
ENDBRANCH  12  13
ENDBRANCH  11  12
ENDBRANCH   1  11
TORSDOF 15
ENDMDL
MODEL 7
REMARK VINA RESULT:    -4.908      2.563      3.509
REMARK INTER + INTRA:         -10.996
REMARK INTER:                  -8.502
REMARK INTRA:                  -2.494
REMARK UNBOUND:                -1.784
REMARK SMILES O=C([O-])CCCCCCCCCCCCCCC(=O)[O-]
REMARK SMILES IDX 10 1 9 2 8 3 7 4 6 5 5 6 4 7 2 8 1 9 3 10 11 11 12 12 13 13
REMARK SMILES IDX 14 14 15 15 16 16 17 17 18 18 19 19 20 20
REMARK H PARENT
REMARK Flexibility Score: inf
ROOT
ATOM      1  C   UNL     1       8.905  11.484   6.183  1.00  0.00     0.000 C 
ENDROOT
BRANCH   1   2
ATOM      2  C   UNL     1       9.259  12.378   7.383  1.00  0.00     0.000 C 
BRANCH   2   3
ATOM      3  C   UNL     1      10.086  13.633   7.038  1.00  0.00     0.000 C 
BRANCH   3   4
ATOM      4  C   UNL     1      11.607  13.404   6.918  1.00  0.00     0.000 C 
BRANCH   4   5
ATOM      5  C   UNL     1      12.392  14.569   6.289  1.00  0.00     0.000 C 
BRANCH   5   6
ATOM      6  C   UNL     1      11.594  15.311   5.203  1.00  0.00     0.006 C 
BRANCH   6   7
ATOM      7  C   UNL     1      11.739  16.834   5.316  1.00  0.00     0.053 C 
BRANCH   7   8
ATOM      8  C   UNL     1      11.444  17.322   6.702  1.00  0.00     0.041 C 
ATOM      9  O   UNL     1      12.361  17.819   7.407  1.00  0.00    -0.550 OA
ATOM     10  O   UNL     1      10.149  17.257   7.202  1.00  0.00    -0.550 OA
ENDBRANCH   7   8
ENDBRANCH   6   7
ENDBRANCH   5   6
ENDBRANCH   4   5
ENDBRANCH   3   4
ENDBRANCH   2   3
ENDBRANCH   1   2
BRANCH   1  11
ATOM     11  C   UNL     1       9.770  10.216   6.106  1.00  0.00     0.000 C 
BRANCH  11  12
ATOM     12  C   UNL     1      10.506  10.134   4.764  1.00  0.00     0.000 C 
BRANCH  12  13
ATOM     13  C   UNL     1      10.189  11.354   3.886  1.00  0.00     0.000 C 
BRANCH  13  14
ATOM     14  C   UNL     1      11.454  12.054   3.366  1.00  0.00     0.000 C 
BRANCH  14  15
ATOM     15  C   UNL     1      12.731  11.582   4.085  1.00  0.00     0.000 C 
BRANCH  15  16
ATOM     16  C   UNL     1      13.958  12.437   3.731  1.00  0.00     0.006 C 
BRANCH  16  17
ATOM     17  C   UNL     1      13.660  13.471   2.637  1.00  0.00     0.053 C 
BRANCH  17  18
ATOM     18  C   UNL     1      14.568  14.652   2.774  1.00  0.00     0.041 C 
ATOM     19  O   UNL     1      15.067  14.941   3.893  1.00  0.00    -0.550 OA
ATOM     20  O   UNL     1      14.897  15.407   1.655  1.00  0.00    -0.550 OA
ENDBRANCH  17  18
ENDBRANCH  16  17
ENDBRANCH  15  16
ENDBRANCH  14  15
ENDBRANCH  13  14
ENDBRANCH  12  13
ENDBRANCH  11  12
ENDBRANCH   1  11
TORSDOF 15
ENDMDL
MODEL 8
REMARK VINA RESULT:    -4.873      3.080      4.738
REMARK INTER + INTRA:         -10.930
REMARK INTER:                  -8.422
REMARK INTRA:                  -2.508
REMARK UNBOUND:                -1.784
REMARK SMILES O=C([O-])CCCCCCCCCCCCCCC(=O)[O-]
REMARK SMILES IDX 10 1 9 2 8 3 7 4 6 5 5 6 4 7 2 8 1 9 3 10 11 11 12 12 13 13
REMARK SMILES IDX 14 14 15 15 16 16 17 17 18 18 19 19 20 20
REMARK H PARENT
REMARK Flexibility Score: inf
ROOT
ATOM      1  C   UNL     1      11.009  11.611   3.663  1.00  0.00     0.000 C 
ENDROOT
BRANCH   1   2
ATOM      2  C   UNL     1      11.276  10.430   4.612  1.00  0.00     0.000 C 
BRANCH   2   3
ATOM      3  C   UNL     1      10.045   9.934   5.397  1.00  0.00     0.000 C 
BRANCH   3   4
ATOM      4  C   UNL     1       9.365  10.992   6.289  1.00  0.00     0.000 C 
BRANCH   4   5
ATOM      5  C   UNL     1       8.097  11.628   5.691  1.00  0.00     0.000 C 
BRANCH   5   6
ATOM      6  C   UNL     1       7.146  12.186   6.764  1.00  0.00     0.006 C 
BRANCH   6   7
ATOM      7  C   UNL     1       7.877  13.063   7.788  1.00  0.00     0.053 C 
BRANCH   7   8
ATOM      8  C   UNL     1       7.352  14.466   7.799  1.00  0.00     0.041 C 
ATOM      9  O   UNL     1       6.176  14.705   7.415  1.00  0.00    -0.550 OA
ATOM     10  O   UNL     1       8.149  15.505   8.262  1.00  0.00    -0.550 OA
ENDBRANCH   7   8
ENDBRANCH   6   7
ENDBRANCH   5   6
ENDBRANCH   4   5
ENDBRANCH   3   4
ENDBRANCH   2   3
ENDBRANCH   1   2
BRANCH   1  11
ATOM     11  C   UNL     1      12.291  12.360   3.266  1.00  0.00     0.000 C 
BRANCH  11  12
ATOM     12  C   UNL     1      13.304  12.364   4.416  1.00  0.00     0.000 C 
BRANCH  12  13
ATOM     13  C   UNL     1      13.214  13.668   5.224  1.00  0.00     0.000 C 
BRANCH  13  14
ATOM     14  C   UNL     1      12.452  13.494   6.546  1.00  0.00     0.000 C 
BRANCH  14  15
ATOM     15  C   UNL     1      11.130  14.284   6.577  1.00  0.00     0.000 C 
BRANCH  15  16
ATOM     16  C   UNL     1      10.922  15.136   5.315  1.00  0.00     0.006 C 
BRANCH  16  17
ATOM     17  C   UNL     1       9.455  15.173   4.865  1.00  0.00     0.053 C 
BRANCH  17  18
ATOM     18  C   UNL     1       8.944  16.579   4.866  1.00  0.00     0.041 C 
ATOM     19  O   UNL     1       7.753  16.820   5.194  1.00  0.00    -0.550 OA
ATOM     20  O   UNL     1       9.797  17.628   4.547  1.00  0.00    -0.550 OA
ENDBRANCH  17  18
ENDBRANCH  16  17
ENDBRANCH  15  16
ENDBRANCH  14  15
ENDBRANCH  13  14
ENDBRANCH  12  13
ENDBRANCH  11  12
ENDBRANCH   1  11
TORSDOF 15
ENDMDL
MODEL 9
REMARK VINA RESULT:    -4.796      1.848      2.278
REMARK INTER + INTRA:         -10.785
REMARK INTER:                  -8.657
REMARK INTRA:                  -2.128
REMARK UNBOUND:                -1.784
REMARK SMILES O=C([O-])CCCCCCCCCCCCCCC(=O)[O-]
REMARK SMILES IDX 10 1 9 2 8 3 7 4 6 5 5 6 4 7 2 8 1 9 3 10 11 11 12 12 13 13
REMARK SMILES IDX 14 14 15 15 16 16 17 17 18 18 19 19 20 20
REMARK H PARENT
REMARK Flexibility Score: inf
ROOT
ATOM      1  C   UNL     1       9.035  10.903   4.700  1.00  0.00     0.000 C 
ENDROOT
BRANCH   1   2
ATOM      2  C   UNL     1       8.918  12.022   3.650  1.00  0.00     0.000 C 
BRANCH   2   3
ATOM      3  C   UNL     1       8.361  13.358   4.181  1.00  0.00     0.000 C 
BRANCH   3   4
ATOM      4  C   UNL     1       9.414  14.323   4.762  1.00  0.00     0.000 C 
BRANCH   4   5
ATOM      5  C   UNL     1       9.845  14.020   6.208  1.00  0.00     0.000 C 
BRANCH   5   6
ATOM      6  C   UNL     1       8.657  13.948   7.183  1.00  0.00     0.006 C 
BRANCH   6   7
ATOM      7  C   UNL     1       8.552  12.579   7.868  1.00  0.00     0.053 C 
BRANCH   7   8
ATOM      8  C   UNL     1       7.175  12.000   7.750  1.00  0.00     0.041 C 
ATOM      9  O   UNL     1       6.476  12.230   6.728  1.00  0.00    -0.550 OA
ATOM     10  O   UNL     1       6.675  11.181   8.755  1.00  0.00    -0.550 OA
ENDBRANCH   7   8
ENDBRANCH   6   7
ENDBRANCH   5   6
ENDBRANCH   4   5
ENDBRANCH   3   4
ENDBRANCH   2   3
ENDBRANCH   1   2
BRANCH   1  11
ATOM     11  C   UNL     1      10.490  10.499   4.982  1.00  0.00     0.000 C 
BRANCH  11  12
ATOM     12  C   UNL     1      11.449  11.175   3.997  1.00  0.00     0.000 C 
BRANCH  12  13
ATOM     13  C   UNL     1      12.526  11.979   4.742  1.00  0.00     0.000 C 
BRANCH  13  14
ATOM     14  C   UNL     1      13.397  12.820   3.797  1.00  0.00     0.000 C 
BRANCH  14  15
ATOM     15  C   UNL     1      12.567  13.765   2.909  1.00  0.00     0.000 C 
BRANCH  15  16
ATOM     16  C   UNL     1      12.780  13.505   1.409  1.00  0.00     0.006 C 
BRANCH  16  17
ATOM     17  C   UNL     1      14.203  13.847   0.948  1.00  0.00     0.053 C 
BRANCH  17  18
ATOM     18  C   UNL     1      14.440  15.321   1.034  1.00  0.00     0.041 C 
ATOM     19  O   UNL     1      15.329  15.777   1.799  1.00  0.00    -0.550 OA
ATOM     20  O   UNL     1      13.707  16.190   0.234  1.00  0.00    -0.550 OA
ENDBRANCH  17  18
ENDBRANCH  16  17
ENDBRANCH  15  16
ENDBRANCH  14  15
ENDBRANCH  13  14
ENDBRANCH  12  13
ENDBRANCH  11  12
ENDBRANCH   1  11
TORSDOF 15
ENDMDL
