MODEL 1
REMARK VINA RESULT:    -4.756      0.000      0.000
REMARK INTER + INTRA:          -5.705
REMARK INTER:                  -5.173
REMARK INTRA:                  -0.531
REMARK UNBOUND:                -0.531
REMARK SMILES C=C(C)[C@@H]1CC[C@@]2(C)CC[C@@]3(C)[C@@H](CC[C@H]4[C@]5(C)CC[C@H](O)C(C)(C)[C@H]5CC[C@@]43C)[C@@H]12
REMARK SMILES IDX 4 1 5 2 6 3 7 4 31 5 13 6 14 7 15 8 16 9 17 10 19 11 20 12
REMARK SMILES IDX 21 13 23 14 26 15 27 16 28 17 29 18 11 19 10 20 9 21 12 22
REMARK SMILES IDX 30 23 24 24 25 25 18 26 8 27 2 28 3 29 1 30 22 31
REMARK H PARENT 22 32
REMARK Flexibility Score: inf
ROOT
ATOM      1  C   UNL     1      -0.375  -5.927  -8.092  1.00  0.00     0.018 C 
ATOM      2  C   UNL     1      -1.305  -6.590  -9.125  1.00  0.00     0.009 C 
ATOM      3  C   UNL     1      -1.414  -8.062  -8.743  1.00  0.00     0.008 C 
ATOM      4  C   UNL     1      -0.112  -8.407  -8.001  1.00  0.00    -0.029 C 
ATOM      5  C   UNL     1       0.245  -7.086  -7.268  1.00  0.00     0.006 C 
ATOM      6  C   UNL     1       1.749  -6.970  -6.854  1.00  0.00    -0.000 C 
ATOM      7  C   UNL     1       2.074  -5.615  -6.189  1.00  0.00     0.005 C 
ATOM      8  C   UNL     1       3.473  -5.596  -5.557  1.00  0.00     0.005 C 
ATOM      9  C   UNL     1       4.595  -6.035  -6.550  1.00  0.00     0.002 C 
ATOM     10  C   UNL     1       6.089  -5.795  -6.023  1.00  0.00    -0.026 C 
ATOM     11  C   UNL     1       6.281  -4.273  -5.717  1.00  0.00     0.010 C 
ATOM     12  C   UNL     1       7.740  -3.859  -5.468  1.00  0.00     0.033 C 
ATOM     13  C   UNL     1       8.678  -4.232  -6.622  1.00  0.00     0.120 C 
ATOM     14  C   UNL     1       8.583  -5.744  -7.039  1.00  0.00    -0.006 C 
ATOM     15  C   UNL     1       7.066  -6.175  -7.205  1.00  0.00     0.003 C 
ATOM     16  C   UNL     1       6.846  -7.644  -7.656  1.00  0.00     0.005 C 
ATOM     17  C   UNL     1       5.422  -7.840  -8.198  1.00  0.00     0.008 C 
ATOM     18  C   UNL     1       4.283  -7.457  -7.186  1.00  0.00    -0.024 C 
ATOM     19  C   UNL     1       2.827  -7.392  -7.921  1.00  0.00    -0.024 C 
ATOM     20  C   UNL     1       2.406  -8.784  -8.500  1.00  0.00     0.008 C 
ATOM     21  C   UNL     1       0.967  -8.840  -9.038  1.00  0.00     0.007 C 
ATOM     22  C   UNL     1       2.823  -6.371  -9.119  1.00  0.00     0.012 C 
ATOM     23  C   UNL     1       4.310  -8.578  -6.083  1.00  0.00     0.012 C 
ATOM     24  C   UNL     1       9.340  -6.615  -6.002  1.00  0.00     0.014 C 
ATOM     25  C   UNL     1       9.346  -5.903  -8.387  1.00  0.00     0.014 C 
ATOM     26  C   UNL     1       6.372  -6.589  -4.703  1.00  0.00     0.012 C 
ATOM     27  C   UNL     1      -0.368  -9.560  -6.997  1.00  0.00     0.011 C 
ENDROOT
BRANCH   1  28
ATOM     28  C   UNL     1      -1.129  -4.914  -7.227  1.00  0.00    -0.077 C 
ATOM     29  C   UNL     1      -1.766  -5.317  -5.922  1.00  0.00     0.039 C 
ATOM     30  C   UNL     1      -1.246  -3.638  -7.625  1.00  0.00     0.008 C 
ENDBRANCH   1  28
BRANCH  13  31
ATOM     31  O   UNL     1       8.487  -3.349  -7.705  1.00  0.00    -0.393 OA
ATOM     32  H   UNL     1       7.596  -2.932  -7.615  1.00  0.00     0.210 HD
ENDBRANCH  13  31
TORSDOF 2
ENDMDL
MODEL 2
REMARK VINA RESULT:    -4.610      2.874      6.007
REMARK INTER + INTRA:          -5.545
REMARK INTER:                  -5.043
REMARK INTRA:                  -0.503
REMARK UNBOUND:                -0.531
REMARK SMILES C=C(C)[C@@H]1CC[C@@]2(C)CC[C@@]3(C)[C@@H](CC[C@H]4[C@]5(C)CC[C@H](O)C(C)(C)[C@H]5CC[C@@]43C)[C@@H]12
REMARK SMILES IDX 4 1 5 2 6 3 7 4 31 5 13 6 14 7 15 8 16 9 17 10 19 11 20 12
REMARK SMILES IDX 21 13 23 14 26 15 27 16 28 17 29 18 11 19 10 20 9 21 12 22
REMARK SMILES IDX 30 23 24 24 25 25 18 26 8 27 2 28 3 29 1 30 22 31
REMARK H PARENT 22 32
REMARK Flexibility Score: inf
ROOT
ATOM      1  C   UNL     1      -4.981  -7.734  -6.200  1.00  0.00     0.018 C 
ATOM      2  C   UNL     1      -6.058  -7.128  -5.282  1.00  0.00     0.009 C 
ATOM      3  C   UNL     1      -6.295  -5.700  -5.760  1.00  0.00     0.008 C 
ATOM      4  C   UNL     1      -4.983  -5.248  -6.423  1.00  0.00    -0.029 C 
ATOM      5  C   UNL     1      -4.425  -6.556  -7.045  1.00  0.00     0.006 C 
ATOM      6  C   UNL     1      -2.889  -6.523  -7.337  1.00  0.00    -0.000 C 
ATOM      7  C   UNL     1      -2.366  -7.865  -7.892  1.00  0.00     0.005 C 
ATOM      8  C   UNL     1      -0.926  -7.757  -8.415  1.00  0.00     0.005 C 
ATOM      9  C   UNL     1       0.056  -7.143  -7.369  1.00  0.00     0.002 C 
ATOM     10  C   UNL     1       1.606  -7.239  -7.767  1.00  0.00    -0.026 C 
ATOM     11  C   UNL     1       1.988  -8.742  -7.965  1.00  0.00     0.010 C 
ATOM     12  C   UNL     1       3.498  -9.001  -8.079  1.00  0.00     0.033 C 
ATOM     13  C   UNL     1       4.293  -8.464  -6.883  1.00  0.00     0.120 C 
ATOM     14  C   UNL     1       4.000  -6.953  -6.567  1.00  0.00    -0.006 C 
ATOM     15  C   UNL     1       2.436  -6.689  -6.541  1.00  0.00     0.003 C 
ATOM     16  C   UNL     1       2.022  -5.233  -6.198  1.00  0.00     0.005 C 
ATOM     17  C   UNL     1       0.545  -5.172  -5.778  1.00  0.00     0.008 C 
ATOM     18  C   UNL     1      -0.459  -5.734  -6.846  1.00  0.00    -0.024 C 
ATOM     19  C   UNL     1      -1.955  -5.926  -6.220  1.00  0.00    -0.024 C 
ATOM     20  C   UNL     1      -2.570  -4.562  -5.759  1.00  0.00     0.008 C 
ATOM     21  C   UNL     1      -4.046  -4.643  -5.336  1.00  0.00     0.007 C 
ATOM     22  C   UNL     1      -1.944  -6.877  -4.965  1.00  0.00     0.012 C 
ATOM     23  C   UNL     1      -0.466  -4.677  -8.010  1.00  0.00     0.012 C 
ATOM     24  C   UNL     1       4.739  -6.057  -7.595  1.00  0.00     0.014 C 
ATOM     25  C   UNL     1       4.629  -6.639  -5.177  1.00  0.00     0.014 C 
ATOM     26  C   UNL     1       1.906  -6.488  -9.109  1.00  0.00     0.012 C 
ATOM     27  C   UNL     1      -5.281  -4.186  -7.511  1.00  0.00     0.011 C 
ENDROOT
BRANCH   1  28
ATOM     28  C   UNL     1      -5.546  -8.870  -7.056  1.00  0.00    -0.077 C 
ATOM     29  C   UNL     1      -6.622  -8.619  -8.081  1.00  0.00     0.039 C 
ATOM     30  C   UNL     1      -5.098 -10.125  -6.899  1.00  0.00     0.008 C 
ENDBRANCH   1  28
BRANCH  13  31
ATOM     31  O   UNL     1       4.112  -9.305  -5.765  1.00  0.00    -0.393 OA
ATOM     32  H   UNL     1       3.379  -8.940  -5.213  1.00  0.00     0.210 HD
ENDBRANCH  13  31
TORSDOF 2
ENDMDL
MODEL 3
REMARK VINA RESULT:    -4.372      5.696     11.326
REMARK INTER + INTRA:          -5.287
REMARK INTER:                  -4.860
REMARK INTRA:                  -0.427
REMARK UNBOUND:                -0.531
REMARK SMILES C=C(C)[C@@H]1CC[C@@]2(C)CC[C@@]3(C)[C@@H](CC[C@H]4[C@]5(C)CC[C@H](O)C(C)(C)[C@H]5CC[C@@]43C)[C@@H]12
REMARK SMILES IDX 4 1 5 2 6 3 7 4 31 5 13 6 14 7 15 8 16 9 17 10 19 11 20 12
REMARK SMILES IDX 21 13 23 14 26 15 27 16 28 17 29 18 11 19 10 20 9 21 12 22
REMARK SMILES IDX 30 23 24 24 25 25 18 26 8 27 2 28 3 29 1 30 22 31
REMARK H PARENT 22 32
REMARK Flexibility Score: inf
ROOT
ATOM      1  C   UNL     1      -0.491  -7.463  -8.191  1.00  0.00     0.018 C 
ATOM      2  C   UNL     1       0.570  -6.406  -8.550  1.00  0.00     0.009 C 
ATOM      3  C   UNL     1       0.864  -5.622  -7.276  1.00  0.00     0.008 C 
ATOM      4  C   UNL     1      -0.411  -5.706  -6.420  1.00  0.00    -0.029 C 
ATOM      5  C   UNL     1      -0.982  -7.109  -6.762  1.00  0.00     0.006 C 
ATOM      6  C   UNL     1      -2.506  -7.274  -6.448  1.00  0.00    -0.000 C 
ATOM      7  C   UNL     1      -3.046  -8.659  -6.865  1.00  0.00     0.005 C 
ATOM      8  C   UNL     1      -4.462  -8.916  -6.332  1.00  0.00     0.005 C 
ATOM      9  C   UNL     1      -5.464  -7.775  -6.690  1.00  0.00     0.002 C 
ATOM     10  C   UNL     1      -7.000  -8.107  -6.377  1.00  0.00    -0.026 C 
ATOM     11  C   UNL     1      -7.416  -9.385  -7.178  1.00  0.00     0.010 C 
ATOM     12  C   UNL     1      -8.928  -9.659  -7.190  1.00  0.00     0.033 C 
ATOM     13  C   UNL     1      -9.751  -8.478  -7.721  1.00  0.00     0.120 C 
ATOM     14  C   UNL     1      -9.427  -7.119  -7.002  1.00  0.00    -0.006 C 
ATOM     15  C   UNL     1      -7.858  -6.898  -6.922  1.00  0.00     0.003 C 
ATOM     16  C   UNL     1      -7.417  -5.564  -6.265  1.00  0.00     0.005 C 
ATOM     17  C   UNL     1      -5.955  -5.243  -6.613  1.00  0.00     0.008 C 
ATOM     18  C   UNL     1      -4.929  -6.359  -6.205  1.00  0.00    -0.024 C 
ATOM     19  C   UNL     1      -3.463  -6.099  -6.874  1.00  0.00    -0.024 C 
ATOM     20  C   UNL     1      -2.826  -4.759  -6.375  1.00  0.00     0.008 C 
ATOM     21  C   UNL     1      -1.369  -4.545  -6.817  1.00  0.00     0.007 C 
ATOM     22  C   UNL     1      -3.545  -6.017  -8.444  1.00  0.00     0.012 C 
ATOM     23  C   UNL     1      -4.851  -6.302  -4.635  1.00  0.00     0.012 C 
ATOM     24  C   UNL     1     -10.104  -7.099  -5.606  1.00  0.00     0.014 C 
ATOM     25  C   UNL     1     -10.096  -5.984  -7.832  1.00  0.00     0.014 C 
ATOM     26  C   UNL     1      -7.232  -8.399  -4.856  1.00  0.00     0.012 C 
ATOM     27  C   UNL     1      -0.045  -5.596  -4.918  1.00  0.00     0.011 C 
ENDROOT
BRANCH   1  28
ATOM     28  C   UNL     1       0.074  -8.882  -8.294  1.00  0.00    -0.077 C 
ATOM     29  C   UNL     1      -0.613  -9.942  -9.118  1.00  0.00     0.039 C 
ATOM     30  C   UNL     1       1.195  -9.215  -7.637  1.00  0.00     0.008 C 
ENDBRANCH   1  28
BRANCH  13  31
ATOM     31  O   UNL     1      -9.633  -8.401  -9.124  1.00  0.00    -0.393 OA
ATOM     32  H   UNL     1     -10.505  -8.637  -9.525  1.00  0.00     0.210 HD
ENDBRANCH  13  31
TORSDOF 2
ENDMDL
MODEL 4
REMARK VINA RESULT:    -3.685      2.460      7.788
REMARK INTER + INTRA:          -4.539
REMARK INTER:                  -4.691
REMARK INTRA:                   0.152
REMARK UNBOUND:                -0.531
REMARK SMILES C=C(C)[C@@H]1CC[C@@]2(C)CC[C@@]3(C)[C@@H](CC[C@H]4[C@]5(C)CC[C@H](O)C(C)(C)[C@H]5CC[C@@]43C)[C@@H]12
REMARK SMILES IDX 4 1 5 2 6 3 7 4 31 5 13 6 14 7 15 8 16 9 17 10 19 11 20 12
REMARK SMILES IDX 21 13 23 14 26 15 27 16 28 17 29 18 11 19 10 20 9 21 12 22
REMARK SMILES IDX 30 23 24 24 25 25 18 26 8 27 2 28 3 29 1 30 22 31
REMARK H PARENT 22 32
REMARK Flexibility Score: inf
ROOT
ATOM      1  C   UNL     1       8.443  -7.147  -4.249  1.00  0.00     0.018 C 
ATOM      2  C   UNL     1       9.437  -8.148  -3.632  1.00  0.00     0.009 C 
ATOM      3  C   UNL     1      10.070  -8.914  -4.788  1.00  0.00     0.008 C 
ATOM      4  C   UNL     1       9.037  -8.895  -5.928  1.00  0.00    -0.029 C 
ATOM      5  C   UNL     1       8.330  -7.524  -5.750  1.00  0.00     0.006 C 
ATOM      6  C   UNL     1       6.922  -7.437  -6.425  1.00  0.00    -0.000 C 
ATOM      7  C   UNL     1       6.227  -6.083  -6.167  1.00  0.00     0.005 C 
ATOM      8  C   UNL     1       4.971  -5.899  -7.029  1.00  0.00     0.005 C 
ATOM      9  C   UNL     1       3.971  -7.091  -6.911  1.00  0.00     0.002 C 
ATOM     10  C   UNL     1       2.542  -6.838  -7.589  1.00  0.00    -0.026 C 
ATOM     11  C   UNL     1       1.880  -5.585  -6.927  1.00  0.00     0.010 C 
ATOM     12  C   UNL     1       0.398  -5.390  -7.284  1.00  0.00     0.033 C 
ATOM     13  C   UNL     1      -0.467  -6.612  -6.955  1.00  0.00     0.120 C 
ATOM     14  C   UNL     1       0.089  -7.952  -7.558  1.00  0.00    -0.006 C 
ATOM     15  C   UNL     1       1.639  -8.091  -7.254  1.00  0.00     0.003 C 
ATOM     16  C   UNL     1       2.294  -9.400  -7.770  1.00  0.00     0.005 C 
ATOM     17  C   UNL     1       3.642  -9.645  -7.075  1.00  0.00     0.008 C 
ATOM     18  C   UNL     1       4.679  -8.476  -7.236  1.00  0.00    -0.024 C 
ATOM     19  C   UNL     1       5.951  -8.661  -6.230  1.00  0.00    -0.024 C 
ATOM     20  C   UNL     1       6.756  -9.965  -6.545  1.00  0.00     0.008 C 
ATOM     21  C   UNL     1       8.072 -10.105  -5.761  1.00  0.00     0.007 C 
ATOM     22  C   UNL     1       5.495  -8.749  -4.725  1.00  0.00     0.012 C 
ATOM     23  C   UNL     1       5.136  -8.528  -8.740  1.00  0.00     0.012 C 
ATOM     24  C   UNL     1      -0.229  -8.005  -9.076  1.00  0.00     0.014 C 
ATOM     25  C   UNL     1      -0.703  -9.121  -6.902  1.00  0.00     0.014 C 
ATOM     26  C   UNL     1       2.670  -6.557  -9.125  1.00  0.00     0.012 C 
ATOM     27  C   UNL     1       9.761  -8.984  -7.296  1.00  0.00     0.011 C 
ENDROOT
BRANCH   1  28
ATOM     28  C   UNL     1       8.893  -5.700  -4.028  1.00  0.00    -0.077 C 
ATOM     29  C   UNL     1       8.011  -4.538  -4.406  1.00  0.00     0.039 C 
ATOM     30  C   UNL     1      10.099  -5.439  -3.500  1.00  0.00     0.008 C 
ENDBRANCH   1  28
BRANCH  13  31
ATOM     31  O   UNL     1      -0.689  -6.685  -5.564  1.00  0.00    -0.393 OA
ATOM     32  H   UNL     1      -0.878  -7.625  -5.326  1.00  0.00     0.210 HD
ENDBRANCH  13  31
TORSDOF 2
ENDMDL
MODEL 5
REMARK VINA RESULT:    -3.640      2.416      7.715
REMARK INTER + INTRA:          -4.490
REMARK INTER:                  -4.119
REMARK INTRA:                  -0.372
REMARK UNBOUND:                -0.531
REMARK SMILES C=C(C)[C@@H]1CC[C@@]2(C)CC[C@@]3(C)[C@@H](CC[C@H]4[C@]5(C)CC[C@H](O)C(C)(C)[C@H]5CC[C@@]43C)[C@@H]12
REMARK SMILES IDX 4 1 5 2 6 3 7 4 31 5 13 6 14 7 15 8 16 9 17 10 19 11 20 12
REMARK SMILES IDX 21 13 23 14 26 15 27 16 28 17 29 18 11 19 10 20 9 21 12 22
REMARK SMILES IDX 30 23 24 24 25 25 18 26 8 27 2 28 3 29 1 30 22 31
REMARK H PARENT 22 32
REMARK Flexibility Score: inf
ROOT
ATOM      1  C   UNL     1       7.871  -6.451  -5.067  1.00  0.00     0.018 C 
ATOM      2  C   UNL     1       9.090  -7.276  -4.614  1.00  0.00     0.009 C 
ATOM      3  C   UNL     1       9.679  -7.919  -5.864  1.00  0.00     0.008 C 
ATOM      4  C   UNL     1       8.515  -8.066  -6.858  1.00  0.00    -0.029 C 
ATOM      5  C   UNL     1       7.622  -6.834  -6.550  1.00  0.00     0.006 C 
ATOM      6  C   UNL     1       6.141  -6.980  -7.032  1.00  0.00    -0.000 C 
ATOM      7  C   UNL     1       5.274  -5.762  -6.647  1.00  0.00     0.005 C 
ATOM      8  C   UNL     1       3.900  -5.785  -7.332  1.00  0.00     0.005 C 
ATOM      9  C   UNL     1       3.135  -7.128  -7.116  1.00  0.00     0.002 C 
ATOM     10  C   UNL     1       1.606  -7.113  -7.594  1.00  0.00    -0.026 C 
ATOM     11  C   UNL     1       0.842  -5.991  -6.816  1.00  0.00     0.010 C 
ATOM     12  C   UNL     1      -0.687  -6.044  -6.970  1.00  0.00     0.033 C 
ATOM     13  C   UNL     1      -1.287  -7.395  -6.564  1.00  0.00     0.120 C 
ATOM     14  C   UNL     1      -0.604  -8.620  -7.272  1.00  0.00    -0.006 C 
ATOM     15  C   UNL     1       0.975  -8.501  -7.178  1.00  0.00     0.003 C 
ATOM     16  C   UNL     1       1.761  -9.679  -7.811  1.00  0.00     0.005 C 
ATOM     17  C   UNL     1       3.212  -9.699  -7.306  1.00  0.00     0.008 C 
ATOM     18  C   UNL     1       4.011  -8.374  -7.570  1.00  0.00    -0.024 C 
ATOM     19  C   UNL     1       5.419  -8.349  -6.744  1.00  0.00    -0.024 C 
ATOM     20  C   UNL     1       6.378  -9.499  -7.198  1.00  0.00     0.008 C 
ATOM     21  C   UNL     1       7.792  -9.422  -6.599  1.00  0.00     0.007 C 
ATOM     22  C   UNL     1       5.190  -8.520  -5.196  1.00  0.00     0.012 C 
ATOM     23  C   UNL     1       4.265  -8.340  -9.121  1.00  0.00     0.012 C 
ATOM     24  C   UNL     1      -1.109  -8.717  -8.736  1.00  0.00     0.014 C 
ATOM     25  C   UNL     1      -1.097  -9.908  -6.550  1.00  0.00     0.014 C 
ATOM     26  C   UNL     1       1.479  -6.806  -9.125  1.00  0.00     0.012 C 
ATOM     27  C   UNL     1       9.053  -8.026  -8.310  1.00  0.00     0.011 C 
ENDROOT
BRANCH   1  28
ATOM     28  C   UNL     1       8.102  -4.951  -4.868  1.00  0.00    -0.077 C 
ATOM     29  C   UNL     1       9.371  -4.284  -5.332  1.00  0.00     0.039 C 
ATOM     30  C   UNL     1       7.174  -4.198  -4.258  1.00  0.00     0.008 C 
ENDBRANCH   1  28
BRANCH  13  31
ATOM     31  O   UNL     1      -1.305  -7.512  -5.158  1.00  0.00    -0.393 OA
ATOM     32  H   UNL     1      -2.158  -7.141  -4.824  1.00  0.00     0.210 HD
ENDBRANCH  13  31
TORSDOF 2
ENDMDL
MODEL 6
REMARK VINA RESULT:    -3.190     13.399     17.494
REMARK INTER + INTRA:          -4.001
REMARK INTER:                  -4.012
REMARK INTRA:                   0.011
REMARK UNBOUND:                -0.531
REMARK SMILES C=C(C)[C@@H]1CC[C@@]2(C)CC[C@@]3(C)[C@@H](CC[C@H]4[C@]5(C)CC[C@H](O)C(C)(C)[C@H]5CC[C@@]43C)[C@@H]12
REMARK SMILES IDX 4 1 5 2 6 3 7 4 31 5 13 6 14 7 15 8 16 9 17 10 19 11 20 12
REMARK SMILES IDX 21 13 23 14 26 15 27 16 28 17 29 18 11 19 10 20 9 21 12 22
REMARK SMILES IDX 30 23 24 24 25 25 18 26 8 27 2 28 3 29 1 30 22 31
REMARK H PARENT 22 32
REMARK Flexibility Score: inf
ROOT
ATOM      1  C   UNL     1      -3.938  -8.766   3.913  1.00  0.00     0.018 C 
ATOM      2  C   UNL     1      -2.465  -9.193   4.052  1.00  0.00     0.009 C 
ATOM      3  C   UNL     1      -2.277  -9.678   5.485  1.00  0.00     0.008 C 
ATOM      4  C   UNL     1      -3.328  -8.936   6.327  1.00  0.00    -0.029 C 
ATOM      5  C   UNL     1      -4.523  -8.775   5.350  1.00  0.00     0.006 C 
ATOM      6  C   UNL     1      -5.522  -7.637   5.742  1.00  0.00    -0.000 C 
ATOM      7  C   UNL     1      -6.657  -7.467   4.709  1.00  0.00     0.005 C 
ATOM      8  C   UNL     1      -7.769  -6.536   5.213  1.00  0.00     0.005 C 
ATOM      9  C   UNL     1      -7.230  -5.158   5.709  1.00  0.00     0.002 C 
ATOM     10  C   UNL     1      -8.362  -4.064   6.008  1.00  0.00    -0.026 C 
ATOM     11  C   UNL     1      -9.189  -3.819   4.703  1.00  0.00     0.010 C 
ATOM     12  C   UNL     1     -10.125  -2.601   4.767  1.00  0.00     0.033 C 
ATOM     13  C   UNL     1      -9.395  -1.298   5.117  1.00  0.00     0.120 C 
ATOM     14  C   UNL     1      -8.515  -1.405   6.414  1.00  0.00    -0.006 C 
ATOM     15  C   UNL     1      -7.621  -2.715   6.368  1.00  0.00     0.003 C 
ATOM     16  C   UNL     1      -6.677  -2.909   7.583  1.00  0.00     0.005 C 
ATOM     17  C   UNL     1      -5.575  -3.929   7.259  1.00  0.00     0.008 C 
ATOM     18  C   UNL     1      -6.104  -5.339   6.815  1.00  0.00    -0.024 C 
ATOM     19  C   UNL     1      -4.907  -6.260   6.194  1.00  0.00    -0.024 C 
ATOM     20  C   UNL     1      -3.795  -6.558   7.255  1.00  0.00     0.008 C 
ATOM     21  C   UNL     1      -2.736  -7.574   6.796  1.00  0.00     0.007 C 
ATOM     22  C   UNL     1      -4.206  -5.559   4.972  1.00  0.00     0.012 C 
ATOM     23  C   UNL     1      -6.701  -5.990   8.116  1.00  0.00     0.012 C 
ATOM     24  C   UNL     1      -9.430  -1.351   7.665  1.00  0.00     0.014 C 
ATOM     25  C   UNL     1      -7.616  -0.135   6.471  1.00  0.00     0.014 C 
ATOM     26  C   UNL     1      -9.354  -4.545   7.121  1.00  0.00     0.012 C 
ATOM     27  C   UNL     1      -3.716  -9.792   7.559  1.00  0.00     0.011 C 
ENDROOT
BRANCH   1  28
ATOM     28  C   UNL     1      -4.700  -9.681   2.951  1.00  0.00    -0.077 C 
ATOM     29  C   UNL     1      -6.113 -10.119   3.237  1.00  0.00     0.039 C 
ATOM     30  C   UNL     1      -4.112 -10.125   1.829  1.00  0.00     0.008 C 
ENDBRANCH   1  28
BRANCH  13  31
ATOM     31  O   UNL     1      -8.672  -0.834   3.998  1.00  0.00    -0.393 OA
ATOM     32  H   UNL     1      -8.411  -1.613   3.449  1.00  0.00     0.210 HD
ENDBRANCH  13  31
TORSDOF 2
ENDMDL
MODEL 7
REMARK VINA RESULT:    -2.969     14.415     18.577
REMARK INTER + INTRA:          -3.761
REMARK INTER:                  -3.413
REMARK INTRA:                  -0.347
REMARK UNBOUND:                -0.531
REMARK SMILES C=C(C)[C@@H]1CC[C@@]2(C)CC[C@@]3(C)[C@@H](CC[C@H]4[C@]5(C)CC[C@H](O)C(C)(C)[C@H]5CC[C@@]43C)[C@@H]12
REMARK SMILES IDX 4 1 5 2 6 3 7 4 31 5 13 6 14 7 15 8 16 9 17 10 19 11 20 12
REMARK SMILES IDX 21 13 23 14 26 15 27 16 28 17 29 18 11 19 10 20 9 21 12 22
REMARK SMILES IDX 30 23 24 24 25 25 18 26 8 27 2 28 3 29 1 30 22 31
REMARK H PARENT 22 32
REMARK Flexibility Score: inf
ROOT
ATOM      1  C   UNL     1      -5.137  -8.301   5.768  1.00  0.00     0.018 C 
ATOM      2  C   UNL     1      -5.464  -9.798   5.919  1.00  0.00     0.009 C 
ATOM      3  C   UNL     1      -6.536 -10.125   4.887  1.00  0.00     0.008 C 
ATOM      4  C   UNL     1      -7.303  -8.815   4.639  1.00  0.00    -0.029 C 
ATOM      5  C   UNL     1      -6.214  -7.722   4.812  1.00  0.00     0.006 C 
ATOM      6  C   UNL     1      -6.780  -6.297   5.120  1.00  0.00    -0.000 C 
ATOM      7  C   UNL     1      -5.662  -5.257   5.349  1.00  0.00     0.005 C 
ATOM      8  C   UNL     1      -6.204  -3.821   5.398  1.00  0.00     0.005 C 
ATOM      9  C   UNL     1      -7.373  -3.646   6.417  1.00  0.00     0.002 C 
ATOM     10  C   UNL     1      -7.804  -2.127   6.688  1.00  0.00    -0.026 C 
ATOM     11  C   UNL     1      -6.567  -1.337   7.230  1.00  0.00     0.010 C 
ATOM     12  C   UNL     1      -6.902   0.055   7.790  1.00  0.00     0.033 C 
ATOM     13  C   UNL     1      -7.964   0.019   8.896  1.00  0.00     0.120 C 
ATOM     14  C   UNL     1      -9.268  -0.755   8.486  1.00  0.00    -0.006 C 
ATOM     15  C   UNL     1      -8.897  -2.150   7.829  1.00  0.00     0.003 C 
ATOM     16  C   UNL     1     -10.110  -3.025   7.416  1.00  0.00     0.005 C 
ATOM     17  C   UNL     1      -9.681  -4.485   7.204  1.00  0.00     0.008 C 
ATOM     18  C   UNL     1      -8.546  -4.681   6.138  1.00  0.00    -0.024 C 
ATOM     19  C   UNL     1      -7.931  -6.192   6.188  1.00  0.00    -0.024 C 
ATOM     20  C   UNL     1      -9.010  -7.270   5.836  1.00  0.00     0.008 C 
ATOM     21  C   UNL     1      -8.456  -8.696   5.679  1.00  0.00     0.007 C 
ATOM     22  C   UNL     1      -7.370  -6.546   7.616  1.00  0.00     0.012 C 
ATOM     23  C   UNL     1      -9.223  -4.393   4.748  1.00  0.00     0.012 C 
ATOM     24  C   UNL     1     -10.124   0.137   7.548  1.00  0.00     0.014 C 
ATOM     25  C   UNL     1     -10.109  -0.967   9.779  1.00  0.00     0.014 C 
ATOM     26  C   UNL     1      -8.288  -1.419   5.377  1.00  0.00     0.012 C 
ATOM     27  C   UNL     1      -7.887  -8.810   3.204  1.00  0.00     0.011 C 
ENDROOT
BRANCH   1  28
ATOM     28  C   UNL     1      -3.709  -8.086   5.261  1.00  0.00    -0.077 C 
ATOM     29  C   UNL     1      -3.157  -8.882   4.107  1.00  0.00     0.039 C 
ATOM     30  C   UNL     1      -2.910  -7.183   5.850  1.00  0.00     0.008 C 
ENDBRANCH   1  28
BRANCH  13  31
ATOM     31  O   UNL     1      -7.395  -0.458  10.096  1.00  0.00    -0.393 OA
ATOM     32  H   UNL     1      -6.850  -1.255   9.888  1.00  0.00     0.210 HD
ENDBRANCH  13  31
TORSDOF 2
ENDMDL
MODEL 8
REMARK VINA RESULT:    -2.939      5.608     11.116
REMARK INTER + INTRA:          -3.728
REMARK INTER:                  -3.598
REMARK INTRA:                  -0.130
REMARK UNBOUND:                -0.531
REMARK SMILES C=C(C)[C@@H]1CC[C@@]2(C)CC[C@@]3(C)[C@@H](CC[C@H]4[C@]5(C)CC[C@H](O)C(C)(C)[C@H]5CC[C@@]43C)[C@@H]12
REMARK SMILES IDX 4 1 5 2 6 3 7 4 31 5 13 6 14 7 15 8 16 9 17 10 19 11 20 12
REMARK SMILES IDX 21 13 23 14 26 15 27 16 28 17 29 18 11 19 10 20 9 21 12 22
REMARK SMILES IDX 30 23 24 24 25 25 18 26 8 27 2 28 3 29 1 30 22 31
REMARK H PARENT 22 32
REMARK Flexibility Score: inf
ROOT
ATOM      1  C   UNL     1      -0.260  -6.085  -5.960  1.00  0.00     0.018 C 
ATOM      2  C   UNL     1       0.874  -6.260  -6.987  1.00  0.00     0.009 C 
ATOM      3  C   UNL     1       0.672  -5.194  -8.057  1.00  0.00     0.008 C 
ATOM      4  C   UNL     1      -0.834  -4.883  -8.071  1.00  0.00    -0.029 C 
ATOM      5  C   UNL     1      -1.255  -5.073  -6.589  1.00  0.00     0.006 C 
ATOM      6  C   UNL     1      -2.785  -5.322  -6.384  1.00  0.00    -0.000 C 
ATOM      7  C   UNL     1      -3.148  -5.571  -4.904  1.00  0.00     0.005 C 
ATOM      8  C   UNL     1      -4.665  -5.562  -4.667  1.00  0.00     0.005 C 
ATOM      9  C   UNL     1      -5.435  -6.529  -5.620  1.00  0.00     0.002 C 
ATOM     10  C   UNL     1      -6.979  -6.746  -5.251  1.00  0.00    -0.026 C 
ATOM     11  C   UNL     1      -7.079  -7.317  -3.799  1.00  0.00     0.010 C 
ATOM     12  C   UNL     1      -8.477  -7.829  -3.416  1.00  0.00     0.033 C 
ATOM     13  C   UNL     1      -9.014  -8.892  -4.381  1.00  0.00     0.120 C 
ATOM     14  C   UNL     1      -8.967  -8.449  -5.888  1.00  0.00    -0.006 C 
ATOM     15  C   UNL     1      -7.544  -7.842  -6.239  1.00  0.00     0.003 C 
ATOM     16  C   UNL     1      -7.365  -7.403  -7.716  1.00  0.00     0.005 C 
ATOM     17  C   UNL     1      -5.875  -7.244  -8.059  1.00  0.00     0.008 C 
ATOM     18  C   UNL     1      -5.102  -6.229  -7.145  1.00  0.00    -0.024 C 
ATOM     19  C   UNL     1      -3.487  -6.341  -7.357  1.00  0.00    -0.024 C 
ATOM     20  C   UNL     1      -3.067  -5.973  -8.819  1.00  0.00     0.008 C 
ATOM     21  C   UNL     1      -1.549  -5.874  -9.038  1.00  0.00     0.007 C 
ATOM     22  C   UNL     1      -2.962  -7.799  -7.077  1.00  0.00     0.012 C 
ATOM     23  C   UNL     1      -5.629  -4.807  -7.559  1.00  0.00     0.012 C 
ATOM     24  C   UNL     1     -10.125  -7.456  -6.170  1.00  0.00     0.014 C 
ATOM     25  C   UNL     1      -9.249  -9.712  -6.753  1.00  0.00     0.014 C 
ATOM     26  C   UNL     1      -7.779  -5.399  -5.293  1.00  0.00     0.012 C 
ATOM     27  C   UNL     1      -1.068  -3.426  -8.544  1.00  0.00     0.011 C 
ENDROOT
BRANCH   1  28
ATOM     28  C   UNL     1       0.277  -5.631  -4.601  1.00  0.00    -0.077 C 
ATOM     29  C   UNL     1       1.534  -4.807  -4.489  1.00  0.00     0.039 C 
ATOM     30  C   UNL     1      -0.363  -5.971  -3.471  1.00  0.00     0.008 C 
ENDBRANCH   1  28
BRANCH  13  31
ATOM     31  O   UNL     1      -8.369 -10.125  -4.150  1.00  0.00    -0.393 OA
ATOM     32  H   UNL     1      -7.534 -10.146  -4.678  1.00  0.00     0.210 HD
ENDBRANCH  13  31
TORSDOF 2
ENDMDL
MODEL 9
REMARK VINA RESULT:    -2.826      2.136      4.492
REMARK INTER + INTRA:          -3.605
REMARK INTER:                  -3.089
REMARK INTRA:                  -0.516
REMARK UNBOUND:                -0.531
REMARK SMILES C=C(C)[C@@H]1CC[C@@]2(C)CC[C@@]3(C)[C@@H](CC[C@H]4[C@]5(C)CC[C@H](O)C(C)(C)[C@H]5CC[C@@]43C)[C@@H]12
REMARK SMILES IDX 4 1 5 2 6 3 7 4 31 5 13 6 14 7 15 8 16 9 17 10 19 11 20 12
REMARK SMILES IDX 21 13 23 14 26 15 27 16 28 17 29 18 11 19 10 20 9 21 12 22
REMARK SMILES IDX 30 23 24 24 25 25 18 26 8 27 2 28 3 29 1 30 22 31
REMARK H PARENT 22 32
REMARK Flexibility Score: inf
ROOT
ATOM      1  C   UNL     1      -2.791  -7.391  -6.613  1.00  0.00     0.018 C 
ATOM      2  C   UNL     1      -3.868  -6.379  -6.182  1.00  0.00     0.009 C 
ATOM      3  C   UNL     1      -3.806  -5.218  -7.168  1.00  0.00     0.008 C 
ATOM      4  C   UNL     1      -2.362  -5.183  -7.696  1.00  0.00    -0.029 C 
ATOM      5  C   UNL     1      -1.946  -6.679  -7.703  1.00  0.00     0.006 C 
ATOM      6  C   UNL     1      -0.399  -6.913  -7.702  1.00  0.00    -0.000 C 
ATOM      7  C   UNL     1      -0.030  -8.411  -7.642  1.00  0.00     0.005 C 
ATOM      8  C   UNL     1       1.464  -8.654  -7.896  1.00  0.00     0.005 C 
ATOM      9  C   UNL     1       2.385  -7.795  -6.974  1.00  0.00     0.002 C 
ATOM     10  C   UNL     1       3.938  -8.189  -7.023  1.00  0.00    -0.026 C 
ATOM     11  C   UNL     1       4.095  -9.688  -6.602  1.00  0.00     0.010 C 
ATOM     12  C   UNL     1       5.545 -10.122  -6.339  1.00  0.00     0.033 C 
ATOM     13  C   UNL     1       6.251  -9.259  -5.287  1.00  0.00     0.120 C 
ATOM     14  C   UNL     1       6.166  -7.718  -5.584  1.00  0.00    -0.006 C 
ATOM     15  C   UNL     1       4.676  -7.307  -5.940  1.00  0.00     0.003 C 
ATOM     16  C   UNL     1       4.461  -5.795  -6.215  1.00  0.00     0.005 C 
ATOM     17  C   UNL     1       2.971  -5.432  -6.121  1.00  0.00     0.008 C 
ATOM     18  C   UNL     1       2.040  -6.248  -7.086  1.00  0.00    -0.024 C 
ATOM     19  C   UNL     1       0.463  -6.038  -6.718  1.00  0.00    -0.024 C 
ATOM     20  C   UNL     1       0.020  -4.547  -6.889  1.00  0.00     0.008 C 
ATOM     21  C   UNL     1      -1.492  -4.313  -6.742  1.00  0.00     0.007 C 
ATOM     22  C   UNL     1       0.154  -6.445  -5.228  1.00  0.00     0.012 C 
ATOM     23  C   UNL     1       2.358  -5.710  -8.529  1.00  0.00     0.012 C 
ATOM     24  C   UNL     1       7.170  -7.354  -6.709  1.00  0.00     0.014 C 
ATOM     25  C   UNL     1       6.648  -6.971  -4.306  1.00  0.00     0.014 C 
ATOM     26  C   UNL     1       4.531  -8.031  -8.464  1.00  0.00     0.012 C 
ATOM     27  C   UNL     1      -2.338  -4.583  -9.125  1.00  0.00     0.011 C 
ENDROOT
BRANCH   1  28
ATOM     28  C   UNL     1      -3.414  -8.701  -7.101  1.00  0.00    -0.077 C 
ATOM     29  C   UNL     1      -4.242  -8.757  -8.359  1.00  0.00     0.039 C 
ATOM     30  C   UNL     1      -3.242  -9.834  -6.402  1.00  0.00     0.008 C 
ENDBRANCH   1  28
BRANCH  13  31
ATOM     31  O   UNL     1       5.790  -9.597  -3.997  1.00  0.00    -0.393 OA
ATOM     32  H   UNL     1       6.075  -8.890  -3.368  1.00  0.00     0.210 HD
ENDBRANCH  13  31
TORSDOF 2
ENDMDL
