MODEL 1
REMARK VINA RESULT:    -4.078      0.000      0.000
REMARK INTER + INTRA:          -4.720
REMARK INTER:                  -4.674
REMARK INTRA:                  -0.047
REMARK UNBOUND:                -0.047
REMARK SMILES CC(C)[C@@H]([NH3+])C(=O)[O-]
REMARK SMILES IDX 4 1 5 2 6 6 7 7 8 8 2 9 1 10 3 11
REMARK H PARENT 5 3 5 4 5 5
REMARK Flexibility Score: inf
ROOT
ATOM      1  C   UNL     1       1.225  -1.627  15.528  1.00  0.00     0.230 C 
ENDROOT
BRANCH   1   2
ATOM      2  N   UNL     1       1.915  -0.543  16.242  1.00  0.00    -0.350 N 
ATOM      3  H   UNL     1       2.516  -0.950  16.997  1.00  0.00     0.345 HD
ATOM      4  H   UNL     1       2.534  -0.017  15.583  1.00  0.00     0.345 HD
ATOM      5  H   UNL     1       1.236   0.120  16.680  1.00  0.00     0.345 HD
ENDBRANCH   1   2
BRANCH   1   6
ATOM      6  C   UNL     1       0.071  -1.082  14.719  1.00  0.00     0.099 C 
ATOM      7  O   UNL     1      -1.088  -1.062  15.210  1.00  0.00    -0.544 OA
ATOM      8  O   UNL     1       0.270  -0.627  13.421  1.00  0.00    -0.544 OA
ENDBRANCH   1   6
BRANCH   1   9
ATOM      9  C   UNL     1       2.214  -2.473  14.670  1.00  0.00     0.047 C 
ATOM     10  C   UNL     1       2.496  -3.870  15.250  1.00  0.00     0.014 C 
ATOM     11  C   UNL     1       3.535  -1.723  14.439  1.00  0.00     0.014 C 
ENDBRANCH   1   9
TORSDOF 3
ENDMDL
MODEL 2
REMARK VINA RESULT:    -3.941      7.940      8.659
REMARK INTER + INTRA:          -4.563
REMARK INTER:                  -4.516
REMARK INTRA:                  -0.048
REMARK UNBOUND:                -0.047
REMARK SMILES CC(C)[C@@H]([NH3+])C(=O)[O-]
REMARK SMILES IDX 4 1 5 2 6 6 7 7 8 8 2 9 1 10 3 11
REMARK H PARENT 5 3 5 4 5 5
REMARK Flexibility Score: inf
ROOT
ATOM      1  C   UNL     1       1.366   5.434  10.099  1.00  0.00     0.230 C 
ENDROOT
BRANCH   1   2
ATOM      2  N   UNL     1       2.143   4.274   9.640  1.00  0.00    -0.350 N 
ATOM      3  H   UNL     1       3.113   4.328  10.030  1.00  0.00     0.345 HD
ATOM      4  H   UNL     1       1.704   3.390   9.984  1.00  0.00     0.345 HD
ATOM      5  H   UNL     1       2.206   4.244   8.597  1.00  0.00     0.345 HD
ENDBRANCH   1   2
BRANCH   1   6
ATOM      6  C   UNL     1       0.072   4.988  10.740  1.00  0.00     0.099 C 
ATOM      7  O   UNL     1       0.066   4.591  11.935  1.00  0.00    -0.544 OA
ATOM      8  O   UNL     1      -1.112   4.982  10.013  1.00  0.00    -0.544 OA
ENDBRANCH   1   6
BRANCH   1   9
ATOM      9  C   UNL     1       2.207   6.361  11.029  1.00  0.00     0.047 C 
ATOM     10  C   UNL     1       2.579   7.708  10.385  1.00  0.00     0.014 C 
ATOM     11  C   UNL     1       3.474   5.650  11.528  1.00  0.00     0.014 C 
ENDBRANCH   1   9
TORSDOF 3
ENDMDL
MODEL 3
REMARK VINA RESULT:    -3.920      1.663      1.887
REMARK INTER + INTRA:          -4.540
REMARK INTER:                  -4.496
REMARK INTRA:                  -0.043
REMARK UNBOUND:                -0.047
REMARK SMILES CC(C)[C@@H]([NH3+])C(=O)[O-]
REMARK SMILES IDX 4 1 5 2 6 6 7 7 8 8 2 9 1 10 3 11
REMARK H PARENT 5 3 5 4 5 5
REMARK Flexibility Score: inf
ROOT
ATOM      1  C   UNL     1       0.973  -1.386  14.649  1.00  0.00     0.230 C 
ENDROOT
BRANCH   1   2
ATOM      2  N   UNL     1       0.143  -1.957  15.719  1.00  0.00    -0.350 N 
ATOM      3  H   UNL     1       0.397  -2.962  15.859  1.00  0.00     0.345 HD
ATOM      4  H   UNL     1       0.317  -1.450  16.617  1.00  0.00     0.345 HD
ATOM      5  H   UNL     1      -0.875  -1.901  15.485  1.00  0.00     0.345 HD
ENDBRANCH   1   2
BRANCH   1   6
ATOM      6  C   UNL     1       0.280  -0.204  14.010  1.00  0.00     0.099 C 
ATOM      7  O   UNL     1       0.084   0.845  14.677  1.00  0.00    -0.544 OA
ATOM      8  O   UNL     1      -0.172  -0.273  12.698  1.00  0.00    -0.544 OA
ENDBRANCH   1   6
BRANCH   1   9
ATOM      9  C   UNL     1       2.407  -1.040  15.154  1.00  0.00     0.047 C 
ATOM     10  C   UNL     1       3.526  -1.733  14.357  1.00  0.00     0.014 C 
ATOM     11  C   UNL     1       2.560  -1.346  16.651  1.00  0.00     0.014 C 
ENDBRANCH   1   9
TORSDOF 3
ENDMDL
MODEL 4
REMARK VINA RESULT:    -3.786      8.124      8.703
REMARK INTER + INTRA:          -4.386
REMARK INTER:                  -4.357
REMARK INTRA:                  -0.029
REMARK UNBOUND:                -0.047
REMARK SMILES CC(C)[C@@H]([NH3+])C(=O)[O-]
REMARK SMILES IDX 4 1 5 2 6 6 7 7 8 8 2 9 1 10 3 11
REMARK H PARENT 5 3 5 4 5 5
REMARK Flexibility Score: inf
ROOT
ATOM      1  C   UNL     1       1.274   4.980  11.119  1.00  0.00     0.230 C 
ENDROOT
BRANCH   1   2
ATOM      2  N   UNL     1       0.048   4.839  11.917  1.00  0.00    -0.350 N 
ATOM      3  H   UNL     1      -0.628   4.219  11.412  1.00  0.00     0.345 HD
ATOM      4  H   UNL     1       0.269   4.394  12.837  1.00  0.00     0.345 HD
ATOM      5  H   UNL     1      -0.409   5.764  12.083  1.00  0.00     0.345 HD
ENDBRANCH   1   2
BRANCH   1   6
ATOM      6  C   UNL     1       0.939   5.249   9.670  1.00  0.00     0.099 C 
ATOM      7  O   UNL     1      -0.221   5.622   9.352  1.00  0.00    -0.544 OA
ATOM      8  O   UNL     1       1.891   5.061   8.676  1.00  0.00    -0.544 OA
ENDBRANCH   1   6
BRANCH   1   9
ATOM      9  C   UNL     1       2.235   6.050  11.722  1.00  0.00     0.047 C 
ATOM     10  C   UNL     1       2.087   7.442  11.084  1.00  0.00     0.014 C 
ATOM     11  C   UNL     1       3.699   5.591  11.648  1.00  0.00     0.014 C 
ENDBRANCH   1   9
TORSDOF 3
ENDMDL
MODEL 5
REMARK VINA RESULT:    -3.759      7.326      7.977
REMARK INTER + INTRA:          -4.355
REMARK INTER:                  -4.313
REMARK INTRA:                  -0.041
REMARK UNBOUND:                -0.047
REMARK SMILES CC(C)[C@@H]([NH3+])C(=O)[O-]
REMARK SMILES IDX 4 1 5 2 6 6 7 7 8 8 2 9 1 10 3 11
REMARK H PARENT 5 3 5 4 5 5
REMARK Flexibility Score: inf
ROOT
ATOM      1  C   UNL     1       0.941   5.352  10.892  1.00  0.00     0.230 C 
ENDROOT
BRANCH   1   2
ATOM      2  N   UNL     1       0.201   5.882   9.738  1.00  0.00    -0.350 N 
ATOM      3  H   UNL     1      -0.825   5.868   9.945  1.00  0.00     0.345 HD
ATOM      4  H   UNL     1       0.481   6.873   9.557  1.00  0.00     0.345 HD
ATOM      5  H   UNL     1       0.374   5.313   8.878  1.00  0.00     0.345 HD
ENDBRANCH   1   2
BRANCH   1   6
ATOM      6  C   UNL     1       0.206   4.181  11.504  1.00  0.00     0.099 C 
ATOM      7  O   UNL     1      -0.402   4.323  12.597  1.00  0.00    -0.544 OA
ATOM      8  O   UNL     1       0.218   2.937  10.886  1.00  0.00    -0.544 OA
ENDBRANCH   1   6
BRANCH   1   9
ATOM      9  C   UNL     1       2.416   5.008  10.523  1.00  0.00     0.047 C 
ATOM     10  C   UNL     1       3.452   5.624  11.479  1.00  0.00     0.014 C 
ATOM     11  C   UNL     1       2.736   5.406   9.074  1.00  0.00     0.014 C 
ENDBRANCH   1   9
TORSDOF 3
ENDMDL
MODEL 6
REMARK VINA RESULT:    -3.600      1.621      2.012
REMARK INTER + INTRA:          -4.173
REMARK INTER:                  -4.122
REMARK INTRA:                  -0.050
REMARK UNBOUND:                -0.047
REMARK SMILES CC(C)[C@@H]([NH3+])C(=O)[O-]
REMARK SMILES IDX 4 1 5 2 6 6 7 7 8 8 2 9 1 10 3 11
REMARK H PARENT 5 3 5 4 5 5
REMARK Flexibility Score: inf
ROOT
ATOM      1  C   UNL     1       1.982  -1.351  14.826  1.00  0.00     0.230 C 
ENDROOT
BRANCH   1   2
ATOM      2  N   UNL     1       2.379  -2.176  13.677  1.00  0.00    -0.350 N 
ATOM      3  H   UNL     1       2.257  -1.626  12.794  1.00  0.00     0.345 HD
ATOM      4  H   UNL     1       3.388  -2.440  13.757  1.00  0.00     0.345 HD
ATOM      5  H   UNL     1       1.800  -3.044  13.610  1.00  0.00     0.345 HD
ENDBRANCH   1   2
BRANCH   1   6
ATOM      6  C   UNL     1       0.621  -0.737  14.597  1.00  0.00     0.099 C 
ATOM      7  O   UNL     1      -0.418  -1.375  14.911  1.00  0.00    -0.544 OA
ATOM      8  O   UNL     1       0.499   0.518  14.012  1.00  0.00    -0.544 OA
ENDBRANCH   1   6
BRANCH   1   9
ATOM      9  C   UNL     1       2.064  -2.148  16.164  1.00  0.00     0.047 C 
ATOM     10  C   UNL     1       2.750  -1.375  17.303  1.00  0.00     0.014 C 
ATOM     11  C   UNL     1       2.750  -3.507  15.962  1.00  0.00     0.014 C 
ENDBRANCH   1   9
TORSDOF 3
ENDMDL
MODEL 7
REMARK VINA RESULT:    -3.590      2.425      3.634
REMARK INTER + INTRA:          -4.161
REMARK INTER:                  -4.117
REMARK INTRA:                  -0.044
REMARK UNBOUND:                -0.047
REMARK SMILES CC(C)[C@@H]([NH3+])C(=O)[O-]
REMARK SMILES IDX 4 1 5 2 6 6 7 7 8 8 2 9 1 10 3 11
REMARK H PARENT 5 3 5 4 5 5
REMARK Flexibility Score: inf
ROOT
ATOM      1  C   UNL     1       2.337  -0.989  15.955  1.00  0.00     0.230 C 
ENDROOT
BRANCH   1   2
ATOM      2  N   UNL     1       2.449  -1.169  17.409  1.00  0.00    -0.350 N 
ATOM      3  H   UNL     1       2.539  -0.233  17.871  1.00  0.00     0.345 HD
ATOM      4  H   UNL     1       1.587  -1.631  17.780  1.00  0.00     0.345 HD
ATOM      5  H   UNL     1       3.284  -1.745  17.661  1.00  0.00     0.345 HD
ENDBRANCH   1   2
BRANCH   1   6
ATOM      6  C   UNL     1       3.122  -2.054  15.225  1.00  0.00     0.099 C 
ATOM      7  O   UNL     1       3.844  -1.741  14.242  1.00  0.00    -0.544 OA
ATOM      8  O   UNL     1       3.033  -3.387  15.608  1.00  0.00    -0.544 OA
ENDBRANCH   1   6
BRANCH   1   9
ATOM      9  C   UNL     1       0.849  -0.919  15.495  1.00  0.00     0.047 C 
ATOM     10  C   UNL     1       0.534   0.297  14.606  1.00  0.00     0.014 C 
ATOM     11  C   UNL     1      -0.108  -0.955  16.695  1.00  0.00     0.014 C 
ENDBRANCH   1   9
TORSDOF 3
ENDMDL
MODEL 8
REMARK VINA RESULT:    -3.587      2.005      3.496
REMARK INTER + INTRA:          -4.158
REMARK INTER:                  -4.125
REMARK INTRA:                  -0.033
REMARK UNBOUND:                -0.047
REMARK SMILES CC(C)[C@@H]([NH3+])C(=O)[O-]
REMARK SMILES IDX 4 1 5 2 6 6 7 7 8 8 2 9 1 10 3 11
REMARK H PARENT 5 3 5 4 5 5
REMARK Flexibility Score: inf
ROOT
ATOM      1  C   UNL     1       1.164  -0.417  14.567  1.00  0.00     0.230 C 
ENDROOT
BRANCH   1   2
ATOM      2  N   UNL     1       0.960   0.051  15.945  1.00  0.00    -0.350 N 
ATOM      3  H   UNL     1       1.364   1.011  16.051  1.00  0.00     0.345 HD
ATOM      4  H   UNL     1      -0.062   0.104  16.158  1.00  0.00     0.345 HD
ATOM      5  H   UNL     1       1.423  -0.582  16.638  1.00  0.00     0.345 HD
ENDBRANCH   1   2
BRANCH   1   6
ATOM      6  C   UNL     1       1.717  -1.824  14.559  1.00  0.00     0.099 C 
ATOM      7  O   UNL     1       1.307  -2.666  15.401  1.00  0.00    -0.544 OA
ATOM      8  O   UNL     1       2.700  -2.193  13.648  1.00  0.00    -0.544 OA
ENDBRANCH   1   6
BRANCH   1   9
ATOM      9  C   UNL     1      -0.133  -0.277  13.713  1.00  0.00     0.047 C 
ATOM     10  C   UNL     1      -0.297   1.107  13.061  1.00  0.00     0.014 C 
ATOM     11  C   UNL     1      -1.383  -0.623  14.535  1.00  0.00     0.014 C 
ENDBRANCH   1   9
TORSDOF 3
ENDMDL
MODEL 9
REMARK VINA RESULT:    -3.570      7.966      8.713
REMARK INTER + INTRA:          -4.138
REMARK INTER:                  -4.167
REMARK INTRA:                   0.029
REMARK UNBOUND:                -0.047
REMARK SMILES CC(C)[C@@H]([NH3+])C(=O)[O-]
REMARK SMILES IDX 4 1 5 2 6 6 7 7 8 8 2 9 1 10 3 11
REMARK H PARENT 5 3 5 4 5 5
REMARK Flexibility Score: inf
ROOT
ATOM      1  C   UNL     1       2.416   5.465  11.397  1.00  0.00     0.230 C 
ENDROOT
BRANCH   1   2
ATOM      2  N   UNL     1       2.106   6.378  12.507  1.00  0.00    -0.350 N 
ATOM      3  H   UNL     1       2.940   6.978  12.708  1.00  0.00     0.345 HD
ATOM      4  H   UNL     1       1.311   7.005  12.243  1.00  0.00     0.345 HD
ATOM      5  H   UNL     1       1.856   5.853  13.376  1.00  0.00     0.345 HD
ENDBRANCH   1   2
BRANCH   1   6
ATOM      6  C   UNL     1       1.175   4.724  10.954  1.00  0.00     0.099 C 
ATOM      7  O   UNL     1       1.169   3.466  10.933  1.00  0.00    -0.544 OA
ATOM      8  O   UNL     1       0.046   5.420  10.540  1.00  0.00    -0.544 OA
ENDBRANCH   1   6
BRANCH   1   9
ATOM      9  C   UNL     1       3.125   6.206  10.222  1.00  0.00     0.047 C 
ATOM     10  C   UNL     1       2.688   7.673  10.064  1.00  0.00     0.014 C 
ATOM     11  C   UNL     1       2.937   5.455   8.895  1.00  0.00     0.014 C 
ENDBRANCH   1   9
TORSDOF 3
ENDMDL
