MODEL 1
REMARK VINA RESULT:    -5.888      0.000      0.000
REMARK INTER + INTRA:          -7.236
REMARK INTER:                  -6.920
REMARK INTRA:                  -0.316
REMARK UNBOUND:                -0.316
REMARK SMILES O=c1cc(-c2ccc(O)c(O)c2)oc2cc(O)cc(O)c12
REMARK SMILES IDX 4 1 3 2 2 3 1 4 21 5 19 6 18 7 16 8 15 9 14 10 13 11 5 12
REMARK SMILES IDX 6 13 7 14 8 15 12 16 10 17 9 18 11 20 20 22 17 24
REMARK H PARENT 9 19 11 21 20 23 17 25
REMARK Flexibility Score: inf
ROOT
ATOM      1  C   UNL     1     -17.105  75.887  -2.210  1.00  0.00     0.138 A 
ATOM      2  C   UNL     1     -18.329  75.763  -1.539  1.00  0.00     0.100 A 
ATOM      3  C   UNL     1     -18.562  76.514  -0.384  1.00  0.00     0.197 A 
ATOM      4  O   UNL     1     -19.648  76.339   0.226  1.00  0.00    -0.289 OA
ATOM      5  C   UNL     1     -17.577  77.421   0.076  1.00  0.00     0.107 A 
ATOM      6  C   UNL     1     -17.718  78.264   1.220  1.00  0.00     0.134 A 
ATOM      7  C   UNL     1     -16.635  79.048   1.635  1.00  0.00     0.093 A 
ATOM      8  C   UNL     1     -15.439  79.066   0.918  1.00  0.00     0.123 A 
ATOM      9  C   UNL     1     -15.308  78.284  -0.230  1.00  0.00     0.094 A 
ATOM     10  C   UNL     1     -16.357  77.463  -0.651  1.00  0.00     0.146 A 
ATOM     11  O   UNL     1     -16.185  76.721  -1.740  1.00  0.00    -0.456 OA
ENDROOT
BRANCH   1  12
ATOM     12  C   UNL     1     -16.805  75.114  -3.443  1.00  0.00     0.021 A 
ATOM     13  C   UNL     1     -17.594  74.020  -3.841  1.00  0.00     0.016 A 
ATOM     14  C   UNL     1     -17.280  73.307  -4.999  1.00  0.00     0.051 A 
ATOM     15  C   UNL     1     -16.176  73.661  -5.781  1.00  0.00     0.157 A 
ATOM     16  C   UNL     1     -15.687  75.461  -4.221  1.00  0.00     0.062 A 
ATOM     17  C   UNL     1     -15.367  74.751  -5.385  1.00  0.00     0.158 A 
BRANCH  15  18
ATOM     18  O   UNL     1     -15.920  72.908  -6.929  1.00  0.00    -0.504 OA
ATOM     19  H   UNL     1     -15.705  71.921  -6.920  1.00  0.00     0.293 HD
ENDBRANCH  15  18
BRANCH  17  20
ATOM     20  O   UNL     1     -14.246  75.161  -6.110  1.00  0.00    -0.504 OA
ATOM     21  H   UNL     1     -13.571  75.833  -5.775  1.00  0.00     0.293 HD
ENDBRANCH  17  20
ENDBRANCH   1  12
BRANCH   6  22
ATOM     22  O   UNL     1     -18.896  78.385   1.963  1.00  0.00    -0.507 OA
ATOM     23  H   UNL     1     -19.010  78.965   2.779  1.00  0.00     0.293 HD
ENDBRANCH   6  22
BRANCH   8  24
ATOM     24  O   UNL     1     -14.388  79.870   1.354  1.00  0.00    -0.508 OA
ATOM     25  H   UNL     1     -13.491  79.477   1.609  1.00  0.00     0.293 HD
ENDBRANCH   8  24
TORSDOF 5
ENDMDL
MODEL 2
REMARK VINA RESULT:    -5.658      1.955      6.934
REMARK INTER + INTRA:          -6.967
REMARK INTER:                  -6.695
REMARK INTRA:                  -0.272
REMARK UNBOUND:                -0.316
REMARK SMILES O=c1cc(-c2ccc(O)c(O)c2)oc2cc(O)cc(O)c12
REMARK SMILES IDX 4 1 3 2 2 3 1 4 21 5 19 6 18 7 16 8 15 9 14 10 13 11 5 12
REMARK SMILES IDX 6 13 7 14 8 15 12 16 10 17 9 18 11 20 20 22 17 24
REMARK H PARENT 9 19 11 21 20 23 17 25
REMARK Flexibility Score: inf
ROOT
ATOM      1  C   UNL     1     -17.049  76.889  -2.686  1.00  0.00     0.138 A 
ATOM      2  C   UNL     1     -18.372  76.952  -3.147  1.00  0.00     0.100 A 
ATOM      3  C   UNL     1     -18.754  76.194  -4.255  1.00  0.00     0.197 A 
ATOM      4  O   UNL     1     -19.933  76.315  -4.677  1.00  0.00    -0.289 OA
ATOM      5  C   UNL     1     -17.815  75.339  -4.880  1.00  0.00     0.107 A 
ATOM      6  C   UNL     1     -18.100  74.493  -5.995  1.00  0.00     0.134 A 
ATOM      7  C   UNL     1     -17.063  73.765  -6.591  1.00  0.00     0.093 A 
ATOM      8  C   UNL     1     -15.766  73.806  -6.080  1.00  0.00     0.123 A 
ATOM      9  C   UNL     1     -15.487  74.591  -4.961  1.00  0.00     0.094 A 
ATOM     10  C   UNL     1     -16.492  75.356  -4.364  1.00  0.00     0.146 A 
ATOM     11  O   UNL     1     -16.179  76.103  -3.311  1.00  0.00    -0.456 OA
ENDROOT
BRANCH   1  12
ATOM     12  C   UNL     1     -16.589  77.672  -1.512  1.00  0.00     0.021 A 
ATOM     13  C   UNL     1     -16.443  79.070  -1.566  1.00  0.00     0.016 A 
ATOM     14  C   UNL     1     -15.998  79.778  -0.447  1.00  0.00     0.051 A 
ATOM     15  C   UNL     1     -15.684  79.114   0.742  1.00  0.00     0.157 A 
ATOM     16  C   UNL     1     -16.260  77.003  -0.321  1.00  0.00     0.062 A 
ATOM     17  C   UNL     1     -15.814  77.707   0.805  1.00  0.00     0.158 A 
BRANCH  15  18
ATOM     18  O   UNL     1     -15.248  79.882   1.823  1.00  0.00    -0.504 OA
ATOM     19  H   UNL     1     -14.621  79.544   2.540  1.00  0.00     0.293 HD
ENDBRANCH  15  18
BRANCH  17  20
ATOM     20  O   UNL     1     -15.515  76.973   1.956  1.00  0.00    -0.504 OA
ATOM     21  H   UNL     1     -15.336  75.979   1.961  1.00  0.00     0.293 HD
ENDBRANCH  17  20
ENDBRANCH   1  12
BRANCH   6  22
ATOM     22  O   UNL     1     -19.377  74.314  -6.536  1.00  0.00    -0.507 OA
ATOM     23  H   UNL     1     -19.645  73.566  -7.154  1.00  0.00     0.293 HD
ENDBRANCH   6  22
BRANCH   8  24
ATOM     24  O   UNL     1     -14.763  73.056  -6.691  1.00  0.00    -0.508 OA
ATOM     25  H   UNL     1     -14.102  72.514  -6.147  1.00  0.00     0.293 HD
ENDBRANCH   8  24
TORSDOF 5
ENDMDL
MODEL 3
REMARK VINA RESULT:    -5.531     12.830     16.423
REMARK INTER + INTRA:          -6.817
REMARK INTER:                  -6.526
REMARK INTRA:                  -0.291
REMARK UNBOUND:                -0.316
REMARK SMILES O=c1cc(-c2ccc(O)c(O)c2)oc2cc(O)cc(O)c12
REMARK SMILES IDX 4 1 3 2 2 3 1 4 21 5 19 6 18 7 16 8 15 9 14 10 13 11 5 12
REMARK SMILES IDX 6 13 7 14 8 15 12 16 10 17 9 18 11 20 20 22 17 24
REMARK H PARENT 9 19 11 21 20 23 17 25
REMARK Flexibility Score: inf
ROOT
ATOM      1  C   UNL     1      -2.356  79.598   2.730  1.00  0.00     0.138 A 
ATOM      2  C   UNL     1      -1.315  79.328   1.832  1.00  0.00     0.100 A 
ATOM      3  C   UNL     1      -1.610  79.052   0.495  1.00  0.00     0.197 A 
ATOM      4  O   UNL     1      -0.658  78.760  -0.273  1.00  0.00    -0.289 OA
ATOM      5  C   UNL     1      -2.953  79.085   0.050  1.00  0.00     0.107 A 
ATOM      6  C   UNL     1      -3.370  78.855  -1.297  1.00  0.00     0.134 A 
ATOM      7  C   UNL     1      -4.738  78.815  -1.597  1.00  0.00     0.093 A 
ATOM      8  C   UNL     1      -5.700  79.054  -0.617  1.00  0.00     0.123 A 
ATOM      9  C   UNL     1      -5.301  79.329   0.692  1.00  0.00     0.094 A 
ATOM     10  C   UNL     1      -3.947  79.342   1.032  1.00  0.00     0.146 A 
ATOM     11  O   UNL     1      -3.611  79.590   2.294  1.00  0.00    -0.456 OA
ENDROOT
BRANCH   1  12
ATOM     12  C   UNL     1      -2.100  79.899   4.161  1.00  0.00     0.021 A 
ATOM     13  C   UNL     1      -1.104  80.809   4.559  1.00  0.00     0.016 A 
ATOM     14  C   UNL     1      -0.879  81.064   5.913  1.00  0.00     0.051 A 
ATOM     15  C   UNL     1      -1.633  80.418   6.898  1.00  0.00     0.157 A 
ATOM     16  C   UNL     1      -2.848  79.240   5.151  1.00  0.00     0.062 A 
ATOM     17  C   UNL     1      -2.629  79.491   6.512  1.00  0.00     0.158 A 
BRANCH  15  18
ATOM     18  O   UNL     1      -1.359  80.721   8.233  1.00  0.00    -0.504 OA
ATOM     19  H   UNL     1      -0.926  81.581   8.540  1.00  0.00     0.293 HD
ENDBRANCH  15  18
BRANCH  17  20
ATOM     20  O   UNL     1      -3.419  78.804   7.436  1.00  0.00    -0.504 OA
ATOM     21  H   UNL     1      -3.254  77.849   7.720  1.00  0.00     0.293 HD
ENDBRANCH  17  20
ENDBRANCH   1  12
BRANCH   6  22
ATOM     22  O   UNL     1      -2.492  78.684  -2.370  1.00  0.00    -0.507 OA
ATOM     23  H   UNL     1      -2.328  77.815  -2.852  1.00  0.00     0.293 HD
ENDBRANCH   6  22
BRANCH   8  24
ATOM     24  O   UNL     1      -7.050  79.021  -0.956  1.00  0.00    -0.508 OA
ATOM     25  H   UNL     1      -7.722  78.500  -0.406  1.00  0.00     0.293 HD
ENDBRANCH   8  24
TORSDOF 5
ENDMDL
MODEL 4
REMARK VINA RESULT:    -5.525      2.309      7.193
REMARK INTER + INTRA:          -6.810
REMARK INTER:                  -6.543
REMARK INTRA:                  -0.267
REMARK UNBOUND:                -0.316
REMARK SMILES O=c1cc(-c2ccc(O)c(O)c2)oc2cc(O)cc(O)c12
REMARK SMILES IDX 4 1 3 2 2 3 1 4 21 5 19 6 18 7 16 8 15 9 14 10 13 11 5 12
REMARK SMILES IDX 6 13 7 14 8 15 12 16 10 17 9 18 11 20 20 22 17 24
REMARK H PARENT 9 19 11 21 20 23 17 25
REMARK Flexibility Score: inf
ROOT
ATOM      1  C   UNL     1     -18.141  76.743  -0.970  1.00  0.00     0.138 A 
ATOM      2  C   UNL     1     -17.532  75.483  -0.892  1.00  0.00     0.100 A 
ATOM      3  C   UNL     1     -17.533  74.645  -2.009  1.00  0.00     0.197 A 
ATOM      4  O   UNL     1     -17.027  73.500  -1.891  1.00  0.00    -0.289 OA
ATOM      5  C   UNL     1     -18.117  75.089  -3.221  1.00  0.00     0.107 A 
ATOM      6  C   UNL     1     -18.147  74.335  -4.433  1.00  0.00     0.134 A 
ATOM      7  C   UNL     1     -18.841  74.839  -5.540  1.00  0.00     0.093 A 
ATOM      8  C   UNL     1     -19.454  76.090  -5.500  1.00  0.00     0.123 A 
ATOM      9  C   UNL     1     -19.389  76.857  -4.336  1.00  0.00     0.094 A 
ATOM     10  C   UNL     1     -18.734  76.368  -3.202  1.00  0.00     0.146 A 
ATOM     11  O   UNL     1     -18.710  77.123  -2.109  1.00  0.00    -0.456 OA
ENDROOT
BRANCH   1  12
ATOM     12  C   UNL     1     -18.167  77.675   0.186  1.00  0.00     0.021 A 
ATOM     13  C   UNL     1     -19.375  78.105   0.764  1.00  0.00     0.016 A 
ATOM     14  C   UNL     1     -19.367  78.990   1.843  1.00  0.00     0.051 A 
ATOM     15  C   UNL     1     -18.163  79.470   2.366  1.00  0.00     0.157 A 
ATOM     16  C   UNL     1     -16.957  78.169   0.702  1.00  0.00     0.062 A 
ATOM     17  C   UNL     1     -16.940  79.056   1.786  1.00  0.00     0.158 A 
BRANCH  15  18
ATOM     18  O   UNL     1     -18.225  80.350   3.448  1.00  0.00    -0.504 OA
ATOM     19  H   UNL     1     -19.049  80.877   3.701  1.00  0.00     0.293 HD
ENDBRANCH  15  18
BRANCH  17  20
ATOM     20  O   UNL     1     -15.699  79.496   2.249  1.00  0.00    -0.504 OA
ATOM     21  H   UNL     1     -14.814  79.187   1.873  1.00  0.00     0.293 HD
ENDBRANCH  17  20
ENDBRANCH   1  12
BRANCH   6  22
ATOM     22  O   UNL     1     -17.499  73.109  -4.610  1.00  0.00    -0.507 OA
ATOM     23  H   UNL     1     -16.986  72.617  -3.897  1.00  0.00     0.293 HD
ENDBRANCH   6  22
BRANCH   8  24
ATOM     24  O   UNL     1     -20.123  76.565  -6.626  1.00  0.00    -0.508 OA
ATOM     25  H   UNL     1     -20.957  77.135  -6.546  1.00  0.00     0.293 HD
ENDBRANCH   8  24
TORSDOF 5
ENDMDL
MODEL 5
REMARK VINA RESULT:    -5.367      1.846      2.605
REMARK INTER + INTRA:          -6.625
REMARK INTER:                  -6.356
REMARK INTRA:                  -0.268
REMARK UNBOUND:                -0.316
REMARK SMILES O=c1cc(-c2ccc(O)c(O)c2)oc2cc(O)cc(O)c12
REMARK SMILES IDX 4 1 3 2 2 3 1 4 21 5 19 6 18 7 16 8 15 9 14 10 13 11 5 12
REMARK SMILES IDX 6 13 7 14 8 15 12 16 10 17 9 18 11 20 20 22 17 24
REMARK H PARENT 9 19 11 21 20 23 17 25
REMARK Flexibility Score: inf
ROOT
ATOM      1  C   UNL     1     -16.030  76.681  -3.058  1.00  0.00     0.138 A 
ATOM      2  C   UNL     1     -15.915  78.001  -3.516  1.00  0.00     0.100 A 
ATOM      3  C   UNL     1     -15.731  79.036  -2.597  1.00  0.00     0.197 A 
ATOM      4  O   UNL     1     -15.688  80.215  -3.035  1.00  0.00    -0.289 OA
ATOM      5  C   UNL     1     -15.623  78.741  -1.217  1.00  0.00     0.107 A 
ATOM      6  C   UNL     1     -15.399  79.711  -0.192  1.00  0.00     0.134 A 
ATOM      7  C   UNL     1     -15.410  79.310   1.150  1.00  0.00     0.093 A 
ATOM      8  C   UNL     1     -15.577  77.972   1.502  1.00  0.00     0.123 A 
ATOM      9  C   UNL     1     -15.747  77.009   0.507  1.00  0.00     0.094 A 
ATOM     10  C   UNL     1     -15.776  77.380  -0.840  1.00  0.00     0.146 A 
ATOM     11  O   UNL     1     -15.957  76.434  -1.755  1.00  0.00    -0.456 OA
ENDROOT
BRANCH   1  12
ATOM     12  C   UNL     1     -16.225  75.541  -3.991  1.00  0.00     0.021 A 
ATOM     13  C   UNL     1     -17.307  74.653  -3.857  1.00  0.00     0.016 A 
ATOM     14  C   UNL     1     -17.457  73.585  -4.743  1.00  0.00     0.051 A 
ATOM     15  C   UNL     1     -16.537  73.374  -5.774  1.00  0.00     0.157 A 
ATOM     16  C   UNL     1     -15.292  75.321  -5.018  1.00  0.00     0.062 A 
ATOM     17  C   UNL     1     -15.437  74.253  -5.911  1.00  0.00     0.158 A 
BRANCH  15  18
ATOM     18  O   UNL     1     -16.748  72.289  -6.627  1.00  0.00    -0.504 OA
ATOM     19  H   UNL     1     -16.431  72.253  -7.585  1.00  0.00     0.293 HD
ENDBRANCH  15  18
BRANCH  17  20
ATOM     20  O   UNL     1     -14.474  74.104  -6.911  1.00  0.00    -0.504 OA
ATOM     21  H   UNL     1     -14.667  74.190  -7.899  1.00  0.00     0.293 HD
ENDBRANCH  17  20
ENDBRANCH   1  12
BRANCH   6  22
ATOM     22  O   UNL     1     -15.141  81.063  -0.436  1.00  0.00    -0.507 OA
ATOM     23  H   UNL     1     -14.755  81.709   0.232  1.00  0.00     0.293 HD
ENDBRANCH   6  22
BRANCH   8  24
ATOM     24  O   UNL     1     -15.567  77.609   2.847  1.00  0.00    -0.508 OA
ATOM     25  H   UNL     1     -15.837  76.679   3.147  1.00  0.00     0.293 HD
ENDBRANCH   8  24
TORSDOF 5
ENDMDL
MODEL 6
REMARK VINA RESULT:    -5.361     13.312     16.695
REMARK INTER + INTRA:          -6.618
REMARK INTER:                  -6.344
REMARK INTRA:                  -0.274
REMARK UNBOUND:                -0.316
REMARK SMILES O=c1cc(-c2ccc(O)c(O)c2)oc2cc(O)cc(O)c12
REMARK SMILES IDX 4 1 3 2 2 3 1 4 21 5 19 6 18 7 16 8 15 9 14 10 13 11 5 12
REMARK SMILES IDX 6 13 7 14 8 15 12 16 10 17 9 18 11 20 20 22 17 24
REMARK H PARENT 9 19 11 21 20 23 17 25
REMARK Flexibility Score: inf
ROOT
ATOM      1  C   UNL     1      -2.532  79.766   2.497  1.00  0.00     0.138 A 
ATOM      2  C   UNL     1      -3.868  79.805   2.073  1.00  0.00     0.100 A 
ATOM      3  C   UNL     1      -4.180  79.496   0.747  1.00  0.00     0.197 A 
ATOM      4  O   UNL     1      -5.380  79.594   0.384  1.00  0.00    -0.289 OA
ATOM      5  C   UNL     1      -3.152  79.109  -0.146  1.00  0.00     0.107 A 
ATOM      6  C   UNL     1      -3.356  78.738  -1.510  1.00  0.00     0.134 A 
ATOM      7  C   UNL     1      -2.248  78.470  -2.324  1.00  0.00     0.093 A 
ATOM      8  C   UNL     1      -0.952  78.502  -1.812  1.00  0.00     0.123 A 
ATOM      9  C   UNL     1      -0.744  78.815  -0.468  1.00  0.00     0.094 A 
ATOM     10  C   UNL     1      -1.825  79.121   0.362  1.00  0.00     0.146 A 
ATOM     11  O   UNL     1      -1.583  79.431   1.631  1.00  0.00    -0.456 OA
ENDROOT
BRANCH   1  12
ATOM     12  C   UNL     1      -2.144  80.083   3.896  1.00  0.00     0.021 A 
ATOM     13  C   UNL     1      -1.069  80.942   4.188  1.00  0.00     0.016 A 
ATOM     14  C   UNL     1      -0.722  81.213   5.513  1.00  0.00     0.051 A 
ATOM     15  C   UNL     1      -1.428  80.634   6.571  1.00  0.00     0.157 A 
ATOM     16  C   UNL     1      -2.845  79.490   4.959  1.00  0.00     0.062 A 
ATOM     17  C   UNL     1      -2.503  79.757   6.290  1.00  0.00     0.158 A 
BRANCH  15  18
ATOM     18  O   UNL     1      -1.030  80.949   7.872  1.00  0.00    -0.504 OA
ATOM     19  H   UNL     1      -1.520  81.598   8.471  1.00  0.00     0.293 HD
ENDBRANCH  15  18
BRANCH  17  20
ATOM     20  O   UNL     1      -3.252  79.138   7.293  1.00  0.00    -0.504 OA
ATOM     21  H   UNL     1      -4.196  78.803   7.167  1.00  0.00     0.293 HD
ENDBRANCH  17  20
ENDBRANCH   1  12
BRANCH   6  22
ATOM     22  O   UNL     1      -4.613  78.597  -2.103  1.00  0.00    -0.507 OA
ATOM     23  H   UNL     1      -5.416  78.175  -1.667  1.00  0.00     0.293 HD
ENDBRANCH   6  22
BRANCH   8  24
ATOM     24  O   UNL     1       0.125  78.214  -2.649  1.00  0.00    -0.508 OA
ATOM     25  H   UNL     1       0.556  78.930  -3.222  1.00  0.00     0.293 HD
ENDBRANCH   8  24
TORSDOF 5
ENDMDL
MODEL 7
REMARK VINA RESULT:    -5.329      2.035      7.504
REMARK INTER + INTRA:          -6.579
REMARK INTER:                  -6.312
REMARK INTRA:                  -0.267
REMARK UNBOUND:                -0.316
REMARK SMILES O=c1cc(-c2ccc(O)c(O)c2)oc2cc(O)cc(O)c12
REMARK SMILES IDX 4 1 3 2 2 3 1 4 21 5 19 6 18 7 16 8 15 9 14 10 13 11 5 12
REMARK SMILES IDX 6 13 7 14 8 15 12 16 10 17 9 18 11 20 20 22 17 24
REMARK H PARENT 9 19 11 21 20 23 17 25
REMARK Flexibility Score: inf
ROOT
ATOM      1  C   UNL     1     -17.269  77.800  -0.036  1.00  0.00     0.138 A 
ATOM      2  C   UNL     1     -16.293  78.400  -0.843  1.00  0.00     0.100 A 
ATOM      3  C   UNL     1     -15.848  77.743  -1.992  1.00  0.00     0.197 A 
ATOM      4  O   UNL     1     -14.931  78.282  -2.665  1.00  0.00    -0.289 OA
ATOM      5  C   UNL     1     -16.413  76.496  -2.353  1.00  0.00     0.107 A 
ATOM      6  C   UNL     1     -16.063  75.752  -3.521  1.00  0.00     0.134 A 
ATOM      7  C   UNL     1     -16.619  74.482  -3.720  1.00  0.00     0.093 A 
ATOM      8  C   UNL     1     -17.553  73.955  -2.830  1.00  0.00     0.123 A 
ATOM      9  C   UNL     1     -17.939  74.695  -1.712  1.00  0.00     0.094 A 
ATOM     10  C   UNL     1     -17.378  75.950  -1.465  1.00  0.00     0.146 A 
ATOM     11  O   UNL     1     -17.760  76.615  -0.380  1.00  0.00    -0.456 OA
ENDROOT
BRANCH   1  12
ATOM     12  C   UNL     1     -17.780  78.454   1.195  1.00  0.00     0.021 A 
ATOM     13  C   UNL     1     -19.146  78.743   1.368  1.00  0.00     0.016 A 
ATOM     14  C   UNL     1     -19.594  79.368   2.533  1.00  0.00     0.051 A 
ATOM     15  C   UNL     1     -18.698  79.724   3.545  1.00  0.00     0.157 A 
ATOM     16  C   UNL     1     -16.877  78.825   2.206  1.00  0.00     0.062 A 
ATOM     17  C   UNL     1     -17.320  79.452   3.378  1.00  0.00     0.158 A 
BRANCH  15  18
ATOM     18  O   UNL     1     -19.213  80.344   4.685  1.00  0.00    -0.504 OA
ATOM     19  H   UNL     1     -20.182  80.607   4.797  1.00  0.00     0.293 HD
ENDBRANCH  15  18
BRANCH  17  20
ATOM     20  O   UNL     1     -16.364  79.781   4.341  1.00  0.00    -0.504 OA
ATOM     21  H   UNL     1     -16.050  80.723   4.526  1.00  0.00     0.293 HD
ENDBRANCH  17  20
ENDBRANCH   1  12
BRANCH   6  22
ATOM     22  O   UNL     1     -15.201  76.217  -4.517  1.00  0.00    -0.507 OA
ATOM     23  H   UNL     1     -15.440  76.320  -5.490  1.00  0.00     0.293 HD
ENDBRANCH   6  22
BRANCH   8  24
ATOM     24  O   UNL     1     -18.096  72.694  -3.069  1.00  0.00    -0.508 OA
ATOM     25  H   UNL     1     -17.774  72.115  -3.836  1.00  0.00     0.293 HD
ENDBRANCH   8  24
TORSDOF 5
ENDMDL
MODEL 8
REMARK VINA RESULT:    -5.283      1.401      6.804
REMARK INTER + INTRA:          -6.526
REMARK INTER:                  -6.229
REMARK INTRA:                  -0.297
REMARK UNBOUND:                -0.316
REMARK SMILES O=c1cc(-c2ccc(O)c(O)c2)oc2cc(O)cc(O)c12
REMARK SMILES IDX 4 1 3 2 2 3 1 4 21 5 19 6 18 7 16 8 15 9 14 10 13 11 5 12
REMARK SMILES IDX 6 13 7 14 8 15 12 16 10 17 9 18 11 20 20 22 17 24
REMARK H PARENT 9 19 11 21 20 23 17 25
REMARK Flexibility Score: inf
ROOT
ATOM      1  C   UNL     1     -16.853  76.179  -2.151  1.00  0.00     0.138 A 
ATOM      2  C   UNL     1     -17.638  75.041  -2.377  1.00  0.00     0.100 A 
ATOM      3  C   UNL     1     -17.428  74.274  -3.525  1.00  0.00     0.197 A 
ATOM      4  O   UNL     1     -18.186  73.290  -3.727  1.00  0.00    -0.289 OA
ATOM      5  C   UNL     1     -16.400  74.630  -4.431  1.00  0.00     0.107 A 
ATOM      6  C   UNL     1     -16.071  73.904  -5.615  1.00  0.00     0.134 A 
ATOM      7  C   UNL     1     -15.098  74.410  -6.486  1.00  0.00     0.093 A 
ATOM      8  C   UNL     1     -14.402  75.581  -6.189  1.00  0.00     0.123 A 
ATOM      9  C   UNL     1     -14.681  76.272  -5.009  1.00  0.00     0.094 A 
ATOM     10  C   UNL     1     -15.670  75.813  -4.136  1.00  0.00     0.146 A 
ATOM     11  O   UNL     1     -15.916  76.511  -3.032  1.00  0.00    -0.456 OA
ENDROOT
BRANCH   1  12
ATOM     12  C   UNL     1     -17.032  77.030  -0.946  1.00  0.00     0.021 A 
ATOM     13  C   UNL     1     -18.309  77.365  -0.461  1.00  0.00     0.016 A 
ATOM     14  C   UNL     1     -18.445  78.175   0.668  1.00  0.00     0.051 A 
ATOM     15  C   UNL     1     -17.320  78.672   1.333  1.00  0.00     0.157 A 
ATOM     16  C   UNL     1     -15.902  77.541  -0.287  1.00  0.00     0.062 A 
ATOM     17  C   UNL     1     -16.031  78.353   0.847  1.00  0.00     0.158 A 
BRANCH  15  18
ATOM     18  O   UNL     1     -17.527  79.473   2.457  1.00  0.00    -0.504 OA
ATOM     19  H   UNL     1     -18.188  80.237   2.493  1.00  0.00     0.293 HD
ENDBRANCH  15  18
BRANCH  17  20
ATOM     20  O   UNL     1     -14.861  78.815   1.454  1.00  0.00    -0.504 OA
ATOM     21  H   UNL     1     -14.141  78.212   1.826  1.00  0.00     0.293 HD
ENDBRANCH  17  20
ENDBRANCH   1  12
BRANCH   6  22
ATOM     22  O   UNL     1     -16.647  72.681  -5.970  1.00  0.00    -0.507 OA
ATOM     23  H   UNL     1     -17.094  72.484  -6.850  1.00  0.00     0.293 HD
ENDBRANCH   6  22
BRANCH   8  24
ATOM     24  O   UNL     1     -13.429  76.046  -7.072  1.00  0.00    -0.508 OA
ATOM     25  H   UNL     1     -12.467  76.172  -6.781  1.00  0.00     0.293 HD
ENDBRANCH   8  24
TORSDOF 5
ENDMDL
MODEL 9
REMARK VINA RESULT:    -5.221     13.947     15.882
REMARK INTER + INTRA:          -6.453
REMARK INTER:                  -6.149
REMARK INTRA:                  -0.304
REMARK UNBOUND:                -0.316
REMARK SMILES O=c1cc(-c2ccc(O)c(O)c2)oc2cc(O)cc(O)c12
REMARK SMILES IDX 4 1 3 2 2 3 1 4 21 5 19 6 18 7 16 8 15 9 14 10 13 11 5 12
REMARK SMILES IDX 6 13 7 14 8 15 12 16 10 17 9 18 11 20 20 22 17 24
REMARK H PARENT 9 19 11 21 20 23 17 25
REMARK Flexibility Score: inf
ROOT
ATOM      1  C   UNL     1      -1.295  79.459   1.017  1.00  0.00     0.138 A 
ATOM      2  C   UNL     1      -0.369  80.153   1.808  1.00  0.00     0.100 A 
ATOM      3  C   UNL     1      -0.708  80.510   3.114  1.00  0.00     0.197 A 
ATOM      4  O   UNL     1       0.124  81.180   3.780  1.00  0.00    -0.289 OA
ATOM      5  C   UNL     1      -1.967  80.136   3.642  1.00  0.00     0.107 A 
ATOM      6  C   UNL     1      -2.408  80.415   4.971  1.00  0.00     0.134 A 
ATOM      7  C   UNL     1      -3.715  80.082   5.348  1.00  0.00     0.093 A 
ATOM      8  C   UNL     1      -4.576  79.429   4.467  1.00  0.00     0.123 A 
ATOM      9  C   UNL     1      -4.139  79.108   3.181  1.00  0.00     0.094 A 
ATOM     10  C   UNL     1      -2.853  79.457   2.763  1.00  0.00     0.146 A 
ATOM     11  O   UNL     1      -2.482  79.148   1.524  1.00  0.00    -0.456 OA
ENDROOT
BRANCH   1  12
ATOM     12  C   UNL     1      -0.987  79.053  -0.378  1.00  0.00     0.021 A 
ATOM     13  C   UNL     1      -0.177  79.840  -1.217  1.00  0.00     0.016 A 
ATOM     14  C   UNL     1       0.086  79.437  -2.527  1.00  0.00     0.051 A 
ATOM     15  C   UNL     1      -0.452  78.250  -3.032  1.00  0.00     0.157 A 
ATOM     16  C   UNL     1      -1.539  77.867  -0.891  1.00  0.00     0.062 A 
ATOM     17  C   UNL     1      -1.279  77.455  -2.204  1.00  0.00     0.158 A 
BRANCH  15  18
ATOM     18  O   UNL     1      -0.147  77.903  -4.350  1.00  0.00    -0.504 OA
ATOM     19  H   UNL     1       0.793  77.767  -4.695  1.00  0.00     0.293 HD
ENDBRANCH  15  18
BRANCH  17  20
ATOM     20  O   UNL     1      -1.856  76.260  -2.638  1.00  0.00    -0.504 OA
ATOM     21  H   UNL     1      -1.451  75.348  -2.483  1.00  0.00     0.293 HD
ENDBRANCH  17  20
ENDBRANCH   1  12
BRANCH   6  22
ATOM     22  O   UNL     1      -1.604  80.991   5.959  1.00  0.00    -0.507 OA
ATOM     23  H   UNL     1      -0.776  81.538   5.786  1.00  0.00     0.293 HD
ENDBRANCH   6  22
BRANCH   8  24
ATOM     24  O   UNL     1      -5.865  79.100   4.882  1.00  0.00    -0.508 OA
ATOM     25  H   UNL     1      -6.146  78.137   5.024  1.00  0.00     0.293 HD
ENDBRANCH   8  24
TORSDOF 5
ENDMDL
