MODEL 1
REMARK VINA RESULT:    10.224      0.000      0.000
REMARK INTER + INTRA:          12.892
REMARK INTER:                  12.017
REMARK INTRA:                   0.875
REMARK UNBOUND:                 0.875
REMARK SMILES C=C(C)[C@H]1CC[C@@]2(CO)CC[C@]3(C)[C@@H](CC[C@H]4[C@]5(C)CC[C@@H](O)C(C)(C)[C@H]5CC[C@]43C)[C@H]12
REMARK SMILES IDX 4 1 5 2 6 3 7 4 32 5 14 6 15 7 16 8 17 9 18 10 20 11 21 12
REMARK SMILES IDX 22 13 24 14 27 15 28 16 29 17 30 18 12 19 11 20 10 21 13 22
REMARK SMILES IDX 31 23 25 24 26 25 19 26 2 27 3 28 1 29 8 30 9 31 23 33
REMARK H PARENT 9 32 23 34
REMARK Flexibility Score: inf
ROOT
ATOM      1  C   UNL     1      33.750 -33.257   9.290  1.00  0.00     0.018 C 
ATOM      2  C   UNL     1      33.427 -34.638   9.925  1.00  0.00     0.009 C 
ATOM      3  C   UNL     1      33.791 -34.522  11.420  1.00  0.00     0.010 C 
ATOM      4  C   UNL     1      33.874 -33.010  11.672  1.00  0.00    -0.003 C 
ATOM      5  C   UNL     1      34.574 -32.534  10.388  1.00  0.00     0.008 C 
ATOM      6  C   UNL     1      34.824 -30.976  10.339  1.00  0.00    -0.000 C 
ATOM      7  C   UNL     1      35.674 -30.605   9.143  1.00  0.00     0.005 C 
ATOM      8  C   UNL     1      37.095 -31.185   9.227  1.00  0.00     0.005 C 
ATOM      9  C   UNL     1      37.731 -31.363  10.668  1.00  0.00     0.002 C 
ATOM     10  C   UNL     1      39.345 -31.464  10.603  1.00  0.00    -0.026 C 
ATOM     11  C   UNL     1      39.870 -32.504  11.628  1.00  0.00     0.010 C 
ATOM     12  C   UNL     1      41.358 -32.347  12.050  1.00  0.00     0.033 C 
ATOM     13  C   UNL     1      42.266 -31.361  11.246  1.00  0.00     0.120 C 
ATOM     14  C   UNL     1      41.583 -30.005  10.798  1.00  0.00    -0.006 C 
ATOM     15  C   UNL     1      40.018 -30.091  10.969  1.00  0.00     0.003 C 
ATOM     16  C   UNL     1      39.159 -28.902  10.491  1.00  0.00     0.005 C 
ATOM     17  C   UNL     1      37.730 -28.875  11.141  1.00  0.00     0.008 C 
ATOM     18  C   UNL     1      37.124 -30.260  11.638  1.00  0.00    -0.024 C 
ATOM     19  C   UNL     1      35.466 -30.330  11.657  1.00  0.00    -0.024 C 
ATOM     20  C   UNL     1      34.840 -31.070  12.922  1.00  0.00     0.008 C 
ATOM     21  C   UNL     1      34.783 -32.599  12.844  1.00  0.00     0.010 C 
ATOM     22  C   UNL     1      34.902 -28.875  11.771  1.00  0.00     0.012 C 
ATOM     23  C   UNL     1      37.592 -30.439  13.125  1.00  0.00     0.012 C 
ATOM     24  C   UNL     1      42.016 -29.588   9.369  1.00  0.00     0.014 C 
ATOM     25  C   UNL     1      42.138 -28.889  11.748  1.00  0.00     0.014 C 
ATOM     26  C   UNL     1      39.782 -31.997   9.202  1.00  0.00     0.012 C 
ENDROOT
BRANCH   1  27
ATOM     27  C   UNL     1      34.403 -33.404   7.921  1.00  0.00    -0.077 C 
ATOM     28  C   UNL     1      34.834 -32.171   7.151  1.00  0.00     0.039 C 
ATOM     29  C   UNL     1      34.539 -34.603   7.328  1.00  0.00     0.008 C 
ENDBRANCH   1  27
BRANCH   4  30
ATOM     30  C   UNL     1      32.399 -32.469  11.843  1.00  0.00     0.163 C 
BRANCH  30  31
ATOM     31  O   UNL     1      31.566 -33.369  12.515  1.00  0.00    -0.396 OA
ATOM     32  H   UNL     1      31.493 -33.054  13.452  1.00  0.00     0.210 HD
ENDBRANCH  30  31
ENDBRANCH   4  30
BRANCH  13  33
ATOM     33  O   UNL     1      42.855 -32.041  10.166  1.00  0.00    -0.393 OA
ATOM     34  H   UNL     1      42.585 -32.992  10.205  1.00  0.00     0.210 HD
ENDBRANCH  13  33
TORSDOF 4
ENDMDL
