MODEL 1
REMARK VINA RESULT:    -6.249      0.000      0.000
REMARK INTER + INTRA:          -9.207
REMARK INTER:                  -8.441
REMARK INTRA:                  -0.766
REMARK UNBOUND:                -0.766
REMARK SMILES O=c1c(-c2ccc(O)cc2)coc2c([C@H]3O[C@H](CO)[C@@H](O)[C@@H](O)[C@@H]3O)c(O)ccc12
REMARK SMILES IDX 3 1 11 2 12 3 13 4 30 5 2 6 1 7 29 8 28 9 26 10 14 11 4 12
REMARK SMILES IDX 5 13 6 14 7 15 10 16 9 17 8 18 15 20 24 21 16 22 22 23 17 24
REMARK SMILES IDX 20 25 25 26 23 28 18 30 19 31 21 33 27 35
REMARK H PARENT 8 19 25 27 23 29 19 32 21 34 27 36
REMARK Flexibility Score: inf
ROOT
ATOM      1  C   UNL     1     -13.026  -9.236  50.427  1.00  0.00     0.065 A 
ATOM      2  C   UNL     1     -13.404 -10.579  50.292  1.00  0.00     0.208 A 
ATOM      3  O   UNL     1     -13.398 -11.397  51.338  1.00  0.00    -0.463 OA
ATOM      4  C   UNL     1     -13.040 -11.013  52.562  1.00  0.00     0.147 A 
ATOM      5  C   UNL     1     -12.636  -9.677  52.785  1.00  0.00     0.066 A 
ATOM      6  C   UNL     1     -12.626  -8.783  51.698  1.00  0.00     0.200 A 
ATOM      7  O   UNL     1     -12.244  -7.590  51.856  1.00  0.00    -0.288 OA
ATOM      8  C   UNL     1     -12.244  -9.277  54.072  1.00  0.00     0.020 A 
ATOM      9  C   UNL     1     -12.247 -10.193  55.122  1.00  0.00     0.047 A 
ATOM     10  C   UNL     1     -12.644 -11.519  54.912  1.00  0.00     0.125 A 
ATOM     11  C   UNL     1     -13.062 -11.941  53.630  1.00  0.00     0.069 A 
ENDROOT
BRANCH   1  12
ATOM     12  C   UNL     1     -13.049  -8.339  49.244  1.00  0.00    -0.011 A 
ATOM     13  C   UNL     1     -14.252  -8.102  48.556  1.00  0.00     0.013 A 
ATOM     14  C   UNL     1     -14.278  -7.251  47.447  1.00  0.00     0.047 A 
ATOM     15  C   UNL     1     -13.107  -6.622  47.016  1.00  0.00     0.115 A 
ATOM     16  C   UNL     1     -11.875  -7.698  48.808  1.00  0.00     0.013 A 
ATOM     17  C   UNL     1     -11.905  -6.847  47.699  1.00  0.00     0.047 A 
BRANCH  15  18
ATOM     18  O   UNL     1     -13.147  -5.776  45.909  1.00  0.00    -0.508 OA
ATOM     19  H   UNL     1     -13.864  -5.067  45.810  1.00  0.00     0.293 HD
ENDBRANCH  15  18
ENDBRANCH   1  12
BRANCH  11  20
ATOM     20  C   UNL     1     -13.473 -13.387  53.391  1.00  0.00     0.188 C 
ATOM     21  C   UNL     1     -14.959 -13.582  53.764  1.00  0.00     0.179 C 
ATOM     22  O   UNL     1     -12.622 -14.238  54.149  1.00  0.00    -0.362 OA
ATOM     23  C   UNL     1     -15.348 -15.059  53.573  1.00  0.00     0.177 C 
ATOM     24  C   UNL     1     -12.904 -15.621  53.966  1.00  0.00     0.176 C 
ATOM     25  C   UNL     1     -14.365 -15.977  54.323  1.00  0.00     0.177 C 
BRANCH  21  26
ATOM     26  O   UNL     1     -15.759 -12.770  52.941  1.00  0.00    -0.387 OA
ATOM     27  H   UNL     1     -15.206 -11.987  52.684  1.00  0.00     0.211 HD
ENDBRANCH  21  26
BRANCH  23  28
ATOM     28  O   UNL     1     -16.676 -15.303  53.973  1.00  0.00    -0.387 OA
ATOM     29  H   UNL     1     -16.932 -14.608  54.634  1.00  0.00     0.211 HD
ENDBRANCH  23  28
BRANCH  24  30
ATOM     30  C   UNL     1     -12.464 -16.144  52.583  1.00  0.00     0.191 C 
BRANCH  30  31
ATOM     31  O   UNL     1     -13.040 -17.400  52.350  1.00  0.00    -0.394 OA
ATOM     32  H   UNL     1     -12.377 -17.912  51.817  1.00  0.00     0.210 HD
ENDBRANCH  30  31
ENDBRANCH  24  30
BRANCH  25  33
ATOM     33  O   UNL     1     -14.532 -15.835  55.713  1.00  0.00    -0.388 OA
ATOM     34  H   UNL     1     -15.167 -15.085  55.856  1.00  0.00     0.211 HD
ENDBRANCH  25  33
ENDBRANCH  11  20
BRANCH  10  35
ATOM     35  O   UNL     1     -12.618 -12.418  55.979  1.00  0.00    -0.507 OA
ATOM     36  H   UNL     1     -12.468 -12.109  56.933  1.00  0.00     0.293 HD
ENDBRANCH  10  35
TORSDOF 9
ENDMDL
MODEL 2
REMARK VINA RESULT:    -5.751      2.076      8.500
REMARK INTER + INTRA:          -8.534
REMARK INTER:                  -8.775
REMARK INTRA:                   0.241
REMARK UNBOUND:                -0.766
REMARK SMILES O=c1c(-c2ccc(O)cc2)coc2c([C@H]3O[C@H](CO)[C@@H](O)[C@@H](O)[C@@H]3O)c(O)ccc12
REMARK SMILES IDX 3 1 11 2 12 3 13 4 30 5 2 6 1 7 29 8 28 9 26 10 14 11 4 12
REMARK SMILES IDX 5 13 6 14 7 15 10 16 9 17 8 18 15 20 24 21 16 22 22 23 17 24
REMARK SMILES IDX 20 25 25 26 23 28 18 30 19 31 21 33 27 35
REMARK H PARENT 8 19 25 27 23 29 19 32 21 34 27 36
REMARK Flexibility Score: inf
ROOT
ATOM      1  C   UNL     1     -12.911 -10.455  51.179  1.00  0.00     0.065 A 
ATOM      2  C   UNL     1     -13.183 -10.384  49.805  1.00  0.00     0.208 A 
ATOM      3  O   UNL     1     -13.050  -9.241  49.143  1.00  0.00    -0.463 OA
ATOM      4  C   UNL     1     -12.661  -8.106  49.719  1.00  0.00     0.147 A 
ATOM      5  C   UNL     1     -12.374  -8.086  51.103  1.00  0.00     0.066 A 
ATOM      6  C   UNL     1     -12.508  -9.279  51.838  1.00  0.00     0.200 A 
ATOM      7  O   UNL     1     -12.287  -9.291  53.081  1.00  0.00    -0.288 OA
ATOM      8  C   UNL     1     -11.978  -6.885  51.712  1.00  0.00     0.020 A 
ATOM      9  C   UNL     1     -11.875  -5.717  50.959  1.00  0.00     0.047 A 
ATOM     10  C   UNL     1     -12.157  -5.725  49.589  1.00  0.00     0.125 A 
ATOM     11  C   UNL     1     -12.538  -6.926  48.947  1.00  0.00     0.069 A 
ENDROOT
BRANCH   1  12
ATOM     12  C   UNL     1     -13.058 -11.747  51.896  1.00  0.00    -0.011 A 
ATOM     13  C   UNL     1     -14.291 -12.102  52.470  1.00  0.00     0.013 A 
ATOM     14  C   UNL     1     -14.435 -13.322  53.139  1.00  0.00     0.047 A 
ATOM     15  C   UNL     1     -13.355 -14.203  53.236  1.00  0.00     0.115 A 
ATOM     16  C   UNL     1     -11.977 -12.641  51.992  1.00  0.00     0.013 A 
ATOM     17  C   UNL     1     -12.125 -13.860  52.660  1.00  0.00     0.047 A 
BRANCH  15  18
ATOM     18  O   UNL     1     -13.513 -15.415  53.905  1.00  0.00    -0.508 OA
ATOM     19  H   UNL     1     -13.481 -15.470  54.916  1.00  0.00     0.293 HD
ENDBRANCH  15  18
ENDBRANCH   1  12
BRANCH  11  20
ATOM     20  C   UNL     1     -12.869  -6.935  47.461  1.00  0.00     0.188 C 
ATOM     21  C   UNL     1     -14.284  -6.361  47.232  1.00  0.00     0.179 C 
ATOM     22  O   UNL     1     -12.753  -8.266  46.973  1.00  0.00    -0.362 OA
ATOM     23  C   UNL     1     -14.629  -6.428  45.732  1.00  0.00     0.177 C 
ATOM     24  C   UNL     1     -13.009  -8.376  45.578  1.00  0.00     0.176 C 
ATOM     25  C   UNL     1     -14.412  -7.854  45.193  1.00  0.00     0.177 C 
BRANCH  21  26
ATOM     26  O   UNL     1     -14.323  -5.025  47.668  1.00  0.00    -0.387 OA
ATOM     27  H   UNL     1     -14.301  -5.045  48.660  1.00  0.00     0.211 HD
ENDBRANCH  21  26
BRANCH  23  28
ATOM     28  O   UNL     1     -15.941  -5.984  45.482  1.00  0.00    -0.387 OA
ATOM     29  H   UNL     1     -15.954  -5.541  44.593  1.00  0.00     0.211 HD
ENDBRANCH  23  28
BRANCH  24  30
ATOM     30  C   UNL     1     -11.875  -7.788  44.713  1.00  0.00     0.191 C 
BRANCH  30  31
ATOM     31  O   UNL     1     -12.315  -7.651  43.390  1.00  0.00    -0.394 OA
ATOM     32  H   UNL     1     -12.980  -8.374  43.244  1.00  0.00     0.210 HD
ENDBRANCH  30  31
ENDBRANCH  24  30
BRANCH  25  33
ATOM     33  O   UNL     1     -15.376  -8.728  45.728  1.00  0.00    -0.388 OA
ATOM     34  H   UNL     1     -15.859  -8.231  46.440  1.00  0.00     0.211 HD
ENDBRANCH  25  33
ENDBRANCH  11  20
BRANCH  10  35
ATOM     35  O   UNL     1     -12.063  -4.536  48.864  1.00  0.00    -0.507 OA
ATOM     36  H   UNL     1     -11.290  -3.892  48.994  1.00  0.00     0.293 HD
ENDBRANCH  10  35
TORSDOF 9
ENDMDL
MODEL 3
REMARK VINA RESULT:    -4.286      1.286      2.514
REMARK INTER + INTRA:          -6.555
REMARK INTER:                  -6.497
REMARK INTRA:                  -0.058
REMARK UNBOUND:                -0.766
REMARK SMILES O=c1c(-c2ccc(O)cc2)coc2c([C@H]3O[C@H](CO)[C@@H](O)[C@@H](O)[C@@H]3O)c(O)ccc12
REMARK SMILES IDX 3 1 11 2 12 3 13 4 30 5 2 6 1 7 29 8 28 9 26 10 14 11 4 12
REMARK SMILES IDX 5 13 6 14 7 15 10 16 9 17 8 18 15 20 24 21 16 22 22 23 17 24
REMARK SMILES IDX 20 25 25 26 23 28 18 30 19 31 21 33 27 35
REMARK H PARENT 8 19 25 27 23 29 19 32 21 34 27 36
REMARK Flexibility Score: inf
ROOT
ATOM      1  C   UNL     1     -13.235  -9.864  51.169  1.00  0.00     0.065 A 
ATOM      2  C   UNL     1     -13.804 -11.133  51.340  1.00  0.00     0.208 A 
ATOM      3  O   UNL     1     -13.746 -11.754  52.512  1.00  0.00    -0.463 OA
ATOM      4  C   UNL     1     -13.156 -11.231  53.585  1.00  0.00     0.147 A 
ATOM      5  C   UNL     1     -12.548  -9.958  53.498  1.00  0.00     0.066 A 
ATOM      6  C   UNL     1     -12.587  -9.273  52.270  1.00  0.00     0.200 A 
ATOM      7  O   UNL     1     -12.030  -8.146  52.149  1.00  0.00    -0.288 OA
ATOM      8  C   UNL     1     -11.913  -9.414  54.626  1.00  0.00     0.020 A 
ATOM      9  C   UNL     1     -11.875 -10.128  55.822  1.00  0.00     0.047 A 
ATOM     10  C   UNL     1     -12.472 -11.390  55.919  1.00  0.00     0.125 A 
ATOM     11  C   UNL     1     -13.136 -11.951  54.803  1.00  0.00     0.069 A 
ENDROOT
BRANCH   1  12
ATOM     12  C   UNL     1     -13.320  -9.186  49.850  1.00  0.00    -0.011 A 
ATOM     13  C   UNL     1     -12.153  -8.742  49.205  1.00  0.00     0.013 A 
ATOM     14  C   UNL     1     -12.230  -8.112  47.958  1.00  0.00     0.047 A 
ATOM     15  C   UNL     1     -13.469  -7.923  47.340  1.00  0.00     0.115 A 
ATOM     16  C   UNL     1     -14.563  -8.999  49.220  1.00  0.00     0.013 A 
ATOM     17  C   UNL     1     -14.636  -8.369  47.974  1.00  0.00     0.047 A 
BRANCH  15  18
ATOM     18  O   UNL     1     -13.531  -7.293  46.099  1.00  0.00    -0.508 OA
ATOM     19  H   UNL     1     -12.840  -7.471  45.380  1.00  0.00     0.293 HD
ENDBRANCH  15  18
ENDBRANCH   1  12
BRANCH  11  20
ATOM     20  C   UNL     1     -13.768 -13.333  54.897  1.00  0.00     0.188 C 
ATOM     21  C   UNL     1     -13.269 -14.220  53.735  1.00  0.00     0.179 C 
ATOM     22  O   UNL     1     -15.183 -13.192  54.884  1.00  0.00    -0.362 OA
ATOM     23  C   UNL     1     -13.958 -15.596  53.807  1.00  0.00     0.177 C 
ATOM     24  C   UNL     1     -15.872 -14.432  55.003  1.00  0.00     0.176 C 
ATOM     25  C   UNL     1     -15.488 -15.429  53.886  1.00  0.00     0.177 C 
BRANCH  21  26
ATOM     26  O   UNL     1     -11.877 -14.382  53.835  1.00  0.00    -0.387 OA
ATOM     27  H   UNL     1     -11.647 -14.325  54.799  1.00  0.00     0.211 HD
ENDBRANCH  21  26
BRANCH  23  28
ATOM     28  O   UNL     1     -13.592 -16.416  52.724  1.00  0.00    -0.387 OA
ATOM     29  H   UNL     1     -13.116 -17.210  53.083  1.00  0.00     0.211 HD
ENDBRANCH  23  28
BRANCH  24  30
ATOM     30  C   UNL     1     -15.781 -15.033  56.421  1.00  0.00     0.191 C 
BRANCH  30  31
ATOM     31  O   UNL     1     -17.041 -14.988  57.032  1.00  0.00    -0.394 OA
ATOM     32  H   UNL     1     -17.680 -15.370  56.375  1.00  0.00     0.210 HD
ENDBRANCH  30  31
ENDBRANCH  24  30
BRANCH  25  33
ATOM     33  O   UNL     1     -15.987 -14.944  52.663  1.00  0.00    -0.388 OA
ATOM     34  H   UNL     1     -15.343 -14.263  52.334  1.00  0.00     0.211 HD
ENDBRANCH  25  33
ENDBRANCH  11  20
BRANCH  10  35
ATOM     35  O   UNL     1     -12.403 -12.089  57.124  1.00  0.00    -0.507 OA
ATOM     36  H   UNL     1     -13.238 -12.370  57.627  1.00  0.00     0.293 HD
ENDBRANCH  10  35
TORSDOF 9
ENDMDL
MODEL 4
REMARK VINA RESULT:    -4.259      2.184      8.460
REMARK INTER + INTRA:          -6.519
REMARK INTER:                  -7.844
REMARK INTRA:                   1.325
REMARK UNBOUND:                -0.766
REMARK SMILES O=c1c(-c2ccc(O)cc2)coc2c([C@H]3O[C@H](CO)[C@@H](O)[C@@H](O)[C@@H]3O)c(O)ccc12
REMARK SMILES IDX 3 1 11 2 12 3 13 4 30 5 2 6 1 7 29 8 28 9 26 10 14 11 4 12
REMARK SMILES IDX 5 13 6 14 7 15 10 16 9 17 8 18 15 20 24 21 16 22 22 23 17 24
REMARK SMILES IDX 20 25 25 26 23 28 18 30 19 31 21 33 27 35
REMARK H PARENT 8 19 25 27 23 29 19 32 21 34 27 36
REMARK Flexibility Score: inf
ROOT
ATOM      1  C   UNL     1     -13.018 -10.595  51.228  1.00  0.00     0.065 A 
ATOM      2  C   UNL     1     -13.648 -10.477  49.982  1.00  0.00     0.208 A 
ATOM      3  O   UNL     1     -13.669  -9.317  49.336  1.00  0.00    -0.463 OA
ATOM      4  C   UNL     1     -13.110  -8.207  49.814  1.00  0.00     0.147 A 
ATOM      5  C   UNL     1     -12.461  -8.235  51.069  1.00  0.00     0.066 A 
ATOM      6  C   UNL     1     -12.422  -9.447  51.783  1.00  0.00     0.200 A 
ATOM      7  O   UNL     1     -11.875  -9.501  52.919  1.00  0.00    -0.288 OA
ATOM      8  C   UNL     1     -11.885  -7.060  51.578  1.00  0.00     0.020 A 
ATOM      9  C   UNL     1     -11.959  -5.872  50.854  1.00  0.00     0.047 A 
ATOM     10  C   UNL     1     -12.600  -5.832  49.610  1.00  0.00     0.125 A 
ATOM     11  C   UNL     1     -13.171  -7.006  49.067  1.00  0.00     0.069 A 
ENDROOT
BRANCH   1  12
ATOM     12  C   UNL     1     -13.000 -11.905  51.927  1.00  0.00    -0.011 A 
ATOM     13  C   UNL     1     -11.902 -12.772  51.780  1.00  0.00     0.013 A 
ATOM     14  C   UNL     1     -11.879 -14.002  52.444  1.00  0.00     0.047 A 
ATOM     15  C   UNL     1     -12.945 -14.380  53.265  1.00  0.00     0.115 A 
ATOM     16  C   UNL     1     -14.066 -12.288  52.759  1.00  0.00     0.013 A 
ATOM     17  C   UNL     1     -14.039 -13.519  53.422  1.00  0.00     0.047 A 
BRANCH  15  18
ATOM     18  O   UNL     1     -12.908 -15.609  53.921  1.00  0.00    -0.508 OA
ATOM     19  H   UNL     1     -12.793 -16.477  53.412  1.00  0.00     0.293 HD
ENDBRANCH  15  18
ENDBRANCH   1  12
BRANCH  11  20
ATOM     20  C   UNL     1     -13.889  -6.964  47.725  1.00  0.00     0.188 C 
ATOM     21  C   UNL     1     -14.769  -8.223  47.558  1.00  0.00     0.179 C 
ATOM     22  O   UNL     1     -12.921  -6.855  46.689  1.00  0.00    -0.362 OA
ATOM     23  C   UNL     1     -15.446  -8.197  46.175  1.00  0.00     0.177 C 
ATOM     24  C   UNL     1     -13.496  -6.772  45.390  1.00  0.00     0.176 C 
ATOM     25  C   UNL     1     -14.398  -7.986  45.066  1.00  0.00     0.177 C 
BRANCH  21  26
ATOM     26  O   UNL     1     -15.749  -8.245  48.565  1.00  0.00    -0.387 OA
ATOM     27  H   UNL     1     -15.531  -9.008  49.163  1.00  0.00     0.211 HD
ENDBRANCH  21  26
BRANCH  23  28
ATOM     28  O   UNL     1     -16.200  -9.363  45.945  1.00  0.00    -0.387 OA
ATOM     29  H   UNL     1     -16.349  -9.447  44.967  1.00  0.00     0.211 HD
ENDBRANCH  23  28
BRANCH  24  30
ATOM     30  C   UNL     1     -14.175  -5.414  45.121  1.00  0.00     0.191 C 
BRANCH  30  31
ATOM     31  O   UNL     1     -15.567  -5.571  45.140  1.00  0.00    -0.394 OA
ATOM     32  H   UNL     1     -15.745  -6.493  44.816  1.00  0.00     0.210 HD
ENDBRANCH  30  31
ENDBRANCH  24  30
BRANCH  25  33
ATOM     33  O   UNL     1     -13.583  -9.127  44.944  1.00  0.00    -0.388 OA
ATOM     34  H   UNL     1     -13.425  -9.271  43.974  1.00  0.00     0.211 HD
ENDBRANCH  25  33
ENDBRANCH  11  20
BRANCH  10  35
ATOM     35  O   UNL     1     -12.674  -4.624  48.917  1.00  0.00    -0.507 OA
ATOM     36  H   UNL     1     -13.270  -4.512  48.103  1.00  0.00     0.293 HD
ENDBRANCH  10  35
TORSDOF 9
ENDMDL
