MODEL 1
REMARK VINA RESULT:    -4.529      0.000      0.000
REMARK INTER + INTRA:         -11.092
REMARK INTER:                  -8.501
REMARK INTRA:                  -2.591
REMARK UNBOUND:                -2.591
REMARK SMILES CCCCCCCCC=CCCCCCCCC(=O)[O-]
REMARK SMILES IDX 10 1 9 2 11 3 12 4 13 5 14 6 15 7 16 8 17 9 18 10 19 11
REMARK SMILES IDX 20 12 8 13 7 14 6 15 5 16 4 17 3 18 2 19 1 20
REMARK H PARENT
REMARK Flexibility Score: inf
ROOT
ATOM      1  C   UNL     1      48.168  34.718 -13.459  1.00  0.00    -0.031 C 
ATOM      2  C   UNL     1      48.892  35.800 -13.115  1.00  0.00    -0.031 C 
ENDROOT
BRANCH   1   3
ATOM      3  C   UNL     1      46.852  34.743 -14.195  1.00  0.00     0.027 C 
BRANCH   3   4
ATOM      4  C   UNL     1      45.631  34.528 -13.282  1.00  0.00     0.004 C 
BRANCH   4   5
ATOM      5  C   UNL     1      44.724  35.766 -13.148  1.00  0.00     0.000 C 
BRANCH   5   6
ATOM      6  C   UNL     1      44.485  36.182 -11.684  1.00  0.00     0.000 C 
BRANCH   6   7
ATOM      7  C   UNL     1      45.734  36.791 -11.025  1.00  0.00     0.000 C 
BRANCH   7   8
ATOM      8  C   UNL     1      46.068  36.242  -9.624  1.00  0.00     0.006 C 
BRANCH   8   9
ATOM      9  C   UNL     1      46.242  34.713  -9.578  1.00  0.00     0.053 C 
BRANCH   9  10
ATOM     10  C   UNL     1      45.677  34.105  -8.330  1.00  0.00     0.041 C 
ATOM     11  O   UNL     1      45.549  32.856  -8.237  1.00  0.00    -0.550 OA
ATOM     12  O   UNL     1      45.236  34.918  -7.295  1.00  0.00    -0.550 OA
ENDBRANCH   9  10
ENDBRANCH   8   9
ENDBRANCH   7   8
ENDBRANCH   6   7
ENDBRANCH   5   6
ENDBRANCH   4   5
ENDBRANCH   3   4
ENDBRANCH   1   3
BRANCH   2  13
ATOM     13  C   UNL     1      48.528  37.232 -13.427  1.00  0.00     0.027 C 
BRANCH  13  14
ATOM     14  C   UNL     1      49.722  38.011 -13.998  1.00  0.00     0.004 C 
BRANCH  14  15
ATOM     15  C   UNL     1      50.864  37.089 -14.453  1.00  0.00     0.000 C 
BRANCH  15  16
ATOM     16  C   UNL     1      51.156  37.280 -15.950  1.00  0.00     0.000 C 
BRANCH  16  17
ATOM     17  C   UNL     1      50.911  36.003 -16.771  1.00  0.00    -0.000 C 
BRANCH  17  18
ATOM     18  C   UNL     1      49.421  35.628 -16.846  1.00  0.00    -0.000 C 
BRANCH  18  19
ATOM     19  C   UNL     1      48.538  36.808 -17.280  1.00  0.00    -0.003 C 
ATOM     20  C   UNL     1      47.068  36.420 -17.448  1.00  0.00     0.004 C 
ENDBRANCH  18  19
ENDBRANCH  17  18
ENDBRANCH  16  17
ENDBRANCH  15  16
ENDBRANCH  14  15
ENDBRANCH  13  14
ENDBRANCH   2  13
TORSDOF 15
ENDMDL
MODEL 2
REMARK VINA RESULT:    -4.467      1.286      2.050
REMARK INTER + INTRA:         -10.975
REMARK INTER:                  -7.990
REMARK INTRA:                  -2.984
REMARK UNBOUND:                -2.591
REMARK SMILES CCCCCCCCC=CCCCCCCCC(=O)[O-]
REMARK SMILES IDX 10 1 9 2 11 3 12 4 13 5 14 6 15 7 16 8 17 9 18 10 19 11
REMARK SMILES IDX 20 12 8 13 7 14 6 15 5 16 4 17 3 18 2 19 1 20
REMARK H PARENT
REMARK Flexibility Score: inf
ROOT
ATOM      1  C   UNL     1      45.889  34.939 -13.425  1.00  0.00    -0.031 C 
ATOM      2  C   UNL     1      47.129  34.715 -12.951  1.00  0.00    -0.031 C 
ENDROOT
BRANCH   1   3
ATOM      3  C   UNL     1      45.183  36.272 -13.438  1.00  0.00     0.027 C 
BRANCH   3   4
ATOM      4  C   UNL     1      43.806  36.247 -12.751  1.00  0.00     0.004 C 
BRANCH   4   5
ATOM      5  C   UNL     1      43.771  36.971 -11.391  1.00  0.00     0.000 C 
BRANCH   5   6
ATOM      6  C   UNL     1      45.097  37.676 -11.050  1.00  0.00     0.000 C 
BRANCH   6   7
ATOM      7  C   UNL     1      45.779  37.092  -9.800  1.00  0.00     0.000 C 
BRANCH   7   8
ATOM      8  C   UNL     1      45.084  35.857  -9.194  1.00  0.00     0.006 C 
BRANCH   8   9
ATOM      9  C   UNL     1      45.868  34.545  -9.383  1.00  0.00     0.053 C 
BRANCH   9  10
ATOM     10  C   UNL     1      45.750  33.627  -8.205  1.00  0.00     0.041 C 
ATOM     11  O   UNL     1      46.783  33.241  -7.597  1.00  0.00    -0.550 OA
ATOM     12  O   UNL     1      44.506  33.150  -7.813  1.00  0.00    -0.550 OA
ENDBRANCH   9  10
ENDBRANCH   8   9
ENDBRANCH   7   8
ENDBRANCH   6   7
ENDBRANCH   5   6
ENDBRANCH   4   5
ENDBRANCH   3   4
ENDBRANCH   1   3
BRANCH   2  13
ATOM     13  C   UNL     1      48.047  35.765 -12.369  1.00  0.00     0.027 C 
BRANCH  13  14
ATOM     14  C   UNL     1      49.377  35.842 -13.132  1.00  0.00     0.004 C 
BRANCH  14  15
ATOM     15  C   UNL     1      49.713  37.269 -13.591  1.00  0.00     0.000 C 
BRANCH  15  16
ATOM     16  C   UNL     1      48.568  37.856 -14.431  1.00  0.00     0.000 C 
BRANCH  16  17
ATOM     17  C   UNL     1      48.658  37.463 -15.915  1.00  0.00    -0.000 C 
BRANCH  17  18
ATOM     18  C   UNL     1      47.344  36.863 -16.446  1.00  0.00    -0.000 C 
BRANCH  18  19
ATOM     19  C   UNL     1      47.472  35.367 -16.778  1.00  0.00    -0.003 C 
ATOM     20  C   UNL     1      48.906  34.852 -16.656  1.00  0.00     0.004 C 
ENDBRANCH  18  19
ENDBRANCH  17  18
ENDBRANCH  16  17
ENDBRANCH  15  16
ENDBRANCH  14  15
ENDBRANCH  13  14
ENDBRANCH   2  13
TORSDOF 15
ENDMDL
MODEL 3
REMARK VINA RESULT:    -4.350      3.970      6.902
REMARK INTER + INTRA:         -10.756
REMARK INTER:                  -8.098
REMARK INTRA:                  -2.657
REMARK UNBOUND:                -2.591
REMARK SMILES CCCCCCCCC=CCCCCCCCC(=O)[O-]
REMARK SMILES IDX 10 1 9 2 11 3 12 4 13 5 14 6 15 7 16 8 17 9 18 10 19 11
REMARK SMILES IDX 20 12 8 13 7 14 6 15 5 16 4 17 3 18 2 19 1 20
REMARK H PARENT
REMARK Flexibility Score: inf
ROOT
ATOM      1  C   UNL     1      48.592  34.858 -13.856  1.00  0.00    -0.031 C 
ATOM      2  C   UNL     1      48.917  35.914 -13.085  1.00  0.00    -0.031 C 
ENDROOT
BRANCH   1   3
ATOM      3  C   UNL     1      47.424  34.794 -14.807  1.00  0.00     0.027 C 
BRANCH   3   4
ATOM      4  C   UNL     1      47.832  34.861 -16.290  1.00  0.00     0.004 C 
BRANCH   4   5
ATOM      5  C   UNL     1      47.144  35.991 -17.079  1.00  0.00     0.000 C 
BRANCH   5   6
ATOM      6  C   UNL     1      48.135  37.040 -17.617  1.00  0.00     0.000 C 
BRANCH   6   7
ATOM      7  C   UNL     1      48.741  37.913 -16.506  1.00  0.00     0.000 C 
BRANCH   7   8
ATOM      8  C   UNL     1      50.282  37.971 -16.487  1.00  0.00     0.006 C 
BRANCH   8   9
ATOM      9  C   UNL     1      50.956  36.592 -16.358  1.00  0.00     0.053 C 
BRANCH   9  10
ATOM     10  C   UNL     1      52.438  36.654 -16.568  1.00  0.00     0.041 C 
ATOM     11  O   UNL     1      53.189  37.087 -15.654  1.00  0.00    -0.550 OA
ATOM     12  O   UNL     1      52.986  36.289 -17.791  1.00  0.00    -0.550 OA
ENDBRANCH   9  10
ENDBRANCH   8   9
ENDBRANCH   7   8
ENDBRANCH   6   7
ENDBRANCH   5   6
ENDBRANCH   4   5
ENDBRANCH   3   4
ENDBRANCH   1   3
BRANCH   2  13
ATOM     13  C   UNL     1      48.181  37.234 -13.054  1.00  0.00     0.027 C 
BRANCH  13  14
ATOM     14  C   UNL     1      48.001  37.749 -11.619  1.00  0.00     0.004 C 
BRANCH  14  15
ATOM     15  C   UNL     1      47.464  36.670 -10.667  1.00  0.00     0.000 C 
BRANCH  15  16
ATOM     16  C   UNL     1      46.016  36.979 -10.253  1.00  0.00     0.000 C 
BRANCH  16  17
ATOM     17  C   UNL     1      45.038  35.853 -10.628  1.00  0.00    -0.000 C 
BRANCH  17  18
ATOM     18  C   UNL     1      45.113  35.480 -12.119  1.00  0.00    -0.000 C 
BRANCH  18  19
ATOM     19  C   UNL     1      44.132  36.292 -12.980  1.00  0.00    -0.003 C 
ATOM     20  C   UNL     1      44.834  37.299 -13.891  1.00  0.00     0.004 C 
ENDBRANCH  18  19
ENDBRANCH  17  18
ENDBRANCH  16  17
ENDBRANCH  15  16
ENDBRANCH  14  15
ENDBRANCH  13  14
ENDBRANCH   2  13
TORSDOF 15
ENDMDL
MODEL 4
REMARK VINA RESULT:    -4.330      3.345      7.205
REMARK INTER + INTRA:         -10.718
REMARK INTER:                  -7.614
REMARK INTRA:                  -3.104
REMARK UNBOUND:                -2.591
REMARK SMILES CCCCCCCCC=CCCCCCCCC(=O)[O-]
REMARK SMILES IDX 10 1 9 2 11 3 12 4 13 5 14 6 15 7 16 8 17 9 18 10 19 11
REMARK SMILES IDX 20 12 8 13 7 14 6 15 5 16 4 17 3 18 2 19 1 20
REMARK H PARENT
REMARK Flexibility Score: inf
ROOT
ATOM      1  C   UNL     1      46.072  34.529 -12.634  1.00  0.00    -0.031 C 
ATOM      2  C   UNL     1      45.358  35.265 -13.507  1.00  0.00    -0.031 C 
ENDROOT
BRANCH   1   3
ATOM      3  C   UNL     1      46.273  34.853 -11.174  1.00  0.00     0.027 C 
BRANCH   3   4
ATOM      4  C   UNL     1      47.616  35.544 -10.877  1.00  0.00     0.004 C 
BRANCH   4   5
ATOM      5  C   UNL     1      47.500  37.062 -10.640  1.00  0.00     0.000 C 
BRANCH   5   6
ATOM      6  C   UNL     1      47.786  37.893 -11.904  1.00  0.00     0.000 C 
BRANCH   6   7
ATOM      7  C   UNL     1      48.856  37.255 -12.807  1.00  0.00     0.000 C 
BRANCH   7   8
ATOM      8  C   UNL     1      48.457  37.108 -14.289  1.00  0.00     0.006 C 
BRANCH   8   9
ATOM      9  C   UNL     1      48.968  35.813 -14.947  1.00  0.00     0.053 C 
BRANCH   9  10
ATOM     10  C   UNL     1      48.355  35.568 -16.292  1.00  0.00     0.041 C 
ATOM     11  O   UNL     1      48.642  36.316 -17.264  1.00  0.00    -0.550 OA
ATOM     12  O   UNL     1      47.423  34.553 -16.460  1.00  0.00    -0.550 OA
ENDBRANCH   9  10
ENDBRANCH   8   9
ENDBRANCH   7   8
ENDBRANCH   6   7
ENDBRANCH   5   6
ENDBRANCH   4   5
ENDBRANCH   3   4
ENDBRANCH   1   3
BRANCH   2  13
ATOM     13  C   UNL     1      44.610  36.535 -13.174  1.00  0.00     0.027 C 
BRANCH  13  14
ATOM     14  C   UNL     1      43.133  36.258 -12.859  1.00  0.00     0.004 C 
BRANCH  14  15
ATOM     15  C   UNL     1      42.725  36.752 -11.463  1.00  0.00     0.000 C 
BRANCH  15  16
ATOM     16  C   UNL     1      43.814  37.657 -10.864  1.00  0.00     0.000 C 
BRANCH  16  17
ATOM     17  C   UNL     1      44.063  37.379  -9.373  1.00  0.00    -0.000 C 
BRANCH  17  18
ATOM     18  C   UNL     1      43.710  35.935  -8.975  1.00  0.00    -0.000 C 
BRANCH  18  19
ATOM     19  C   UNL     1      44.661  35.369  -7.908  1.00  0.00    -0.003 C 
ATOM     20  C   UNL     1      44.630  33.841  -7.836  1.00  0.00     0.004 C 
ENDBRANCH  18  19
ENDBRANCH  17  18
ENDBRANCH  16  17
ENDBRANCH  15  16
ENDBRANCH  14  15
ENDBRANCH  13  14
ENDBRANCH   2  13
TORSDOF 15
ENDMDL
MODEL 5
REMARK VINA RESULT:    -4.312      1.607      2.449
REMARK INTER + INTRA:         -10.684
REMARK INTER:                  -7.964
REMARK INTRA:                  -2.720
REMARK UNBOUND:                -2.591
REMARK SMILES CCCCCCCCC=CCCCCCCCC(=O)[O-]
REMARK SMILES IDX 10 1 9 2 11 3 12 4 13 5 14 6 15 7 16 8 17 9 18 10 19 11
REMARK SMILES IDX 20 12 8 13 7 14 6 15 5 16 4 17 3 18 2 19 1 20
REMARK H PARENT
REMARK Flexibility Score: inf
ROOT
ATOM      1  C   UNL     1      45.521  34.924 -12.818  1.00  0.00    -0.031 C 
ATOM      2  C   UNL     1      46.387  34.783 -11.796  1.00  0.00    -0.031 C 
ENDROOT
BRANCH   1   3
ATOM      3  C   UNL     1      45.171  36.224 -13.497  1.00  0.00     0.027 C 
BRANCH   3   4
ATOM      4  C   UNL     1      43.963  36.942 -12.868  1.00  0.00     0.004 C 
BRANCH   4   5
ATOM      5  C   UNL     1      44.344  38.040 -11.856  1.00  0.00     0.000 C 
BRANCH   5   6
ATOM      6  C   UNL     1      44.018  37.657 -10.400  1.00  0.00     0.000 C 
BRANCH   6   7
ATOM      7  C   UNL     1      43.062  36.457 -10.299  1.00  0.00     0.000 C 
BRANCH   7   8
ATOM      8  C   UNL     1      43.316  35.517  -9.104  1.00  0.00     0.006 C 
BRANCH   8   9
ATOM      9  C   UNL     1      44.742  35.610  -8.530  1.00  0.00     0.053 C 
BRANCH   9  10
ATOM     10  C   UNL     1      45.250  34.292  -8.031  1.00  0.00     0.041 C 
ATOM     11  O   UNL     1      44.517  33.563  -7.311  1.00  0.00    -0.550 OA
ATOM     12  O   UNL     1      46.551  33.894  -8.309  1.00  0.00    -0.550 OA
ENDBRANCH   9  10
ENDBRANCH   8   9
ENDBRANCH   7   8
ENDBRANCH   6   7
ENDBRANCH   5   6
ENDBRANCH   4   5
ENDBRANCH   3   4
ENDBRANCH   1   3
BRANCH   2  13
ATOM     13  C   UNL     1      47.182  35.901 -11.163  1.00  0.00     0.027 C 
BRANCH  13  14
ATOM     14  C   UNL     1      48.497  36.157 -11.913  1.00  0.00     0.004 C 
BRANCH  14  15
ATOM     15  C   UNL     1      48.452  37.436 -12.763  1.00  0.00     0.000 C 
BRANCH  15  16
ATOM     16  C   UNL     1      48.764  37.125 -14.235  1.00  0.00     0.000 C 
BRANCH  16  17
ATOM     17  C   UNL     1      49.114  35.646 -14.468  1.00  0.00    -0.000 C 
BRANCH  17  18
ATOM     18  C   UNL     1      48.083  34.929 -15.358  1.00  0.00    -0.000 C 
BRANCH  18  19
ATOM     19  C   UNL     1      48.237  35.290 -16.845  1.00  0.00    -0.003 C 
ATOM     20  C   UNL     1      47.246  36.361 -17.302  1.00  0.00     0.004 C 
ENDBRANCH  18  19
ENDBRANCH  17  18
ENDBRANCH  16  17
ENDBRANCH  15  16
ENDBRANCH  14  15
ENDBRANCH  13  14
ENDBRANCH   2  13
TORSDOF 15
ENDMDL
MODEL 6
REMARK VINA RESULT:    -4.239      3.441      7.556
REMARK INTER + INTRA:         -10.548
REMARK INTER:                  -8.349
REMARK INTRA:                  -2.199
REMARK UNBOUND:                -2.591
REMARK SMILES CCCCCCCCC=CCCCCCCCC(=O)[O-]
REMARK SMILES IDX 10 1 9 2 11 3 12 4 13 5 14 6 15 7 16 8 17 9 18 10 19 11
REMARK SMILES IDX 20 12 8 13 7 14 6 15 5 16 4 17 3 18 2 19 1 20
REMARK H PARENT
REMARK Flexibility Score: inf
ROOT
ATOM      1  C   UNL     1      46.768  34.848 -12.308  1.00  0.00    -0.031 C 
ATOM      2  C   UNL     1      45.672  34.899 -13.090  1.00  0.00    -0.031 C 
ENDROOT
BRANCH   1   3
ATOM      3  C   UNL     1      47.410  36.027 -11.622  1.00  0.00     0.027 C 
BRANCH   3   4
ATOM      4  C   UNL     1      48.419  36.781 -12.507  1.00  0.00     0.004 C 
BRANCH   4   5
ATOM      5  C   UNL     1      49.399  35.862 -13.261  1.00  0.00     0.000 C 
BRANCH   5   6
ATOM      6  C   UNL     1      50.060  36.548 -14.471  1.00  0.00     0.000 C 
BRANCH   6   7
ATOM      7  C   UNL     1      49.661  35.907 -15.811  1.00  0.00     0.000 C 
BRANCH   7   8
ATOM      8  C   UNL     1      48.441  34.967 -15.749  1.00  0.00     0.006 C 
BRANCH   8   9
ATOM      9  C   UNL     1      47.339  35.306 -16.770  1.00  0.00     0.053 C 
BRANCH   9  10
ATOM     10  C   UNL     1      47.191  36.780 -16.991  1.00  0.00     0.041 C 
ATOM     11  O   UNL     1      46.590  37.490 -16.141  1.00  0.00    -0.550 OA
ATOM     12  O   UNL     1      47.663  37.362 -18.159  1.00  0.00    -0.550 OA
ENDBRANCH   9  10
ENDBRANCH   8   9
ENDBRANCH   7   8
ENDBRANCH   6   7
ENDBRANCH   5   6
ENDBRANCH   4   5
ENDBRANCH   3   4
ENDBRANCH   1   3
BRANCH   2  13
ATOM     13  C   UNL     1      44.875  36.145 -13.399  1.00  0.00     0.027 C 
BRANCH  13  14
ATOM     14  C   UNL     1      43.568  36.197 -12.595  1.00  0.00     0.004 C 
BRANCH  14  15
ATOM     15  C   UNL     1      43.710  36.993 -11.289  1.00  0.00     0.000 C 
BRANCH  15  16
ATOM     16  C   UNL     1      43.476  36.088 -10.069  1.00  0.00     0.000 C 
BRANCH  16  17
ATOM     17  C   UNL     1      44.415  36.415  -8.897  1.00  0.00    -0.000 C 
BRANCH  17  18
ATOM     18  C   UNL     1      44.763  35.175  -8.056  1.00  0.00    -0.000 C 
BRANCH  18  19
ATOM     19  C   UNL     1      45.801  34.271  -8.741  1.00  0.00    -0.003 C 
ATOM     20  C   UNL     1      46.349  33.186  -7.813  1.00  0.00     0.004 C 
ENDBRANCH  18  19
ENDBRANCH  17  18
ENDBRANCH  16  17
ENDBRANCH  15  16
ENDBRANCH  14  15
ENDBRANCH  13  14
ENDBRANCH   2  13
TORSDOF 15
ENDMDL
MODEL 7
REMARK VINA RESULT:    -4.232      1.992      3.743
REMARK INTER + INTRA:         -10.534
REMARK INTER:                  -8.173
REMARK INTRA:                  -2.361
REMARK UNBOUND:                -2.591
REMARK SMILES CCCCCCCCC=CCCCCCCCC(=O)[O-]
REMARK SMILES IDX 10 1 9 2 11 3 12 4 13 5 14 6 15 7 16 8 17 9 18 10 19 11
REMARK SMILES IDX 20 12 8 13 7 14 6 15 5 16 4 17 3 18 2 19 1 20
REMARK H PARENT
REMARK Flexibility Score: inf
ROOT
ATOM      1  C   UNL     1      47.712  35.207 -16.500  1.00  0.00    -0.031 C 
ATOM      2  C   UNL     1      49.012  34.854 -16.479  1.00  0.00    -0.031 C 
ENDROOT
BRANCH   1   3
ATOM      3  C   UNL     1      47.129  36.355 -17.285  1.00  0.00     0.027 C 
BRANCH   3   4
ATOM      4  C   UNL     1      47.118  37.686 -16.513  1.00  0.00     0.004 C 
BRANCH   4   5
ATOM      5  C   UNL     1      45.831  37.929 -15.701  1.00  0.00     0.000 C 
BRANCH   5   6
ATOM      6  C   UNL     1      46.014  37.677 -14.192  1.00  0.00     0.000 C 
BRANCH   6   7
ATOM      7  C   UNL     1      44.688  37.725 -13.415  1.00  0.00     0.000 C 
BRANCH   7   8
ATOM      8  C   UNL     1      44.117  36.350 -13.013  1.00  0.00     0.006 C 
BRANCH   8   9
ATOM      9  C   UNL     1      43.041  36.419 -11.913  1.00  0.00     0.053 C 
BRANCH   9  10
ATOM     10  C   UNL     1      43.595  36.157 -10.546  1.00  0.00     0.041 C 
ATOM     11  O   UNL     1      42.838  35.755  -9.623  1.00  0.00    -0.550 OA
ATOM     12  O   UNL     1      44.932  36.411 -10.274  1.00  0.00    -0.550 OA
ENDBRANCH   9  10
ENDBRANCH   8   9
ENDBRANCH   7   8
ENDBRANCH   6   7
ENDBRANCH   5   6
ENDBRANCH   4   5
ENDBRANCH   3   4
ENDBRANCH   1   3
BRANCH   2  13
ATOM     13  C   UNL     1      50.115  35.532 -17.257  1.00  0.00     0.027 C 
BRANCH  13  14
ATOM     14  C   UNL     1      51.155  36.174 -16.327  1.00  0.00     0.004 C 
BRANCH  14  15
ATOM     15  C   UNL     1      50.800  37.622 -15.955  1.00  0.00     0.000 C 
BRANCH  15  16
ATOM     16  C   UNL     1      50.780  37.805 -14.429  1.00  0.00     0.000 C 
BRANCH  16  17
ATOM     17  C   UNL     1      49.464  37.332 -13.791  1.00  0.00    -0.000 C 
BRANCH  17  18
ATOM     18  C   UNL     1      49.663  36.136 -12.844  1.00  0.00    -0.000 C 
BRANCH  18  19
ATOM     19  C   UNL     1      48.367  35.736 -12.120  1.00  0.00    -0.003 C 
ATOM     20  C   UNL     1      47.498  34.782 -12.941  1.00  0.00     0.004 C 
ENDBRANCH  18  19
ENDBRANCH  17  18
ENDBRANCH  16  17
ENDBRANCH  15  16
ENDBRANCH  14  15
ENDBRANCH  13  14
ENDBRANCH   2  13
TORSDOF 15
ENDMDL
MODEL 8
REMARK VINA RESULT:    -4.215      3.717      7.605
REMARK INTER + INTRA:         -10.503
REMARK INTER:                  -8.351
REMARK INTRA:                  -2.152
REMARK UNBOUND:                -2.591
REMARK SMILES CCCCCCCCC=CCCCCCCCC(=O)[O-]
REMARK SMILES IDX 10 1 9 2 11 3 12 4 13 5 14 6 15 7 16 8 17 9 18 10 19 11
REMARK SMILES IDX 20 12 8 13 7 14 6 15 5 16 4 17 3 18 2 19 1 20
REMARK H PARENT
REMARK Flexibility Score: inf
ROOT
ATOM      1  C   UNL     1      43.743  36.399 -13.131  1.00  0.00    -0.031 C 
ATOM      2  C   UNL     1      42.719  36.557 -12.270  1.00  0.00    -0.031 C 
ENDROOT
BRANCH   1   3
ATOM      3  C   UNL     1      44.841  37.402 -13.379  1.00  0.00     0.027 C 
BRANCH   3   4
ATOM      4  C   UNL     1      45.676  37.103 -14.638  1.00  0.00     0.004 C 
BRANCH   4   5
ATOM      5  C   UNL     1      47.093  36.577 -14.339  1.00  0.00     0.000 C 
BRANCH   5   6
ATOM      6  C   UNL     1      47.257  35.078 -14.649  1.00  0.00     0.000 C 
BRANCH   6   7
ATOM      7  C   UNL     1      47.539  34.804 -16.136  1.00  0.00     0.000 C 
BRANCH   7   8
ATOM      8  C   UNL     1      48.393  35.873 -16.847  1.00  0.00     0.006 C 
BRANCH   8   9
ATOM      9  C   UNL     1      49.850  35.442 -17.098  1.00  0.00     0.053 C 
BRANCH   9  10
ATOM     10  C   UNL     1      50.838  36.288 -16.355  1.00  0.00     0.041 C 
ATOM     11  O   UNL     1      50.468  36.964 -15.359  1.00  0.00    -0.550 OA
ATOM     12  O   UNL     1      52.152  36.377 -16.794  1.00  0.00    -0.550 OA
ENDBRANCH   9  10
ENDBRANCH   8   9
ENDBRANCH   7   8
ENDBRANCH   6   7
ENDBRANCH   5   6
ENDBRANCH   4   5
ENDBRANCH   3   4
ENDBRANCH   1   3
BRANCH   2  13
ATOM     13  C   UNL     1      42.502  37.758 -11.380  1.00  0.00     0.027 C 
BRANCH  13  14
ATOM     14  C   UNL     1      42.461  37.365  -9.896  1.00  0.00     0.004 C 
BRANCH  14  15
ATOM     15  C   UNL     1      43.050  35.969  -9.639  1.00  0.00     0.000 C 
BRANCH  15  16
ATOM     16  C   UNL     1      44.162  36.032  -8.580  1.00  0.00     0.000 C 
BRANCH  16  17
ATOM     17  C   UNL     1      45.121  37.214  -8.796  1.00  0.00    -0.000 C 
BRANCH  17  18
ATOM     18  C   UNL     1      46.039  37.014 -10.014  1.00  0.00    -0.000 C 
BRANCH  18  19
ATOM     19  C   UNL     1      46.750  35.651  -9.999  1.00  0.00    -0.003 C 
ATOM     20  C   UNL     1      46.326  34.747 -11.157  1.00  0.00     0.004 C 
ENDBRANCH  18  19
ENDBRANCH  17  18
ENDBRANCH  16  17
ENDBRANCH  15  16
ENDBRANCH  14  15
ENDBRANCH  13  14
ENDBRANCH   2  13
TORSDOF 15
ENDMDL
MODEL 9
REMARK VINA RESULT:    -4.156      1.923      3.371
REMARK INTER + INTRA:         -10.391
REMARK INTER:                  -8.310
REMARK INTRA:                  -2.082
REMARK UNBOUND:                -2.591
REMARK SMILES CCCCCCCCC=CCCCCCCCC(=O)[O-]
REMARK SMILES IDX 10 1 9 2 11 3 12 4 13 5 14 6 15 7 16 8 17 9 18 10 19 11
REMARK SMILES IDX 20 12 8 13 7 14 6 15 5 16 4 17 3 18 2 19 1 20
REMARK H PARENT
REMARK Flexibility Score: inf
ROOT
ATOM      1  C   UNL     1      47.129  34.750 -14.612  1.00  0.00    -0.031 C 
ATOM      2  C   UNL     1      47.601  34.766 -15.873  1.00  0.00    -0.031 C 
ENDROOT
BRANCH   1   3
ATOM      3  C   UNL     1      46.361  35.866 -13.950  1.00  0.00     0.027 C 
BRANCH   3   4
ATOM      4  C   UNL     1      45.765  35.478 -12.584  1.00  0.00     0.004 C 
BRANCH   4   5
ATOM      5  C   UNL     1      46.814  35.033 -11.547  1.00  0.00     0.000 C 
BRANCH   5   6
ATOM      6  C   UNL     1      46.549  35.602 -10.140  1.00  0.00     0.000 C 
BRANCH   6   7
ATOM      7  C   UNL     1      45.687  34.669  -9.273  1.00  0.00     0.000 C 
BRANCH   7   8
ATOM      8  C   UNL     1      44.504  35.350  -8.556  1.00  0.00     0.006 C 
BRANCH   8   9
ATOM      9  C   UNL     1      44.128  36.725  -9.141  1.00  0.00     0.053 C 
BRANCH   9  10
ATOM     10  C   UNL     1      42.809  36.708  -9.850  1.00  0.00     0.041 C 
ATOM     11  O   UNL     1      41.743  36.900  -9.208  1.00  0.00    -0.550 OA
ATOM     12  O   UNL     1      42.750  36.422 -11.208  1.00  0.00    -0.550 OA
ENDBRANCH   9  10
ENDBRANCH   8   9
ENDBRANCH   7   8
ENDBRANCH   6   7
ENDBRANCH   5   6
ENDBRANCH   4   5
ENDBRANCH   3   4
ENDBRANCH   1   3
BRANCH   2  13
ATOM     13  C   UNL     1      47.424  35.897 -16.859  1.00  0.00     0.027 C 
BRANCH  13  14
ATOM     14  C   UNL     1      48.768  36.544 -17.227  1.00  0.00     0.004 C 
BRANCH  14  15
ATOM     15  C   UNL     1      49.960  35.604 -16.991  1.00  0.00     0.000 C 
BRANCH  15  16
ATOM     16  C   UNL     1      51.204  36.398 -16.563  1.00  0.00     0.000 C 
BRANCH  16  17
ATOM     17  C   UNL     1      50.854  37.708 -15.838  1.00  0.00    -0.000 C 
BRANCH  17  18
ATOM     18  C   UNL     1      51.129  37.637 -14.326  1.00  0.00    -0.000 C 
BRANCH  18  19
ATOM     19  C   UNL     1      49.884  37.235 -13.519  1.00  0.00    -0.003 C 
ATOM     20  C   UNL     1      50.074  35.932 -12.742  1.00  0.00     0.004 C 
ENDBRANCH  18  19
ENDBRANCH  17  18
ENDBRANCH  16  17
ENDBRANCH  15  16
ENDBRANCH  14  15
ENDBRANCH  13  14
ENDBRANCH   2  13
TORSDOF 15
ENDMDL
