MODEL 1
REMARK VINA RESULT:    -4.489      0.000      0.000
REMARK INTER + INTRA:          -5.780
REMARK INTER:                  -5.538
REMARK INTRA:                  -0.241
REMARK UNBOUND:                -0.241
REMARK SMILES C=CC[C@H](C)C(=O)CC
REMARK SMILES IDX 4 1 5 2 6 3 7 4 8 5 9 6 3 7 2 8 1 9
REMARK H PARENT
REMARK Flexibility Score: inf
ROOT
ATOM      1  C   UNL     1      14.864  13.805  15.114  1.00  0.00     0.057 C 
ATOM      2  C   UNL     1      15.418  15.145  15.608  1.00  0.00     0.016 C 
ENDROOT
BRANCH   1   3
ATOM      3  C   UNL     1      13.361  13.898  14.946  1.00  0.00     0.135 C 
ATOM      4  O   UNL     1      12.647  12.998  15.363  1.00  0.00    -0.299 OA
BRANCH   3   5
ATOM      5  C   UNL     1      12.724  15.093  14.284  1.00  0.00     0.072 C 
ATOM      6  C   UNL     1      12.933  15.059  12.774  1.00  0.00     0.012 C 
ENDBRANCH   3   5
ENDBRANCH   1   3
BRANCH   1   7
ATOM      7  C   UNL     1      15.248  12.670  16.088  1.00  0.00     0.038 C 
BRANCH   7   8
ATOM      8  C   UNL     1      16.049  11.589  15.413  1.00  0.00    -0.034 C 
ATOM      9  C   UNL     1      17.158  11.863  14.719  1.00  0.00     0.004 C 
ENDBRANCH   7   8
ENDBRANCH   1   7
TORSDOF 4
ENDMDL
MODEL 2
REMARK VINA RESULT:    -4.431      1.589      4.376
REMARK INTER + INTRA:          -5.708
REMARK INTER:                  -5.460
REMARK INTRA:                  -0.248
REMARK UNBOUND:                -0.241
REMARK SMILES C=CC[C@H](C)C(=O)CC
REMARK SMILES IDX 4 1 5 2 6 3 7 4 8 5 9 6 3 7 2 8 1 9
REMARK H PARENT
REMARK Flexibility Score: inf
ROOT
ATOM      1  C   UNL     1      13.864  13.982  14.849  1.00  0.00     0.057 C 
ATOM      2  C   UNL     1      12.755  13.976  15.906  1.00  0.00     0.016 C 
ENDROOT
BRANCH   1   3
ATOM      3  C   UNL     1      15.194  14.316  15.496  1.00  0.00     0.135 C 
ATOM      4  O   UNL     1      15.615  15.462  15.458  1.00  0.00    -0.299 OA
BRANCH   3   5
ATOM      5  C   UNL     1      16.002  13.260  16.205  1.00  0.00     0.072 C 
ATOM      6  C   UNL     1      15.982  11.946  15.431  1.00  0.00     0.012 C 
ENDBRANCH   3   5
ENDBRANCH   1   3
BRANCH   1   7
ATOM      7  C   UNL     1      13.527  14.977  13.719  1.00  0.00     0.038 C 
BRANCH   7   8
ATOM      8  C   UNL     1      12.118  15.498  13.822  1.00  0.00    -0.034 C 
ATOM      9  C   UNL     1      11.442  15.916  12.748  1.00  0.00     0.004 C 
ENDBRANCH   7   8
ENDBRANCH   1   7
TORSDOF 4
ENDMDL
MODEL 3
REMARK VINA RESULT:    -4.401      1.522      4.180
REMARK INTER + INTRA:          -5.671
REMARK INTER:                  -5.501
REMARK INTRA:                  -0.170
REMARK UNBOUND:                -0.241
REMARK SMILES C=CC[C@H](C)C(=O)CC
REMARK SMILES IDX 4 1 5 2 6 3 7 4 8 5 9 6 3 7 2 8 1 9
REMARK H PARENT
REMARK Flexibility Score: inf
ROOT
ATOM      1  C   UNL     1      14.339  13.076  15.355  1.00  0.00     0.057 C 
ATOM      2  C   UNL     1      13.344  13.092  16.520  1.00  0.00     0.016 C 
ENDROOT
BRANCH   1   3
ATOM      3  C   UNL     1      15.685  12.569  15.833  1.00  0.00     0.135 C 
ATOM      4  O   UNL     1      16.296  13.188  16.693  1.00  0.00    -0.299 OA
BRANCH   3   5
ATOM      5  C   UNL     1      16.281  11.301  15.279  1.00  0.00     0.072 C 
ATOM      6  C   UNL     1      17.544  11.595  14.477  1.00  0.00     0.012 C 
ENDBRANCH   3   5
ENDBRANCH   1   3
BRANCH   1   7
ATOM      7  C   UNL     1      14.461  14.483  14.731  1.00  0.00     0.038 C 
BRANCH   7   8
ATOM      8  C   UNL     1      13.127  15.032  14.302  1.00  0.00    -0.034 C 
ATOM      9  C   UNL     1      12.743  15.029  13.022  1.00  0.00     0.004 C 
ENDBRANCH   7   8
ENDBRANCH   1   7
TORSDOF 4
ENDMDL
MODEL 4
REMARK VINA RESULT:    -4.394      1.272      1.678
REMARK INTER + INTRA:          -5.663
REMARK INTER:                  -5.356
REMARK INTRA:                  -0.307
REMARK UNBOUND:                -0.241
REMARK SMILES C=CC[C@H](C)C(=O)CC
REMARK SMILES IDX 4 1 5 2 6 3 7 4 8 5 9 6 3 7 2 8 1 9
REMARK H PARENT
REMARK Flexibility Score: inf
ROOT
ATOM      1  C   UNL     1      13.658  13.783  16.338  1.00  0.00     0.057 C 
ATOM      2  C   UNL     1      13.064  12.372  16.389  1.00  0.00     0.016 C 
ENDROOT
BRANCH   1   3
ATOM      3  C   UNL     1      13.005  14.579  15.225  1.00  0.00     0.135 C 
ATOM      4  O   UNL     1      11.832  14.907  15.323  1.00  0.00    -0.299 OA
BRANCH   3   5
ATOM      5  C   UNL     1      13.783  14.990  14.002  1.00  0.00     0.072 C 
ATOM      6  C   UNL     1      12.879  15.061  12.777  1.00  0.00     0.012 C 
ENDBRANCH   3   5
ENDBRANCH   1   3
BRANCH   1   7
ATOM      7  C   UNL     1      15.189  13.717  16.154  1.00  0.00     0.038 C 
BRANCH   7   8
ATOM      8  C   UNL     1      15.666  12.321  15.854  1.00  0.00    -0.034 C 
ATOM      9  C   UNL     1      16.687  12.088  15.025  1.00  0.00     0.004 C 
ENDBRANCH   7   8
ENDBRANCH   1   7
TORSDOF 4
ENDMDL
MODEL 5
REMARK VINA RESULT:    -4.358      1.520      4.771
REMARK INTER + INTRA:          -5.618
REMARK INTER:                  -5.390
REMARK INTRA:                  -0.228
REMARK UNBOUND:                -0.241
REMARK SMILES C=CC[C@H](C)C(=O)CC
REMARK SMILES IDX 4 1 5 2 6 3 7 4 8 5 9 6 3 7 2 8 1 9
REMARK H PARENT
REMARK Flexibility Score: inf
ROOT
ATOM      1  C   UNL     1      13.122  15.245  13.930  1.00  0.00     0.057 C 
ATOM      2  C   UNL     1      13.329  15.054  12.423  1.00  0.00     0.016 C 
ENDROOT
BRANCH   1   3
ATOM      3  C   UNL     1      13.496  13.974  14.667  1.00  0.00     0.135 C 
ATOM      4  O   UNL     1      12.627  13.167  14.963  1.00  0.00    -0.299 OA
BRANCH   3   5
ATOM      5  C   UNL     1      14.928  13.677  15.029  1.00  0.00     0.072 C 
ATOM      6  C   UNL     1      15.557  14.846  15.779  1.00  0.00     0.012 C 
ENDBRANCH   3   5
ENDBRANCH   1   3
BRANCH   1   7
ATOM      7  C   UNL     1      11.663  15.654  14.226  1.00  0.00     0.038 C 
BRANCH   7   8
ATOM      8  C   UNL     1      10.990  16.265  13.027  1.00  0.00    -0.034 C 
ATOM      9  C   UNL     1       9.914  17.048  13.146  1.00  0.00     0.004 C 
ENDBRANCH   7   8
ENDBRANCH   1   7
TORSDOF 4
ENDMDL
MODEL 6
REMARK VINA RESULT:    -4.336      1.030      3.761
REMARK INTER + INTRA:          -5.592
REMARK INTER:                  -5.328
REMARK INTRA:                  -0.264
REMARK UNBOUND:                -0.241
REMARK SMILES C=CC[C@H](C)C(=O)CC
REMARK SMILES IDX 4 1 5 2 6 3 7 4 8 5 9 6 3 7 2 8 1 9
REMARK H PARENT
REMARK Flexibility Score: inf
ROOT
ATOM      1  C   UNL     1      14.160  14.295  16.259  1.00  0.00     0.057 C 
ATOM      2  C   UNL     1      15.307  15.269  15.967  1.00  0.00     0.016 C 
ENDROOT
BRANCH   1   3
ATOM      3  C   UNL     1      14.581  12.882  15.907  1.00  0.00     0.135 C 
ATOM      4  O   UNL     1      13.841  11.946  16.171  1.00  0.00    -0.299 OA
BRANCH   3   5
ATOM      5  C   UNL     1      15.893  12.609  15.219  1.00  0.00     0.072 C 
ATOM      6  C   UNL     1      16.300  11.148  15.376  1.00  0.00     0.012 C 
ENDBRANCH   3   5
ENDBRANCH   1   3
BRANCH   1   7
ATOM      7  C   UNL     1      12.890  14.710  15.486  1.00  0.00     0.038 C 
BRANCH   7   8
ATOM      8  C   UNL     1      13.082  14.631  13.995  1.00  0.00    -0.034 C 
ATOM      9  C   UNL     1      12.340  15.355  13.151  1.00  0.00     0.004 C 
ENDBRANCH   7   8
ENDBRANCH   1   7
TORSDOF 4
ENDMDL
MODEL 7
REMARK VINA RESULT:    -4.103      2.537      3.901
REMARK INTER + INTRA:          -5.304
REMARK INTER:                  -5.102
REMARK INTRA:                  -0.201
REMARK UNBOUND:                -0.241
REMARK SMILES C=CC[C@H](C)C(=O)CC
REMARK SMILES IDX 4 1 5 2 6 3 7 4 8 5 9 6 3 7 2 8 1 9
REMARK H PARENT
REMARK Flexibility Score: inf
ROOT
ATOM      1  C   UNL     1      12.634  14.985  12.727  1.00  0.00     0.057 C 
ATOM      2  C   UNL     1      13.416  15.397  11.475  1.00  0.00     0.016 C 
ENDROOT
BRANCH   1   3
ATOM      3  C   UNL     1      11.420  15.878  12.894  1.00  0.00     0.135 C 
ATOM      4  O   UNL     1      10.957  16.068  14.009  1.00  0.00    -0.299 OA
BRANCH   3   5
ATOM      5  C   UNL     1      10.781  16.552  11.708  1.00  0.00     0.072 C 
ATOM      6  C   UNL     1       9.625  17.446  12.144  1.00  0.00     0.012 C 
ENDBRANCH   3   5
ENDBRANCH   1   3
BRANCH   1   7
ATOM      7  C   UNL     1      13.543  15.038  13.973  1.00  0.00     0.038 C 
BRANCH   7   8
ATOM      8  C   UNL     1      13.494  13.760  14.767  1.00  0.00    -0.034 C 
ATOM      9  C   UNL     1      12.828  13.674  15.922  1.00  0.00     0.004 C 
ENDBRANCH   7   8
ENDBRANCH   1   7
TORSDOF 4
ENDMDL
MODEL 8
REMARK VINA RESULT:    -3.957      3.074      5.081
REMARK INTER + INTRA:          -5.123
REMARK INTER:                  -4.824
REMARK INTRA:                  -0.299
REMARK UNBOUND:                -0.241
REMARK SMILES C=CC[C@H](C)C(=O)CC
REMARK SMILES IDX 4 1 5 2 6 3 7 4 8 5 9 6 3 7 2 8 1 9
REMARK H PARENT
REMARK Flexibility Score: inf
ROOT
ATOM      1  C   UNL     1      10.716  16.687  12.901  1.00  0.00     0.057 C 
ATOM      2  C   UNL     1       9.424  17.357  13.380  1.00  0.00     0.016 C 
ENDROOT
BRANCH   1   3
ATOM      3  C   UNL     1      10.445  15.879  11.647  1.00  0.00     0.135 C 
ATOM      4  O   UNL     1       9.708  14.906  11.701  1.00  0.00    -0.299 OA
BRANCH   3   5
ATOM      5  C   UNL     1      11.057  16.265  10.326  1.00  0.00     0.072 C 
ATOM      6  C   UNL     1      12.205  15.330   9.961  1.00  0.00     0.012 C 
ENDBRANCH   3   5
ENDBRANCH   1   3
BRANCH   1   7
ATOM      7  C   UNL     1      11.310  15.802  14.018  1.00  0.00     0.038 C 
BRANCH   7   8
ATOM      8  C   UNL     1      12.617  15.175  13.612  1.00  0.00    -0.034 C 
ATOM      9  C   UNL     1      13.227  14.263  14.374  1.00  0.00     0.004 C 
ENDBRANCH   7   8
ENDBRANCH   1   7
TORSDOF 4
ENDMDL
MODEL 9
REMARK VINA RESULT:    -3.923      1.637      2.223
REMARK INTER + INTRA:          -5.081
REMARK INTER:                  -4.904
REMARK INTRA:                  -0.178
REMARK UNBOUND:                -0.241
REMARK SMILES C=CC[C@H](C)C(=O)CC
REMARK SMILES IDX 4 1 5 2 6 3 7 4 8 5 9 6 3 7 2 8 1 9
REMARK H PARENT
REMARK Flexibility Score: inf
ROOT
ATOM      1  C   UNL     1      13.603  14.942  14.922  1.00  0.00     0.057 C 
ATOM      2  C   UNL     1      12.662  14.254  15.917  1.00  0.00     0.016 C 
ENDROOT
BRANCH   1   3
ATOM      3  C   UNL     1      12.870  15.219  13.624  1.00  0.00     0.135 C 
ATOM      4  O   UNL     1      13.396  14.934  12.559  1.00  0.00    -0.299 OA
BRANCH   3   5
ATOM      5  C   UNL     1      11.492  15.826  13.624  1.00  0.00     0.072 C 
ATOM      6  C   UNL     1      11.066  16.215  12.212  1.00  0.00     0.012 C 
ENDBRANCH   3   5
ENDBRANCH   1   3
BRANCH   1   7
ATOM      7  C   UNL     1      14.859  14.077  14.681  1.00  0.00     0.038 C 
BRANCH   7   8
ATOM      8  C   UNL     1      14.852  12.821  15.511  1.00  0.00    -0.034 C 
ATOM      9  C   UNL     1      15.960  12.100  15.707  1.00  0.00     0.004 C 
ENDBRANCH   7   8
ENDBRANCH   1   7
TORSDOF 4
ENDMDL
