MODEL 1
REMARK VINA RESULT:    -3.942      0.000      0.000
REMARK INTER + INTRA:          -4.784
REMARK INTER:                  -4.749
REMARK INTRA:                  -0.035
REMARK UNBOUND:                -0.035
REMARK SMILES CC[C@@H](C)[C@H]([NH3+])C(=O)[O-]
REMARK SMILES IDX 3 1 4 2 5 3 6 4 7 8 8 9 9 10 2 11 1 12
REMARK H PARENT 6 5 6 6 6 7
REMARK Flexibility Score: inf
ROOT
ATOM      1  C   UNL     1     -16.423  33.027  16.418  1.00  0.00     0.050 C 
ATOM      2  C   UNL     1     -15.009  32.685  16.925  1.00  0.00     0.014 C 
ENDROOT
BRANCH   1   3
ATOM      3  C   UNL     1     -16.380  33.412  14.905  1.00  0.00     0.230 C 
BRANCH   3   4
ATOM      4  N   UNL     1     -16.089  32.253  14.048  1.00  0.00    -0.350 N 
ATOM      5  H   UNL     1     -16.852  31.544  14.131  1.00  0.00     0.345 HD
ATOM      6  H   UNL     1     -16.043  32.562  13.050  1.00  0.00     0.345 HD
ATOM      7  H   UNL     1     -15.177  31.806  14.296  1.00  0.00     0.345 HD
ENDBRANCH   3   4
BRANCH   3   8
ATOM      8  C   UNL     1     -15.424  34.547  14.622  1.00  0.00     0.099 C 
ATOM      9  O   UNL     1     -15.415  35.578  15.346  1.00  0.00    -0.544 OA
ATOM     10  O   UNL     1     -14.570  34.472  13.529  1.00  0.00    -0.544 OA
ENDBRANCH   3   8
ENDBRANCH   1   3
BRANCH   1  11
ATOM     11  C   UNL     1     -17.421  31.879  16.727  1.00  0.00     0.006 C 
ATOM     12  C   UNL     1     -16.818  30.790  17.614  1.00  0.00     0.004 C 
ENDBRANCH   1  11
TORSDOF 4
ENDMDL
MODEL 2
REMARK VINA RESULT:    -3.770      3.490      4.176
REMARK INTER + INTRA:          -4.577
REMARK INTER:                  -4.597
REMARK INTRA:                   0.020
REMARK UNBOUND:                -0.035
REMARK SMILES CC[C@@H](C)[C@H]([NH3+])C(=O)[O-]
REMARK SMILES IDX 3 1 4 2 5 3 6 4 7 8 8 9 9 10 2 11 1 12
REMARK H PARENT 6 5 6 6 6 7
REMARK Flexibility Score: inf
ROOT
ATOM      1  C   UNL     1     -15.797  32.535  16.353  1.00  0.00     0.050 C 
ATOM      2  C   UNL     1     -15.523  34.006  15.985  1.00  0.00     0.014 C 
ENDROOT
BRANCH   1   3
ATOM      3  C   UNL     1     -15.603  32.312  17.886  1.00  0.00     0.230 C 
BRANCH   3   4
ATOM      4  N   UNL     1     -14.200  32.037  18.232  1.00  0.00    -0.350 N 
ATOM      5  H   UNL     1     -13.784  31.371  17.542  1.00  0.00     0.345 HD
ATOM      6  H   UNL     1     -13.652  32.926  18.194  1.00  0.00     0.345 HD
ATOM      7  H   UNL     1     -14.110  31.635  19.193  1.00  0.00     0.345 HD
ENDBRANCH   3   4
BRANCH   3   8
ATOM      8  C   UNL     1     -16.515  31.242  18.438  1.00  0.00     0.099 C 
ATOM      9  O   UNL     1     -17.536  31.548  19.109  1.00  0.00    -0.544 OA
ATOM     10  O   UNL     1     -16.209  29.902  18.234  1.00  0.00    -0.544 OA
ENDBRANCH   3   8
ENDBRANCH   1   3
BRANCH   1  11
ATOM     11  C   UNL     1     -17.191  32.081  15.843  1.00  0.00     0.006 C 
ATOM     12  C   UNL     1     -17.394  32.349  14.351  1.00  0.00     0.004 C 
ENDBRANCH   1  11
TORSDOF 4
ENDMDL
MODEL 3
REMARK VINA RESULT:    -3.712      4.074      4.928
REMARK INTER + INTRA:          -4.506
REMARK INTER:                  -4.451
REMARK INTRA:                  -0.055
REMARK UNBOUND:                -0.035
REMARK SMILES CC[C@@H](C)[C@H]([NH3+])C(=O)[O-]
REMARK SMILES IDX 3 1 4 2 5 3 6 4 7 8 8 9 9 10 2 11 1 12
REMARK H PARENT 6 5 6 6 6 7
REMARK Flexibility Score: inf
ROOT
ATOM      1  C   UNL     1     -16.484  31.649  16.905  1.00  0.00     0.050 C 
ATOM      2  C   UNL     1     -15.438  32.758  17.128  1.00  0.00     0.014 C 
ENDROOT
BRANCH   1   3
ATOM      3  C   UNL     1     -17.091  31.190  18.269  1.00  0.00     0.230 C 
BRANCH   3   4
ATOM      4  N   UNL     1     -16.632  32.028  19.388  1.00  0.00    -0.350 N 
ATOM      5  H   UNL     1     -17.233  32.879  19.470  1.00  0.00     0.345 HD
ATOM      6  H   UNL     1     -16.711  31.489  20.281  1.00  0.00     0.345 HD
ATOM      7  H   UNL     1     -15.636  32.322  19.269  1.00  0.00     0.345 HD
ENDBRANCH   3   4
BRANCH   3   8
ATOM      8  C   UNL     1     -16.843  29.728  18.553  1.00  0.00     0.099 C 
ATOM      9  O   UNL     1     -17.790  28.897  18.530  1.00  0.00    -0.544 OA
ATOM     10  O   UNL     1     -15.563  29.295  18.877  1.00  0.00    -0.544 OA
ENDBRANCH   3   8
ENDBRANCH   1   3
BRANCH   1  11
ATOM     11  C   UNL     1     -17.561  32.093  15.879  1.00  0.00     0.006 C 
ATOM     12  C   UNL     1     -16.983  32.353  14.487  1.00  0.00     0.004 C 
ENDBRANCH   1  11
TORSDOF 4
ENDMDL
MODEL 4
REMARK VINA RESULT:    -3.698      3.044      4.064
REMARK INTER + INTRA:          -4.490
REMARK INTER:                  -4.433
REMARK INTRA:                  -0.056
REMARK UNBOUND:                -0.035
REMARK SMILES CC[C@@H](C)[C@H]([NH3+])C(=O)[O-]
REMARK SMILES IDX 3 1 4 2 5 3 6 4 7 8 8 9 9 10 2 11 1 12
REMARK H PARENT 6 5 6 6 6 7
REMARK Flexibility Score: inf
ROOT
ATOM      1  C   UNL     1     -16.221  32.383  17.228  1.00  0.00     0.050 C 
ATOM      2  C   UNL     1     -16.909  31.010  17.351  1.00  0.00     0.014 C 
ENDROOT
BRANCH   1   3
ATOM      3  C   UNL     1     -14.956  32.442  18.141  1.00  0.00     0.230 C 
BRANCH   3   4
ATOM      4  N   UNL     1     -14.628  31.128  18.717  1.00  0.00    -0.350 N 
ATOM      5  H   UNL     1     -14.040  31.248  19.573  1.00  0.00     0.345 HD
ATOM      6  H   UNL     1     -15.510  30.642  18.997  1.00  0.00     0.345 HD
ATOM      7  H   UNL     1     -14.120  30.522  18.035  1.00  0.00     0.345 HD
ENDBRANCH   3   4
BRANCH   3   8
ATOM      8  C   UNL     1     -15.067  33.492  19.221  1.00  0.00     0.099 C 
ATOM      9  O   UNL     1     -14.696  34.677  19.008  1.00  0.00    -0.544 OA
ATOM     10  O   UNL     1     -15.550  33.143  20.476  1.00  0.00    -0.544 OA
ENDBRANCH   3   8
ENDBRANCH   1   3
BRANCH   1  11
ATOM     11  C   UNL     1     -15.918  32.727  15.745  1.00  0.00     0.006 C 
ATOM     12  C   UNL     1     -17.029  32.283  14.793  1.00  0.00     0.004 C 
ENDBRANCH   1  11
TORSDOF 4
ENDMDL
MODEL 5
REMARK VINA RESULT:    -3.633      2.952      4.049
REMARK INTER + INTRA:          -4.411
REMARK INTER:                  -4.349
REMARK INTRA:                  -0.061
REMARK UNBOUND:                -0.035
REMARK SMILES CC[C@@H](C)[C@H]([NH3+])C(=O)[O-]
REMARK SMILES IDX 3 1 4 2 5 3 6 4 7 8 8 9 9 10 2 11 1 12
REMARK H PARENT 6 5 6 6 6 7
REMARK Flexibility Score: inf
ROOT
ATOM      1  C   UNL     1     -16.557  32.660  16.684  1.00  0.00     0.050 C 
ATOM      2  C   UNL     1     -17.912  31.943  16.538  1.00  0.00     0.014 C 
ENDROOT
BRANCH   1   3
ATOM      3  C   UNL     1     -15.645  31.897  17.697  1.00  0.00     0.230 C 
BRANCH   3   4
ATOM      4  N   UNL     1     -16.084  30.508  17.899  1.00  0.00    -0.350 N 
ATOM      5  H   UNL     1     -15.930  29.952  17.027  1.00  0.00     0.345 HD
ATOM      6  H   UNL     1     -15.518  30.073  18.663  1.00  0.00     0.345 HD
ATOM      7  H   UNL     1     -17.093  30.456  18.166  1.00  0.00     0.345 HD
ENDBRANCH   3   4
BRANCH   3   8
ATOM      8  C   UNL     1     -15.512  32.619  19.017  1.00  0.00     0.099 C 
ATOM      9  O   UNL     1     -15.980  32.119  20.075  1.00  0.00    -0.544 OA
ATOM     10  O   UNL     1     -14.900  33.865  19.064  1.00  0.00    -0.544 OA
ENDBRANCH   3   8
ENDBRANCH   1   3
BRANCH   1  11
ATOM     11  C   UNL     1     -15.884  32.875  15.302  1.00  0.00     0.006 C 
ATOM     12  C   UNL     1     -16.839  32.632  14.132  1.00  0.00     0.004 C 
ENDBRANCH   1  11
TORSDOF 4
ENDMDL
MODEL 6
REMARK VINA RESULT:    -3.583      2.497      3.153
REMARK INTER + INTRA:          -4.352
REMARK INTER:                  -4.236
REMARK INTRA:                  -0.116
REMARK UNBOUND:                -0.035
REMARK SMILES CC[C@@H](C)[C@H]([NH3+])C(=O)[O-]
REMARK SMILES IDX 3 1 4 2 5 3 6 4 7 8 8 9 9 10 2 11 1 12
REMARK H PARENT 6 5 6 6 6 7
REMARK Flexibility Score: inf
ROOT
ATOM      1  C   UNL     1     -17.203  31.727  18.668  1.00  0.00     0.050 C 
ATOM      2  C   UNL     1     -16.437  31.980  19.980  1.00  0.00     0.014 C 
ENDROOT
BRANCH   1   3
ATOM      3  C   UNL     1     -16.210  31.639  17.466  1.00  0.00     0.230 C 
BRANCH   3   4
ATOM      4  N   UNL     1     -14.841  32.014  17.851  1.00  0.00    -0.350 N 
ATOM      5  H   UNL     1     -14.183  31.227  17.651  1.00  0.00     0.345 HD
ATOM      6  H   UNL     1     -14.535  32.841  17.288  1.00  0.00     0.345 HD
ATOM      7  H   UNL     1     -14.778  32.265  18.864  1.00  0.00     0.345 HD
ENDBRANCH   3   4
BRANCH   3   8
ATOM      8  C   UNL     1     -16.673  32.439  16.271  1.00  0.00     0.099 C 
ATOM      9  O   UNL     1     -17.747  32.150  15.679  1.00  0.00    -0.544 OA
ATOM     10  O   UNL     1     -15.890  33.482  15.794  1.00  0.00    -0.544 OA
ENDBRANCH   3   8
ENDBRANCH   1   3
BRANCH   1  11
ATOM     11  C   UNL     1     -18.125  30.484  18.789  1.00  0.00     0.006 C 
ATOM     12  C   UNL     1     -17.377  29.167  18.577  1.00  0.00     0.004 C 
ENDBRANCH   1  11
TORSDOF 4
ENDMDL
MODEL 7
REMARK VINA RESULT:    -3.530      3.861      4.725
REMARK INTER + INTRA:          -4.287
REMARK INTER:                  -4.194
REMARK INTRA:                  -0.092
REMARK UNBOUND:                -0.035
REMARK SMILES CC[C@@H](C)[C@H]([NH3+])C(=O)[O-]
REMARK SMILES IDX 3 1 4 2 5 3 6 4 7 8 8 9 9 10 2 11 1 12
REMARK H PARENT 6 5 6 6 6 7
REMARK Flexibility Score: inf
ROOT
ATOM      1  C   UNL     1     -16.430  32.004  17.635  1.00  0.00     0.050 C 
ATOM      2  C   UNL     1     -16.708  30.494  17.755  1.00  0.00     0.014 C 
ENDROOT
BRANCH   1   3
ATOM      3  C   UNL     1     -15.302  32.431  18.628  1.00  0.00     0.230 C 
BRANCH   3   4
ATOM      4  N   UNL     1     -13.995  31.868  18.255  1.00  0.00    -0.350 N 
ATOM      5  H   UNL     1     -14.117  30.906  17.864  1.00  0.00     0.345 HD
ATOM      6  H   UNL     1     -13.558  32.464  17.515  1.00  0.00     0.345 HD
ATOM      7  H   UNL     1     -13.344  31.826  19.071  1.00  0.00     0.345 HD
ENDBRANCH   3   4
BRANCH   3   8
ATOM      8  C   UNL     1     -15.639  32.107  20.064  1.00  0.00     0.099 C 
ATOM      9  O   UNL     1     -14.895  31.353  20.746  1.00  0.00    -0.544 OA
ATOM     10  O   UNL     1     -16.800  32.615  20.632  1.00  0.00    -0.544 OA
ENDBRANCH   3   8
ENDBRANCH   1   3
BRANCH   1  11
ATOM     11  C   UNL     1     -16.130  32.404  16.165  1.00  0.00     0.006 C 
ATOM     12  C   UNL     1     -17.307  32.138  15.226  1.00  0.00     0.004 C 
ENDBRANCH   1  11
TORSDOF 4
ENDMDL
MODEL 8
REMARK VINA RESULT:    -3.503      2.948      3.715
REMARK INTER + INTRA:          -4.255
REMARK INTER:                  -4.132
REMARK INTRA:                  -0.123
REMARK UNBOUND:                -0.035
REMARK SMILES CC[C@@H](C)[C@H]([NH3+])C(=O)[O-]
REMARK SMILES IDX 3 1 4 2 5 3 6 4 7 8 8 9 9 10 2 11 1 12
REMARK H PARENT 6 5 6 6 6 7
REMARK Flexibility Score: inf
ROOT
ATOM      1  C   UNL     1     -14.962  32.105  18.821  1.00  0.00     0.050 C 
ATOM      2  C   UNL     1     -14.271  30.931  19.539  1.00  0.00     0.014 C 
ENDROOT
BRANCH   1   3
ATOM      3  C   UNL     1     -16.160  31.588  17.961  1.00  0.00     0.230 C 
BRANCH   3   4
ATOM      4  N   UNL     1     -16.163  30.122  17.841  1.00  0.00    -0.350 N 
ATOM      5  H   UNL     1     -16.429  29.688  18.754  1.00  0.00     0.345 HD
ATOM      6  H   UNL     1     -16.870  29.833  17.128  1.00  0.00     0.345 HD
ATOM      7  H   UNL     1     -15.229  29.756  17.546  1.00  0.00     0.345 HD
ENDBRANCH   3   4
BRANCH   3   8
ATOM      8  C   UNL     1     -16.223  32.242  16.601  1.00  0.00     0.099 C 
ATOM      9  O   UNL     1     -15.394  33.132  16.274  1.00  0.00    -0.544 OA
ATOM     10  O   UNL     1     -17.227  31.884  15.710  1.00  0.00    -0.544 OA
ENDBRANCH   3   8
ENDBRANCH   1   3
BRANCH   1  11
ATOM     11  C   UNL     1     -15.369  33.216  19.826  1.00  0.00     0.006 C 
ATOM     12  C   UNL     1     -14.667  34.547  19.556  1.00  0.00     0.004 C 
ENDBRANCH   1  11
TORSDOF 4
ENDMDL
MODEL 9
REMARK VINA RESULT:    -3.494      2.963      3.605
REMARK INTER + INTRA:          -4.244
REMARK INTER:                  -4.137
REMARK INTRA:                  -0.107
REMARK UNBOUND:                -0.035
REMARK SMILES CC[C@@H](C)[C@H]([NH3+])C(=O)[O-]
REMARK SMILES IDX 3 1 4 2 5 3 6 4 7 8 8 9 9 10 2 11 1 12
REMARK H PARENT 6 5 6 6 6 7
REMARK Flexibility Score: inf
ROOT
ATOM      1  C   UNL     1     -15.042  32.962  18.289  1.00  0.00     0.050 C 
ATOM      2  C   UNL     1     -14.925  34.449  18.676  1.00  0.00     0.014 C 
ENDROOT
BRANCH   1   3
ATOM      3  C   UNL     1     -15.475  32.822  16.795  1.00  0.00     0.230 C 
BRANCH   3   4
ATOM      4  N   UNL     1     -15.737  34.127  16.170  1.00  0.00    -0.350 N 
ATOM      5  H   UNL     1     -15.322  34.156  15.210  1.00  0.00     0.345 HD
ATOM      6  H   UNL     1     -16.769  34.269  16.080  1.00  0.00     0.345 HD
ATOM      7  H   UNL     1     -15.345  34.914  16.736  1.00  0.00     0.345 HD
ENDBRANCH   3   4
BRANCH   3   8
ATOM      8  C   UNL     1     -16.651  31.892  16.616  1.00  0.00     0.099 C 
ATOM      9  O   UNL     1     -17.586  32.181  15.822  1.00  0.00    -0.544 OA
ATOM     10  O   UNL     1     -16.725  30.721  17.360  1.00  0.00    -0.544 OA
ENDBRANCH   3   8
ENDBRANCH   1   3
BRANCH   1  11
ATOM     11  C   UNL     1     -13.736  32.192  18.619  1.00  0.00     0.006 C 
ATOM     12  C   UNL     1     -13.929  31.131  19.703  1.00  0.00     0.004 C 
ENDBRANCH   1  11
TORSDOF 4
ENDMDL
