MODEL 1
REMARK VINA RESULT:    -6.436      0.000      0.000
REMARK INTER + INTRA:          -8.061
REMARK INTER:                  -7.753
REMARK INTRA:                  -0.308
REMARK UNBOUND:                -0.308
REMARK SMILES COc1ccc([C@H]2CC(=O)c3c(O)cc(O)cc3O2)cc1O
REMARK SMILES IDX 7 1 8 2 9 3 10 4 11 5 12 6 14 7 15 8 17 9 18 10 19 11 6 12
REMARK SMILES IDX 3 13 21 14 4 15 20 16 5 17 2 18 1 19 22 20 13 22 16 24
REMARK H PARENT 22 21 13 23 16 25
REMARK Flexibility Score: inf
ROOT
ATOM      1  C   UNL     1      17.284  -0.899  34.011  1.00  0.00     0.211 C 
ATOM      2  C   UNL     1      17.380  -0.007  32.765  1.00  0.00     0.131 C 
ATOM      3  C   UNL     1      16.158   0.858  32.684  1.00  0.00     0.174 C 
ATOM      4  O   UNL     1      16.286   2.088  32.447  1.00  0.00    -0.294 OA
ATOM      5  C   UNL     1      14.832   0.248  32.953  1.00  0.00     0.102 A 
ATOM      6  C   UNL     1      13.596   0.819  32.550  1.00  0.00     0.133 A 
ATOM      7  C   UNL     1      12.397   0.195  32.915  1.00  0.00     0.093 A 
ATOM      8  C   UNL     1      12.402  -1.011  33.619  1.00  0.00     0.123 A 
ATOM      9  C   UNL     1      13.617  -1.600  33.977  1.00  0.00     0.093 A 
ATOM     10  C   UNL     1      14.825  -0.975  33.659  1.00  0.00     0.138 A 
ATOM     11  O   UNL     1      16.027  -1.583  34.044  1.00  0.00    -0.484 OA
ENDROOT
BRANCH   1  12
ATOM     12  C   UNL     1      18.417  -1.896  34.043  1.00  0.00    -0.003 A 
ATOM     13  C   UNL     1      20.555  -3.733  34.166  1.00  0.00     0.160 A 
ATOM     14  C   UNL     1      20.714  -2.502  33.503  1.00  0.00     0.158 A 
ATOM     15  C   UNL     1      19.320  -4.030  34.774  1.00  0.00     0.051 A 
ATOM     16  C   UNL     1      19.652  -1.592  33.449  1.00  0.00     0.057 A 
ATOM     17  C   UNL     1      18.264  -3.117  34.717  1.00  0.00     0.011 A 
BRANCH  13  18
ATOM     18  O   UNL     1      21.636  -4.628  34.203  1.00  0.00    -0.493 OA
ATOM     19  C   UNL     1      22.718  -4.548  35.125  1.00  0.00     0.278 C 
ENDBRANCH  13  18
BRANCH  14  20
ATOM     20  O   UNL     1      21.921  -2.164  32.893  1.00  0.00    -0.504 OA
ATOM     21  H   UNL     1      22.204  -1.202  32.752  1.00  0.00     0.293 HD
ENDBRANCH  14  20
ENDBRANCH   1  12
BRANCH   6  22
ATOM     22  O   UNL     1      13.507   1.972  31.766  1.00  0.00    -0.507 OA
ATOM     23  H   UNL     1      13.610   1.980  30.762  1.00  0.00     0.293 HD
ENDBRANCH   6  22
BRANCH   8  24
ATOM     24  O   UNL     1      11.193  -1.618  33.952  1.00  0.00    -0.508 OA
ATOM     25  H   UNL     1      11.137  -2.608  34.163  1.00  0.00     0.293 HD
ENDBRANCH   8  24
TORSDOF 5
ENDMDL
MODEL 2
REMARK VINA RESULT:    -6.135     15.184     17.435
REMARK INTER + INTRA:          -7.698
REMARK INTER:                  -7.352
REMARK INTRA:                  -0.347
REMARK UNBOUND:                -0.308
REMARK SMILES COc1ccc([C@H]2CC(=O)c3c(O)cc(O)cc3O2)cc1O
REMARK SMILES IDX 7 1 8 2 9 3 10 4 11 5 12 6 14 7 15 8 17 9 18 10 19 11 6 12
REMARK SMILES IDX 3 13 21 14 4 15 20 16 5 17 2 18 1 19 22 20 13 22 16 24
REMARK H PARENT 22 21 13 23 16 25
REMARK Flexibility Score: inf
ROOT
ATOM      1  C   UNL     1      20.349 -14.713  23.475  1.00  0.00     0.211 C 
ATOM      2  C   UNL     1      21.526 -13.799  23.845  1.00  0.00     0.131 C 
ATOM      3  C   UNL     1      22.057 -14.199  25.188  1.00  0.00     0.174 C 
ATOM      4  O   UNL     1      23.299 -14.326  25.349  1.00  0.00    -0.294 OA
ATOM      5  C   UNL     1      21.093 -14.500  26.277  1.00  0.00     0.102 A 
ATOM      6  C   UNL     1      21.429 -14.512  27.656  1.00  0.00     0.133 A 
ATOM      7  C   UNL     1      20.458 -14.875  28.598  1.00  0.00     0.093 A 
ATOM      8  C   UNL     1      19.151 -15.169  28.204  1.00  0.00     0.123 A 
ATOM      9  C   UNL     1      18.805 -15.113  26.851  1.00  0.00     0.093 A 
ATOM     10  C   UNL     1      19.767 -14.792  25.890  1.00  0.00     0.138 A 
ATOM     11  O   UNL     1      19.394 -14.757  24.540  1.00  0.00    -0.484 OA
ENDROOT
BRANCH   1  12
ATOM     12  C   UNL     1      19.685 -14.242  22.204  1.00  0.00    -0.003 A 
ATOM     13  C   UNL     1      18.498 -13.315  19.818  1.00  0.00     0.160 A 
ATOM     14  C   UNL     1      18.119 -12.770  21.058  1.00  0.00     0.158 A 
ATOM     15  C   UNL     1      19.484 -14.320  19.783  1.00  0.00     0.051 A 
ATOM     16  C   UNL     1      18.713 -13.229  22.238  1.00  0.00     0.057 A 
ATOM     17  C   UNL     1      20.074 -14.774  20.966  1.00  0.00     0.011 A 
BRANCH  13  18
ATOM     18  O   UNL     1      17.884 -12.836  18.650  1.00  0.00    -0.493 OA
ATOM     19  C   UNL     1      18.504 -12.799  17.368  1.00  0.00     0.278 C 
ENDBRANCH  13  18
BRANCH  14  20
ATOM     20  O   UNL     1      17.153 -11.767  21.138  1.00  0.00    -0.504 OA
ATOM     21  H   UNL     1      17.396 -10.789  21.230  1.00  0.00     0.293 HD
ENDBRANCH  14  20
ENDBRANCH   1  12
BRANCH   6  22
ATOM     22  O   UNL     1      22.685 -14.142  28.140  1.00  0.00    -0.507 OA
ATOM     23  H   UNL     1      23.536 -14.652  27.951  1.00  0.00     0.293 HD
ENDBRANCH   6  22
BRANCH   8  24
ATOM     24  O   UNL     1      18.203 -15.510  29.165  1.00  0.00    -0.508 OA
ATOM     25  H   UNL     1      17.324 -15.012  29.243  1.00  0.00     0.293 HD
ENDBRANCH   8  24
TORSDOF 5
ENDMDL
MODEL 3
REMARK VINA RESULT:    -6.115     14.731     16.751
REMARK INTER + INTRA:          -7.674
REMARK INTER:                  -7.360
REMARK INTRA:                  -0.314
REMARK UNBOUND:                -0.308
REMARK SMILES COc1ccc([C@H]2CC(=O)c3c(O)cc(O)cc3O2)cc1O
REMARK SMILES IDX 7 1 8 2 9 3 10 4 11 5 12 6 14 7 15 8 17 9 18 10 19 11 6 12
REMARK SMILES IDX 3 13 21 14 4 15 20 16 5 17 2 18 1 19 22 20 13 22 16 24
REMARK H PARENT 22 21 13 23 16 25
REMARK Flexibility Score: inf
ROOT
ATOM      1  C   UNL     1      18.801 -14.310  24.701  1.00  0.00     0.211 C 
ATOM      2  C   UNL     1      19.021 -12.813  24.440  1.00  0.00     0.131 C 
ATOM      3  C   UNL     1      18.809 -12.531  22.983  1.00  0.00     0.174 C 
ATOM      4  O   UNL     1      18.101 -11.549  22.640  1.00  0.00    -0.294 OA
ATOM      5  C   UNL     1      19.389 -13.462  21.983  1.00  0.00     0.102 A 
ATOM      6  C   UNL     1      19.601 -13.135  20.618  1.00  0.00     0.133 A 
ATOM      7  C   UNL     1      20.093 -14.111  19.743  1.00  0.00     0.093 A 
ATOM      8  C   UNL     1      20.430 -15.385  20.207  1.00  0.00     0.123 A 
ATOM      9  C   UNL     1      20.267 -15.696  21.559  1.00  0.00     0.093 A 
ATOM     10  C   UNL     1      19.741 -14.751  22.443  1.00  0.00     0.138 A 
ATOM     11  O   UNL     1      19.575 -15.097  23.790  1.00  0.00    -0.484 OA
ENDROOT
BRANCH   1  12
ATOM     12  C   UNL     1      19.160 -14.662  26.124  1.00  0.00    -0.003 A 
ATOM     13  C   UNL     1      19.761 -15.316  28.802  1.00  0.00     0.160 A 
ATOM     14  C   UNL     1      19.853 -13.983  28.359  1.00  0.00     0.158 A 
ATOM     15  C   UNL     1      19.357 -16.314  27.896  1.00  0.00     0.051 A 
ATOM     16  C   UNL     1      19.549 -13.663  27.031  1.00  0.00     0.057 A 
ATOM     17  C   UNL     1      19.055 -15.988  26.571  1.00  0.00     0.011 A 
BRANCH  13  18
ATOM     18  O   UNL     1      20.074 -15.608  30.139  1.00  0.00    -0.493 OA
ATOM     19  C   UNL     1      19.157 -15.503  31.224  1.00  0.00     0.278 C 
ENDBRANCH  13  18
BRANCH  14  20
ATOM     20  O   UNL     1      20.242 -12.962  29.225  1.00  0.00    -0.504 OA
ATOM     21  H   UNL     1      21.145 -12.510  29.156  1.00  0.00     0.293 HD
ENDBRANCH  14  20
ENDBRANCH   1  12
BRANCH   6  22
ATOM     22  O   UNL     1      19.376 -11.859  20.095  1.00  0.00    -0.507 OA
ATOM     23  H   UNL     1      19.553 -11.003  20.600  1.00  0.00     0.293 HD
ENDBRANCH   6  22
BRANCH   8  24
ATOM     24  O   UNL     1      20.934 -16.329  19.317  1.00  0.00    -0.508 OA
ATOM     25  H   UNL     1      20.328 -16.837  18.683  1.00  0.00     0.293 HD
ENDBRANCH   8  24
TORSDOF 5
ENDMDL
MODEL 4
REMARK VINA RESULT:    -6.104     13.506     15.491
REMARK INTER + INTRA:          -7.661
REMARK INTER:                  -7.297
REMARK INTRA:                  -0.364
REMARK UNBOUND:                -0.308
REMARK SMILES COc1ccc([C@H]2CC(=O)c3c(O)cc(O)cc3O2)cc1O
REMARK SMILES IDX 7 1 8 2 9 3 10 4 11 5 12 6 14 7 15 8 17 9 18 10 19 11 6 12
REMARK SMILES IDX 3 13 21 14 4 15 20 16 5 17 2 18 1 19 22 20 13 22 16 24
REMARK H PARENT 22 21 13 23 16 25
REMARK Flexibility Score: inf
ROOT
ATOM      1  C   UNL     1      19.742 -14.065  25.868  1.00  0.00     0.211 C 
ATOM      2  C   UNL     1      19.085 -15.247  25.141  1.00  0.00     0.131 C 
ATOM      3  C   UNL     1      19.090 -14.981  23.666  1.00  0.00     0.174 C 
ATOM      4  O   UNL     1      19.459 -15.888  22.875  1.00  0.00    -0.294 OA
ATOM      5  C   UNL     1      18.721 -13.626  23.183  1.00  0.00     0.102 A 
ATOM      6  C   UNL     1      18.316 -13.338  21.853  1.00  0.00     0.133 A 
ATOM      7  C   UNL     1      18.054 -12.013  21.484  1.00  0.00     0.093 A 
ATOM      8  C   UNL     1      18.132 -10.979  22.420  1.00  0.00     0.123 A 
ATOM      9  C   UNL     1      18.485 -11.266  23.742  1.00  0.00     0.093 A 
ATOM     10  C   UNL     1      18.789 -12.575  24.123  1.00  0.00     0.138 A 
ATOM     11  O   UNL     1      19.154 -12.829  25.452  1.00  0.00    -0.484 OA
ENDROOT
BRANCH   1  12
ATOM     12  C   UNL     1      19.614 -14.220  27.364  1.00  0.00    -0.003 A 
ATOM     13  C   UNL     1      19.439 -14.480  30.169  1.00  0.00     0.160 A 
ATOM     14  C   UNL     1      19.930 -15.542  29.386  1.00  0.00     0.158 A 
ATOM     15  C   UNL     1      19.047 -13.285  29.535  1.00  0.00     0.051 A 
ATOM     16  C   UNL     1      20.019 -15.407  27.996  1.00  0.00     0.057 A 
ATOM     17  C   UNL     1      19.140 -13.157  28.147  1.00  0.00     0.011 A 
BRANCH  13  18
ATOM     18  O   UNL     1      19.359 -14.645  31.560  1.00  0.00    -0.493 OA
ATOM     19  C   UNL     1      20.220 -14.009  32.499  1.00  0.00     0.278 C 
ENDBRANCH  13  18
BRANCH  14  20
ATOM     20  O   UNL     1      20.336 -16.740  29.973  1.00  0.00    -0.504 OA
ATOM     21  H   UNL     1      20.927 -17.406  29.489  1.00  0.00     0.293 HD
ENDBRANCH  14  20
ENDBRANCH   1  12
BRANCH   6  22
ATOM     22  O   UNL     1      18.125 -14.324  20.882  1.00  0.00    -0.507 OA
ATOM     23  H   UNL     1      18.568 -14.316  19.975  1.00  0.00     0.293 HD
ENDBRANCH   6  22
BRANCH   8  24
ATOM     24  O   UNL     1      17.848  -9.674  22.028  1.00  0.00    -0.508 OA
ATOM     25  H   UNL     1      17.029  -9.183  22.369  1.00  0.00     0.293 HD
ENDBRANCH   8  24
TORSDOF 5
ENDMDL
MODEL 5
REMARK VINA RESULT:    -6.084     12.521     15.451
REMARK INTER + INTRA:          -7.637
REMARK INTER:                  -7.300
REMARK INTRA:                  -0.338
REMARK UNBOUND:                -0.308
REMARK SMILES COc1ccc([C@H]2CC(=O)c3c(O)cc(O)cc3O2)cc1O
REMARK SMILES IDX 7 1 8 2 9 3 10 4 11 5 12 6 14 7 15 8 17 9 18 10 19 11 6 12
REMARK SMILES IDX 3 13 21 14 4 15 20 16 5 17 2 18 1 19 22 20 13 22 16 24
REMARK H PARENT 22 21 13 23 16 25
REMARK Flexibility Score: inf
ROOT
ATOM      1  C   UNL     1      19.644 -14.375  27.195  1.00  0.00     0.211 C 
ATOM      2  C   UNL     1      21.171 -14.530  27.221  1.00  0.00     0.131 C 
ATOM      3  C   UNL     1      21.649 -14.459  28.640  1.00  0.00     0.174 C 
ATOM      4  O   UNL     1      22.475 -15.312  29.058  1.00  0.00    -0.294 OA
ATOM      5  C   UNL     1      21.080 -13.419  29.534  1.00  0.00     0.102 A 
ATOM      6  C   UNL     1      21.688 -12.989  30.743  1.00  0.00     0.133 A 
ATOM      7  C   UNL     1      21.032 -12.049  31.547  1.00  0.00     0.093 A 
ATOM      8  C   UNL     1      19.817 -11.487  31.149  1.00  0.00     0.123 A 
ATOM      9  C   UNL     1      19.239 -11.874  29.937  1.00  0.00     0.093 A 
ATOM     10  C   UNL     1      19.855 -12.839  29.137  1.00  0.00     0.138 A 
ATOM     11  O   UNL     1      19.244 -13.217  27.934  1.00  0.00    -0.484 OA
ENDROOT
BRANCH   1  12
ATOM     12  C   UNL     1      19.141 -14.281  25.775  1.00  0.00    -0.003 A 
ATOM     13  C   UNL     1      18.147 -14.064  23.143  1.00  0.00     0.160 A 
ATOM     14  C   UNL     1      17.766 -15.145  23.959  1.00  0.00     0.158 A 
ATOM     15  C   UNL     1      19.021 -13.089  23.661  1.00  0.00     0.051 A 
ATOM     16  C   UNL     1      18.257 -15.246  25.265  1.00  0.00     0.057 A 
ATOM     17  C   UNL     1      19.508 -13.195  24.966  1.00  0.00     0.011 A 
BRANCH  13  18
ATOM     18  O   UNL     1      17.639 -13.989  21.836  1.00  0.00    -0.493 OA
ATOM     19  C   UNL     1      18.024 -13.010  20.876  1.00  0.00     0.278 C 
ENDBRANCH  13  18
BRANCH  14  20
ATOM     20  O   UNL     1      16.896 -16.129  23.490  1.00  0.00    -0.504 OA
ATOM     21  H   UNL     1      16.908 -16.446  22.528  1.00  0.00     0.293 HD
ENDBRANCH  14  20
ENDBRANCH   1  12
BRANCH   6  22
ATOM     22  O   UNL     1      22.943 -13.432  31.167  1.00  0.00    -0.507 OA
ATOM     23  H   UNL     1      23.674 -12.821  31.501  1.00  0.00     0.293 HD
ENDBRANCH   6  22
BRANCH   8  24
ATOM     24  O   UNL     1      19.198 -10.541  31.961  1.00  0.00    -0.508 OA
ATOM     25  H   UNL     1      18.475  -9.926  31.604  1.00  0.00     0.293 HD
ENDBRANCH   8  24
TORSDOF 5
ENDMDL
MODEL 6
REMARK VINA RESULT:    -6.080     13.909     15.595
REMARK INTER + INTRA:          -7.632
REMARK INTER:                  -7.249
REMARK INTRA:                  -0.383
REMARK UNBOUND:                -0.308
REMARK SMILES COc1ccc([C@H]2CC(=O)c3c(O)cc(O)cc3O2)cc1O
REMARK SMILES IDX 7 1 8 2 9 3 10 4 11 5 12 6 14 7 15 8 17 9 18 10 19 11 6 12
REMARK SMILES IDX 3 13 21 14 4 15 20 16 5 17 2 18 1 19 22 20 13 22 16 24
REMARK H PARENT 22 21 13 23 16 25
REMARK Flexibility Score: inf
ROOT
ATOM      1  C   UNL     1      19.806 -14.038  24.825  1.00  0.00     0.211 C 
ATOM      2  C   UNL     1      19.045 -14.820  23.744  1.00  0.00     0.131 C 
ATOM      3  C   UNL     1      18.882 -13.953  22.533  1.00  0.00     0.174 C 
ATOM      4  O   UNL     1      19.138 -14.427  21.395  1.00  0.00    -0.294 OA
ATOM      5  C   UNL     1      18.486 -12.535  22.717  1.00  0.00     0.102 A 
ATOM      6  C   UNL     1      17.933 -11.722  21.692  1.00  0.00     0.133 A 
ATOM      7  C   UNL     1      17.656 -10.375  21.955  1.00  0.00     0.093 A 
ATOM      8  C   UNL     1      17.863  -9.835  23.226  1.00  0.00     0.123 A 
ATOM      9  C   UNL     1      18.364 -10.644  24.250  1.00  0.00     0.093 A 
ATOM     10  C   UNL     1      18.684 -11.980  24.001  1.00  0.00     0.138 A 
ATOM     11  O   UNL     1      19.198 -12.762  25.044  1.00  0.00    -0.484 OA
ENDROOT
BRANCH   1  12
ATOM     12  C   UNL     1      19.852 -14.818  26.117  1.00  0.00    -0.003 A 
ATOM     13  C   UNL     1      19.882 -16.317  28.507  1.00  0.00     0.160 A 
ATOM     14  C   UNL     1      19.147 -15.120  28.429  1.00  0.00     0.158 A 
ATOM     15  C   UNL     1      20.592 -16.761  27.375  1.00  0.00     0.051 A 
ATOM     16  C   UNL     1      19.131 -14.383  27.240  1.00  0.00     0.057 A 
ATOM     17  C   UNL     1      20.572 -16.020  26.191  1.00  0.00     0.011 A 
BRANCH  13  18
ATOM     18  O   UNL     1      19.882 -17.035  29.713  1.00  0.00    -0.493 OA
ATOM     19  C   UNL     1      20.954 -17.037  30.652  1.00  0.00     0.278 C 
ENDBRANCH  13  18
BRANCH  14  20
ATOM     20  O   UNL     1      18.424 -14.647  29.523  1.00  0.00    -0.504 OA
ATOM     21  H   UNL     1      17.727 -13.918  29.436  1.00  0.00     0.293 HD
ENDBRANCH  14  20
ENDBRANCH   1  12
BRANCH   6  22
ATOM     22  O   UNL     1      17.610 -12.209  20.423  1.00  0.00    -0.507 OA
ATOM     23  H   UNL     1      17.679 -11.664  19.576  1.00  0.00     0.293 HD
ENDBRANCH   6  22
BRANCH   8  24
ATOM     24  O   UNL     1      17.561  -8.496  23.461  1.00  0.00    -0.508 OA
ATOM     25  H   UNL     1      16.717  -8.071  23.096  1.00  0.00     0.293 HD
ENDBRANCH   8  24
TORSDOF 5
ENDMDL
MODEL 7
REMARK VINA RESULT:    -6.034     15.112     17.346
REMARK INTER + INTRA:          -7.577
REMARK INTER:                  -7.205
REMARK INTRA:                  -0.372
REMARK UNBOUND:                -0.308
REMARK SMILES COc1ccc([C@H]2CC(=O)c3c(O)cc(O)cc3O2)cc1O
REMARK SMILES IDX 7 1 8 2 9 3 10 4 11 5 12 6 14 7 15 8 17 9 18 10 19 11 6 12
REMARK SMILES IDX 3 13 21 14 4 15 20 16 5 17 2 18 1 19 22 20 13 22 16 24
REMARK H PARENT 22 21 13 23 16 25
REMARK Flexibility Score: inf
ROOT
ATOM      1  C   UNL     1      22.157 -13.920  23.633  1.00  0.00     0.211 C 
ATOM      2  C   UNL     1      22.549 -15.175  22.840  1.00  0.00     0.131 C 
ATOM      3  C   UNL     1      22.228 -14.961  21.391  1.00  0.00     0.174 C 
ATOM      4  O   UNL     1      23.083 -15.262  20.518  1.00  0.00    -0.294 OA
ATOM      5  C   UNL     1      20.930 -14.337  21.031  1.00  0.00     0.102 A 
ATOM      6  C   UNL     1      20.335 -14.421  19.745  1.00  0.00     0.133 A 
ATOM      7  C   UNL     1      19.139 -13.738  19.492  1.00  0.00     0.093 A 
ATOM      8  C   UNL     1      18.496 -13.022  20.504  1.00  0.00     0.123 A 
ATOM      9  C   UNL     1      19.055 -12.975  21.784  1.00  0.00     0.093 A 
ATOM     10  C   UNL     1      20.267 -13.616  22.049  1.00  0.00     0.138 A 
ATOM     11  O   UNL     1      20.809 -13.540  23.338  1.00  0.00    -0.484 OA
ENDROOT
BRANCH   1  12
ATOM     12  C   UNL     1      22.316 -14.154  25.116  1.00  0.00    -0.003 A 
ATOM     13  C   UNL     1      22.635 -14.659  27.873  1.00  0.00     0.160 A 
ATOM     14  C   UNL     1      21.380 -14.830  27.261  1.00  0.00     0.158 A 
ATOM     15  C   UNL     1      23.730 -14.243  27.091  1.00  0.00     0.051 A 
ATOM     16  C   UNL     1      21.228 -14.583  25.892  1.00  0.00     0.057 A 
ATOM     17  C   UNL     1      23.570 -13.999  25.724  1.00  0.00     0.011 A 
BRANCH  13  18
ATOM     18  O   UNL     1      22.758 -14.912  29.249  1.00  0.00    -0.493 OA
ATOM     19  C   UNL     1      22.712 -13.911  30.261  1.00  0.00     0.278 C 
ENDBRANCH  13  18
BRANCH  14  20
ATOM     20  O   UNL     1      20.271 -15.248  27.996  1.00  0.00    -0.504 OA
ATOM     21  H   UNL     1      19.876 -16.175  27.899  1.00  0.00     0.293 HD
ENDBRANCH  14  20
ENDBRANCH   1  12
BRANCH   6  22
ATOM     22  O   UNL     1      20.866 -15.190  18.707  1.00  0.00    -0.507 OA
ATOM     23  H   UNL     1      20.659 -16.168  18.566  1.00  0.00     0.293 HD
ENDBRANCH   6  22
BRANCH   8  24
ATOM     24  O   UNL     1      17.298 -12.367  20.228  1.00  0.00    -0.508 OA
ATOM     25  H   UNL     1      17.195 -11.368  20.369  1.00  0.00     0.293 HD
ENDBRANCH   8  24
TORSDOF 5
ENDMDL
MODEL 8
REMARK VINA RESULT:    -5.967     12.693     15.098
REMARK INTER + INTRA:          -7.496
REMARK INTER:                  -7.136
REMARK INTRA:                  -0.360
REMARK UNBOUND:                -0.308
REMARK SMILES COc1ccc([C@H]2CC(=O)c3c(O)cc(O)cc3O2)cc1O
REMARK SMILES IDX 7 1 8 2 9 3 10 4 11 5 12 6 14 7 15 8 17 9 18 10 19 11 6 12
REMARK SMILES IDX 3 13 21 14 4 15 20 16 5 17 2 18 1 19 22 20 13 22 16 24
REMARK H PARENT 22 21 13 23 16 25
REMARK Flexibility Score: inf
ROOT
ATOM      1  C   UNL     1      19.788 -14.654  27.819  1.00  0.00     0.211 C 
ATOM      2  C   UNL     1      18.684 -15.719  27.743  1.00  0.00     0.131 C 
ATOM      3  C   UNL     1      18.526 -16.162  26.319  1.00  0.00     0.174 C 
ATOM      4  O   UNL     1      18.457 -17.391  26.059  1.00  0.00    -0.294 OA
ATOM      5  C   UNL     1      18.521 -15.135  25.248  1.00  0.00     0.102 A 
ATOM      6  C   UNL     1      18.010 -15.349  23.941  1.00  0.00     0.133 A 
ATOM      7  C   UNL     1      18.116 -14.333  22.983  1.00  0.00     0.093 A 
ATOM      8  C   UNL     1      18.666 -13.092  23.313  1.00  0.00     0.123 A 
ATOM      9  C   UNL     1      19.128 -12.861  24.612  1.00  0.00     0.093 A 
ATOM     10  C   UNL     1      19.069 -13.874  25.572  1.00  0.00     0.138 A 
ATOM     11  O   UNL     1      19.552 -13.617  26.862  1.00  0.00    -0.484 OA
ENDROOT
BRANCH   1  12
ATOM     12  C   UNL     1      19.869 -14.068  29.208  1.00  0.00    -0.003 A 
ATOM     13  C   UNL     1      19.957 -13.004  31.820  1.00  0.00     0.160 A 
ATOM     14  C   UNL     1      19.411 -12.250  30.765  1.00  0.00     0.158 A 
ATOM     15  C   UNL     1      20.449 -14.297  31.557  1.00  0.00     0.051 A 
ATOM     16  C   UNL     1      19.364 -12.784  29.472  1.00  0.00     0.057 A 
ATOM     17  C   UNL     1      20.399 -14.824  30.264  1.00  0.00     0.011 A 
BRANCH  13  18
ATOM     18  O   UNL     1      19.993 -12.442  33.106  1.00  0.00    -0.493 OA
ATOM     19  C   UNL     1      20.817 -12.911  34.169  1.00  0.00     0.278 C 
ENDBRANCH  13  18
BRANCH  14  20
ATOM     20  O   UNL     1      18.906 -10.969  30.981  1.00  0.00    -0.504 OA
ATOM     21  H   UNL     1      19.159 -10.418  31.793  1.00  0.00     0.293 HD
ENDBRANCH  14  20
ENDBRANCH   1  12
BRANCH   6  22
ATOM     22  O   UNL     1      17.363 -16.527  23.558  1.00  0.00    -0.507 OA
ATOM     23  H   UNL     1      16.378 -16.700  23.696  1.00  0.00     0.293 HD
ENDBRANCH   6  22
BRANCH   8  24
ATOM     24  O   UNL     1      18.742 -12.095  22.345  1.00  0.00    -0.508 OA
ATOM     25  H   UNL     1      17.925 -11.800  21.822  1.00  0.00     0.293 HD
ENDBRANCH   8  24
TORSDOF 5
ENDMDL
MODEL 9
REMARK VINA RESULT:    -5.880     12.737     15.496
REMARK INTER + INTRA:          -7.391
REMARK INTER:                  -6.996
REMARK INTRA:                  -0.395
REMARK UNBOUND:                -0.308
REMARK SMILES COc1ccc([C@H]2CC(=O)c3c(O)cc(O)cc3O2)cc1O
REMARK SMILES IDX 7 1 8 2 9 3 10 4 11 5 12 6 14 7 15 8 17 9 18 10 19 11 6 12
REMARK SMILES IDX 3 13 21 14 4 15 20 16 5 17 2 18 1 19 22 20 13 22 16 24
REMARK H PARENT 22 21 13 23 16 25
REMARK Flexibility Score: inf
ROOT
ATOM      1  C   UNL     1      19.579 -14.296  26.447  1.00  0.00     0.211 C 
ATOM      2  C   UNL     1      21.016 -14.729  26.773  1.00  0.00     0.131 C 
ATOM      3  C   UNL     1      21.133 -14.970  28.248  1.00  0.00     0.174 C 
ATOM      4  O   UNL     1      21.703 -16.015  28.660  1.00  0.00    -0.294 OA
ATOM      5  C   UNL     1      20.513 -13.998  29.183  1.00  0.00     0.102 A 
ATOM      6  C   UNL     1      20.858 -13.882  30.555  1.00  0.00     0.133 A 
ATOM      7  C   UNL     1      20.163 -12.976  31.366  1.00  0.00     0.093 A 
ATOM      8  C   UNL     1      19.175 -12.147  30.831  1.00  0.00     0.123 A 
ATOM      9  C   UNL     1      18.865 -12.226  29.470  1.00  0.00     0.093 A 
ATOM     10  C   UNL     1      19.518 -13.150  28.650  1.00  0.00     0.138 A 
ATOM     11  O   UNL     1      19.175 -13.216  27.294  1.00  0.00    -0.484 OA
ENDROOT
BRANCH   1  12
ATOM     12  C   UNL     1      19.460 -13.890  24.998  1.00  0.00    -0.003 A 
ATOM     13  C   UNL     1      19.301 -13.098  22.294  1.00  0.00     0.160 A 
ATOM     14  C   UNL     1      18.713 -12.310  23.300  1.00  0.00     0.158 A 
ATOM     15  C   UNL     1      19.977 -14.280  22.655  1.00  0.00     0.051 A 
ATOM     16  C   UNL     1      18.799 -12.704  24.640  1.00  0.00     0.057 A 
ATOM     17  C   UNL     1      20.059 -14.667  23.995  1.00  0.00     0.011 A 
BRANCH  13  18
ATOM     18  O   UNL     1      19.198 -12.680  20.958  1.00  0.00    -0.493 OA
ATOM     19  C   UNL     1      18.225 -13.159  20.035  1.00  0.00     0.278 C 
ENDBRANCH  13  18
BRANCH  14  20
ATOM     20  O   UNL     1      18.041 -11.129  22.988  1.00  0.00    -0.504 OA
ATOM     21  H   UNL     1      18.478 -10.380  22.465  1.00  0.00     0.293 HD
ENDBRANCH  14  20
ENDBRANCH   1  12
BRANCH   6  22
ATOM     22  O   UNL     1      21.895 -14.607  31.146  1.00  0.00    -0.507 OA
ATOM     23  H   UNL     1      22.820 -14.694  30.750  1.00  0.00     0.293 HD
ENDBRANCH   6  22
BRANCH   8  24
ATOM     24  O   UNL     1      18.513 -11.244  31.658  1.00  0.00    -0.508 OA
ATOM     25  H   UNL     1      18.889 -10.321  31.844  1.00  0.00     0.293 HD
ENDBRANCH   8  24
TORSDOF 5
ENDMDL
