MODEL 1
REMARK VINA RESULT:    -3.668      0.000      0.000
REMARK INTER + INTRA:          -5.249
REMARK INTER:                  -4.526
REMARK INTRA:                  -0.723
REMARK UNBOUND:                -0.723
REMARK SMILES C=CC(=C)CCC=C(C)C
REMARK SMILES IDX 5 1 6 2 7 3 9 4 8 5 10 6 3 7 4 8 2 9 1 10
REMARK H PARENT
REMARK Flexibility Score: inf
ROOT
ATOM      1  C   UNL     1     137.997 140.710 132.522  1.00  0.00     0.039 C 
ENDROOT
BRANCH   1   2
ATOM      2  C   UNL     1     138.765 139.425 132.191  1.00  0.00     0.032 C 
BRANCH   2   3
ATOM      3  C   UNL     1     139.529 139.578 130.899  1.00  0.00    -0.028 C 
ATOM      4  C   UNL     1     140.016 139.279 128.509  1.00  0.00     0.039 C 
ATOM      5  C   UNL     1     139.125 139.083 129.709  1.00  0.00    -0.080 C 
ATOM      6  C   UNL     1     137.807 138.360 129.548  1.00  0.00     0.039 C 
ENDBRANCH   2   3
ENDBRANCH   1   2
BRANCH   1   7
ATOM      7  C   UNL     1     136.527 140.555 132.198  1.00  0.00    -0.055 C 
ATOM      8  C   UNL     1     135.790 139.703 132.921  1.00  0.00     0.012 C 
BRANCH   7   9
ATOM      9  C   UNL     1     135.880 141.281 131.075  1.00  0.00    -0.005 C 
ATOM     10  C   UNL     1     134.921 140.763 130.307  1.00  0.00     0.009 C 
ENDBRANCH   7   9
ENDBRANCH   1   7
TORSDOF 4
ENDMDL
MODEL 2
REMARK VINA RESULT:    -3.663      3.563      5.053
REMARK INTER + INTRA:          -5.243
REMARK INTER:                  -4.527
REMARK INTRA:                  -0.715
REMARK UNBOUND:                -0.723
REMARK SMILES C=CC(=C)CCC=C(C)C
REMARK SMILES IDX 5 1 6 2 7 3 9 4 8 5 10 6 3 7 4 8 2 9 1 10
REMARK H PARENT
REMARK Flexibility Score: inf
ROOT
ATOM      1  C   UNL     1     133.216 138.135 132.596  1.00  0.00     0.039 C 
ENDROOT
BRANCH   1   2
ATOM      2  C   UNL     1     134.524 138.775 132.118  1.00  0.00     0.032 C 
BRANCH   2   3
ATOM      3  C   UNL     1     134.302 139.560 130.850  1.00  0.00    -0.028 C 
ATOM      4  C   UNL     1     134.393 140.041 128.441  1.00  0.00     0.039 C 
ATOM      5  C   UNL     1     134.639 139.127 129.615  1.00  0.00    -0.080 C 
ATOM      6  C   UNL     1     135.235 137.758 129.380  1.00  0.00     0.039 C 
ENDBRANCH   2   3
ENDBRANCH   1   2
BRANCH   1   7
ATOM      7  C   UNL     1     133.222 136.645 132.335  1.00  0.00    -0.055 C 
ATOM      8  C   UNL     1     133.992 135.855 133.093  1.00  0.00     0.012 C 
BRANCH   7   9
ATOM      9  C   UNL     1     132.437 136.028 131.234  1.00  0.00    -0.005 C 
ATOM     10  C   UNL     1     132.887 135.038 130.462  1.00  0.00     0.009 C 
ENDBRANCH   7   9
ENDBRANCH   1   7
TORSDOF 4
ENDMDL
MODEL 3
REMARK VINA RESULT:    -3.657      3.351      4.937
REMARK INTER + INTRA:          -5.236
REMARK INTER:                  -4.939
REMARK INTRA:                  -0.297
REMARK UNBOUND:                -0.723
REMARK SMILES C=CC(=C)CCC=C(C)C
REMARK SMILES IDX 5 1 6 2 7 3 9 4 8 5 10 6 3 7 4 8 2 9 1 10
REMARK H PARENT
REMARK Flexibility Score: inf
ROOT
ATOM      1  C   UNL     1     133.240 138.142 132.613  1.00  0.00     0.039 C 
ENDROOT
BRANCH   1   2
ATOM      2  C   UNL     1     134.152 138.892 131.636  1.00  0.00     0.032 C 
BRANCH   2   3
ATOM      3  C   UNL     1     135.463 139.245 132.293  1.00  0.00    -0.028 C 
ATOM      4  C   UNL     1     137.535 140.511 132.673  1.00  0.00     0.039 C 
ATOM      5  C   UNL     1     136.226 140.308 131.955  1.00  0.00    -0.080 C 
ATOM      6  C   UNL     1     135.796 141.297 130.896  1.00  0.00     0.039 C 
ENDBRANCH   2   3
ENDBRANCH   1   2
BRANCH   1   7
ATOM      7  C   UNL     1     133.255 136.656 132.328  1.00  0.00    -0.055 C 
ATOM      8  C   UNL     1     134.022 135.858 133.081  1.00  0.00     0.012 C 
BRANCH   7   9
ATOM      9  C   UNL     1     132.484 136.054 131.209  1.00  0.00    -0.005 C 
ATOM     10  C   UNL     1     132.916 135.031 130.472  1.00  0.00     0.009 C 
ENDBRANCH   7   9
ENDBRANCH   1   7
TORSDOF 4
ENDMDL
MODEL 4
REMARK VINA RESULT:    -3.653      5.363      7.379
REMARK INTER + INTRA:          -5.230
REMARK INTER:                  -4.923
REMARK INTRA:                  -0.308
REMARK UNBOUND:                -0.723
REMARK SMILES C=CC(=C)CCC=C(C)C
REMARK SMILES IDX 5 1 6 2 7 3 9 4 8 5 10 6 3 7 4 8 2 9 1 10
REMARK H PARENT
REMARK Flexibility Score: inf
ROOT
ATOM      1  C   UNL     1     135.511 133.269 132.704  1.00  0.00     0.039 C 
ENDROOT
BRANCH   1   2
ATOM      2  C   UNL     1     134.777 134.163 131.698  1.00  0.00     0.032 C 
BRANCH   2   3
ATOM      3  C   UNL     1     134.442 135.497 132.315  1.00  0.00    -0.028 C 
ATOM      4  C   UNL     1     133.198 137.592 132.640  1.00  0.00     0.039 C 
ATOM      5  C   UNL     1     133.383 136.259 131.962  1.00  0.00    -0.080 C 
ATOM      6  C   UNL     1     132.381 135.805 130.926  1.00  0.00     0.039 C 
ENDBRANCH   2   3
ENDBRANCH   1   2
BRANCH   1   7
ATOM      7  C   UNL     1     137.000 133.268 132.434  1.00  0.00    -0.055 C 
ATOM      8  C   UNL     1     137.797 134.034 133.188  1.00  0.00     0.012 C 
BRANCH   7   9
ATOM      9  C   UNL     1     137.606 132.480 131.330  1.00  0.00    -0.005 C 
ATOM     10  C   UNL     1     138.536 132.954 130.499  1.00  0.00     0.009 C 
ENDBRANCH   7   9
ENDBRANCH   1   7
TORSDOF 4
ENDMDL
MODEL 5
REMARK VINA RESULT:    -3.631      5.610      7.240
REMARK INTER + INTRA:          -5.203
REMARK INTER:                  -4.501
REMARK INTRA:                  -0.702
REMARK UNBOUND:                -0.723
REMARK SMILES C=CC(=C)CCC=C(C)C
REMARK SMILES IDX 5 1 6 2 7 3 9 4 8 5 10 6 3 7 4 8 2 9 1 10
REMARK H PARENT
REMARK Flexibility Score: inf
ROOT
ATOM      1  C   UNL     1     135.587 133.113 132.503  1.00  0.00     0.039 C 
ENDROOT
BRANCH   1   2
ATOM      2  C   UNL     1     134.922 134.441 132.124  1.00  0.00     0.032 C 
BRANCH   2   3
ATOM      3  C   UNL     1     134.130 134.298 130.849  1.00  0.00    -0.028 C 
ATOM      4  C   UNL     1     133.641 134.524 128.451  1.00  0.00     0.039 C 
ATOM      5  C   UNL     1     134.562 134.695 129.632  1.00  0.00    -0.080 C 
ATOM      6  C   UNL     1     135.938 135.287 129.424  1.00  0.00     0.039 C 
ENDBRANCH   2   3
ENDBRANCH   1   2
BRANCH   1   7
ATOM      7  C   UNL     1     137.084 133.186 132.298  1.00  0.00    -0.055 C 
ATOM      8  C   UNL     1     137.814 133.960 133.110  1.00  0.00     0.012 C 
BRANCH   7   9
ATOM      9  C   UNL     1     137.771 132.463 131.196  1.00  0.00    -0.005 C 
ATOM     10  C   UNL     1     138.715 133.004 130.425  1.00  0.00     0.009 C 
ENDBRANCH   7   9
ENDBRANCH   1   7
TORSDOF 4
ENDMDL
MODEL 6
REMARK VINA RESULT:    -3.603      2.582      4.050
REMARK INTER + INTRA:          -5.169
REMARK INTER:                  -4.404
REMARK INTRA:                  -0.765
REMARK UNBOUND:                -0.723
REMARK SMILES C=CC(=C)CCC=C(C)C
REMARK SMILES IDX 5 1 6 2 7 3 9 4 8 5 10 6 3 7 4 8 2 9 1 10
REMARK H PARENT
REMARK Flexibility Score: inf
ROOT
ATOM      1  C   UNL     1     140.478 139.172 130.473  1.00  0.00     0.039 C 
ENDROOT
BRANCH   1   2
ATOM      2  C   UNL     1     141.019 137.754 130.685  1.00  0.00     0.032 C 
BRANCH   2   3
ATOM      3  C   UNL     1     140.950 137.369 132.142  1.00  0.00    -0.028 C 
ATOM      4  C   UNL     1     140.326 136.018 134.098  1.00  0.00     0.039 C 
ATOM      5  C   UNL     1     140.352 136.250 132.609  1.00  0.00    -0.080 C 
ATOM      6  C   UNL     1     139.730 135.229 131.685  1.00  0.00     0.039 C 
ENDBRANCH   2   3
ENDBRANCH   1   2
BRANCH   1   7
ATOM      7  C   UNL     1     139.027 139.261 130.891  1.00  0.00    -0.055 C 
ATOM      8  C   UNL     1     138.110 138.571 130.202  1.00  0.00     0.012 C 
BRANCH   7   9
ATOM      9  C   UNL     1     138.574 140.124 132.013  1.00  0.00    -0.005 C 
ATOM     10  C   UNL     1     138.346 139.680 133.249  1.00  0.00     0.009 C 
ENDBRANCH   7   9
ENDBRANCH   1   7
TORSDOF 4
ENDMDL
MODEL 7
REMARK VINA RESULT:    -3.589      1.812      2.438
REMARK INTER + INTRA:          -5.152
REMARK INTER:                  -4.812
REMARK INTRA:                  -0.339
REMARK UNBOUND:                -0.723
REMARK SMILES C=CC(=C)CCC=C(C)C
REMARK SMILES IDX 5 1 6 2 7 3 9 4 8 5 10 6 3 7 4 8 2 9 1 10
REMARK H PARENT
REMARK Flexibility Score: inf
ROOT
ATOM      1  C   UNL     1     138.442 140.341 132.388  1.00  0.00     0.039 C 
ENDROOT
BRANCH   1   2
ATOM      2  C   UNL     1     138.823 139.271 131.359  1.00  0.00     0.032 C 
BRANCH   2   3
ATOM      3  C   UNL     1     139.176 137.974 132.043  1.00  0.00    -0.028 C 
ATOM      4  C   UNL     1     140.552 136.021 132.619  1.00  0.00     0.039 C 
ATOM      5  C   UNL     1     140.358 137.334 131.905  1.00  0.00    -0.080 C 
ATOM      6  C   UNL     1     141.484 137.903 131.073  1.00  0.00     0.039 C 
ENDBRANCH   2   3
ENDBRANCH   1   2
BRANCH   1   7
ATOM      7  C   UNL     1     136.944 140.554 132.411  1.00  0.00    -0.055 C 
ATOM      8  C   UNL     1     136.224 139.998 133.393  1.00  0.00     0.012 C 
BRANCH   7   9
ATOM      9  C   UNL     1     136.235 141.321 131.355  1.00  0.00    -0.005 C 
ATOM     10  C   UNL     1     135.247 140.825 130.609  1.00  0.00     0.009 C 
ENDBRANCH   7   9
ENDBRANCH   1   7
TORSDOF 4
ENDMDL
MODEL 8
REMARK VINA RESULT:    -3.554      4.294      5.976
REMARK INTER + INTRA:          -5.107
REMARK INTER:                  -4.776
REMARK INTRA:                  -0.332
REMARK UNBOUND:                -0.723
REMARK SMILES C=CC(=C)CCC=C(C)C
REMARK SMILES IDX 5 1 6 2 7 3 9 4 8 5 10 6 3 7 4 8 2 9 1 10
REMARK H PARENT
REMARK Flexibility Score: inf
ROOT
ATOM      1  C   UNL     1     140.417 135.503 132.399  1.00  0.00     0.039 C 
ENDROOT
BRANCH   1   2
ATOM      2  C   UNL     1     139.335 135.061 131.407  1.00  0.00     0.032 C 
BRANCH   2   3
ATOM      3  C   UNL     1     138.076 134.660 132.133  1.00  0.00    -0.028 C 
ATOM      4  C   UNL     1     136.134 133.262 132.693  1.00  0.00     0.039 C 
ATOM      5  C   UNL     1     137.404 133.508 131.918  1.00  0.00    -0.080 C 
ATOM      6  C   UNL     1     137.896 132.463 130.943  1.00  0.00     0.039 C 
ENDBRANCH   2   3
ENDBRANCH   1   2
BRANCH   1   7
ATOM      7  C   UNL     1     140.570 137.008 132.391  1.00  0.00    -0.055 C 
ATOM      8  C   UNL     1     139.969 137.727 133.347  1.00  0.00     0.012 C 
BRANCH   7   9
ATOM      9  C   UNL     1     141.327 137.724 131.331  1.00  0.00    -0.005 C 
ATOM     10  C   UNL     1     140.780 138.599 130.486  1.00  0.00     0.009 C 
ENDBRANCH   7   9
ENDBRANCH   1   7
TORSDOF 4
ENDMDL
MODEL 9
REMARK VINA RESULT:    -3.530      2.703      4.911
REMARK INTER + INTRA:          -5.078
REMARK INTER:                  -4.168
REMARK INTRA:                  -0.910
REMARK UNBOUND:                -0.723
REMARK SMILES C=CC(=C)CCC=C(C)C
REMARK SMILES IDX 5 1 6 2 7 3 9 4 8 5 10 6 3 7 4 8 2 9 1 10
REMARK H PARENT
REMARK Flexibility Score: inf
ROOT
ATOM      1  C   UNL     1     141.183 137.364 131.617  1.00  0.00     0.039 C 
ENDROOT
BRANCH   1   2
ATOM      2  C   UNL     1     140.165 138.010 130.671  1.00  0.00     0.032 C 
BRANCH   2   3
ATOM      3  C   UNL     1     139.582 139.258 131.286  1.00  0.00    -0.028 C 
ATOM      4  C   UNL     1     137.876 140.673 132.348  1.00  0.00     0.039 C 
ATOM      5  C   UNL     1     138.337 139.345 131.804  1.00  0.00    -0.080 C 
ATOM      6  C   UNL     1     137.410 138.153 131.866  1.00  0.00     0.039 C 
ENDBRANCH   2   3
ENDBRANCH   1   2
BRANCH   1   7
ATOM      7  C   UNL     1     140.524 136.300 132.468  1.00  0.00    -0.055 C 
ATOM      8  C   UNL     1     140.006 135.220 131.871  1.00  0.00     0.012 C 
BRANCH   7   9
ATOM      9  C   UNL     1     140.389 136.433 133.942  1.00  0.00    -0.005 C 
ATOM     10  C   UNL     1     140.127 137.581 134.566  1.00  0.00     0.009 C 
ENDBRANCH   7   9
ENDBRANCH   1   7
TORSDOF 4
ENDMDL
