MODEL 1
REMARK VINA RESULT:     1.378      0.000      0.000
REMARK INTER + INTRA:           1.647
REMARK INTER:                   1.942
REMARK INTRA:                  -0.295
REMARK UNBOUND:                -0.295
REMARK SMILES CCCCCCCCC(=O)[O-]
REMARK SMILES IDX 6 1 7 2 8 3 9 4 10 5 11 6 5 7 4 8 3 9 2 10 1 11
REMARK H PARENT
REMARK Flexibility Score: inf
ROOT
ATOM      1  C   UNL     1      14.002  44.837   9.243  1.00  0.00     0.000 C 
ENDROOT
BRANCH   1   2
ATOM      2  C   UNL     1      15.229  45.765   9.312  1.00  0.00     0.006 C 
BRANCH   2   3
ATOM      3  C   UNL     1      14.943  47.213   8.875  1.00  0.00     0.053 C 
BRANCH   3   4
ATOM      4  C   UNL     1      14.917  48.171  10.027  1.00  0.00     0.041 C 
ATOM      5  O   UNL     1      14.772  47.748  11.204  1.00  0.00    -0.550 OA
ATOM      6  O   UNL     1      15.086  49.532   9.803  1.00  0.00    -0.550 OA
ENDBRANCH   3   4
ENDBRANCH   2   3
ENDBRANCH   1   2
BRANCH   1   7
ATOM      7  C   UNL     1      14.359  43.353   9.413  1.00  0.00     0.000 C 
BRANCH   7   8
ATOM      8  C   UNL     1      13.109  42.520   9.722  1.00  0.00    -0.000 C 
BRANCH   8   9
ATOM      9  C   UNL     1      11.876  43.094   9.013  1.00  0.00    -0.000 C 
BRANCH   9  10
ATOM     10  C   UNL     1      10.776  42.035   8.879  1.00  0.00    -0.003 C 
ATOM     11  C   UNL     1      11.364  40.627   8.886  1.00  0.00     0.004 C 
ENDBRANCH   9  10
ENDBRANCH   8   9
ENDBRANCH   7   8
ENDBRANCH   1   7
TORSDOF 7
ENDMDL
MODEL 2
REMARK VINA RESULT:     1.622      7.718      8.603
REMARK INTER + INTRA:           1.991
REMARK INTER:                   1.447
REMARK INTRA:                   0.544
REMARK UNBOUND:                -0.295
REMARK SMILES CCCCCCCCC(=O)[O-]
REMARK SMILES IDX 6 1 7 2 8 3 9 4 10 5 11 6 5 7 4 8 3 9 2 10 1 11
REMARK H PARENT
REMARK Flexibility Score: inf
ROOT
ATOM      1  C   UNL     1       8.446  48.448   8.875  1.00  0.00     0.000 C 
ENDROOT
BRANCH   1   2
ATOM      2  C   UNL     1       7.399  47.326   9.003  1.00  0.00     0.006 C 
BRANCH   2   3
ATOM      3  C   UNL     1       7.456  46.568  10.342  1.00  0.00     0.053 C 
BRANCH   3   4
ATOM      4  C   UNL     1       7.624  47.482  11.518  1.00  0.00     0.041 C 
ATOM      5  O   UNL     1       6.652  47.721  12.282  1.00  0.00    -0.550 OA
ATOM      6  O   UNL     1       8.865  48.045  11.788  1.00  0.00    -0.550 OA
ENDBRANCH   3   4
ENDBRANCH   2   3
ENDBRANCH   1   2
BRANCH   1   7
ATOM      7  C   UNL     1       7.842  49.854   9.002  1.00  0.00     0.000 C 
BRANCH   7   8
ATOM      8  C   UNL     1       6.523  49.816   9.784  1.00  0.00    -0.000 C 
BRANCH   8   9
ATOM      9  C   UNL     1       5.335  50.153   8.876  1.00  0.00    -0.000 C 
BRANCH   9  10
ATOM     10  C   UNL     1       4.253  49.070   8.962  1.00  0.00    -0.003 C 
ATOM     11  C   UNL     1       4.235  48.419  10.342  1.00  0.00     0.004 C 
ENDBRANCH   9  10
ENDBRANCH   8   9
ENDBRANCH   7   8
ENDBRANCH   1   7
TORSDOF 7
ENDMDL
MODEL 3
REMARK VINA RESULT:     1.818      8.191      8.967
REMARK INTER + INTRA:           2.267
REMARK INTER:                   2.551
REMARK INTRA:                  -0.284
REMARK UNBOUND:                -0.295
REMARK SMILES CCCCCCCCC(=O)[O-]
REMARK SMILES IDX 6 1 7 2 8 3 9 4 10 5 11 6 5 7 4 8 3 9 2 10 1 11
REMARK H PARENT
REMARK Flexibility Score: inf
ROOT
ATOM      1  C   UNL     1       6.865  49.822   9.723  1.00  0.00     0.000 C 
ENDROOT
BRANCH   1   2
ATOM      2  C   UNL     1       8.111  49.503   8.875  1.00  0.00     0.006 C 
BRANCH   2   3
ATOM      3  C   UNL     1       8.673  48.088   9.099  1.00  0.00     0.053 C 
BRANCH   3   4
ATOM      4  C   UNL     1       7.776  47.236   9.946  1.00  0.00     0.041 C 
ATOM      5  O   UNL     1       7.785  47.353  11.200  1.00  0.00    -0.550 OA
ATOM      6  O   UNL     1       6.906  46.334   9.347  1.00  0.00    -0.550 OA
ENDBRANCH   3   4
ENDBRANCH   2   3
ENDBRANCH   1   2
BRANCH   1   7
ATOM      7  C   UNL     1       5.621  50.124   8.875  1.00  0.00     0.000 C 
BRANCH   7   8
ATOM      8  C   UNL     1       4.609  48.975   8.957  1.00  0.00    -0.000 C 
BRANCH   8   9
ATOM      9  C   UNL     1       3.920  48.945  10.326  1.00  0.00    -0.000 C 
BRANCH   9  10
ATOM     10  C   UNL     1       4.309  47.686  11.110  1.00  0.00    -0.003 C 
ATOM     11  C   UNL     1       4.851  48.043  12.491  1.00  0.00     0.004 C 
ENDBRANCH   9  10
ENDBRANCH   8   9
ENDBRANCH   7   8
ENDBRANCH   1   7
TORSDOF 7
ENDMDL
MODEL 4
REMARK VINA RESULT:     3.099      8.382      9.151
REMARK INTER + INTRA:           4.072
REMARK INTER:                   4.129
REMARK INTRA:                  -0.058
REMARK UNBOUND:                -0.295
REMARK SMILES CCCCCCCCC(=O)[O-]
REMARK SMILES IDX 6 1 7 2 8 3 9 4 10 5 11 6 5 7 4 8 3 9 2 10 1 11
REMARK H PARENT
REMARK Flexibility Score: inf
ROOT
ATOM      1  C   UNL     1       5.499  50.174   9.005  1.00  0.00     0.000 C 
ENDROOT
BRANCH   1   2
ATOM      2  C   UNL     1       6.968  49.728   8.875  1.00  0.00     0.006 C 
BRANCH   2   3
ATOM      3  C   UNL     1       7.662  49.467  10.224  1.00  0.00     0.053 C 
BRANCH   3   4
ATOM      4  C   UNL     1       8.130  48.050  10.369  1.00  0.00     0.041 C 
ATOM      5  O   UNL     1       8.724  47.475   9.420  1.00  0.00    -0.550 OA
ATOM      6  O   UNL     1       7.938  47.374  11.568  1.00  0.00    -0.550 OA
ENDBRANCH   3   4
ENDBRANCH   2   3
ENDBRANCH   1   2
BRANCH   1   7
ATOM      7  C   UNL     1       4.506  49.006   8.928  1.00  0.00     0.000 C 
BRANCH   7   8
ATOM      8  C   UNL     1       4.850  47.924   9.959  1.00  0.00    -0.000 C 
BRANCH   8   9
ATOM      9  C   UNL     1       3.960  48.045  11.201  1.00  0.00    -0.000 C 
BRANCH   9  10
ATOM     10  C   UNL     1       4.806  48.219  12.468  1.00  0.00    -0.003 C 
ATOM     11  C   UNL     1       4.077  47.680  13.696  1.00  0.00     0.004 C 
ENDBRANCH   9  10
ENDBRANCH   8   9
ENDBRANCH   7   8
ENDBRANCH   1   7
TORSDOF 7
ENDMDL
MODEL 5
REMARK VINA RESULT:     3.482      7.474      8.327
REMARK INTER + INTRA:           4.611
REMARK INTER:                   4.294
REMARK INTRA:                   0.317
REMARK UNBOUND:                -0.295
REMARK SMILES CCCCCCCCC(=O)[O-]
REMARK SMILES IDX 6 1 7 2 8 3 9 4 10 5 11 6 5 7 4 8 3 9 2 10 1 11
REMARK H PARENT
REMARK Flexibility Score: inf
ROOT
ATOM      1  C   UNL     1       6.777  46.615   9.660  1.00  0.00     0.000 C 
ENDROOT
BRANCH   1   2
ATOM      2  C   UNL     1       8.096  46.742   8.875  1.00  0.00     0.006 C 
BRANCH   2   3
ATOM      3  C   UNL     1       8.987  47.909   9.337  1.00  0.00     0.053 C 
BRANCH   3   4
ATOM      4  C   UNL     1       8.484  48.561  10.590  1.00  0.00     0.041 C 
ATOM      5  O   UNL     1       8.051  49.743  10.562  1.00  0.00    -0.550 OA
ATOM      6  O   UNL     1       8.464  47.850  11.783  1.00  0.00    -0.550 OA
ENDBRANCH   3   4
ENDBRANCH   2   3
ENDBRANCH   1   2
BRANCH   1   7
ATOM      7  C   UNL     1       5.562  47.151   8.887  1.00  0.00     0.000 C 
BRANCH   7   8
ATOM      8  C   UNL     1       5.524  48.683   8.918  1.00  0.00    -0.000 C 
BRANCH   8   9
ATOM      9  C   UNL     1       4.434  49.187   9.871  1.00  0.00    -0.000 C 
BRANCH   9  10
ATOM     10  C   UNL     1       4.090  48.125  10.923  1.00  0.00    -0.003 C 
ATOM     11  C   UNL     1       4.987  48.256  12.150  1.00  0.00     0.004 C 
ENDBRANCH   9  10
ENDBRANCH   8   9
ENDBRANCH   7   8
ENDBRANCH   1   7
TORSDOF 7
ENDMDL
MODEL 6
REMARK VINA RESULT:     4.054      3.736      6.384
REMARK INTER + INTRA:           5.418
REMARK INTER:                   5.614
REMARK INTRA:                  -0.196
REMARK UNBOUND:                -0.295
REMARK SMILES CCCCCCCCC(=O)[O-]
REMARK SMILES IDX 6 1 7 2 8 3 9 4 10 5 11 6 5 7 4 8 3 9 2 10 1 11
REMARK H PARENT
REMARK Flexibility Score: inf
ROOT
ATOM      1  C   UNL     1      14.095  43.484   9.603  1.00  0.00     0.000 C 
ENDROOT
BRANCH   1   2
ATOM      2  C   UNL     1      12.856  42.581   9.751  1.00  0.00     0.006 C 
BRANCH   2   3
ATOM      3  C   UNL     1      11.622  43.082   8.979  1.00  0.00     0.053 C 
BRANCH   3   4
ATOM      4  C   UNL     1      10.523  42.065   8.921  1.00  0.00     0.041 C 
ATOM      5  O   UNL     1       9.319  42.431   8.877  1.00  0.00    -0.550 OA
ATOM      6  O   UNL     1      10.830  40.711   8.883  1.00  0.00    -0.550 OA
ENDBRANCH   3   4
ENDBRANCH   2   3
ENDBRANCH   1   2
BRANCH   1   7
ATOM      7  C   UNL     1      13.747  44.923   9.196  1.00  0.00     0.000 C 
BRANCH   7   8
ATOM      8  C   UNL     1      14.946  45.857   9.402  1.00  0.00    -0.000 C 
BRANCH   8   9
ATOM      9  C   UNL     1      14.490  47.240   9.882  1.00  0.00    -0.000 C 
BRANCH   9  10
ATOM     10  C   UNL     1      14.888  48.328   8.878  1.00  0.00    -0.003 C 
ATOM     11  C   UNL     1      13.923  49.509   8.935  1.00  0.00     0.004 C 
ENDBRANCH   9  10
ENDBRANCH   8   9
ENDBRANCH   7   8
ENDBRANCH   1   7
TORSDOF 7
ENDMDL
MODEL 7
REMARK VINA RESULT:     4.085      8.207      8.899
REMARK INTER + INTRA:           5.462
REMARK INTER:                   4.356
REMARK INTRA:                   1.106
REMARK UNBOUND:                -0.295
REMARK SMILES CCCCCCCCC(=O)[O-]
REMARK SMILES IDX 6 1 7 2 8 3 9 4 10 5 11 6 5 7 4 8 3 9 2 10 1 11
REMARK H PARENT
REMARK Flexibility Score: inf
ROOT
ATOM      1  C   UNL     1       7.788  49.699  10.062  1.00  0.00     0.000 C 
ENDROOT
BRANCH   1   2
ATOM      2  C   UNL     1       6.675  49.607   9.002  1.00  0.00     0.006 C 
BRANCH   2   3
ATOM      3  C   UNL     1       5.315  50.152   9.474  1.00  0.00     0.053 C 
BRANCH   3   4
ATOM      4  C   UNL     1       4.325  49.065   9.765  1.00  0.00     0.041 C 
ATOM      5  O   UNL     1       3.520  48.683   8.875  1.00  0.00    -0.550 OA
ATOM      6  O   UNL     1       4.313  48.450  11.010  1.00  0.00    -0.550 OA
ENDBRANCH   3   4
ENDBRANCH   2   3
ENDBRANCH   1   2
BRANCH   1   7
ATOM      7  C   UNL     1       7.451  48.944  11.356  1.00  0.00     0.000 C 
BRANCH   7   8
ATOM      8  C   UNL     1       7.774  47.452  11.222  1.00  0.00    -0.000 C 
BRANCH   8   9
ATOM      9  C   UNL     1       6.900  46.794  10.148  1.00  0.00    -0.000 C 
BRANCH   9  10
ATOM     10  C   UNL     1       7.739  46.381   8.933  1.00  0.00    -0.003 C 
ATOM     11  C   UNL     1       9.047  47.164   8.875  1.00  0.00     0.004 C 
ENDBRANCH   9  10
ENDBRANCH   8   9
ENDBRANCH   7   8
ENDBRANCH   1   7
TORSDOF 7
ENDMDL
