MODEL 1
REMARK VINA RESULT:    -6.070      0.000      0.000
REMARK INTER + INTRA:          -6.634
REMARK INTER:                  -6.602
REMARK INTRA:                  -0.032
REMARK UNBOUND:                -0.032
REMARK SMILES O=C([O-])c1ccc(O)cc1
REMARK SMILES IDX 7 1 6 2 9 3 5 4 10 5 4 6 8 7 2 9 1 10 3 11
REMARK H PARENT 8 8
REMARK Flexibility Score: inf
ROOT
ATOM      1  C   UNL     1     149.194 158.341 159.250  1.00  0.00     0.115 A 
ATOM      2  C   UNL     1     149.991 158.436 158.107  1.00  0.00     0.047 A 
ATOM      3  C   UNL     1     149.518 157.412 160.247  1.00  0.00     0.047 A 
ATOM      4  C   UNL     1     151.108 157.609 157.955  1.00  0.00     0.014 A 
ATOM      5  C   UNL     1     150.634 156.582 160.098  1.00  0.00     0.014 A 
ATOM      6  C   UNL     1     151.441 156.672 158.950  1.00  0.00    -0.003 A 
ENDROOT
BRANCH   1   7
ATOM      7  O   UNL     1     148.085 159.173 159.388  1.00  0.00    -0.508 OA
ATOM      8  H   UNL     1     147.370 158.991 160.083  1.00  0.00     0.293 HD
ENDBRANCH   1   7
BRANCH   6   9
ATOM      9  C   UNL     1     152.621 155.793 158.795  1.00  0.00     0.071 C 
ATOM     10  O   UNL     1     153.366 155.543 159.780  1.00  0.00    -0.545 OA
ATOM     11  O   UNL     1     152.925 155.230 157.561  1.00  0.00    -0.545 OA
ENDBRANCH   6   9
TORSDOF 2
ENDMDL
MODEL 2
REMARK VINA RESULT:    -5.781      1.791      2.872
REMARK INTER + INTRA:          -6.320
REMARK INTER:                  -6.284
REMARK INTRA:                  -0.036
REMARK UNBOUND:                -0.032
REMARK SMILES O=C([O-])c1ccc(O)cc1
REMARK SMILES IDX 7 1 6 2 9 3 5 4 10 5 4 6 8 7 2 9 1 10 3 11
REMARK H PARENT 8 8
REMARK Flexibility Score: inf
ROOT
ATOM      1  C   UNL     1     150.997 157.327 158.504  1.00  0.00     0.115 A 
ATOM      2  C   UNL     1     150.667 157.022 159.827  1.00  0.00     0.047 A 
ATOM      3  C   UNL     1     152.085 156.688 157.895  1.00  0.00     0.047 A 
ATOM      4  C   UNL     1     151.416 156.083 160.542  1.00  0.00     0.014 A 
ATOM      5  C   UNL     1     152.837 155.748 158.607  1.00  0.00     0.014 A 
ATOM      6  C   UNL     1     152.510 155.437 159.939  1.00  0.00    -0.003 A 
ENDROOT
BRANCH   1   7
ATOM      7  O   UNL     1     150.241 158.265 157.805  1.00  0.00    -0.508 OA
ATOM      8  H   UNL     1     150.139 159.217 158.137  1.00  0.00     0.293 HD
ENDBRANCH   1   7
BRANCH   6   9
ATOM      9  C   UNL     1     153.308 154.442 160.690  1.00  0.00     0.071 C 
ATOM     10  O   UNL     1     154.168 153.734 160.101  1.00  0.00    -0.545 OA
ATOM     11  O   UNL     1     153.118 154.273 162.057  1.00  0.00    -0.545 OA
ENDBRANCH   6   9
TORSDOF 2
ENDMDL
MODEL 3
REMARK VINA RESULT:    -5.710      1.075      4.119
REMARK INTER + INTRA:          -6.243
REMARK INTER:                  -6.207
REMARK INTRA:                  -0.036
REMARK UNBOUND:                -0.032
REMARK SMILES O=C([O-])c1ccc(O)cc1
REMARK SMILES IDX 7 1 6 2 9 3 5 4 10 5 4 6 8 7 2 9 1 10 3 11
REMARK H PARENT 8 8
REMARK Flexibility Score: inf
ROOT
ATOM      1  C   UNL     1     152.778 155.605 159.114  1.00  0.00     0.115 A 
ATOM      2  C   UNL     1     152.501 156.307 157.938  1.00  0.00     0.047 A 
ATOM      3  C   UNL     1     151.966 155.788 160.240  1.00  0.00     0.047 A 
ATOM      4  C   UNL     1     151.418 157.189 157.883  1.00  0.00     0.014 A 
ATOM      5  C   UNL     1     150.881 156.670 160.189  1.00  0.00     0.014 A 
ATOM      6  C   UNL     1     150.597 157.381 159.009  1.00  0.00    -0.003 A 
ENDROOT
BRANCH   1   7
ATOM      7  O   UNL     1     153.861 154.729 159.154  1.00  0.00    -0.508 OA
ATOM      8  H   UNL     1     153.747 153.738 158.973  1.00  0.00     0.293 HD
ENDBRANCH   1   7
BRANCH   6   9
ATOM      9  C   UNL     1     149.449 158.312 158.957  1.00  0.00     0.071 C 
ATOM     10  O   UNL     1     148.755 158.532 159.986  1.00  0.00    -0.545 OA
ATOM     11  O   UNL     1     149.119 158.960 157.772  1.00  0.00    -0.545 OA
ENDBRANCH   6   9
TORSDOF 2
ENDMDL
MODEL 4
REMARK VINA RESULT:    -5.673      1.095      4.396
REMARK INTER + INTRA:          -6.202
REMARK INTER:                  -6.166
REMARK INTRA:                  -0.036
REMARK UNBOUND:                -0.032
REMARK SMILES O=C([O-])c1ccc(O)cc1
REMARK SMILES IDX 7 1 6 2 9 3 5 4 10 5 4 6 8 7 2 9 1 10 3 11
REMARK H PARENT 8 8
REMARK Flexibility Score: inf
ROOT
ATOM      1  C   UNL     1     152.845 155.569 159.072  1.00  0.00     0.115 A 
ATOM      2  C   UNL     1     152.073 155.781 160.217  1.00  0.00     0.047 A 
ATOM      3  C   UNL     1     152.525 156.239 157.885  1.00  0.00     0.047 A 
ATOM      4  C   UNL     1     150.985 156.657 160.181  1.00  0.00     0.014 A 
ATOM      5  C   UNL     1     151.436 157.117 157.845  1.00  0.00     0.014 A 
ATOM      6  C   UNL     1     150.655 157.334 158.993  1.00  0.00    -0.003 A 
ENDROOT
BRANCH   1   7
ATOM      7  O   UNL     1     153.927 154.693 159.123  1.00  0.00    -0.508 OA
ATOM      8  H   UNL     1     154.311 154.377 160.007  1.00  0.00     0.293 HD
ENDBRANCH   1   7
BRANCH   6   9
ATOM      9  C   UNL     1     149.504 158.264 158.948  1.00  0.00     0.071 C 
ATOM     10  O   UNL     1     148.764 158.415 159.956  1.00  0.00    -0.545 OA
ATOM     11  O   UNL     1     149.224 158.983 157.792  1.00  0.00    -0.545 OA
ENDBRANCH   6   9
TORSDOF 2
ENDMDL
MODEL 5
REMARK VINA RESULT:    -5.531      2.615      4.432
REMARK INTER + INTRA:          -6.048
REMARK INTER:                  -6.012
REMARK INTRA:                  -0.036
REMARK UNBOUND:                -0.032
REMARK SMILES O=C([O-])c1ccc(O)cc1
REMARK SMILES IDX 7 1 6 2 9 3 5 4 10 5 4 6 8 7 2 9 1 10 3 11
REMARK H PARENT 8 8
REMARK Flexibility Score: inf
ROOT
ATOM      1  C   UNL     1     153.163 154.531 161.719  1.00  0.00     0.115 A 
ATOM      2  C   UNL     1     153.721 153.953 160.576  1.00  0.00     0.047 A 
ATOM      3  C   UNL     1     152.284 155.614 161.591  1.00  0.00     0.047 A 
ATOM      4  C   UNL     1     153.406 154.451 159.309  1.00  0.00     0.014 A 
ATOM      5  C   UNL     1     151.966 156.115 160.324  1.00  0.00     0.014 A 
ATOM      6  C   UNL     1     152.524 155.538 159.170  1.00  0.00    -0.003 A 
ENDROOT
BRANCH   1   7
ATOM      7  O   UNL     1     153.487 154.024 162.976  1.00  0.00    -0.508 OA
ATOM      8  H   UNL     1     153.826 153.076 163.092  1.00  0.00     0.293 HD
ENDBRANCH   1   7
BRANCH   6   9
ATOM      9  C   UNL     1     152.185 156.070 157.831  1.00  0.00     0.071 C 
ATOM     10  O   UNL     1     152.530 155.450 156.790  1.00  0.00    -0.545 OA
ATOM     11  O   UNL     1     151.482 157.262 157.703  1.00  0.00    -0.545 OA
ENDBRANCH   6   9
TORSDOF 2
ENDMDL
MODEL 6
REMARK VINA RESULT:    -5.449     14.491     15.274
REMARK INTER + INTRA:          -5.959
REMARK INTER:                  -5.928
REMARK INTRA:                  -0.031
REMARK UNBOUND:                -0.032
REMARK SMILES O=C([O-])c1ccc(O)cc1
REMARK SMILES IDX 7 1 6 2 9 3 5 4 10 5 4 6 8 7 2 9 1 10 3 11
REMARK H PARENT 8 8
REMARK Flexibility Score: inf
ROOT
ATOM      1  C   UNL     1     149.359 169.102 148.929  1.00  0.00     0.115 A 
ATOM      2  C   UNL     1     150.550 168.478 149.308  1.00  0.00     0.047 A 
ATOM      3  C   UNL     1     148.764 170.040 149.781  1.00  0.00     0.047 A 
ATOM      4  C   UNL     1     151.149 168.788 150.532  1.00  0.00     0.014 A 
ATOM      5  C   UNL     1     149.361 170.353 151.007  1.00  0.00     0.014 A 
ATOM      6  C   UNL     1     150.560 169.729 151.396  1.00  0.00    -0.003 A 
ENDROOT
BRANCH   1   7
ATOM      7  O   UNL     1     148.774 168.783 147.705  1.00  0.00    -0.508 OA
ATOM      8  H   UNL     1     149.218 168.141 147.057  1.00  0.00     0.293 HD
ENDBRANCH   1   7
BRANCH   6   9
ATOM      9  C   UNL     1     151.188 170.062 152.693  1.00  0.00     0.071 C 
ATOM     10  O   UNL     1     150.499 170.108 153.746  1.00  0.00    -0.545 OA
ATOM     11  O   UNL     1     152.551 170.329 152.768  1.00  0.00    -0.545 OA
ENDBRANCH   6   9
TORSDOF 2
ENDMDL
MODEL 7
REMARK VINA RESULT:    -5.438     14.440     15.241
REMARK INTER + INTRA:          -5.947
REMARK INTER:                  -5.917
REMARK INTRA:                  -0.031
REMARK UNBOUND:                -0.032
REMARK SMILES O=C([O-])c1ccc(O)cc1
REMARK SMILES IDX 7 1 6 2 9 3 5 4 10 5 4 6 8 7 2 9 1 10 3 11
REMARK H PARENT 8 8
REMARK Flexibility Score: inf
ROOT
ATOM      1  C   UNL     1     149.367 169.088 148.955  1.00  0.00     0.115 A 
ATOM      2  C   UNL     1     148.776 170.020 149.812  1.00  0.00     0.047 A 
ATOM      3  C   UNL     1     150.562 168.461 149.330  1.00  0.00     0.047 A 
ATOM      4  C   UNL     1     149.372 170.328 151.038  1.00  0.00     0.014 A 
ATOM      5  C   UNL     1     151.163 168.767 150.556  1.00  0.00     0.014 A 
ATOM      6  C   UNL     1     150.574 169.704 151.422  1.00  0.00    -0.003 A 
ENDROOT
BRANCH   1   7
ATOM      7  O   UNL     1     148.760 168.791 147.737  1.00  0.00    -0.508 OA
ATOM      8  H   UNL     1     148.921 169.360 146.913  1.00  0.00     0.293 HD
ENDBRANCH   1   7
BRANCH   6   9
ATOM      9  C   UNL     1     151.210 170.025 152.719  1.00  0.00     0.071 C 
ATOM     10  O   UNL     1     150.533 170.033 153.781  1.00  0.00    -0.545 OA
ATOM     11  O   UNL     1     152.567 170.323 152.784  1.00  0.00    -0.545 OA
ENDBRANCH   6   9
TORSDOF 2
ENDMDL
MODEL 8
REMARK VINA RESULT:    -5.371     14.857     15.710
REMARK INTER + INTRA:          -5.874
REMARK INTER:                  -5.838
REMARK INTRA:                  -0.035
REMARK UNBOUND:                -0.032
REMARK SMILES O=C([O-])c1ccc(O)cc1
REMARK SMILES IDX 7 1 6 2 9 3 5 4 10 5 4 6 8 7 2 9 1 10 3 11
REMARK H PARENT 8 8
REMARK Flexibility Score: inf
ROOT
ATOM      1  C   UNL     1     150.310 168.610 148.839  1.00  0.00     0.115 A 
ATOM      2  C   UNL     1     149.044 169.186 148.709  1.00  0.00     0.047 A 
ATOM      3  C   UNL     1     150.980 168.677 150.067  1.00  0.00     0.047 A 
ATOM      4  C   UNL     1     148.445 169.827 149.797  1.00  0.00     0.014 A 
ATOM      5  C   UNL     1     150.384 169.317 151.159  1.00  0.00     0.014 A 
ATOM      6  C   UNL     1     149.110 169.900 151.035  1.00  0.00    -0.003 A 
ENDROOT
BRANCH   1   7
ATOM      7  O   UNL     1     150.894 167.975 147.745  1.00  0.00    -0.508 OA
ATOM      8  H   UNL     1     150.560 168.134 146.801  1.00  0.00     0.293 HD
ENDBRANCH   1   7
BRANCH   6   9
ATOM      9  C   UNL     1     148.482 170.576 152.191  1.00  0.00     0.071 C 
ATOM     10  O   UNL     1     147.250 170.837 152.189  1.00  0.00    -0.545 OA
ATOM     11  O   UNL     1     149.244 170.933 153.298  1.00  0.00    -0.545 OA
ENDBRANCH   6   9
TORSDOF 2
ENDMDL
MODEL 9
REMARK VINA RESULT:    -5.326     14.725     15.378
REMARK INTER + INTRA:          -5.825
REMARK INTER:                  -5.789
REMARK INTRA:                  -0.036
REMARK UNBOUND:                -0.032
REMARK SMILES O=C([O-])c1ccc(O)cc1
REMARK SMILES IDX 7 1 6 2 9 3 5 4 10 5 4 6 8 7 2 9 1 10 3 11
REMARK H PARENT 8 8
REMARK Flexibility Score: inf
ROOT
ATOM      1  C   UNL     1     149.703 170.968 152.597  1.00  0.00     0.115 A 
ATOM      2  C   UNL     1     148.748 171.074 151.583  1.00  0.00     0.047 A 
ATOM      3  C   UNL     1     150.798 170.111 152.431  1.00  0.00     0.047 A 
ATOM      4  C   UNL     1     148.882 170.330 150.407  1.00  0.00     0.014 A 
ATOM      5  C   UNL     1     150.936 169.364 151.256  1.00  0.00     0.014 A 
ATOM      6  C   UNL     1     149.978 169.466 150.232  1.00  0.00    -0.003 A 
ENDROOT
BRANCH   1   7
ATOM      7  O   UNL     1     149.556 171.716 153.762  1.00  0.00    -0.508 OA
ATOM      8  H   UNL     1     148.712 172.247 153.948  1.00  0.00     0.293 HD
ENDBRANCH   1   7
BRANCH   6   9
ATOM      9  C   UNL     1     150.126 168.676 148.990  1.00  0.00     0.071 C 
ATOM     10  O   UNL     1     149.318 168.825 148.035  1.00  0.00    -0.545 OA
ATOM     11  O   UNL     1     151.160 167.755 148.859  1.00  0.00    -0.545 OA
ENDBRANCH   6   9
TORSDOF 2
ENDMDL
