MODEL 1
REMARK VINA RESULT:    -8.013      0.000      0.000
REMARK INTER + INTRA:         -10.984
REMARK INTER:                 -10.824
REMARK INTRA:                  -0.160
REMARK UNBOUND:                -0.160
REMARK SMILES O=c1c(-c2ccc(O)cc2)coc2c([C@H]3O[C@H](CO)[C@@H](O)[C@H](O)[C@H]3O)c(O)ccc12
REMARK SMILES IDX 3 1 11 2 12 3 13 4 30 5 2 6 1 7 29 8 28 9 26 10 14 11 4 12
REMARK SMILES IDX 5 13 6 14 7 15 10 16 9 17 8 18 15 20 24 21 16 22 22 23 17 24
REMARK SMILES IDX 20 25 25 26 23 28 18 30 19 31 21 33 27 35
REMARK H PARENT 8 19 25 27 23 29 19 32 21 34 27 36
REMARK Flexibility Score: inf
ROOT
ATOM      1  C   UNL     1     -30.781  17.448  57.080  1.00  0.00     0.065 A 
ATOM      2  C   UNL     1     -32.165  17.547  57.268  1.00  0.00     0.208 A 
ATOM      3  O   UNL     1     -32.942  16.475  57.186  1.00  0.00    -0.463 OA
ATOM      4  C   UNL     1     -32.482  15.252  56.930  1.00  0.00     0.147 A 
ATOM      5  C   UNL     1     -31.100  15.072  56.682  1.00  0.00     0.066 A 
ATOM      6  C   UNL     1     -30.242  16.183  56.787  1.00  0.00     0.200 A 
ATOM      7  O   UNL     1     -28.997  16.043  56.627  1.00  0.00    -0.288 OA
ATOM      8  C   UNL     1     -30.624  13.811  56.308  1.00  0.00     0.020 A 
ATOM      9  C   UNL     1     -31.518  12.772  56.081  1.00  0.00     0.047 A 
ATOM     10  C   UNL     1     -32.891  12.947  56.293  1.00  0.00     0.125 A 
ATOM     11  C   UNL     1     -33.379  14.148  56.879  1.00  0.00     0.069 A 
ENDROOT
BRANCH   1  12
ATOM     12  C   UNL     1     -29.931  18.661  57.186  1.00  0.00    -0.011 A 
ATOM     13  C   UNL     1     -29.350  19.025  58.414  1.00  0.00     0.013 A 
ATOM     14  C   UNL     1     -28.542  20.163  58.503  1.00  0.00     0.047 A 
ATOM     15  C   UNL     1     -28.302  20.949  57.368  1.00  0.00     0.115 A 
ATOM     16  C   UNL     1     -29.678  19.450  56.050  1.00  0.00     0.013 A 
ATOM     17  C   UNL     1     -28.871  20.588  56.143  1.00  0.00     0.047 A 
BRANCH  15  18
ATOM     18  O   UNL     1     -27.500  22.084  57.447  1.00  0.00    -0.508 OA
ATOM     19  H   UNL     1     -27.364  22.693  56.647  1.00  0.00     0.293 HD
ENDBRANCH  15  18
ENDBRANCH   1  12
BRANCH  11  20
ATOM     20  C   UNL     1     -34.854  14.358  57.297  1.00  0.00     0.188 C 
ATOM     21  C   UNL     1     -35.237  14.003  58.781  1.00  0.00     0.179 C 
ATOM     22  O   UNL     1     -35.806  13.867  56.357  1.00  0.00    -0.362 OA
ATOM     23  C   UNL     1     -35.692  12.552  58.954  1.00  0.00     0.177 C 
ATOM     24  C   UNL     1     -36.143  12.492  56.524  1.00  0.00     0.176 C 
ATOM     25  C   UNL     1     -36.755  12.227  57.907  1.00  0.00     0.177 C 
BRANCH  21  26
ATOM     26  O   UNL     1     -34.183  14.252  59.673  1.00  0.00    -0.387 OA
ATOM     27  H   UNL     1     -34.476  14.979  60.284  1.00  0.00     0.211 HD
ENDBRANCH  21  26
BRANCH  23  28
ATOM     28  O   UNL     1     -36.224  12.384  60.245  1.00  0.00    -0.387 OA
ATOM     29  H   UNL     1     -35.474  12.109  60.834  1.00  0.00     0.211 HD
ENDBRANCH  23  28
BRANCH  24  30
ATOM     30  C   UNL     1     -37.113  12.110  55.392  1.00  0.00     0.191 C 
BRANCH  30  31
ATOM     31  O   UNL     1     -36.440  11.953  54.171  1.00  0.00    -0.394 OA
ATOM     32  H   UNL     1     -37.071  12.239  53.460  1.00  0.00     0.210 HD
ENDBRANCH  30  31
ENDBRANCH  24  30
BRANCH  25  33
ATOM     33  O   UNL     1     -37.125  10.875  58.020  1.00  0.00    -0.388 OA
ATOM     34  H   UNL     1     -37.711  10.670  57.246  1.00  0.00     0.211 HD
ENDBRANCH  25  33
ENDBRANCH  11  20
BRANCH  10  35
ATOM     35  O   UNL     1     -33.753  11.944  55.853  1.00  0.00    -0.507 OA
ATOM     36  H   UNL     1     -34.013  11.161  56.442  1.00  0.00     0.293 HD
ENDBRANCH  10  35
TORSDOF 9
ENDMDL
MODEL 2
REMARK VINA RESULT:    -6.632      1.896      3.054
REMARK INTER + INTRA:          -9.119
REMARK INTER:                  -9.126
REMARK INTRA:                   0.007
REMARK UNBOUND:                -0.160
REMARK SMILES O=c1c(-c2ccc(O)cc2)coc2c([C@H]3O[C@H](CO)[C@@H](O)[C@H](O)[C@H]3O)c(O)ccc12
REMARK SMILES IDX 3 1 11 2 12 3 13 4 30 5 2 6 1 7 29 8 28 9 26 10 14 11 4 12
REMARK SMILES IDX 5 13 6 14 7 15 10 16 9 17 8 18 15 20 24 21 16 22 22 23 17 24
REMARK SMILES IDX 20 25 25 26 23 28 18 30 19 31 21 33 27 35
REMARK H PARENT 8 19 25 27 23 29 19 32 21 34 27 36
REMARK Flexibility Score: inf
ROOT
ATOM      1  C   UNL     1     -30.043  18.093  56.981  1.00  0.00     0.065 A 
ATOM      2  C   UNL     1     -30.322  17.310  55.854  1.00  0.00     0.208 A 
ATOM      3  O   UNL     1     -31.312  16.427  55.866  1.00  0.00    -0.463 OA
ATOM      4  C   UNL     1     -32.101  16.222  56.919  1.00  0.00     0.147 A 
ATOM      5  C   UNL     1     -31.857  16.940  58.115  1.00  0.00     0.066 A 
ATOM      6  C   UNL     1     -30.832  17.904  58.130  1.00  0.00     0.200 A 
ATOM      7  O   UNL     1     -30.627  18.600  59.162  1.00  0.00    -0.288 OA
ATOM      8  C   UNL     1     -32.611  16.655  59.258  1.00  0.00     0.020 A 
ATOM      9  C   UNL     1     -33.519  15.603  59.245  1.00  0.00     0.047 A 
ATOM     10  C   UNL     1     -33.747  14.865  58.076  1.00  0.00     0.125 A 
ATOM     11  C   UNL     1     -33.157  15.270  56.847  1.00  0.00     0.069 A 
ENDROOT
BRANCH   1  12
ATOM     12  C   UNL     1     -28.936  19.081  56.939  1.00  0.00    -0.011 A 
ATOM     13  C   UNL     1     -27.870  19.003  57.854  1.00  0.00     0.013 A 
ATOM     14  C   UNL     1     -26.826  19.931  57.803  1.00  0.00     0.047 A 
ATOM     15  C   UNL     1     -26.831  20.946  56.836  1.00  0.00     0.115 A 
ATOM     16  C   UNL     1     -28.929  20.097  55.967  1.00  0.00     0.013 A 
ATOM     17  C   UNL     1     -27.883  21.024  55.920  1.00  0.00     0.047 A 
BRANCH  15  18
ATOM     18  O   UNL     1     -25.796  21.876  56.777  1.00  0.00    -0.508 OA
ATOM     19  H   UNL     1     -25.740  22.560  56.031  1.00  0.00     0.293 HD
ENDBRANCH  15  18
ENDBRANCH   1  12
BRANCH  11  20
ATOM     20  C   UNL     1     -33.483  14.613  55.484  1.00  0.00     0.188 C 
ATOM     21  C   UNL     1     -34.875  14.955  54.837  1.00  0.00     0.179 C 
ATOM     22  O   UNL     1     -33.179  13.221  55.415  1.00  0.00    -0.362 OA
ATOM     23  C   UNL     1     -35.985  13.986  55.249  1.00  0.00     0.177 C 
ATOM     24  C   UNL     1     -34.224  12.367  55.874  1.00  0.00     0.176 C 
ATOM     25  C   UNL     1     -35.504  12.550  55.046  1.00  0.00     0.177 C 
BRANCH  21  26
ATOM     26  O   UNL     1     -35.289  16.263  55.135  1.00  0.00    -0.387 OA
ATOM     27  H   UNL     1     -34.542  16.709  55.614  1.00  0.00     0.211 HD
ENDBRANCH  21  26
BRANCH  23  28
ATOM     28  O   UNL     1     -37.125  14.224  54.461  1.00  0.00    -0.387 OA
ATOM     29  H   UNL     1     -37.092  13.584  53.703  1.00  0.00     0.211 HD
ENDBRANCH  23  28
BRANCH  24  30
ATOM     30  C   UNL     1     -33.706  10.920  55.803  1.00  0.00     0.191 C 
BRANCH  30  31
ATOM     31  O   UNL     1     -32.304  10.875  55.839  1.00  0.00    -0.394 OA
ATOM     32  H   UNL     1     -32.050  10.652  56.773  1.00  0.00     0.210 HD
ENDBRANCH  30  31
ENDBRANCH  24  30
BRANCH  25  33
ATOM     33  O   UNL     1     -36.496  11.658  55.488  1.00  0.00    -0.388 OA
ATOM     34  H   UNL     1     -36.994  12.116  56.215  1.00  0.00     0.211 HD
ENDBRANCH  25  33
ENDBRANCH  11  20
BRANCH  10  35
ATOM     35  O   UNL     1     -34.506  13.701  58.176  1.00  0.00    -0.507 OA
ATOM     36  H   UNL     1     -35.519  13.715  58.149  1.00  0.00     0.293 HD
ENDBRANCH  10  35
TORSDOF 9
ENDMDL
MODEL 3
REMARK VINA RESULT:    -5.351      1.575      3.117
REMARK INTER + INTRA:          -7.388
REMARK INTER:                  -7.764
REMARK INTRA:                   0.377
REMARK UNBOUND:                -0.160
REMARK SMILES O=c1c(-c2ccc(O)cc2)coc2c([C@H]3O[C@H](CO)[C@@H](O)[C@H](O)[C@H]3O)c(O)ccc12
REMARK SMILES IDX 3 1 11 2 12 3 13 4 30 5 2 6 1 7 29 8 28 9 26 10 14 11 4 12
REMARK SMILES IDX 5 13 6 14 7 15 10 16 9 17 8 18 15 20 24 21 16 22 22 23 17 24
REMARK SMILES IDX 20 25 25 26 23 28 18 30 19 31 21 33 27 35
REMARK H PARENT 8 19 25 27 23 29 19 32 21 34 27 36
REMARK Flexibility Score: inf
ROOT
ATOM      1  C   UNL     1     -30.490  17.314  56.947  1.00  0.00     0.065 A 
ATOM      2  C   UNL     1     -30.657  16.298  57.897  1.00  0.00     0.208 A 
ATOM      3  O   UNL     1     -31.672  15.448  57.814  1.00  0.00    -0.463 OA
ATOM      4  C   UNL     1     -32.586  15.488  56.846  1.00  0.00     0.147 A 
ATOM      5  C   UNL     1     -32.517  16.513  55.872  1.00  0.00     0.066 A 
ATOM      6  C   UNL     1     -31.439  17.416  55.914  1.00  0.00     0.200 A 
ATOM      7  O   UNL     1     -31.318  18.305  55.026  1.00  0.00    -0.288 OA
ATOM      8  C   UNL     1     -33.532  16.627  54.916  1.00  0.00     0.020 A 
ATOM      9  C   UNL     1     -34.649  15.804  54.989  1.00  0.00     0.047 A 
ATOM     10  C   UNL     1     -34.744  14.807  55.968  1.00  0.00     0.125 A 
ATOM     11  C   UNL     1     -33.635  14.526  56.815  1.00  0.00     0.069 A 
ENDROOT
BRANCH   1  12
ATOM     12  C   UNL     1     -29.341  18.248  57.056  1.00  0.00    -0.011 A 
ATOM     13  C   UNL     1     -28.091  17.915  56.504  1.00  0.00     0.013 A 
ATOM     14  C   UNL     1     -27.016  18.803  56.602  1.00  0.00     0.047 A 
ATOM     15  C   UNL     1     -27.177  20.036  57.249  1.00  0.00     0.115 A 
ATOM     16  C   UNL     1     -29.496  19.490  57.697  1.00  0.00     0.013 A 
ATOM     17  C   UNL     1     -28.419  20.376  57.794  1.00  0.00     0.047 A 
BRANCH  15  18
ATOM     18  O   UNL     1     -26.113  20.928  57.353  1.00  0.00    -0.508 OA
ATOM     19  H   UNL     1     -25.157  20.604  57.449  1.00  0.00     0.293 HD
ENDBRANCH  15  18
ENDBRANCH   1  12
BRANCH  11  20
ATOM     20  C   UNL     1     -33.596  13.339  57.807  1.00  0.00     0.188 C 
ATOM     21  C   UNL     1     -34.454  12.072  57.445  1.00  0.00     0.179 C 
ATOM     22  O   UNL     1     -33.730  13.714  59.176  1.00  0.00    -0.362 OA
ATOM     23  C   UNL     1     -35.876  12.127  58.009  1.00  0.00     0.177 C 
ATOM     24  C   UNL     1     -35.078  13.815  59.629  1.00  0.00     0.176 C 
ATOM     25  C   UNL     1     -35.818  12.476  59.495  1.00  0.00     0.177 C 
BRANCH  21  26
ATOM     26  O   UNL     1     -34.529  11.863  56.059  1.00  0.00    -0.387 OA
ATOM     27  H   UNL     1     -34.529  12.755  55.624  1.00  0.00     0.211 HD
ENDBRANCH  21  26
BRANCH  23  28
ATOM     28  O   UNL     1     -36.492  10.875  57.835  1.00  0.00    -0.387 OA
ATOM     29  H   UNL     1     -35.892  10.198  58.244  1.00  0.00     0.211 HD
ENDBRANCH  23  28
BRANCH  24  30
ATOM     30  C   UNL     1     -35.042  14.297  61.091  1.00  0.00     0.191 C 
BRANCH  30  31
ATOM     31  O   UNL     1     -34.133  15.353  61.259  1.00  0.00    -0.394 OA
ATOM     32  H   UNL     1     -34.294  15.724  62.166  1.00  0.00     0.210 HD
ENDBRANCH  30  31
ENDBRANCH  24  30
BRANCH  25  33
ATOM     33  O   UNL     1     -37.125  12.594  59.999  1.00  0.00    -0.388 OA
ATOM     34  H   UNL     1     -37.084  12.366  60.964  1.00  0.00     0.211 HD
ENDBRANCH  25  33
ENDBRANCH  11  20
BRANCH  10  35
ATOM     35  O   UNL     1     -35.967  14.157  56.124  1.00  0.00    -0.507 OA
ATOM     36  H   UNL     1     -36.028  13.161  56.304  1.00  0.00     0.293 HD
ENDBRANCH  10  35
TORSDOF 9
ENDMDL
