MODEL 1
REMARK VINA RESULT:    -4.340      0.000      0.000
REMARK INTER + INTRA:          -6.236
REMARK INTER:                  -5.609
REMARK INTRA:                  -0.627
REMARK UNBOUND:                -0.627
REMARK SMILES CCCCC(=O)c1ccccc1C(=O)[O-]
REMARK SMILES IDX 4 1 5 2 6 3 7 4 12 5 11 6 10 7 8 8 9 9 13 10 14 11 15 12
REMARK SMILES IDX 3 13 2 14 1 15
REMARK H PARENT
REMARK Flexibility Score: inf
ROOT
ATOM      1  C   UNL     1      51.707 -41.215 -29.240  1.00  0.00     0.081 C 
ENDROOT
BRANCH   1   2
ATOM      2  C   UNL     1      52.730 -41.965 -30.053  1.00  0.00     0.163 C 
ATOM      3  O   UNL     1      52.812 -43.217 -29.922  1.00  0.00    -0.294 OA
BRANCH   2   4
ATOM      4  C   UNL     1      53.651 -41.268 -30.980  1.00  0.00     0.027 A 
ATOM      5  C   UNL     1      54.987 -40.937 -30.615  1.00  0.00     0.008 A 
ATOM      6  C   UNL     1      55.836 -40.365 -31.583  1.00  0.00     0.011 A 
ATOM      7  C   UNL     1      55.377 -40.103 -32.873  1.00  0.00     0.001 A 
ATOM      8  C   UNL     1      53.210 -40.995 -32.288  1.00  0.00     0.012 A 
ATOM      9  C   UNL     1      54.064 -40.412 -33.223  1.00  0.00     0.001 A 
BRANCH   5  10
ATOM     10  C   UNL     1      55.515 -41.127 -29.241  1.00  0.00     0.072 C 
ATOM     11  O   UNL     1      56.185 -42.156 -28.957  1.00  0.00    -0.545 OA
ATOM     12  O   UNL     1      55.327 -40.161 -28.261  1.00  0.00    -0.545 OA
ENDBRANCH   5  10
ENDBRANCH   2   4
ENDBRANCH   1   2
BRANCH   1  13
ATOM     13  C   UNL     1      50.363 -41.110 -29.973  1.00  0.00     0.008 C 
BRANCH  13  14
ATOM     14  C   UNL     1      49.362 -42.178 -29.505  1.00  0.00    -0.003 C 
ATOM     15  C   UNL     1      49.272 -43.323 -30.508  1.00  0.00     0.004 C 
ENDBRANCH  13  14
ENDBRANCH   1  13
TORSDOF 5
ENDMDL
MODEL 2
REMARK VINA RESULT:    -4.309     11.576     12.439
REMARK INTER + INTRA:          -6.196
REMARK INTER:                  -5.665
REMARK INTRA:                  -0.531
REMARK UNBOUND:                -0.627
REMARK SMILES CCCCC(=O)c1ccccc1C(=O)[O-]
REMARK SMILES IDX 4 1 5 2 6 3 7 4 12 5 11 6 10 7 8 8 9 9 13 10 14 11 15 12
REMARK SMILES IDX 3 13 2 14 1 15
REMARK H PARENT
REMARK Flexibility Score: inf
ROOT
ATOM      1  C   UNL     1      49.400 -31.379 -29.022  1.00  0.00     0.081 C 
ENDROOT
BRANCH   1   2
ATOM      2  C   UNL     1      49.219 -29.886 -29.115  1.00  0.00     0.163 C 
ATOM      3  O   UNL     1      49.222 -29.206 -28.053  1.00  0.00    -0.294 OA
BRANCH   2   4
ATOM      4  C   UNL     1      49.015 -29.206 -30.416  1.00  0.00     0.027 A 
ATOM      5  C   UNL     1      50.104 -28.751 -31.212  1.00  0.00     0.008 A 
ATOM      6  C   UNL     1      49.838 -28.204 -32.482  1.00  0.00     0.011 A 
ATOM      7  C   UNL     1      48.530 -28.087 -32.951  1.00  0.00     0.001 A 
ATOM      8  C   UNL     1      47.704 -29.078 -30.909  1.00  0.00     0.012 A 
ATOM      9  C   UNL     1      47.465 -28.518 -32.164  1.00  0.00     0.001 A 
BRANCH   5  10
ATOM     10  C   UNL     1      51.512 -28.784 -30.741  1.00  0.00     0.072 C 
ATOM     11  O   UNL     1      52.287 -29.701 -31.127  1.00  0.00    -0.545 OA
ATOM     12  O   UNL     1      52.016 -27.789 -29.915  1.00  0.00    -0.545 OA
ENDBRANCH   5  10
ENDBRANCH   2   4
ENDBRANCH   1   2
BRANCH   1  13
ATOM     13  C   UNL     1      48.086 -32.091 -28.674  1.00  0.00     0.008 C 
BRANCH  13  14
ATOM     14  C   UNL     1      48.094 -33.565 -29.106  1.00  0.00    -0.003 C 
ATOM     15  C   UNL     1      46.721 -33.995 -29.614  1.00  0.00     0.004 C 
ENDBRANCH  13  14
ENDBRANCH   1  13
TORSDOF 5
ENDMDL
MODEL 3
REMARK VINA RESULT:    -4.250      5.285      7.973
REMARK INTER + INTRA:          -6.119
REMARK INTER:                  -5.567
REMARK INTRA:                  -0.552
REMARK UNBOUND:                -0.627
REMARK SMILES CCCCC(=O)c1ccccc1C(=O)[O-]
REMARK SMILES IDX 4 1 5 2 6 3 7 4 12 5 11 6 10 7 8 8 9 9 13 10 14 11 15 12
REMARK SMILES IDX 3 13 2 14 1 15
REMARK H PARENT
REMARK Flexibility Score: inf
ROOT
ATOM      1  C   UNL     1      54.549 -40.037 -22.701  1.00  0.00     0.081 C 
ENDROOT
BRANCH   1   2
ATOM      2  C   UNL     1      53.360 -39.872 -23.611  1.00  0.00     0.163 C 
ATOM      3  O   UNL     1      53.143 -38.743 -24.130  1.00  0.00    -0.294 OA
BRANCH   2   4
ATOM      4  C   UNL     1      52.433 -40.993 -23.891  1.00  0.00     0.027 A 
ATOM      5  C   UNL     1      52.609 -41.862 -25.005  1.00  0.00     0.008 A 
ATOM      6  C   UNL     1      51.747 -42.966 -25.151  1.00  0.00     0.011 A 
ATOM      7  C   UNL     1      50.721 -43.199 -24.236  1.00  0.00     0.001 A 
ATOM      8  C   UNL     1      51.391 -41.247 -22.981  1.00  0.00     0.012 A 
ATOM      9  C   UNL     1      50.540 -42.338 -23.156  1.00  0.00     0.001 A 
BRANCH   5  10
ATOM     10  C   UNL     1      53.637 -41.630 -26.050  1.00  0.00     0.072 C 
ATOM     11  O   UNL     1      54.787 -42.133 -25.930  1.00  0.00    -0.545 OA
ATOM     12  O   UNL     1      53.343 -40.904 -27.196  1.00  0.00    -0.545 OA
ENDBRANCH   5  10
ENDBRANCH   2   4
ENDBRANCH   1   2
BRANCH   1  13
ATOM     13  C   UNL     1      55.694 -39.090 -23.082  1.00  0.00     0.008 C 
BRANCH  13  14
ATOM     14  C   UNL     1      56.746 -39.778 -23.965  1.00  0.00    -0.003 C 
ATOM     15  C   UNL     1      57.846 -38.801 -24.371  1.00  0.00     0.004 C 
ENDBRANCH  13  14
ENDBRANCH   1  13
TORSDOF 5
ENDMDL
MODEL 4
REMARK VINA RESULT:    -4.238      4.929      7.618
REMARK INTER + INTRA:          -6.103
REMARK INTER:                  -5.524
REMARK INTRA:                  -0.579
REMARK UNBOUND:                -0.627
REMARK SMILES CCCCC(=O)c1ccccc1C(=O)[O-]
REMARK SMILES IDX 4 1 5 2 6 3 7 4 12 5 11 6 10 7 8 8 9 9 13 10 14 11 15 12
REMARK SMILES IDX 3 13 2 14 1 15
REMARK H PARENT
REMARK Flexibility Score: inf
ROOT
ATOM      1  C   UNL     1      54.862 -40.804 -24.111  1.00  0.00     0.081 C 
ENDROOT
BRANCH   1   2
ATOM      2  C   UNL     1      53.600 -40.702 -24.929  1.00  0.00     0.163 C 
ATOM      3  O   UNL     1      53.485 -39.755 -25.753  1.00  0.00    -0.294 OA
BRANCH   2   4
ATOM      4  C   UNL     1      52.490 -41.670 -24.771  1.00  0.00     0.027 A 
ATOM      5  C   UNL     1      52.359 -42.815 -25.606  1.00  0.00     0.008 A 
ATOM      6  C   UNL     1      51.336 -43.744 -25.332  1.00  0.00     0.011 A 
ATOM      7  C   UNL     1      50.449 -43.542 -24.276  1.00  0.00     0.001 A 
ATOM      8  C   UNL     1      51.584 -41.486 -23.711  1.00  0.00     0.012 A 
ATOM      9  C   UNL     1      50.569 -42.412 -23.470  1.00  0.00     0.001 A 
BRANCH   5  10
ATOM     10  C   UNL     1      53.227 -43.053 -26.786  1.00  0.00     0.072 C 
ATOM     11  O   UNL     1      52.880 -42.631 -27.922  1.00  0.00    -0.545 OA
ATOM     12  O   UNL     1      54.452 -43.694 -26.658  1.00  0.00    -0.545 OA
ENDBRANCH   5  10
ENDBRANCH   2   4
ENDBRANCH   1   2
BRANCH   1  13
ATOM     13  C   UNL     1      54.800 -39.922 -22.857  1.00  0.00     0.008 C 
BRANCH  13  14
ATOM     14  C   UNL     1      55.856 -38.806 -22.880  1.00  0.00    -0.003 C 
ATOM     15  C   UNL     1      56.903 -39.063 -23.959  1.00  0.00     0.004 C 
ENDBRANCH  13  14
ENDBRANCH   1  13
TORSDOF 5
ENDMDL
MODEL 5
REMARK VINA RESULT:    -4.150     12.134     12.965
REMARK INTER + INTRA:          -5.990
REMARK INTER:                  -5.509
REMARK INTRA:                  -0.482
REMARK UNBOUND:                -0.627
REMARK SMILES CCCCC(=O)c1ccccc1C(=O)[O-]
REMARK SMILES IDX 4 1 5 2 6 3 7 4 12 5 11 6 10 7 8 8 9 9 13 10 14 11 15 12
REMARK SMILES IDX 3 13 2 14 1 15
REMARK H PARENT
REMARK Flexibility Score: inf
ROOT
ATOM      1  C   UNL     1      48.315 -30.965 -29.211  1.00  0.00     0.081 C 
ENDROOT
BRANCH   1   2
ATOM      2  C   UNL     1      48.874 -29.575 -29.372  1.00  0.00     0.163 C 
ATOM      3  O   UNL     1      48.465 -28.662 -28.604  1.00  0.00    -0.294 OA
BRANCH   2   4
ATOM      4  C   UNL     1      49.871 -29.253 -30.420  1.00  0.00     0.027 A 
ATOM      5  C   UNL     1      49.529 -28.519 -31.591  1.00  0.00     0.008 A 
ATOM      6  C   UNL     1      50.549 -28.164 -32.494  1.00  0.00     0.011 A 
ATOM      7  C   UNL     1      51.872 -28.541 -32.265  1.00  0.00     0.001 A 
ATOM      8  C   UNL     1      51.211 -29.622 -30.208  1.00  0.00     0.012 A 
ATOM      9  C   UNL     1      52.202 -29.273 -31.126  1.00  0.00     0.001 A 
BRANCH   5  10
ATOM     10  C   UNL     1      48.131 -28.148 -31.928  1.00  0.00     0.072 C 
ATOM     11  O   UNL     1      47.359 -28.998 -32.448  1.00  0.00    -0.545 OA
ATOM     12  O   UNL     1      47.634 -26.886 -31.633  1.00  0.00    -0.545 OA
ENDBRANCH   5  10
ENDBRANCH   2   4
ENDBRANCH   1   2
BRANCH   1  13
ATOM     13  C   UNL     1      46.805 -31.006 -29.480  1.00  0.00     0.008 C 
BRANCH  13  14
ATOM     14  C   UNL     1      46.159 -32.299 -28.960  1.00  0.00    -0.003 C 
ATOM     15  C   UNL     1      46.882 -33.530 -29.499  1.00  0.00     0.004 C 
ENDBRANCH  13  14
ENDBRANCH   1  13
TORSDOF 5
ENDMDL
MODEL 6
REMARK VINA RESULT:    -4.141      1.393      4.535
REMARK INTER + INTRA:          -5.979
REMARK INTER:                  -5.496
REMARK INTRA:                  -0.483
REMARK UNBOUND:                -0.627
REMARK SMILES CCCCC(=O)c1ccccc1C(=O)[O-]
REMARK SMILES IDX 4 1 5 2 6 3 7 4 12 5 11 6 10 7 8 8 9 9 13 10 14 11 15 12
REMARK SMILES IDX 3 13 2 14 1 15
REMARK H PARENT
REMARK Flexibility Score: inf
ROOT
ATOM      1  C   UNL     1      54.358 -41.303 -30.994  1.00  0.00     0.081 C 
ENDROOT
BRANCH   1   2
ATOM      2  C   UNL     1      53.618 -42.392 -30.262  1.00  0.00     0.163 C 
ATOM      3  O   UNL     1      54.231 -43.455 -29.971  1.00  0.00    -0.294 OA
BRANCH   2   4
ATOM      4  C   UNL     1      52.189 -42.252 -29.897  1.00  0.00     0.027 A 
ATOM      5  C   UNL     1      51.751 -41.360 -28.877  1.00  0.00     0.008 A 
ATOM      6  C   UNL     1      50.369 -41.206 -28.654  1.00  0.00     0.011 A 
ATOM      7  C   UNL     1      49.438 -41.928 -29.402  1.00  0.00     0.001 A 
ATOM      8  C   UNL     1      51.233 -42.969 -30.639  1.00  0.00     0.012 A 
ATOM      9  C   UNL     1      49.870 -42.812 -30.388  1.00  0.00     0.001 A 
BRANCH   5  10
ATOM     10  C   UNL     1      52.691 -40.616 -28.002  1.00  0.00     0.072 C 
ATOM     11  O   UNL     1      52.936 -39.400 -28.225  1.00  0.00    -0.545 OA
ATOM     12  O   UNL     1      53.277 -41.224 -26.899  1.00  0.00    -0.545 OA
ENDBRANCH   5  10
ENDBRANCH   2   4
ENDBRANCH   1   2
BRANCH   1  13
ATOM     13  C   UNL     1      53.550 -40.766 -32.182  1.00  0.00     0.008 C 
BRANCH  13  14
ATOM     14  C   UNL     1      54.437 -40.047 -33.210  1.00  0.00    -0.003 C 
ATOM     15  C   UNL     1      54.751 -40.956 -34.395  1.00  0.00     0.004 C 
ENDBRANCH  13  14
ENDBRANCH   1  13
TORSDOF 5
ENDMDL
MODEL 7
REMARK VINA RESULT:    -4.128     11.893     12.963
REMARK INTER + INTRA:          -5.962
REMARK INTER:                  -5.236
REMARK INTRA:                  -0.726
REMARK UNBOUND:                -0.627
REMARK SMILES CCCCC(=O)c1ccccc1C(=O)[O-]
REMARK SMILES IDX 4 1 5 2 6 3 7 4 12 5 11 6 10 7 8 8 9 9 13 10 14 11 15 12
REMARK SMILES IDX 3 13 2 14 1 15
REMARK H PARENT
REMARK Flexibility Score: inf
ROOT
ATOM      1  C   UNL     1      51.030 -30.599 -29.138  1.00  0.00     0.081 C 
ENDROOT
BRANCH   1   2
ATOM      2  C   UNL     1      50.375 -29.252 -29.305  1.00  0.00     0.163 C 
ATOM      3  O   UNL     1      50.736 -28.303 -28.558  1.00  0.00    -0.294 OA
BRANCH   2   4
ATOM      4  C   UNL     1      49.306 -29.025 -30.306  1.00  0.00     0.027 A 
ATOM      5  C   UNL     1      49.585 -28.536 -31.614  1.00  0.00     0.008 A 
ATOM      6  C   UNL     1      48.531 -28.441 -32.544  1.00  0.00     0.011 A 
ATOM      7  C   UNL     1      47.230 -28.797 -32.191  1.00  0.00     0.001 A 
ATOM      8  C   UNL     1      47.987 -29.379 -29.972  1.00  0.00     0.012 A 
ATOM      9  C   UNL     1      46.957 -29.260 -30.906  1.00  0.00     0.001 A 
BRANCH   5  10
ATOM     10  C   UNL     1      50.933 -28.076 -32.030  1.00  0.00     0.072 C 
ATOM     11  O   UNL     1      51.247 -26.860 -31.925  1.00  0.00    -0.545 OA
ATOM     12  O   UNL     1      51.887 -28.974 -32.491  1.00  0.00    -0.545 OA
ENDBRANCH   5  10
ENDBRANCH   2   4
ENDBRANCH   1   2
BRANCH   1  13
ATOM     13  C   UNL     1      50.402 -31.398 -27.988  1.00  0.00     0.008 C 
BRANCH  13  14
ATOM     14  C   UNL     1      50.057 -32.837 -28.402  1.00  0.00    -0.003 C 
ATOM     15  C   UNL     1      48.595 -32.951 -28.822  1.00  0.00     0.004 C 
ENDBRANCH  13  14
ENDBRANCH   1  13
TORSDOF 5
ENDMDL
MODEL 8
REMARK VINA RESULT:    -4.099      3.968      5.942
REMARK INTER + INTRA:          -5.925
REMARK INTER:                  -4.828
REMARK INTRA:                  -1.096
REMARK UNBOUND:                -0.627
REMARK SMILES CCCCC(=O)c1ccccc1C(=O)[O-]
REMARK SMILES IDX 4 1 5 2 6 3 7 4 12 5 11 6 10 7 8 8 9 9 13 10 14 11 15 12
REMARK SMILES IDX 3 13 2 14 1 15
REMARK H PARENT
REMARK Flexibility Score: inf
ROOT
ATOM      1  C   UNL     1      52.289 -41.609 -27.379  1.00  0.00     0.081 C 
ENDROOT
BRANCH   1   2
ATOM      2  C   UNL     1      52.943 -42.362 -26.249  1.00  0.00     0.163 C 
ATOM      3  O   UNL     1      52.726 -43.599 -26.136  1.00  0.00    -0.294 OA
BRANCH   2   4
ATOM      4  C   UNL     1      53.811 -41.681 -25.260  1.00  0.00     0.027 A 
ATOM      5  C   UNL     1      55.229 -41.811 -25.280  1.00  0.00     0.008 A 
ATOM      6  C   UNL     1      55.995 -41.056 -24.371  1.00  0.00     0.011 A 
ATOM      7  C   UNL     1      55.382 -40.208 -23.450  1.00  0.00     0.001 A 
ATOM      8  C   UNL     1      53.214 -40.820 -24.322  1.00  0.00     0.012 A 
ATOM      9  C   UNL     1      53.994 -40.094 -23.421  1.00  0.00     0.001 A 
BRANCH   5  10
ATOM     10  C   UNL     1      55.937 -42.748 -26.189  1.00  0.00     0.072 C 
ATOM     11  O   UNL     1      56.454 -42.323 -27.257  1.00  0.00    -0.545 OA
ATOM     12  O   UNL     1      56.088 -44.089 -25.860  1.00  0.00    -0.545 OA
ENDBRANCH   5  10
ENDBRANCH   2   4
ENDBRANCH   1   2
BRANCH   1  13
ATOM     13  C   UNL     1      53.321 -40.866 -28.239  1.00  0.00     0.008 C 
BRANCH  13  14
ATOM     14  C   UNL     1      53.345 -39.359 -27.943  1.00  0.00    -0.003 C 
ATOM     15  C   UNL     1      54.742 -38.904 -27.530  1.00  0.00     0.004 C 
ENDBRANCH  13  14
ENDBRANCH   1  13
TORSDOF 5
ENDMDL
MODEL 9
REMARK VINA RESULT:    -4.096      4.944      6.670
REMARK INTER + INTRA:          -5.920
REMARK INTER:                  -4.909
REMARK INTRA:                  -1.011
REMARK UNBOUND:                -0.627
REMARK SMILES CCCCC(=O)c1ccccc1C(=O)[O-]
REMARK SMILES IDX 4 1 5 2 6 3 7 4 12 5 11 6 10 7 8 8 9 9 13 10 14 11 15 12
REMARK SMILES IDX 3 13 2 14 1 15
REMARK H PARENT
REMARK Flexibility Score: inf
ROOT
ATOM      1  C   UNL     1      55.551 -39.062 -23.150  1.00  0.00     0.081 C 
ENDROOT
BRANCH   1   2
ATOM      2  C   UNL     1      56.523 -39.694 -24.112  1.00  0.00     0.163 C 
ATOM      3  O   UNL     1      57.720 -39.299 -24.114  1.00  0.00    -0.294 OA
BRANCH   2   4
ATOM      4  C   UNL     1      56.101 -40.747 -25.065  1.00  0.00     0.027 A 
ATOM      5  C   UNL     1      55.580 -40.438 -26.353  1.00  0.00     0.008 A 
ATOM      6  C   UNL     1      55.294 -41.492 -27.243  1.00  0.00     0.011 A 
ATOM      7  C   UNL     1      55.495 -42.820 -26.868  1.00  0.00     0.001 A 
ATOM      8  C   UNL     1      56.296 -42.093 -24.709  1.00  0.00     0.012 A 
ATOM      9  C   UNL     1      55.990 -43.120 -25.601  1.00  0.00     0.001 A 
BRANCH   5  10
ATOM     10  C   UNL     1      55.278 -39.051 -26.787  1.00  0.00     0.072 C 
ATOM     11  O   UNL     1      54.129 -38.566 -26.603  1.00  0.00    -0.545 OA
ATOM     12  O   UNL     1      56.259 -38.247 -27.353  1.00  0.00    -0.545 OA
ENDBRANCH   5  10
ENDBRANCH   2   4
ENDBRANCH   1   2
BRANCH   1  13
ATOM     13  C   UNL     1      54.433 -40.034 -22.749  1.00  0.00     0.008 C 
BRANCH  13  14
ATOM     14  C   UNL     1      53.105 -39.711 -23.450  1.00  0.00    -0.003 C 
ATOM     15  C   UNL     1      52.563 -40.931 -24.188  1.00  0.00     0.004 C 
ENDBRANCH  13  14
ENDBRANCH   1  13
TORSDOF 5
ENDMDL
