MODEL 1
REMARK VINA RESULT:    -4.985      0.000      0.000
REMARK INTER + INTRA:         -14.801
REMARK INTER:                 -11.395
REMARK INTRA:                  -3.406
REMARK UNBOUND:                -3.406
REMARK SMILES CCCCCCCCCCCCCCCCCCCCCCCC(=O)[O-]
REMARK SMILES IDX 13 1 14 2 15 3 16 4 17 5 18 6 19 7 20 8 21 9 22 10 23 11
REMARK SMILES IDX 24 12 25 13 26 14 12 15 11 16 10 17 9 18 8 19 7 20 6 21 5 22
REMARK SMILES IDX 4 23 3 24 2 25 1 26
REMARK H PARENT
REMARK Flexibility Score: inf
ROOT
ATOM      1  C   UNL     1      21.912  11.494  32.174  1.00  0.00     0.000 C 
ENDROOT
BRANCH   1   2
ATOM      2  C   UNL     1      21.651  12.385  30.950  1.00  0.00     0.000 C 
BRANCH   2   3
ATOM      3  C   UNL     1      20.215  12.937  30.908  1.00  0.00     0.000 C 
BRANCH   3   4
ATOM      4  C   UNL     1      19.621  13.135  32.311  1.00  0.00     0.000 C 
BRANCH   4   5
ATOM      5  C   UNL     1      20.134  14.417  32.993  1.00  0.00     0.000 C 
BRANCH   5   6
ATOM      6  C   UNL     1      20.529  14.188  34.460  1.00  0.00     0.000 C 
BRANCH   6   7
ATOM      7  C   UNL     1      19.363  13.660  35.309  1.00  0.00     0.000 C 
BRANCH   7   8
ATOM      8  C   UNL     1      19.768  12.393  36.071  1.00  0.00     0.000 C 
BRANCH   8   9
ATOM      9  C   UNL     1      19.406  11.130  35.273  1.00  0.00     0.000 C 
BRANCH   9  10
ATOM     10  C   UNL     1      20.053   9.857  35.847  1.00  0.00     0.006 C 
BRANCH  10  11
ATOM     11  C   UNL     1      19.266   8.567  35.566  1.00  0.00     0.053 C 
BRANCH  11  12
ATOM     12  C   UNL     1      18.977   7.801  36.820  1.00  0.00     0.041 C 
ATOM     13  O   UNL     1      19.581   8.084  37.888  1.00  0.00    -0.550 OA
ATOM     14  O   UNL     1      18.030   6.784  36.814  1.00  0.00    -0.550 OA
ENDBRANCH  11  12
ENDBRANCH  10  11
ENDBRANCH   9  10
ENDBRANCH   8   9
ENDBRANCH   7   8
ENDBRANCH   6   7
ENDBRANCH   5   6
ENDBRANCH   4   5
ENDBRANCH   3   4
ENDBRANCH   2   3
ENDBRANCH   1   2
BRANCH   1  15
ATOM     15  C   UNL     1      23.092  11.990  33.028  1.00  0.00     0.000 C 
BRANCH  15  16
ATOM     16  C   UNL     1      23.045  11.442  34.463  1.00  0.00     0.000 C 
BRANCH  16  17
ATOM     17  C   UNL     1      23.520  12.472  35.503  1.00  0.00     0.000 C 
BRANCH  17  18
ATOM     18  C   UNL     1      24.948  12.195  36.006  1.00  0.00    -0.000 C 
BRANCH  18  19
ATOM     19  C   UNL     1      25.580  10.884  35.491  1.00  0.00    -0.000 C 
BRANCH  19  20
ATOM     20  C   UNL     1      26.800  11.058  34.568  1.00  0.00    -0.000 C 
BRANCH  20  21
ATOM     21  C   UNL     1      27.585  12.351  34.849  1.00  0.00    -0.000 C 
BRANCH  21  22
ATOM     22  C   UNL     1      27.654  13.283  33.626  1.00  0.00    -0.000 C 
BRANCH  22  23
ATOM     23  C   UNL     1      26.394  13.294  32.737  1.00  0.00    -0.000 C 
BRANCH  23  24
ATOM     24  C   UNL     1      26.635  12.943  31.255  1.00  0.00    -0.000 C 
BRANCH  24  25
ATOM     25  C   UNL     1      27.903  12.112  30.987  1.00  0.00    -0.003 C 
ATOM     26  C   UNL     1      27.603  10.639  30.718  1.00  0.00     0.004 C 
ENDBRANCH  24  25
ENDBRANCH  23  24
ENDBRANCH  22  23
ENDBRANCH  21  22
ENDBRANCH  20  21
ENDBRANCH  19  20
ENDBRANCH  18  19
ENDBRANCH  17  18
ENDBRANCH  16  17
ENDBRANCH  15  16
ENDBRANCH   1  15
TORSDOF 22
ENDMDL
MODEL 2
REMARK VINA RESULT:    -4.876      3.298      7.845
REMARK INTER + INTRA:         -14.553
REMARK INTER:                 -10.811
REMARK INTRA:                  -3.742
REMARK UNBOUND:                -3.406
REMARK SMILES CCCCCCCCCCCCCCCCCCCCCCCC(=O)[O-]
REMARK SMILES IDX 13 1 14 2 15 3 16 4 17 5 18 6 19 7 20 8 21 9 22 10 23 11
REMARK SMILES IDX 24 12 25 13 26 14 12 15 11 16 10 17 9 18 8 19 7 20 6 21 5 22
REMARK SMILES IDX 4 23 3 24 2 25 1 26
REMARK H PARENT
REMARK Flexibility Score: inf
ROOT
ATOM      1  C   UNL     1      21.565  12.998  35.395  1.00  0.00     0.000 C 
ENDROOT
BRANCH   1   2
ATOM      2  C   UNL     1      22.293  11.727  35.860  1.00  0.00     0.000 C 
BRANCH   2   3
ATOM      3  C   UNL     1      23.088  11.048  34.730  1.00  0.00     0.000 C 
BRANCH   3   4
ATOM      4  C   UNL     1      24.293  11.886  34.275  1.00  0.00     0.000 C 
BRANCH   4   5
ATOM      5  C   UNL     1      25.436  11.885  35.306  1.00  0.00     0.000 C 
BRANCH   5   6
ATOM      6  C   UNL     1      25.871  13.303  35.707  1.00  0.00     0.000 C 
BRANCH   6   7
ATOM      7  C   UNL     1      27.070  13.805  34.888  1.00  0.00     0.000 C 
BRANCH   7   8
ATOM      8  C   UNL     1      27.894  12.631  34.346  1.00  0.00     0.000 C 
BRANCH   8   9
ATOM      9  C   UNL     1      28.000  12.692  32.814  1.00  0.00     0.000 C 
BRANCH   9  10
ATOM     10  C   UNL     1      27.309  11.505  32.121  1.00  0.00     0.006 C 
BRANCH  10  11
ATOM     11  C   UNL     1      27.130  11.677  30.604  1.00  0.00     0.053 C 
BRANCH  11  12
ATOM     12  C   UNL     1      25.946  12.532  30.271  1.00  0.00     0.041 C 
ATOM     13  O   UNL     1      24.793  12.025  30.222  1.00  0.00    -0.550 OA
ATOM     14  O   UNL     1      26.112  13.890  30.032  1.00  0.00    -0.550 OA
ENDBRANCH  11  12
ENDBRANCH  10  11
ENDBRANCH   9  10
ENDBRANCH   8   9
ENDBRANCH   7   8
ENDBRANCH   6   7
ENDBRANCH   5   6
ENDBRANCH   4   5
ENDBRANCH   3   4
ENDBRANCH   2   3
ENDBRANCH   1   2
BRANCH   1  15
ATOM     15  C   UNL     1      20.034  12.855  35.438  1.00  0.00     0.000 C 
BRANCH  15  16
ATOM     16  C   UNL     1      19.355  13.450  34.195  1.00  0.00     0.000 C 
BRANCH  16  17
ATOM     17  C   UNL     1      20.338  14.226  33.301  1.00  0.00     0.000 C 
BRANCH  17  18
ATOM     18  C   UNL     1      20.412  13.664  31.870  1.00  0.00    -0.000 C 
BRANCH  18  19
ATOM     19  C   UNL     1      21.566  12.671  31.615  1.00  0.00    -0.000 C 
BRANCH  19  20
ATOM     20  C   UNL     1      21.209  11.183  31.792  1.00  0.00    -0.000 C 
BRANCH  20  21
ATOM     21  C   UNL     1      19.739  10.877  31.458  1.00  0.00    -0.000 C 
BRANCH  21  22
ATOM     22  C   UNL     1      19.000  10.179  32.614  1.00  0.00    -0.000 C 
BRANCH  22  23
ATOM     23  C   UNL     1      19.909   9.550  33.690  1.00  0.00    -0.000 C 
BRANCH  23  24
ATOM     24  C   UNL     1      19.175   9.008  34.933  1.00  0.00    -0.000 C 
BRANCH  24  25
ATOM     25  C   UNL     1      20.046   8.890  36.196  1.00  0.00    -0.003 C 
ATOM     26  C   UNL     1      19.346   8.149  37.334  1.00  0.00     0.004 C 
ENDBRANCH  24  25
ENDBRANCH  23  24
ENDBRANCH  22  23
ENDBRANCH  21  22
ENDBRANCH  20  21
ENDBRANCH  19  20
ENDBRANCH  18  19
ENDBRANCH  17  18
ENDBRANCH  16  17
ENDBRANCH  15  16
ENDBRANCH   1  15
TORSDOF 22
ENDMDL
MODEL 3
REMARK VINA RESULT:    -4.859      2.094      3.614
REMARK INTER + INTRA:         -14.515
REMARK INTER:                 -11.158
REMARK INTRA:                  -3.357
REMARK UNBOUND:                -3.406
REMARK SMILES CCCCCCCCCCCCCCCCCCCCCCCC(=O)[O-]
REMARK SMILES IDX 13 1 14 2 15 3 16 4 17 5 18 6 19 7 20 8 21 9 22 10 23 11
REMARK SMILES IDX 24 12 25 13 26 14 12 15 11 16 10 17 9 18 8 19 7 20 6 21 5 22
REMARK SMILES IDX 4 23 3 24 2 25 1 26
REMARK H PARENT
REMARK Flexibility Score: inf
ROOT
ATOM      1  C   UNL     1      22.032  10.329  35.581  1.00  0.00     0.000 C 
ENDROOT
BRANCH   1   2
ATOM      2  C   UNL     1      20.566   9.961  35.858  1.00  0.00     0.000 C 
BRANCH   2   3
ATOM      3  C   UNL     1      19.575  10.979  35.266  1.00  0.00     0.000 C 
BRANCH   3   4
ATOM      4  C   UNL     1      19.492  12.269  36.096  1.00  0.00     0.000 C 
BRANCH   4   5
ATOM      5  C   UNL     1      19.196  13.509  35.232  1.00  0.00     0.000 C 
BRANCH   5   6
ATOM      6  C   UNL     1      20.458  14.081  34.568  1.00  0.00     0.000 C 
BRANCH   6   7
ATOM      7  C   UNL     1      20.229  14.463  33.098  1.00  0.00     0.000 C 
BRANCH   7   8
ATOM      8  C   UNL     1      20.782  13.386  32.157  1.00  0.00     0.000 C 
BRANCH   8   9
ATOM      9  C   UNL     1      20.018  13.371  30.825  1.00  0.00     0.000 C 
BRANCH   9  10
ATOM     10  C   UNL     1      19.362  12.010  30.528  1.00  0.00     0.006 C 
BRANCH  10  11
ATOM     11  C   UNL     1      19.269  11.076  31.745  1.00  0.00     0.053 C 
BRANCH  11  12
ATOM     12  C   UNL     1      19.946   9.763  31.497  1.00  0.00     0.041 C 
ATOM     13  O   UNL     1      20.028   8.909  32.419  1.00  0.00    -0.550 OA
ATOM     14  O   UNL     1      20.470   9.474  30.243  1.00  0.00    -0.550 OA
ENDBRANCH  11  12
ENDBRANCH  10  11
ENDBRANCH   9  10
ENDBRANCH   8   9
ENDBRANCH   7   8
ENDBRANCH   6   7
ENDBRANCH   5   6
ENDBRANCH   4   5
ENDBRANCH   3   4
ENDBRANCH   2   3
ENDBRANCH   1   2
BRANCH   1  15
ATOM     15  C   UNL     1      22.220  11.044  34.232  1.00  0.00     0.000 C 
BRANCH  15  16
ATOM     16  C   UNL     1      23.504  11.886  34.190  1.00  0.00     0.000 C 
BRANCH  16  17
ATOM     17  C   UNL     1      23.824  12.542  35.545  1.00  0.00     0.000 C 
BRANCH  17  18
ATOM     18  C   UNL     1      25.300  12.383  35.950  1.00  0.00    -0.000 C 
BRANCH  18  19
ATOM     19  C   UNL     1      26.037  11.199  35.287  1.00  0.00    -0.000 C 
BRANCH  19  20
ATOM     20  C   UNL     1      27.515  11.453  34.939  1.00  0.00    -0.000 C 
BRANCH  20  21
ATOM     21  C   UNL     1      27.835  12.944  34.738  1.00  0.00    -0.000 C 
BRANCH  21  22
ATOM     22  C   UNL     1      27.604  13.411  33.289  1.00  0.00    -0.000 C 
BRANCH  22  23
ATOM     23  C   UNL     1      27.856  12.343  32.206  1.00  0.00    -0.000 C 
BRANCH  23  24
ATOM     24  C   UNL     1      27.315  12.690  30.805  1.00  0.00    -0.000 C 
BRANCH  24  25
ATOM     25  C   UNL     1      25.988  13.468  30.801  1.00  0.00    -0.003 C 
ATOM     26  C   UNL     1      24.763  12.556  30.838  1.00  0.00     0.004 C 
ENDBRANCH  24  25
ENDBRANCH  23  24
ENDBRANCH  22  23
ENDBRANCH  21  22
ENDBRANCH  20  21
ENDBRANCH  19  20
ENDBRANCH  18  19
ENDBRANCH  17  18
ENDBRANCH  16  17
ENDBRANCH  15  16
ENDBRANCH   1  15
TORSDOF 22
ENDMDL
MODEL 4
REMARK VINA RESULT:    -4.853      1.372      6.122
REMARK INTER + INTRA:         -14.500
REMARK INTER:                 -11.201
REMARK INTRA:                  -3.300
REMARK UNBOUND:                -3.406
REMARK SMILES CCCCCCCCCCCCCCCCCCCCCCCC(=O)[O-]
REMARK SMILES IDX 13 1 14 2 15 3 16 4 17 5 18 6 19 7 20 8 21 9 22 10 23 11
REMARK SMILES IDX 24 12 25 13 26 14 12 15 11 16 10 17 9 18 8 19 7 20 6 21 5 22
REMARK SMILES IDX 4 23 3 24 2 25 1 26
REMARK H PARENT
REMARK Flexibility Score: inf
ROOT
ATOM      1  C   UNL     1      27.443  11.279  31.979  1.00  0.00     0.000 C 
ENDROOT
BRANCH   1   2
ATOM      2  C   UNL     1      28.349  12.090  32.918  1.00  0.00     0.000 C 
BRANCH   2   3
ATOM      3  C   UNL     1      28.001  11.890  34.403  1.00  0.00     0.000 C 
BRANCH   3   4
ATOM      4  C   UNL     1      27.688  13.214  35.117  1.00  0.00     0.000 C 
BRANCH   4   5
ATOM      5  C   UNL     1      26.205  13.338  35.508  1.00  0.00     0.000 C 
BRANCH   5   6
ATOM      6  C   UNL     1      25.415  12.046  35.248  1.00  0.00     0.000 C 
BRANCH   6   7
ATOM      7  C   UNL     1      24.548  12.129  33.984  1.00  0.00     0.000 C 
BRANCH   7   8
ATOM      8  C   UNL     1      23.182  11.470  34.210  1.00  0.00     0.000 C 
BRANCH   8   9
ATOM      9  C   UNL     1      23.138  10.740  35.561  1.00  0.00     0.000 C 
BRANCH   9  10
ATOM     10  C   UNL     1      21.707  10.382  36.000  1.00  0.00     0.006 C 
BRANCH  10  11
ATOM     11  C   UNL     1      20.887   9.640  34.933  1.00  0.00     0.053 C 
BRANCH  11  12
ATOM     12  C   UNL     1      19.581   9.144  35.474  1.00  0.00     0.041 C 
ATOM     13  O   UNL     1      18.526   9.272  34.797  1.00  0.00    -0.550 OA
ATOM     14  O   UNL     1      19.530   8.525  36.717  1.00  0.00    -0.550 OA
ENDBRANCH  11  12
ENDBRANCH  10  11
ENDBRANCH   9  10
ENDBRANCH   8   9
ENDBRANCH   7   8
ENDBRANCH   6   7
ENDBRANCH   5   6
ENDBRANCH   4   5
ENDBRANCH   3   4
ENDBRANCH   2   3
ENDBRANCH   1   2
BRANCH   1  15
ATOM     15  C   UNL     1      27.049  12.059  30.713  1.00  0.00     0.000 C 
BRANCH  15  16
ATOM     16  C   UNL     1      26.151  13.266  31.025  1.00  0.00     0.000 C 
BRANCH  16  17
ATOM     17  C   UNL     1      24.936  13.355  30.085  1.00  0.00     0.000 C 
BRANCH  17  18
ATOM     18  C   UNL     1      23.939  12.200  30.290  1.00  0.00    -0.000 C 
BRANCH  18  19
ATOM     19  C   UNL     1      22.510  12.631  30.685  1.00  0.00    -0.000 C 
BRANCH  19  20
ATOM     20  C   UNL     1      21.616  11.514  31.254  1.00  0.00    -0.000 C 
BRANCH  20  21
ATOM     21  C   UNL     1      20.182  11.985  31.548  1.00  0.00    -0.000 C 
BRANCH  21  22
ATOM     22  C   UNL     1      20.065  13.518  31.627  1.00  0.00    -0.000 C 
BRANCH  22  23
ATOM     23  C   UNL     1      19.706  14.079  33.018  1.00  0.00    -0.000 C 
BRANCH  23  24
ATOM     24  C   UNL     1      20.818  13.956  34.080  1.00  0.00    -0.000 C 
BRANCH  24  25
ATOM     25  C   UNL     1      20.317  13.687  35.510  1.00  0.00    -0.003 C 
ATOM     26  C   UNL     1      18.965  12.976  35.543  1.00  0.00     0.004 C 
ENDBRANCH  24  25
ENDBRANCH  23  24
ENDBRANCH  22  23
ENDBRANCH  21  22
ENDBRANCH  20  21
ENDBRANCH  19  20
ENDBRANCH  18  19
ENDBRANCH  17  18
ENDBRANCH  16  17
ENDBRANCH  15  16
ENDBRANCH   1  15
TORSDOF 22
ENDMDL
MODEL 5
REMARK VINA RESULT:    -4.849      3.418      7.875
REMARK INTER + INTRA:         -14.490
REMARK INTER:                 -11.248
REMARK INTRA:                  -3.242
REMARK UNBOUND:                -3.406
REMARK SMILES CCCCCCCCCCCCCCCCCCCCCCCC(=O)[O-]
REMARK SMILES IDX 13 1 14 2 15 3 16 4 17 5 18 6 19 7 20 8 21 9 22 10 23 11
REMARK SMILES IDX 24 12 25 13 26 14 12 15 11 16 10 17 9 18 8 19 7 20 6 21 5 22
REMARK SMILES IDX 4 23 3 24 2 25 1 26
REMARK H PARENT
REMARK Flexibility Score: inf
ROOT
ATOM      1  C   UNL     1      20.633  14.182  34.250  1.00  0.00     0.000 C 
ENDROOT
BRANCH   1   2
ATOM      2  C   UNL     1      20.137  13.461  35.513  1.00  0.00     0.000 C 
BRANCH   2   3
ATOM      3  C   UNL     1      21.041  12.285  35.922  1.00  0.00     0.000 C 
BRANCH   3   4
ATOM      4  C   UNL     1      22.453  12.395  35.327  1.00  0.00     0.000 C 
BRANCH   4   5
ATOM      5  C   UNL     1      23.211  11.055  35.352  1.00  0.00     0.000 C 
BRANCH   5   6
ATOM      6  C   UNL     1      24.616  11.183  35.961  1.00  0.00     0.000 C 
BRANCH   6   7
ATOM      7  C   UNL     1      25.197  12.597  35.812  1.00  0.00     0.000 C 
BRANCH   7   8
ATOM      8  C   UNL     1      26.562  12.560  35.116  1.00  0.00     0.000 C 
BRANCH   8   9
ATOM      9  C   UNL     1      26.494  11.752  33.810  1.00  0.00     0.000 C 
BRANCH   9  10
ATOM     10  C   UNL     1      25.530  12.366  32.779  1.00  0.00     0.006 C 
BRANCH  10  11
ATOM     11  C   UNL     1      26.225  13.132  31.642  1.00  0.00     0.053 C 
BRANCH  11  12
ATOM     12  C   UNL     1      27.305  12.319  30.996  1.00  0.00     0.041 C 
ATOM     13  O   UNL     1      27.016  11.265  30.370  1.00  0.00    -0.550 OA
ATOM     14  O   UNL     1      28.629  12.734  31.071  1.00  0.00    -0.550 OA
ENDBRANCH  11  12
ENDBRANCH  10  11
ENDBRANCH   9  10
ENDBRANCH   8   9
ENDBRANCH   7   8
ENDBRANCH   6   7
ENDBRANCH   5   6
ENDBRANCH   4   5
ENDBRANCH   3   4
ENDBRANCH   2   3
ENDBRANCH   1   2
BRANCH   1  15
ATOM     15  C   UNL     1      19.603  14.155  33.108  1.00  0.00     0.000 C 
BRANCH  15  16
ATOM     16  C   UNL     1      20.254  13.895  31.740  1.00  0.00     0.000 C 
BRANCH  16  17
ATOM     17  C   UNL     1      21.414  12.886  31.821  1.00  0.00     0.000 C 
BRANCH  17  18
ATOM     18  C   UNL     1      21.379  11.848  30.686  1.00  0.00    -0.000 C 
BRANCH  18  19
ATOM     19  C   UNL     1      21.021  10.411  31.124  1.00  0.00    -0.000 C 
BRANCH  19  20
ATOM     20  C   UNL     1      20.654  10.246  32.610  1.00  0.00    -0.000 C 
BRANCH  20  21
ATOM     21  C   UNL     1      19.146  10.392  32.874  1.00  0.00    -0.000 C 
BRANCH  21  22
ATOM     22  C   UNL     1      18.791  10.286  34.368  1.00  0.00    -0.000 C 
BRANCH  22  23
ATOM     23  C   UNL     1      19.078   8.916  35.016  1.00  0.00    -0.000 C 
BRANCH  23  24
ATOM     24  C   UNL     1      19.650   8.975  36.446  1.00  0.00    -0.000 C 
BRANCH  24  25
ATOM     25  C   UNL     1      19.376   7.726  37.303  1.00  0.00    -0.003 C 
ATOM     26  C   UNL     1      18.307   6.816  36.702  1.00  0.00     0.004 C 
ENDBRANCH  24  25
ENDBRANCH  23  24
ENDBRANCH  22  23
ENDBRANCH  21  22
ENDBRANCH  20  21
ENDBRANCH  19  20
ENDBRANCH  18  19
ENDBRANCH  17  18
ENDBRANCH  16  17
ENDBRANCH  15  16
ENDBRANCH   1  15
TORSDOF 22
ENDMDL
MODEL 6
REMARK VINA RESULT:    -4.817      3.223      7.514
REMARK INTER + INTRA:         -14.418
REMARK INTER:                 -10.628
REMARK INTRA:                  -3.790
REMARK UNBOUND:                -3.406
REMARK SMILES CCCCCCCCCCCCCCCCCCCCCCCC(=O)[O-]
REMARK SMILES IDX 13 1 14 2 15 3 16 4 17 5 18 6 19 7 20 8 21 9 22 10 23 11
REMARK SMILES IDX 24 12 25 13 26 14 12 15 11 16 10 17 9 18 8 19 7 20 6 21 5 22
REMARK SMILES IDX 4 23 3 24 2 25 1 26
REMARK H PARENT
REMARK Flexibility Score: inf
ROOT
ATOM      1  C   UNL     1      19.534   9.597  35.685  1.00  0.00     0.000 C 
ENDROOT
BRANCH   1   2
ATOM      2  C   UNL     1      21.032   9.321  35.484  1.00  0.00     0.000 C 
BRANCH   2   3
ATOM      3  C   UNL     1      21.891  10.595  35.578  1.00  0.00     0.000 C 
BRANCH   3   4
ATOM      4  C   UNL     1      22.437  11.037  34.212  1.00  0.00     0.000 C 
BRANCH   4   5
ATOM      5  C   UNL     1      23.439  12.200  34.326  1.00  0.00     0.000 C 
BRANCH   5   6
ATOM      6  C   UNL     1      23.774  12.551  35.784  1.00  0.00     0.000 C 
BRANCH   6   7
ATOM      7  C   UNL     1      25.168  12.063  36.203  1.00  0.00     0.000 C 
BRANCH   7   8
ATOM      8  C   UNL     1      26.064  11.842  34.978  1.00  0.00     0.000 C 
BRANCH   8   9
ATOM      9  C   UNL     1      27.162  12.914  34.896  1.00  0.00     0.000 C 
BRANCH   9  10
ATOM     10  C   UNL     1      27.532  13.279  33.448  1.00  0.00     0.006 C 
BRANCH  10  11
ATOM     11  C   UNL     1      28.227  12.150  32.670  1.00  0.00     0.053 C 
BRANCH  11  12
ATOM     12  C   UNL     1      27.364  11.612  31.570  1.00  0.00     0.041 C 
ATOM     13  O   UNL     1      27.762  10.644  30.869  1.00  0.00    -0.550 OA
ATOM     14  O   UNL     1      26.113  12.167  31.330  1.00  0.00    -0.550 OA
ENDBRANCH  11  12
ENDBRANCH  10  11
ENDBRANCH   9  10
ENDBRANCH   8   9
ENDBRANCH   7   8
ENDBRANCH   6   7
ENDBRANCH   5   6
ENDBRANCH   4   5
ENDBRANCH   3   4
ENDBRANCH   2   3
ENDBRANCH   1   2
BRANCH   1  15
ATOM     15  C   UNL     1      18.797   9.862  34.361  1.00  0.00     0.000 C 
BRANCH  15  16
ATOM     16  C   UNL     1      19.405   9.082  33.186  1.00  0.00     0.000 C 
BRANCH  16  17
ATOM     17  C   UNL     1      19.148   9.762  31.830  1.00  0.00     0.000 C 
BRANCH  17  18
ATOM     18  C   UNL     1      20.448  10.109  31.082  1.00  0.00    -0.000 C 
BRANCH  18  19
ATOM     19  C   UNL     1      20.393  11.403  30.241  1.00  0.00    -0.000 C 
BRANCH  19  20
ATOM     20  C   UNL     1      21.515  12.420  30.521  1.00  0.00    -0.000 C 
BRANCH  20  21
ATOM     21  C   UNL     1      21.112  13.487  31.552  1.00  0.00    -0.000 C 
BRANCH  21  22
ATOM     22  C   UNL     1      19.595  13.522  31.810  1.00  0.00    -0.000 C 
BRANCH  22  23
ATOM     23  C   UNL     1      19.182  13.576  33.295  1.00  0.00    -0.000 C 
BRANCH  23  24
ATOM     24  C   UNL     1      20.288  14.034  34.266  1.00  0.00    -0.000 C 
BRANCH  24  25
ATOM     25  C   UNL     1      20.071  13.620  35.732  1.00  0.00    -0.003 C 
ATOM     26  C   UNL     1      18.636  13.184  36.021  1.00  0.00     0.004 C 
ENDBRANCH  24  25
ENDBRANCH  23  24
ENDBRANCH  22  23
ENDBRANCH  21  22
ENDBRANCH  20  21
ENDBRANCH  19  20
ENDBRANCH  18  19
ENDBRANCH  17  18
ENDBRANCH  16  17
ENDBRANCH  15  16
ENDBRANCH   1  15
TORSDOF 22
ENDMDL
MODEL 7
REMARK VINA RESULT:    -4.760      3.632      8.198
REMARK INTER + INTRA:         -14.288
REMARK INTER:                 -10.970
REMARK INTRA:                  -3.317
REMARK UNBOUND:                -3.406
REMARK SMILES CCCCCCCCCCCCCCCCCCCCCCCC(=O)[O-]
REMARK SMILES IDX 13 1 14 2 15 3 16 4 17 5 18 6 19 7 20 8 21 9 22 10 23 11
REMARK SMILES IDX 24 12 25 13 26 14 12 15 11 16 10 17 9 18 8 19 7 20 6 21 5 22
REMARK SMILES IDX 4 23 3 24 2 25 1 26
REMARK H PARENT
REMARK Flexibility Score: inf
ROOT
ATOM      1  C   UNL     1      22.817  11.142  34.363  1.00  0.00     0.000 C 
ENDROOT
BRANCH   1   2
ATOM      2  C   UNL     1      23.160  11.159  35.861  1.00  0.00     0.000 C 
BRANCH   2   3
ATOM      3  C   UNL     1      24.658  11.391  36.126  1.00  0.00     0.000 C 
BRANCH   3   4
ATOM      4  C   UNL     1      24.985  12.866  36.404  1.00  0.00     0.000 C 
BRANCH   4   5
ATOM      5  C   UNL     1      26.218  13.355  35.624  1.00  0.00     0.000 C 
BRANCH   5   6
ATOM      6  C   UNL     1      27.320  12.288  35.531  1.00  0.00     0.000 C 
BRANCH   6   7
ATOM      7  C   UNL     1      27.720  11.979  34.081  1.00  0.00     0.000 C 
BRANCH   7   8
ATOM      8  C   UNL     1      26.529  11.429  33.287  1.00  0.00     0.000 C 
BRANCH   8   9
ATOM      9  C   UNL     1      25.770  12.561  32.577  1.00  0.00     0.000 C 
BRANCH   9  10
ATOM     10  C   UNL     1      25.657  12.342  31.058  1.00  0.00     0.006 C 
BRANCH  10  11
ATOM     11  C   UNL     1      26.794  12.974  30.242  1.00  0.00     0.053 C 
BRANCH  11  12
ATOM     12  C   UNL     1      28.107  12.294  30.487  1.00  0.00     0.041 C 
ATOM     13  O   UNL     1      29.118  12.970  30.813  1.00  0.00    -0.550 OA
ATOM     14  O   UNL     1      28.208  10.913  30.372  1.00  0.00    -0.550 OA
ENDBRANCH  11  12
ENDBRANCH  10  11
ENDBRANCH   9  10
ENDBRANCH   8   9
ENDBRANCH   7   8
ENDBRANCH   6   7
ENDBRANCH   5   6
ENDBRANCH   4   5
ENDBRANCH   3   4
ENDBRANCH   2   3
ENDBRANCH   1   2
BRANCH   1  15
ATOM     15  C   UNL     1      22.388  12.523  33.838  1.00  0.00     0.000 C 
BRANCH  15  16
ATOM     16  C   UNL     1      21.589  13.323  34.878  1.00  0.00     0.000 C 
BRANCH  16  17
ATOM     17  C   UNL     1      20.506  14.208  34.237  1.00  0.00     0.000 C 
BRANCH  17  18
ATOM     18  C   UNL     1      20.289  13.897  32.746  1.00  0.00    -0.000 C 
BRANCH  18  19
ATOM     19  C   UNL     1      18.812  13.807  32.304  1.00  0.00    -0.000 C 
BRANCH  19  20
ATOM     20  C   UNL     1      18.221  12.386  32.261  1.00  0.00    -0.000 C 
BRANCH  20  21
ATOM     21  C   UNL     1      19.293  11.296  32.090  1.00  0.00    -0.000 C 
BRANCH  21  22
ATOM     22  C   UNL     1      19.381  10.352  33.302  1.00  0.00    -0.000 C 
BRANCH  22  23
ATOM     23  C   UNL     1      18.753  10.894  34.603  1.00  0.00    -0.000 C 
BRANCH  23  24
ATOM     24  C   UNL     1      19.475  10.479  35.901  1.00  0.00    -0.000 C 
BRANCH  24  25
ATOM     25  C   UNL     1      20.065   9.057  35.884  1.00  0.00    -0.003 C 
ATOM     26  C   UNL     1      19.414   8.130  36.909  1.00  0.00     0.004 C 
ENDBRANCH  24  25
ENDBRANCH  23  24
ENDBRANCH  22  23
ENDBRANCH  21  22
ENDBRANCH  20  21
ENDBRANCH  19  20
ENDBRANCH  18  19
ENDBRANCH  17  18
ENDBRANCH  16  17
ENDBRANCH  15  16
ENDBRANCH   1  15
TORSDOF 22
ENDMDL
MODEL 8
REMARK VINA RESULT:    -4.717      1.407      3.279
REMARK INTER + INTRA:         -14.189
REMARK INTER:                 -10.352
REMARK INTRA:                  -3.837
REMARK UNBOUND:                -3.406
REMARK SMILES CCCCCCCCCCCCCCCCCCCCCCCC(=O)[O-]
REMARK SMILES IDX 13 1 14 2 15 3 16 4 17 5 18 6 19 7 20 8 21 9 22 10 23 11
REMARK SMILES IDX 24 12 25 13 26 14 12 15 11 16 10 17 9 18 8 19 7 20 6 21 5 22
REMARK SMILES IDX 4 23 3 24 2 25 1 26
REMARK H PARENT
REMARK Flexibility Score: inf
ROOT
ATOM      1  C   UNL     1      21.984  11.418  32.449  1.00  0.00     0.000 C 
ENDROOT
BRANCH   1   2
ATOM      2  C   UNL     1      21.196  11.065  31.179  1.00  0.00     0.000 C 
BRANCH   2   3
ATOM      3  C   UNL     1      19.811  11.734  31.130  1.00  0.00     0.000 C 
BRANCH   3   4
ATOM      4  C   UNL     1      19.831  13.068  30.368  1.00  0.00     0.000 C 
BRANCH   4   5
ATOM      5  C   UNL     1      19.357  14.250  31.234  1.00  0.00     0.000 C 
BRANCH   5   6
ATOM      6  C   UNL     1      19.284  13.895  32.728  1.00  0.00     0.000 C 
BRANCH   6   7
ATOM      7  C   UNL     1      20.390  14.574  33.550  1.00  0.00     0.000 C 
BRANCH   7   8
ATOM      8  C   UNL     1      20.707  13.769  34.815  1.00  0.00     0.000 C 
BRANCH   8   9
ATOM      9  C   UNL     1      19.420  13.353  35.542  1.00  0.00     0.000 C 
BRANCH   9  10
ATOM     10  C   UNL     1      19.410  11.864  35.934  1.00  0.00     0.006 C 
BRANCH  10  11
ATOM     11  C   UNL     1      18.958  10.918  34.811  1.00  0.00     0.053 C 
BRANCH  11  12
ATOM     12  C   UNL     1      19.559   9.553  34.950  1.00  0.00     0.041 C 
ATOM     13  O   UNL     1      19.458   8.925  36.037  1.00  0.00    -0.550 OA
ATOM     14  O   UNL     1      20.217   8.968  33.875  1.00  0.00    -0.550 OA
ENDBRANCH  11  12
ENDBRANCH  10  11
ENDBRANCH   9  10
ENDBRANCH   8   9
ENDBRANCH   7   8
ENDBRANCH   6   7
ENDBRANCH   5   6
ENDBRANCH   4   5
ENDBRANCH   3   4
ENDBRANCH   2   3
ENDBRANCH   1   2
BRANCH   1  15
ATOM     15  C   UNL     1      23.200  12.316  32.163  1.00  0.00     0.000 C 
BRANCH  15  16
ATOM     16  C   UNL     1      23.567  12.345  30.671  1.00  0.00     0.000 C 
BRANCH  16  17
ATOM     17  C   UNL     1      24.943  12.983  30.414  1.00  0.00     0.000 C 
BRANCH  17  18
ATOM     18  C   UNL     1      25.868  12.919  31.643  1.00  0.00    -0.000 C 
BRANCH  18  19
ATOM     19  C   UNL     1      27.127  12.042  31.470  1.00  0.00    -0.000 C 
BRANCH  19  20
ATOM     20  C   UNL     1      28.217  12.233  32.540  1.00  0.00    -0.000 C 
BRANCH  20  21
ATOM     21  C   UNL     1      27.801  11.694  33.920  1.00  0.00    -0.000 C 
BRANCH  21  22
ATOM     22  C   UNL     1      27.620  12.811  34.964  1.00  0.00    -0.000 C 
BRANCH  22  23
ATOM     23  C   UNL     1      26.170  13.037  35.438  1.00  0.00    -0.000 C 
BRANCH  23  24
ATOM     24  C   UNL     1      25.218  11.842  35.228  1.00  0.00    -0.000 C 
BRANCH  24  25
ATOM     25  C   UNL     1      23.797  12.045  35.783  1.00  0.00    -0.003 C 
ATOM     26  C   UNL     1      22.986  10.751  35.828  1.00  0.00     0.004 C 
ENDBRANCH  24  25
ENDBRANCH  23  24
ENDBRANCH  22  23
ENDBRANCH  21  22
ENDBRANCH  20  21
ENDBRANCH  19  20
ENDBRANCH  18  19
ENDBRANCH  17  18
ENDBRANCH  16  17
ENDBRANCH  15  16
ENDBRANCH   1  15
TORSDOF 22
ENDMDL
MODEL 9
REMARK VINA RESULT:    -4.716      2.513      4.507
REMARK INTER + INTRA:         -14.187
REMARK INTER:                 -10.502
REMARK INTRA:                  -3.685
REMARK UNBOUND:                -3.406
REMARK SMILES CCCCCCCCCCCCCCCCCCCCCCCC(=O)[O-]
REMARK SMILES IDX 13 1 14 2 15 3 16 4 17 5 18 6 19 7 20 8 21 9 22 10 23 11
REMARK SMILES IDX 24 12 25 13 26 14 12 15 11 16 10 17 9 18 8 19 7 20 6 21 5 22
REMARK SMILES IDX 4 23 3 24 2 25 1 26
REMARK H PARENT
REMARK Flexibility Score: inf
ROOT
ATOM      1  C   UNL     1      22.396  10.840  34.555  1.00  0.00     0.000 C 
ENDROOT
BRANCH   1   2
ATOM      2  C   UNL     1      21.744  10.403  35.875  1.00  0.00     0.000 C 
BRANCH   2   3
ATOM      3  C   UNL     1      20.353   9.775  35.674  1.00  0.00     0.000 C 
BRANCH   3   4
ATOM      4  C   UNL     1      19.275  10.823  35.362  1.00  0.00     0.000 C 
BRANCH   4   5
ATOM      5  C   UNL     1      19.389  12.072  36.255  1.00  0.00     0.000 C 
BRANCH   5   6
ATOM      6  C   UNL     1      19.227  13.380  35.465  1.00  0.00     0.000 C 
BRANCH   6   7
ATOM      7  C   UNL     1      20.566  13.925  34.947  1.00  0.00     0.000 C 
BRANCH   7   8
ATOM      8  C   UNL     1      20.498  14.207  33.440  1.00  0.00     0.000 C 
BRANCH   8   9
ATOM      9  C   UNL     1      19.221  13.614  32.825  1.00  0.00     0.000 C 
BRANCH   9  10
ATOM     10  C   UNL     1      19.503  12.751  31.583  1.00  0.00     0.006 C 
BRANCH  10  11
ATOM     11  C   UNL     1      19.735  11.262  31.887  1.00  0.00     0.053 C 
BRANCH  11  12
ATOM     12  C   UNL     1      19.924  10.457  30.639  1.00  0.00     0.041 C 
ATOM     13  O   UNL     1      18.928   9.957  30.051  1.00  0.00    -0.550 OA
ATOM     14  O   UNL     1      21.197  10.272  30.114  1.00  0.00    -0.550 OA
ENDBRANCH  11  12
ENDBRANCH  10  11
ENDBRANCH   9  10
ENDBRANCH   8   9
ENDBRANCH   7   8
ENDBRANCH   6   7
ENDBRANCH   5   6
ENDBRANCH   4   5
ENDBRANCH   3   4
ENDBRANCH   2   3
ENDBRANCH   1   2
BRANCH   1  15
ATOM     15  C   UNL     1      23.649  11.707  34.770  1.00  0.00     0.000 C 
BRANCH  15  16
ATOM     16  C   UNL     1      24.220  12.247  33.450  1.00  0.00     0.000 C 
BRANCH  16  17
ATOM     17  C   UNL     1      23.207  12.171  32.294  1.00  0.00     0.000 C 
BRANCH  17  18
ATOM     18  C   UNL     1      23.821  12.564  30.938  1.00  0.00    -0.000 C 
BRANCH  18  19
ATOM     19  C   UNL     1      25.315  12.950  30.983  1.00  0.00    -0.000 C 
BRANCH  19  20
ATOM     20  C   UNL     1      26.278  11.937  30.338  1.00  0.00    -0.000 C 
BRANCH  20  21
ATOM     21  C   UNL     1      27.251  11.307  31.350  1.00  0.00    -0.000 C 
BRANCH  21  22
ATOM     22  C   UNL     1      28.240  12.329  31.938  1.00  0.00    -0.000 C 
BRANCH  22  23
ATOM     23  C   UNL     1      28.697  12.043  33.383  1.00  0.00    -0.000 C 
BRANCH  23  24
ATOM     24  C   UNL     1      27.562  11.732  34.379  1.00  0.00    -0.000 C 
BRANCH  24  25
ATOM     25  C   UNL     1      27.304  12.829  35.427  1.00  0.00    -0.003 C 
ATOM     26  C   UNL     1      27.248  14.230  34.820  1.00  0.00     0.004 C 
ENDBRANCH  24  25
ENDBRANCH  23  24
ENDBRANCH  22  23
ENDBRANCH  21  22
ENDBRANCH  20  21
ENDBRANCH  19  20
ENDBRANCH  18  19
ENDBRANCH  17  18
ENDBRANCH  16  17
ENDBRANCH  15  16
ENDBRANCH   1  15
TORSDOF 22
ENDMDL
