MODEL 1
REMARK VINA RESULT:    -5.058      0.000      0.000
REMARK INTER + INTRA:          -5.206
REMARK INTER:                  -5.206
REMARK INTRA:                   0.000
REMARK UNBOUND:                 0.000
REMARK SMILES Oc1ccc2[nH]ccc2c1
REMARK SMILES IDX 3 1 4 2 5 3 9 4 8 5 7 6 6 7 10 8 2 9 1 11
REMARK H PARENT 6 10 1 12
REMARK Flexibility Score: inf
ROOT
ATOM      1  C   UNL     1     113.690 123.093 144.239  1.00  0.00     0.048 A 
ATOM      2  C   UNL     1     115.070 123.375 144.253  1.00  0.00     0.030 A 
ATOM      3  C   UNL     1     115.461 124.709 144.175  1.00  0.00     0.046 A 
ATOM      4  C   UNL     1     114.546 125.724 144.087  1.00  0.00     0.003 A 
ATOM      5  C   UNL     1     115.248 126.909 144.026  1.00  0.00     0.028 A 
ATOM      6  C   UNL     1     116.588 126.539 144.081  1.00  0.00     0.083 A 
ATOM      7  N   UNL     1     116.714 125.195 144.172  1.00  0.00    -0.361 N 
ATOM      8  C   UNL     1     113.174 125.479 144.071  1.00  0.00     0.056 A 
ATOM      9  C   UNL     1     112.743 124.139 144.149  1.00  0.00     0.116 A 
ATOM     10  H   UNL     1     117.603 124.650 144.229  1.00  0.00     0.166 HD
ENDROOT
BRANCH   9  11
ATOM     11  O   UNL     1     111.385 123.832 144.138  1.00  0.00    -0.508 OA
ATOM     12  H   UNL     1     110.686 124.537 143.931  1.00  0.00     0.293 HD
ENDBRANCH   9  11
TORSDOF 1
ENDMDL
MODEL 2
REMARK VINA RESULT:    -4.735      1.054      2.619
REMARK INTER + INTRA:          -4.874
REMARK INTER:                  -4.874
REMARK INTRA:                   0.000
REMARK UNBOUND:                 0.000
REMARK SMILES Oc1ccc2[nH]ccc2c1
REMARK SMILES IDX 3 1 4 2 5 3 9 4 8 5 7 6 6 7 10 8 2 9 1 11
REMARK H PARENT 6 10 1 12
REMARK Flexibility Score: inf
ROOT
ATOM      1  C   UNL     1     113.542 125.564 144.223  1.00  0.00     0.048 A 
ATOM      2  C   UNL     1     114.937 125.396 144.309  1.00  0.00     0.030 A 
ATOM      3  C   UNL     1     115.447 124.107 144.174  1.00  0.00     0.046 A 
ATOM      4  C   UNL     1     114.630 123.028 143.964  1.00  0.00     0.003 A 
ATOM      5  C   UNL     1     115.434 121.912 143.875  1.00  0.00     0.028 A 
ATOM      6  C   UNL     1     116.732 122.387 144.040  1.00  0.00     0.083 A 
ATOM      7  N   UNL     1     116.734 123.728 144.222  1.00  0.00    -0.361 N 
ATOM      8  C   UNL     1     113.246 123.159 143.875  1.00  0.00     0.056 A 
ATOM      9  C   UNL     1     112.696 124.451 144.007  1.00  0.00     0.116 A 
ATOM     10  H   UNL     1     117.568 124.339 144.369  1.00  0.00     0.166 HD
ENDROOT
BRANCH   9  11
ATOM     11  O   UNL     1     111.319 124.645 143.926  1.00  0.00    -0.508 OA
ATOM     12  H   UNL     1     110.706 123.926 143.559  1.00  0.00     0.293 HD
ENDBRANCH   9  11
TORSDOF 1
ENDMDL
MODEL 3
REMARK VINA RESULT:    -4.615      2.909      3.666
REMARK INTER + INTRA:          -4.750
REMARK INTER:                  -4.750
REMARK INTRA:                   0.000
REMARK UNBOUND:                 0.000
REMARK SMILES Oc1ccc2[nH]ccc2c1
REMARK SMILES IDX 3 1 4 2 5 3 9 4 8 5 7 6 6 7 10 8 2 9 1 11
REMARK H PARENT 6 10 1 12
REMARK Flexibility Score: inf
ROOT
ATOM      1  C   UNL     1     115.117 122.687 143.066  1.00  0.00     0.048 A 
ATOM      2  C   UNL     1     113.731 122.819 142.859  1.00  0.00     0.030 A 
ATOM      3  C   UNL     1     113.025 123.670 143.706  1.00  0.00     0.046 A 
ATOM      4  C   UNL     1     113.646 124.363 144.711  1.00  0.00     0.003 A 
ATOM      5  C   UNL     1     112.681 125.105 145.358  1.00  0.00     0.028 A 
ATOM      6  C   UNL     1     111.494 124.816 144.692  1.00  0.00     0.083 A 
ATOM      7  N   UNL     1     111.709 123.939 143.684  1.00  0.00    -0.361 N 
ATOM      8  C   UNL     1     115.015 124.254 144.943  1.00  0.00     0.056 A 
ATOM      9  C   UNL     1     115.761 123.401 144.104  1.00  0.00     0.116 A 
ATOM     10  H   UNL     1     110.996 123.553 143.026  1.00  0.00     0.166 HD
ENDROOT
BRANCH   9  11
ATOM     11  O   UNL     1     117.133 123.252 144.286  1.00  0.00    -0.508 OA
ATOM     12  H   UNL     1     117.698 122.718 143.634  1.00  0.00     0.293 HD
ENDBRANCH   9  11
TORSDOF 1
ENDMDL
MODEL 4
REMARK VINA RESULT:    -4.583      2.222      2.867
REMARK INTER + INTRA:          -4.717
REMARK INTER:                  -4.717
REMARK INTRA:                   0.000
REMARK UNBOUND:                 0.000
REMARK SMILES Oc1ccc2[nH]ccc2c1
REMARK SMILES IDX 3 1 4 2 5 3 9 4 8 5 7 6 6 7 10 8 2 9 1 11
REMARK H PARENT 6 10 1 12
REMARK Flexibility Score: inf
ROOT
ATOM      1  C   UNL     1     110.864 124.260 143.979  1.00  0.00     0.048 A 
ATOM      2  C   UNL     1     111.792 123.487 143.255  1.00  0.00     0.030 A 
ATOM      3  C   UNL     1     113.117 123.491 143.686  1.00  0.00     0.046 A 
ATOM      4  C   UNL     1     113.518 124.218 144.774  1.00  0.00     0.003 A 
ATOM      5  C   UNL     1     114.872 124.011 144.934  1.00  0.00     0.028 A 
ATOM      6  C   UNL     1     115.229 123.144 143.905  1.00  0.00     0.083 A 
ATOM      7  N   UNL     1     114.154 122.830 143.146  1.00  0.00    -0.361 N 
ATOM      8  C   UNL     1     112.626 124.994 145.511  1.00  0.00     0.056 A 
ATOM      9  C   UNL     1     111.276 125.012 145.103  1.00  0.00     0.116 A 
ATOM     10  H   UNL     1     114.138 122.202 142.312  1.00  0.00     0.166 HD
ENDROOT
BRANCH   9  11
ATOM     11  O   UNL     1     110.337 125.767 145.801  1.00  0.00    -0.508 OA
ATOM     12  H   UNL     1     109.457 126.039 145.376  1.00  0.00     0.293 HD
ENDBRANCH   9  11
TORSDOF 1
ENDMDL
MODEL 5
REMARK VINA RESULT:    -4.582      1.791      1.902
REMARK INTER + INTRA:          -4.716
REMARK INTER:                  -4.716
REMARK INTRA:                   0.000
REMARK UNBOUND:                 0.000
REMARK SMILES Oc1ccc2[nH]ccc2c1
REMARK SMILES IDX 3 1 4 2 5 3 9 4 8 5 7 6 6 7 10 8 2 9 1 11
REMARK H PARENT 6 10 1 12
REMARK Flexibility Score: inf
ROOT
ATOM      1  C   UNL     1     114.259 123.858 145.419  1.00  0.00     0.048 A 
ATOM      2  C   UNL     1     115.246 123.650 144.436  1.00  0.00     0.030 A 
ATOM      3  C   UNL     1     115.145 124.373 143.250  1.00  0.00     0.046 A 
ATOM      4  C   UNL     1     114.125 125.261 143.033  1.00  0.00     0.003 A 
ATOM      5  C   UNL     1     114.311 125.804 141.779  1.00  0.00     0.028 A 
ATOM      6  C   UNL     1     115.465 125.200 141.290  1.00  0.00     0.083 A 
ATOM      7  N   UNL     1     115.970 124.327 142.192  1.00  0.00    -0.361 N 
ATOM      8  C   UNL     1     113.133 125.490 143.984  1.00  0.00     0.056 A 
ATOM      9  C   UNL     1     113.205 124.774 145.197  1.00  0.00     0.116 A 
ATOM     10  H   UNL     1     116.827 123.740 142.083  1.00  0.00     0.166 HD
ENDROOT
BRANCH   9  11
ATOM     11  O   UNL     1     112.243 124.962 146.186  1.00  0.00    -0.508 OA
ATOM     12  H   UNL     1     111.531 125.679 146.101  1.00  0.00     0.293 HD
ENDBRANCH   9  11
TORSDOF 1
ENDMDL
MODEL 6
REMARK VINA RESULT:    -4.573      2.748      4.118
REMARK INTER + INTRA:          -4.707
REMARK INTER:                  -4.707
REMARK INTRA:                   0.000
REMARK UNBOUND:                 0.000
REMARK SMILES Oc1ccc2[nH]ccc2c1
REMARK SMILES IDX 3 1 4 2 5 3 9 4 8 5 7 6 6 7 10 8 2 9 1 11
REMARK H PARENT 6 10 1 12
REMARK Flexibility Score: inf
ROOT
ATOM      1  C   UNL     1     114.992 126.747 142.667  1.00  0.00     0.048 A 
ATOM      2  C   UNL     1     113.708 126.247 142.379  1.00  0.00     0.030 A 
ATOM      3  C   UNL     1     113.352 125.016 142.925  1.00  0.00     0.046 A 
ATOM      4  C   UNL     1     114.212 124.305 143.719  1.00  0.00     0.003 A 
ATOM      5  C   UNL     1     113.566 123.146 144.093  1.00  0.00     0.028 A 
ATOM      6  C   UNL     1     112.314 123.219 143.491  1.00  0.00     0.083 A 
ATOM      7  N   UNL     1     112.188 124.362 142.779  1.00  0.00    -0.361 N 
ATOM      8  C   UNL     1     115.490 124.770 144.023  1.00  0.00     0.056 A 
ATOM      9  C   UNL     1     115.882 126.014 143.486  1.00  0.00     0.116 A 
ATOM     10  H   UNL     1     111.355 124.670 142.230  1.00  0.00     0.166 HD
ENDROOT
BRANCH   9  11
ATOM     11  O   UNL     1     117.146 126.532 143.755  1.00  0.00    -0.508 OA
ATOM     12  H   UNL     1     117.694 126.991 143.035  1.00  0.00     0.293 HD
ENDBRANCH   9  11
TORSDOF 1
ENDMDL
MODEL 7
REMARK VINA RESULT:    -4.544      2.045      2.753
REMARK INTER + INTRA:          -4.677
REMARK INTER:                  -4.677
REMARK INTRA:                   0.000
REMARK UNBOUND:                 0.000
REMARK SMILES Oc1ccc2[nH]ccc2c1
REMARK SMILES IDX 3 1 4 2 5 3 9 4 8 5 7 6 6 7 10 8 2 9 1 11
REMARK H PARENT 6 10 1 12
REMARK Flexibility Score: inf
ROOT
ATOM      1  C   UNL     1     111.674 124.988 144.915  1.00  0.00     0.048 A 
ATOM      2  C   UNL     1     112.988 125.009 145.420  1.00  0.00     0.030 A 
ATOM      3  C   UNL     1     113.911 124.125 144.866  1.00  0.00     0.046 A 
ATOM      4  C   UNL     1     113.567 123.259 143.863  1.00  0.00     0.003 A 
ATOM      5  C   UNL     1     114.692 122.531 143.541  1.00  0.00     0.028 A 
ATOM      6  C   UNL     1     115.687 123.007 144.390  1.00  0.00     0.083 A 
ATOM      7  N   UNL     1     115.205 123.980 145.197  1.00  0.00    -0.361 N 
ATOM      8  C   UNL     1     112.276 123.213 143.341  1.00  0.00     0.056 A 
ATOM      9  C   UNL     1     111.315 124.095 143.879  1.00  0.00     0.116 A 
ATOM     10  H   UNL     1     115.733 124.509 145.926  1.00  0.00     0.166 HD
ENDROOT
BRANCH   9  11
ATOM     11  O   UNL     1     110.009 124.096 143.397  1.00  0.00    -0.508 OA
ATOM     12  H   UNL     1     109.286 123.532 143.830  1.00  0.00     0.293 HD
ENDBRANCH   9  11
TORSDOF 1
ENDMDL
MODEL 8
REMARK VINA RESULT:    -4.502      3.049      4.081
REMARK INTER + INTRA:          -4.633
REMARK INTER:                  -4.633
REMARK INTRA:                   0.000
REMARK UNBOUND:                 0.000
REMARK SMILES Oc1ccc2[nH]ccc2c1
REMARK SMILES IDX 3 1 4 2 5 3 9 4 8 5 7 6 6 7 10 8 2 9 1 11
REMARK H PARENT 6 10 1 12
REMARK Flexibility Score: inf
ROOT
ATOM      1  C   UNL     1     115.670 123.351 144.495  1.00  0.00     0.048 A 
ATOM      2  C   UNL     1     114.432 123.780 145.008  1.00  0.00     0.030 A 
ATOM      3  C   UNL     1     113.311 123.656 144.190  1.00  0.00     0.046 A 
ATOM      4  C   UNL     1     113.396 123.135 142.926  1.00  0.00     0.003 A 
ATOM      5  C   UNL     1     112.127 123.150 142.387  1.00  0.00     0.028 A 
ATOM      6  C   UNL     1     111.318 123.693 143.380  1.00  0.00     0.083 A 
ATOM      7  N   UNL     1     112.045 124.000 144.479  1.00  0.00    -0.361 N 
ATOM      8  C   UNL     1     114.606 122.702 142.388  1.00  0.00     0.056 A 
ATOM      9  C   UNL     1     115.761 122.813 143.190  1.00  0.00     0.116 A 
ATOM     10  H   UNL     1     111.692 124.419 145.368  1.00  0.00     0.166 HD
ENDROOT
BRANCH   9  11
ATOM     11  O   UNL     1     116.999 122.396 142.708  1.00  0.00    -0.508 OA
ATOM     12  H   UNL     1     117.268 122.549 141.742  1.00  0.00     0.293 HD
ENDBRANCH   9  11
TORSDOF 1
ENDMDL
MODEL 9
REMARK VINA RESULT:    -4.484      2.677      3.717
REMARK INTER + INTRA:          -4.615
REMARK INTER:                  -4.615
REMARK INTRA:                   0.000
REMARK UNBOUND:                 0.000
REMARK SMILES Oc1ccc2[nH]ccc2c1
REMARK SMILES IDX 3 1 4 2 5 3 9 4 8 5 7 6 6 7 10 8 2 9 1 11
REMARK H PARENT 6 10 1 12
REMARK Flexibility Score: inf
ROOT
ATOM      1  C   UNL     1     115.689 124.534 144.520  1.00  0.00     0.048 A 
ATOM      2  C   UNL     1     114.573 123.696 144.705  1.00  0.00     0.030 A 
ATOM      3  C   UNL     1     113.434 123.954 143.945  1.00  0.00     0.046 A 
ATOM      4  C   UNL     1     113.387 124.984 143.045  1.00  0.00     0.003 A 
ATOM      5  C   UNL     1     112.136 124.969 142.465  1.00  0.00     0.028 A 
ATOM      6  C   UNL     1     111.474 123.901 143.061  1.00  0.00     0.083 A 
ATOM      7  N   UNL     1     112.270 123.284 143.964  1.00  0.00    -0.361 N 
ATOM      8  C   UNL     1     114.473 125.832 142.839  1.00  0.00     0.056 A 
ATOM      9  C   UNL     1     115.643 125.599 143.591  1.00  0.00     0.116 A 
ATOM     10  H   UNL     1     112.026 122.456 144.553  1.00  0.00     0.166 HD
ENDROOT
BRANCH   9  11
ATOM     11  O   UNL     1     116.762 126.412 143.428  1.00  0.00    -0.508 OA
ATOM     12  H   UNL     1     116.793 127.130 142.713  1.00  0.00     0.293 HD
ENDBRANCH   9  11
TORSDOF 1
ENDMDL
