MODEL 1
REMARK VINA RESULT:    -5.441      0.000      0.000
REMARK INTER + INTRA:          -5.600
REMARK INTER:                  -5.600
REMARK INTRA:                   0.000
REMARK UNBOUND:                 0.000
REMARK SMILES O=c1ccc2cc(O)ccc2o1
REMARK SMILES IDX 9 1 10 2 11 3 5 4 4 5 3 6 2 7 1 8 12 9 6 10 7 11 8 12
REMARK H PARENT 8 13
REMARK Flexibility Score: inf
ROOT
ATOM      1  C   UNL     1      21.773   0.996 -21.273  1.00  0.00     0.050 A 
ATOM      2  C   UNL     1      21.552   1.373 -19.944  1.00  0.00     0.052 A 
ATOM      3  C   UNL     1      20.708   0.609 -19.131  1.00  0.00     0.138 A 
ATOM      4  C   UNL     1      20.081  -0.542 -19.657  1.00  0.00     0.021 A 
ATOM      5  C   UNL     1      19.243  -1.286 -18.820  1.00  0.00     0.019 A 
ATOM      6  C   UNL     1      19.051  -0.872 -17.501  1.00  0.00     0.094 A 
ATOM      7  C   UNL     1      19.705   0.279 -17.050  1.00  0.00     0.336 A 
ATOM      8  O   UNL     1      19.545   0.668 -15.864  1.00  0.00    -0.246 OA
ATOM      9  O   UNL     1      20.498   0.969 -17.868  1.00  0.00    -0.423 OA
ATOM     10  C   UNL     1      20.307  -0.916 -20.990  1.00  0.00     0.058 A 
ATOM     11  C   UNL     1      21.154  -0.144 -21.799  1.00  0.00     0.116 A 
ENDROOT
BRANCH  11  12
ATOM     12  O   UNL     1      21.388  -0.502 -23.125  1.00  0.00    -0.508 OA
ATOM     13  H   UNL     1      22.042   0.011 -23.705  1.00  0.00     0.293 HD
ENDBRANCH  11  12
TORSDOF 1
ENDMDL
MODEL 2
REMARK VINA RESULT:    -5.407      1.457      4.307
REMARK INTER + INTRA:          -5.565
REMARK INTER:                  -5.565
REMARK INTRA:                   0.000
REMARK UNBOUND:                 0.000
REMARK SMILES O=c1ccc2cc(O)ccc2o1
REMARK SMILES IDX 9 1 10 2 11 3 5 4 4 5 3 6 2 7 1 8 12 9 6 10 7 11 8 12
REMARK H PARENT 8 13
REMARK Flexibility Score: inf
ROOT
ATOM      1  C   UNL     1      20.269   0.299 -17.508  1.00  0.00     0.050 A 
ATOM      2  C   UNL     1      21.036   0.978 -18.460  1.00  0.00     0.052 A 
ATOM      3  C   UNL     1      21.048   0.545 -19.789  1.00  0.00     0.138 A 
ATOM      4  C   UNL     1      20.281  -0.580 -20.166  1.00  0.00     0.021 A 
ATOM      5  C   UNL     1      20.313  -0.990 -21.503  1.00  0.00     0.019 A 
ATOM      6  C   UNL     1      21.094  -0.283 -22.418  1.00  0.00     0.094 A 
ATOM      7  C   UNL     1      21.827   0.821 -21.971  1.00  0.00     0.336 A 
ATOM      8  O   UNL     1      22.536   1.473 -22.781  1.00  0.00    -0.246 OA
ATOM      9  O   UNL     1      21.779   1.191 -20.694  1.00  0.00    -0.423 OA
ATOM     10  C   UNL     1      19.513  -1.258 -19.208  1.00  0.00     0.058 A 
ATOM     11  C   UNL     1      19.508  -0.816 -17.877  1.00  0.00     0.116 A 
ENDROOT
BRANCH  11  12
ATOM     12  O   UNL     1      18.749  -1.479 -16.913  1.00  0.00    -0.508 OA
ATOM     13  H   UNL     1      18.352  -0.986 -16.121  1.00  0.00     0.293 HD
ENDBRANCH  11  12
TORSDOF 1
ENDMDL
MODEL 3
REMARK VINA RESULT:    -5.384      1.456      2.238
REMARK INTER + INTRA:          -5.542
REMARK INTER:                  -5.542
REMARK INTRA:                   0.000
REMARK UNBOUND:                 0.000
REMARK SMILES O=c1ccc2cc(O)ccc2o1
REMARK SMILES IDX 9 1 10 2 11 3 5 4 4 5 3 6 2 7 1 8 12 9 6 10 7 11 8 12
REMARK H PARENT 8 13
REMARK Flexibility Score: inf
ROOT
ATOM      1  C   UNL     1      21.116  -0.162 -22.344  1.00  0.00     0.050 A 
ATOM      2  C   UNL     1      20.352  -0.912 -21.443  1.00  0.00     0.052 A 
ATOM      3  C   UNL     1      20.298  -0.544 -20.095  1.00  0.00     0.138 A 
ATOM      4  C   UNL     1      21.015   0.587 -19.647  1.00  0.00     0.021 A 
ATOM      5  C   UNL     1      20.942   0.931 -18.293  1.00  0.00     0.019 A 
ATOM      6  C   UNL     1      20.169   0.152 -17.431  1.00  0.00     0.094 A 
ATOM      7  C   UNL     1      19.486  -0.954 -17.946  1.00  0.00     0.336 A 
ATOM      8  O   UNL     1      18.783  -1.668 -17.184  1.00  0.00    -0.246 OA
ATOM      9  O   UNL     1      19.573  -1.259 -19.238  1.00  0.00    -0.423 OA
ATOM     10  C   UNL     1      21.779   1.337 -20.555  1.00  0.00     0.058 A 
ATOM     11  C   UNL     1      21.828   0.960 -21.905  1.00  0.00     0.116 A 
ENDROOT
BRANCH  11  12
ATOM     12  O   UNL     1      22.582   1.694 -22.819  1.00  0.00    -0.508 OA
ATOM     13  H   UNL     1      23.401   1.300 -23.268  1.00  0.00     0.293 HD
ENDBRANCH  11  12
TORSDOF 1
ENDMDL
MODEL 4
REMARK VINA RESULT:    -4.943      2.132      3.305
REMARK INTER + INTRA:          -5.088
REMARK INTER:                  -5.088
REMARK INTRA:                   0.000
REMARK UNBOUND:                 0.000
REMARK SMILES O=c1ccc2cc(O)ccc2o1
REMARK SMILES IDX 9 1 10 2 11 3 5 4 4 5 3 6 2 7 1 8 12 9 6 10 7 11 8 12
REMARK H PARENT 8 13
REMARK Flexibility Score: inf
ROOT
ATOM      1  C   UNL     1      18.940  -0.506 -18.609  1.00  0.00     0.050 A 
ATOM      2  C   UNL     1      19.593  -0.145 -17.426  1.00  0.00     0.052 A 
ATOM      3  C   UNL     1      20.787   0.582 -17.478  1.00  0.00     0.138 A 
ATOM      4  C   UNL     1      21.328   0.952 -18.729  1.00  0.00     0.021 A 
ATOM      5  C   UNL     1      22.523   1.680 -18.750  1.00  0.00     0.019 A 
ATOM      6  C   UNL     1      23.139   2.016 -17.544  1.00  0.00     0.094 A 
ATOM      7  C   UNL     1      22.545   1.615 -16.344  1.00  0.00     0.336 A 
ATOM      8  O   UNL     1      23.086   1.910 -15.246  1.00  0.00    -0.246 OA
ATOM      9  O   UNL     1      21.408   0.924 -16.352  1.00  0.00    -0.423 OA
ATOM     10  C   UNL     1      20.669   0.588 -19.913  1.00  0.00     0.058 A 
ATOM     11  C   UNL     1      19.473  -0.142 -19.851  1.00  0.00     0.116 A 
ENDROOT
BRANCH  11  12
ATOM     12  O   UNL     1      18.807  -0.511 -21.018  1.00  0.00    -0.508 OA
ATOM     13  H   UNL     1      17.807  -0.678 -21.027  1.00  0.00     0.293 HD
ENDBRANCH  11  12
TORSDOF 1
ENDMDL
MODEL 5
REMARK VINA RESULT:    -4.896     15.782     17.416
REMARK INTER + INTRA:          -5.039
REMARK INTER:                  -5.039
REMARK INTRA:                   0.000
REMARK UNBOUND:                 0.000
REMARK SMILES O=c1ccc2cc(O)ccc2o1
REMARK SMILES IDX 9 1 10 2 11 3 5 4 4 5 3 6 2 7 1 8 12 9 6 10 7 11 8 12
REMARK H PARENT 8 13
REMARK Flexibility Score: inf
ROOT
ATOM      1  C   UNL     1       8.772  -7.058  -7.288  1.00  0.00     0.050 A 
ATOM      2  C   UNL     1       7.997  -7.808  -8.179  1.00  0.00     0.052 A 
ATOM      3  C   UNL     1       8.176  -7.661  -9.558  1.00  0.00     0.138 A 
ATOM      4  C   UNL     1       9.143  -6.754 -10.047  1.00  0.00     0.021 A 
ATOM      5  C   UNL     1       9.299  -6.629 -11.431  1.00  0.00     0.019 A 
ATOM      6  C   UNL     1       8.503  -7.397 -12.282  1.00  0.00     0.094 A 
ATOM      7  C   UNL     1       7.567  -8.274 -11.726  1.00  0.00     0.336 A 
ATOM      8  O   UNL     1       6.840  -8.975 -12.477  1.00  0.00    -0.246 OA
ATOM      9  O   UNL     1       7.438  -8.374 -10.405  1.00  0.00    -0.423 OA
ATOM     10  C   UNL     1       9.918  -6.005  -9.149  1.00  0.00     0.058 A 
ATOM     11  C   UNL     1       9.731  -6.158  -7.768  1.00  0.00     0.116 A 
ENDROOT
BRANCH  11  12
ATOM     12  O   UNL     1      10.493  -5.421  -6.863  1.00  0.00    -0.508 OA
ATOM     13  H   UNL     1      10.577  -4.414  -6.939  1.00  0.00     0.293 HD
ENDBRANCH  11  12
TORSDOF 1
ENDMDL
MODEL 6
REMARK VINA RESULT:    -4.886     15.775     17.316
REMARK INTER + INTRA:          -5.029
REMARK INTER:                  -5.029
REMARK INTRA:                   0.000
REMARK UNBOUND:                 0.000
REMARK SMILES O=c1ccc2cc(O)ccc2o1
REMARK SMILES IDX 9 1 10 2 11 3 5 4 4 5 3 6 2 7 1 8 12 9 6 10 7 11 8 12
REMARK H PARENT 8 13
REMARK Flexibility Score: inf
ROOT
ATOM      1  C   UNL     1       8.106  -5.273 -11.394  1.00  0.00     0.050 A 
ATOM      2  C   UNL     1       8.017  -4.881 -10.054  1.00  0.00     0.052 A 
ATOM      3  C   UNL     1       8.023  -5.845  -9.040  1.00  0.00     0.138 A 
ATOM      4  C   UNL     1       8.120  -7.214  -9.375  1.00  0.00     0.021 A 
ATOM      5  C   UNL     1       8.123  -8.155  -8.340  1.00  0.00     0.019 A 
ATOM      6  C   UNL     1       8.031  -7.718  -7.018  1.00  0.00     0.094 A 
ATOM      7  C   UNL     1       7.938  -6.346  -6.763  1.00  0.00     0.336 A 
ATOM      8  O   UNL     1       7.856  -5.932  -5.577  1.00  0.00    -0.246 OA
ATOM      9  O   UNL     1       7.937  -5.471  -7.766  1.00  0.00    -0.423 OA
ATOM     10  C   UNL     1       8.209  -7.601 -10.720  1.00  0.00     0.058 A 
ATOM     11  C   UNL     1       8.202  -6.628 -11.731  1.00  0.00     0.116 A 
ENDROOT
BRANCH  11  12
ATOM     12  O   UNL     1       8.290  -6.997 -13.071  1.00  0.00    -0.508 OA
ATOM     13  H   UNL     1       8.757  -6.409 -13.753  1.00  0.00     0.293 HD
ENDBRANCH  11  12
TORSDOF 1
ENDMDL
MODEL 7
REMARK VINA RESULT:    -4.871     14.909     17.047
REMARK INTER + INTRA:          -5.013
REMARK INTER:                  -5.013
REMARK INTRA:                   0.000
REMARK UNBOUND:                 0.000
REMARK SMILES O=c1ccc2cc(O)ccc2o1
REMARK SMILES IDX 9 1 10 2 11 3 5 4 4 5 3 6 2 7 1 8 12 9 6 10 7 11 8 12
REMARK H PARENT 8 13
REMARK Flexibility Score: inf
ROOT
ATOM      1  C   UNL     1      12.653   2.252  -2.884  1.00  0.00     0.050 A 
ATOM      2  C   UNL     1      13.812   2.867  -3.371  1.00  0.00     0.052 A 
ATOM      3  C   UNL     1      13.794   3.510  -4.612  1.00  0.00     0.138 A 
ATOM      4  C   UNL     1      12.603   3.537  -5.371  1.00  0.00     0.021 A 
ATOM      5  C   UNL     1      12.616   4.188  -6.609  1.00  0.00     0.019 A 
ATOM      6  C   UNL     1      13.795   4.787  -7.055  1.00  0.00     0.094 A 
ATOM      7  C   UNL     1      14.936   4.719  -6.249  1.00  0.00     0.336 A 
ATOM      8  O   UNL     1      16.009   5.254  -6.634  1.00  0.00    -0.246 OA
ATOM      9  O   UNL     1      14.897   4.094  -5.075  1.00  0.00    -0.423 OA
ATOM     10  C   UNL     1      11.444   2.920  -4.879  1.00  0.00     0.058 A 
ATOM     11  C   UNL     1      11.471   2.276  -3.633  1.00  0.00     0.116 A 
ENDROOT
BRANCH  11  12
ATOM     12  O   UNL     1      10.328   1.658  -3.129  1.00  0.00    -0.508 OA
ATOM     13  H   UNL     1      10.297   1.288  -2.186  1.00  0.00     0.293 HD
ENDBRANCH  11  12
TORSDOF 1
ENDMDL
MODEL 8
REMARK VINA RESULT:    -4.862     15.568     18.182
REMARK INTER + INTRA:          -5.004
REMARK INTER:                  -5.004
REMARK INTRA:                   0.000
REMARK UNBOUND:                 0.000
REMARK SMILES O=c1ccc2cc(O)ccc2o1
REMARK SMILES IDX 9 1 10 2 11 3 5 4 4 5 3 6 2 7 1 8 12 9 6 10 7 11 8 12
REMARK H PARENT 8 13
REMARK Flexibility Score: inf
ROOT
ATOM      1  C   UNL     1       7.624  -7.495  -6.111  1.00  0.00     0.050 A 
ATOM      2  C   UNL     1       8.185  -8.346  -7.070  1.00  0.00     0.052 A 
ATOM      3  C   UNL     1       9.220  -7.888  -7.892  1.00  0.00     0.138 A 
ATOM      4  C   UNL     1       9.696  -6.566  -7.750  1.00  0.00     0.021 A 
ATOM      5  C   UNL     1      10.732  -6.137  -8.586  1.00  0.00     0.019 A 
ATOM      6  C   UNL     1      11.261  -7.019  -9.528  1.00  0.00     0.094 A 
ATOM      7  C   UNL     1      10.739  -8.314  -9.612  1.00  0.00     0.336 A 
ATOM      8  O   UNL     1      11.203  -9.125 -10.455  1.00  0.00    -0.246 OA
ATOM      9  O   UNL     1       9.753  -8.697  -8.804  1.00  0.00    -0.423 OA
ATOM     10  C   UNL     1       9.130  -5.717  -6.787  1.00  0.00     0.058 A 
ATOM     11  C   UNL     1       8.092  -6.184  -5.967  1.00  0.00     0.116 A 
ENDROOT
BRANCH  11  12
ATOM     12  O   UNL     1       7.520  -5.353  -5.006  1.00  0.00    -0.508 OA
ATOM     13  H   UNL     1       6.821  -4.661  -5.252  1.00  0.00     0.293 HD
ENDBRANCH  11  12
TORSDOF 1
ENDMDL
MODEL 9
REMARK VINA RESULT:    -4.857      1.814      4.329
REMARK INTER + INTRA:          -4.999
REMARK INTER:                  -4.999
REMARK INTRA:                   0.000
REMARK UNBOUND:                 0.000
REMARK SMILES O=c1ccc2cc(O)ccc2o1
REMARK SMILES IDX 9 1 10 2 11 3 5 4 4 5 3 6 2 7 1 8 12 9 6 10 7 11 8 12
REMARK H PARENT 8 13
REMARK Flexibility Score: inf
ROOT
ATOM      1  C   UNL     1      22.485   1.784 -16.880  1.00  0.00     0.050 A 
ATOM      2  C   UNL     1      22.396   1.404 -18.223  1.00  0.00     0.052 A 
ATOM      3  C   UNL     1      21.297   0.663 -18.670  1.00  0.00     0.138 A 
ATOM      4  C   UNL     1      20.278   0.303 -17.761  1.00  0.00     0.021 A 
ATOM      5  C   UNL     1      19.191  -0.438 -18.237  1.00  0.00     0.019 A 
ATOM      6  C   UNL     1      19.145  -0.796 -19.585  1.00  0.00     0.094 A 
ATOM      7  C   UNL     1      20.191  -0.403 -20.426  1.00  0.00     0.336 A 
ATOM      8  O   UNL     1      20.167  -0.716 -21.645  1.00  0.00    -0.246 OA
ATOM      9  O   UNL     1      21.214   0.301 -19.948  1.00  0.00    -0.423 OA
ATOM     10  C   UNL     1      20.372   0.687 -16.415  1.00  0.00     0.058 A 
ATOM     11  C   UNL     1      21.478   1.429 -15.975  1.00  0.00     0.116 A 
ENDROOT
BRANCH  11  12
ATOM     12  O   UNL     1      21.585   1.818 -14.641  1.00  0.00    -0.508 OA
ATOM     13  H   UNL     1      21.278   2.733 -14.330  1.00  0.00     0.293 HD
ENDBRANCH  11  12
TORSDOF 1
ENDMDL
