MODEL 1
REMARK VINA RESULT:    -3.449      0.000      0.000
REMARK INTER + INTRA:          -4.638
REMARK INTER:                  -4.861
REMARK INTRA:                   0.223
REMARK UNBOUND:                 0.223
REMARK SMILES CC1=CCC(=C(C)C)C(=O)CC(C)=CCC1
REMARK SMILES IDX 12 1 14 2 13 3 15 4 16 5 2 6 1 7 3 8 11 10 9 11 10 12 5 13
REMARK SMILES IDX 6 14 7 15 8 16 4 17
REMARK H PARENT
REMARK Flexibility Score: 60.00
ROOT
ATOM      1  C   UNL     1       0.815  76.172 -19.614  1.00  0.00    -0.070 C 
ATOM      2  C   UNL     1       1.265  76.952 -18.606  1.00  0.00    -0.027 C 
ATOM      3  C   UNL     1       0.286  74.803 -19.267  1.00  0.00     0.039 C 
ENDROOT
BRANCH   2   4
ATOM      4  C   UNL     1       1.917  78.308 -18.761  1.00  0.00     0.032 C 
BRANCH   4   5
ATOM      5  C   UNL     1       0.934  79.487 -18.907  1.00  0.00     0.034 C 
BRANCH   5   6
ATOM      6  C   UNL     1       1.176  80.316 -20.156  1.00  0.00    -0.077 C 
ATOM      7  C   UNL     1       2.376  81.229 -20.170  1.00  0.00     0.039 C 
ATOM      8  C   UNL     1       0.347  80.342 -21.228  1.00  0.00    -0.023 CG0
ATOM      9  G   UNL     1      -0.898  79.504 -21.442  1.00  0.00     0.000 G0
ENDBRANCH   5   6
ENDBRANCH   4   5
ENDBRANCH   2   4
BRANCH   1  10
ATOM     10  C   UNL     1       0.902  76.569 -21.074  1.00  0.00     0.111 C 
BRANCH  10  11
ATOM     11  C   UNL     1      -0.439  76.987 -21.618  1.00  0.00     0.163 C 
ATOM     12  O   UNL     1      -1.402  76.182 -21.505  1.00  0.00    -0.294 OA
BRANCH  11  13
ATOM     13  C   UNL     1      -0.646  78.282 -22.332  1.00  0.00    -0.002 C 
ATOM     14  C   UNL     1      -0.509  78.361 -23.689  1.00  0.00    -0.069 C 
ATOM     15  C   UNL     1      -0.555  79.683 -24.424  1.00  0.00     0.039 C 
ATOM     16  C   UNL     1      -0.300  77.120 -24.531  1.00  0.00     0.039 C 
BRANCH  13  17
ATOM     17  C   UNL     1      -0.917  79.512 -21.479  1.00  0.00     0.066 CG0
ATOM     18  G   UNL     1       0.336  80.325 -21.225  1.00  0.00     0.000 G0
ENDBRANCH  13  17
ENDBRANCH  11  13
ENDBRANCH  10  11
ENDBRANCH   1  10
TORSDOF 0
ENDMDL
MODEL 2
REMARK VINA RESULT:    -3.433     13.361     14.520
REMARK INTER + INTRA:          -4.615
REMARK INTER:                  -4.753
REMARK INTRA:                   0.138
REMARK UNBOUND:                 0.223
REMARK SMILES CC1=CCC(=C(C)C)C(=O)CC(C)=CCC1
REMARK SMILES IDX 12 1 14 2 13 3 15 4 16 5 2 6 1 7 3 8 11 10 9 11 10 12 5 13
REMARK SMILES IDX 6 14 7 15 8 16 4 17
REMARK H PARENT
REMARK Flexibility Score: 60.00
ROOT
ATOM      1  C   UNL     1      13.016  74.644 -26.245  1.00  0.00    -0.070 C 
ATOM      2  C   UNL     1      12.569  74.872 -27.499  1.00  0.00    -0.027 C 
ATOM      3  C   UNL     1      13.585  73.282 -25.934  1.00  0.00     0.039 C 
ENDROOT
BRANCH   2   4
ATOM      4  C   UNL     1      11.880  76.132 -27.977  1.00  0.00     0.032 C 
BRANCH   4   5
ATOM      5  C   UNL     1      12.828  77.309 -28.291  1.00  0.00     0.034 C 
BRANCH   5   6
ATOM      6  C   UNL     1      12.406  78.608 -27.628  1.00  0.00    -0.077 C 
ATOM      7  C   UNL     1      11.151  79.277 -28.131  1.00  0.00     0.039 C 
ATOM      8  C   UNL     1      13.119  79.240 -26.664  1.00  0.00    -0.023 CG0
ATOM      9  G   UNL     1      14.389  78.752 -25.998  1.00  0.00     0.000 G0
ENDBRANCH   5   6
ENDBRANCH   4   5
ENDBRANCH   2   4
BRANCH   1  10
ATOM     10  C   UNL     1      12.889  75.653 -25.121  1.00  0.00     0.111 C 
BRANCH  10  11
ATOM     11  C   UNL     1      14.161  76.436 -24.931  1.00  0.00     0.163 C 
ATOM     12  O   UNL     1      15.247  75.799 -24.871  1.00  0.00    -0.294 OA
BRANCH  11  13
ATOM     13  C   UNL     1      14.170  77.919 -24.750  1.00  0.00    -0.002 C 
ATOM     14  C   UNL     1      13.894  78.476 -23.533  1.00  0.00    -0.069 C 
ATOM     15  C   UNL     1      13.740  79.970 -23.353  1.00  0.00     0.039 C 
ATOM     16  C   UNL     1      13.727  77.619 -22.297  1.00  0.00     0.039 C 
BRANCH  13  17
ATOM     17  C   UNL     1      14.401  78.769 -25.989  1.00  0.00     0.066 CG0
ATOM     18  G   UNL     1      13.103  79.217 -26.632  1.00  0.00     0.000 G0
ENDBRANCH  13  17
ENDBRANCH  11  13
ENDBRANCH  10  11
ENDBRANCH   1  10
TORSDOF 0
ENDMDL
MODEL 3
REMARK VINA RESULT:    -3.408     13.227     14.204
REMARK INTER + INTRA:          -4.579
REMARK INTER:                  -4.746
REMARK INTRA:                   0.166
REMARK UNBOUND:                 0.223
REMARK SMILES CC1=CCC(=C(C)C)C(=O)CC(C)=CCC1
REMARK SMILES IDX 12 1 14 2 13 3 15 4 16 5 2 6 1 7 3 8 11 10 9 11 10 12 5 13
REMARK SMILES IDX 6 14 7 15 8 16 4 17
REMARK H PARENT
REMARK Flexibility Score: 60.00
ROOT
ATOM      1  C   UNL     1      14.128  77.490 -25.389  1.00  0.00    -0.070 C 
ATOM      2  C   UNL     1      14.538  76.413 -24.684  1.00  0.00    -0.027 C 
ATOM      3  C   UNL     1      14.093  78.824 -24.686  1.00  0.00     0.039 C 
ENDROOT
BRANCH   2   4
ATOM      4  C   UNL     1      14.550  74.983 -25.179  1.00  0.00     0.032 C 
BRANCH   4   5
ATOM      5  C   UNL     1      13.202  74.243 -25.051  1.00  0.00     0.034 C 
BRANCH   5   6
ATOM      6  C   UNL     1      12.840  73.444 -26.291  1.00  0.00    -0.077 C 
ATOM      7  C   UNL     1      13.653  72.210 -26.593  1.00  0.00     0.039 C 
ATOM      8  C   UNL     1      11.882  73.805 -27.179  1.00  0.00    -0.023 CG0
ATOM      9  G   UNL     1      10.936  74.985 -27.074  1.00  0.00     0.000 G0
ENDBRANCH   5   6
ENDBRANCH   4   5
ENDBRANCH   2   4
BRANCH   1  10
ATOM     10  C   UNL     1      13.616  77.405 -26.813  1.00  0.00     0.111 C 
BRANCH  10  11
ATOM     11  C   UNL     1      12.121  77.232 -26.857  1.00  0.00     0.163 C 
ATOM     12  O   UNL     1      11.419  77.928 -26.074  1.00  0.00    -0.294 OA
BRANCH  11  13
ATOM     13  C   UNL     1      11.455  76.229 -27.742  1.00  0.00    -0.002 C 
ATOM     14  C   UNL     1      11.279  76.482 -29.073  1.00  0.00    -0.069 C 
ATOM     15  C   UNL     1      10.472  75.561 -29.963  1.00  0.00     0.039 C 
ATOM     16  C   UNL     1      11.886  77.704 -29.728  1.00  0.00     0.039 C 
BRANCH  13  17
ATOM     17  C   UNL     1      10.905  74.975 -27.082  1.00  0.00     0.066 CG0
ATOM     18  G   UNL     1      11.872  73.810 -27.163  1.00  0.00     0.000 G0
ENDBRANCH  13  17
ENDBRANCH  11  13
ENDBRANCH  10  11
ENDBRANCH   1  10
TORSDOF 0
ENDMDL
MODEL 4
REMARK VINA RESULT:    -3.275     10.436     12.476
REMARK INTER + INTRA:          -4.392
REMARK INTER:                  -4.551
REMARK INTRA:                   0.158
REMARK UNBOUND:                 0.223
REMARK SMILES CC1=CCC(=C(C)C)C(=O)CC(C)=CCC1
REMARK SMILES IDX 12 1 14 2 13 3 15 4 16 5 2 6 1 7 3 8 11 10 9 11 10 12 5 13
REMARK SMILES IDX 6 14 7 15 8 16 4 17
REMARK H PARENT
REMARK Flexibility Score: 60.00
ROOT
ATOM      1  C   UNL     1       9.860  76.546 -30.464  1.00  0.00    -0.070 C 
ATOM      2  C   UNL     1      10.420  75.316 -30.461  1.00  0.00    -0.027 C 
ATOM      3  C   UNL     1      10.684  77.699 -29.947  1.00  0.00     0.039 C 
ENDROOT
BRANCH   2   4
ATOM      4  C   UNL     1       9.726  74.028 -30.846  1.00  0.00     0.032 C 
BRANCH   4   5
ATOM      5  C   UNL     1       8.997  73.314 -29.689  1.00  0.00     0.034 C 
BRANCH   5   6
ATOM      6  C   UNL     1       7.554  72.970 -30.013  1.00  0.00    -0.077 C 
ATOM      7  C   UNL     1       7.300  71.781 -30.905  1.00  0.00     0.039 C 
ATOM      8  C   UNL     1       6.486  73.701 -29.611  1.00  0.00    -0.023 CG0
ATOM      9  G   UNL     1       6.498  74.915 -28.703  1.00  0.00     0.000 G0
ENDBRANCH   5   6
ENDBRANCH   4   5
ENDBRANCH   2   4
BRANCH   1  10
ATOM     10  C   UNL     1       8.423  76.804 -30.872  1.00  0.00     0.111 C 
BRANCH  10  11
ATOM     11  C   UNL     1       7.539  77.038 -29.675  1.00  0.00     0.163 C 
ATOM     12  O   UNL     1       7.889  77.918 -28.842  1.00  0.00    -0.294 OA
BRANCH  11  13
ATOM     13  C   UNL     1       6.311  76.229 -29.415  1.00  0.00    -0.002 C 
ATOM     14  C   UNL     1       5.076  76.704 -29.758  1.00  0.00    -0.069 C 
ATOM     15  C   UNL     1       3.805  75.984 -29.367  1.00  0.00     0.039 C 
ATOM     16  C   UNL     1       4.920  77.985 -30.548  1.00  0.00     0.039 C 
BRANCH  13  17
ATOM     17  C   UNL     1       6.489  74.913 -28.675  1.00  0.00     0.066 CG0
ATOM     18  G   UNL     1       6.483  73.720 -29.610  1.00  0.00     0.000 G0
ENDBRANCH  13  17
ENDBRANCH  11  13
ENDBRANCH  10  11
ENDBRANCH   1  10
TORSDOF 0
ENDMDL
MODEL 5
REMARK VINA RESULT:    -3.275      9.808     11.768
REMARK INTER + INTRA:          -4.392
REMARK INTER:                  -4.834
REMARK INTRA:                   0.442
REMARK UNBOUND:                 0.223
REMARK SMILES CC1=CCC(=C(C)C)C(=O)CC(C)=CCC1
REMARK SMILES IDX 12 1 14 2 13 3 15 4 16 5 2 6 1 7 3 8 11 10 9 11 10 12 5 13
REMARK SMILES IDX 6 14 7 15 8 16 4 17
REMARK H PARENT
REMARK Flexibility Score: 60.00
ROOT
ATOM      1  C   UNL     1       9.496  82.301 -18.476  1.00  0.00    -0.070 C 
ATOM      2  C   UNL     1      10.639  82.969 -18.751  1.00  0.00    -0.027 C 
ATOM      3  C   UNL     1       8.191  82.933 -18.892  1.00  0.00     0.039 C 
ENDROOT
BRANCH   2   4
ATOM      4  C   UNL     1      12.030  82.549 -18.331  1.00  0.00     0.032 C 
BRANCH   4   5
ATOM      5  C   UNL     1      13.002  82.271 -19.496  1.00  0.00     0.034 C 
BRANCH   5   6
ATOM      6  C   UNL     1      12.425  81.335 -20.544  1.00  0.00    -0.077 C 
ATOM      7  C   UNL     1      12.220  81.881 -21.935  1.00  0.00     0.039 C 
ATOM      8  C   UNL     1      12.019  80.067 -20.295  1.00  0.00    -0.023 CG0
ATOM      9  G   UNL     1      12.142  79.307 -18.989  1.00  0.00     0.000 G0
ENDBRANCH   5   6
ENDBRANCH   4   5
ENDBRANCH   2   4
BRANCH   1  10
ATOM     10  C   UNL     1       9.460  81.003 -17.695  1.00  0.00     0.111 C 
BRANCH  10  11
ATOM     11  C   UNL     1       9.627  79.808 -18.596  1.00  0.00     0.163 C 
ATOM     12  O   UNL     1       8.733  79.582 -19.455  1.00  0.00    -0.294 OA
BRANCH  11  13
ATOM     13  C   UNL     1      10.772  78.858 -18.463  1.00  0.00    -0.002 C 
ATOM     14  C   UNL     1      10.616  77.660 -17.824  1.00  0.00    -0.069 C 
ATOM     15  C   UNL     1      11.788  76.749 -17.534  1.00  0.00     0.039 C 
ATOM     16  C   UNL     1       9.253  77.185 -17.370  1.00  0.00     0.039 C 
BRANCH  13  17
ATOM     17  C   UNL     1      12.125  79.323 -18.980  1.00  0.00     0.066 CG0
ATOM     18  G   UNL     1      12.016  80.046 -20.308  1.00  0.00     0.000 G0
ENDBRANCH  13  17
ENDBRANCH  11  13
ENDBRANCH  10  11
ENDBRANCH   1  10
TORSDOF 0
ENDMDL
MODEL 6
REMARK VINA RESULT:    -3.212     11.290     12.798
REMARK INTER + INTRA:          -4.304
REMARK INTER:                  -4.767
REMARK INTRA:                   0.463
REMARK UNBOUND:                 0.223
REMARK SMILES CC1=CCC(=C(C)C)C(=O)CC(C)=CCC1
REMARK SMILES IDX 12 1 14 2 13 3 15 4 16 5 2 6 1 7 3 8 11 10 9 11 10 12 5 13
REMARK SMILES IDX 6 14 7 15 8 16 4 17
REMARK H PARENT
REMARK Flexibility Score: 60.00
ROOT
ATOM      1  C   UNL     1      10.436  77.204 -29.343  1.00  0.00    -0.070 C 
ATOM      2  C   UNL     1      10.682  78.511 -29.582  1.00  0.00    -0.027 C 
ATOM      3  C   UNL     1      11.543  76.216 -29.613  1.00  0.00     0.039 C 
ENDROOT
BRANCH   2   4
ATOM      4  C   UNL     1       9.676  79.635 -29.466  1.00  0.00     0.032 C 
BRANCH   4   5
ATOM      5  C   UNL     1       9.303  80.311 -30.802  1.00  0.00     0.034 C 
BRANCH   5   6
ATOM      6  C   UNL     1       9.077  79.320 -31.930  1.00  0.00    -0.077 C 
ATOM      7  C   UNL     1      10.046  79.337 -33.085  1.00  0.00     0.039 C 
ATOM      8  C   UNL     1       8.023  78.470 -31.999  1.00  0.00    -0.023 CG0
ATOM      9  G   UNL     1       6.942  78.267 -30.956  1.00  0.00     0.000 G0
ENDBRANCH   5   6
ENDBRANCH   4   5
ENDBRANCH   2   4
BRANCH   1  10
ATOM     10  C   UNL     1       9.082  76.678 -28.909  1.00  0.00     0.111 C 
BRANCH  10  11
ATOM     11  C   UNL     1       8.266  76.210 -30.084  1.00  0.00     0.163 C 
ATOM     12  O   UNL     1       8.751  75.312 -30.824  1.00  0.00    -0.294 OA
BRANCH  11  13
ATOM     13  C   UNL     1       6.944  76.812 -30.433  1.00  0.00    -0.002 C 
ATOM     14  C   UNL     1       5.799  76.070 -30.367  1.00  0.00    -0.069 C 
ATOM     15  C   UNL     1       4.471  76.599 -30.862  1.00  0.00     0.039 C 
ATOM     16  C   UNL     1       5.803  74.669 -29.793  1.00  0.00     0.039 C 
BRANCH  13  17
ATOM     17  C   UNL     1       6.945  78.242 -30.949  1.00  0.00     0.066 CG0
ATOM     18  G   UNL     1       8.012  78.474 -32.001  1.00  0.00     0.000 G0
ENDBRANCH  13  17
ENDBRANCH  11  13
ENDBRANCH  10  11
ENDBRANCH   1  10
TORSDOF 0
ENDMDL
MODEL 7
REMARK VINA RESULT:    -3.149      6.127      7.877
REMARK INTER + INTRA:          -4.214
REMARK INTER:                  -4.471
REMARK INTRA:                   0.257
REMARK UNBOUND:                 0.223
REMARK SMILES CC1=CCC(=C(C)C)C(=O)CC(C)=CCC1
REMARK SMILES IDX 12 1 14 2 13 3 15 4 16 5 2 6 1 7 3 8 11 10 9 11 10 12 5 13
REMARK SMILES IDX 6 14 7 15 8 16 4 17
REMARK H PARENT
REMARK Flexibility Score: 60.00
ROOT
ATOM      1  C   UNL     1       1.109  74.522 -25.994  1.00  0.00    -0.070 C 
ATOM      2  C   UNL     1       0.329  75.559 -25.620  1.00  0.00    -0.027 C 
ATOM      3  C   UNL     1       0.667  73.131 -25.612  1.00  0.00     0.039 C 
ENDROOT
BRANCH   2   4
ATOM      4  C   UNL     1       0.649  77.024 -25.822  1.00  0.00     0.032 C 
BRANCH   4   5
ATOM      5  C   UNL     1       0.221  77.598 -27.189  1.00  0.00     0.034 C 
BRANCH   5   6
ATOM      6  C   UNL     1       1.344  78.320 -27.912  1.00  0.00    -0.077 C 
ATOM      7  C   UNL     1       1.718  79.698 -27.429  1.00  0.00     0.039 C 
ATOM      8  C   UNL     1       1.984  77.835 -29.005  1.00  0.00    -0.023 CG0
ATOM      9  G   UNL     1       1.790  76.478 -29.651  1.00  0.00     0.000 G0
ENDBRANCH   5   6
ENDBRANCH   4   5
ENDBRANCH   2   4
BRANCH   1  10
ATOM     10  C   UNL     1       2.444  74.694 -26.690  1.00  0.00     0.111 C 
BRANCH  10  11
ATOM     11  C   UNL     1       2.335  74.442 -28.171  1.00  0.00     0.163 C 
ATOM     12  O   UNL     1       1.886  73.327 -28.552  1.00  0.00    -0.294 OA
BRANCH  11  13
ATOM     13  C   UNL     1       2.793  75.434 -29.189  1.00  0.00    -0.002 C 
ATOM     14  C   UNL     1       4.094  75.455 -29.608  1.00  0.00    -0.069 C 
ATOM     15  C   UNL     1       4.626  76.542 -30.515  1.00  0.00     0.039 C 
ATOM     16  C   UNL     1       5.073  74.383 -29.180  1.00  0.00     0.039 C 
BRANCH  13  17
ATOM     17  C   UNL     1       1.781  76.467 -29.659  1.00  0.00     0.066 CG0
ATOM     18  G   UNL     1       1.994  77.819 -29.008  1.00  0.00     0.000 G0
ENDBRANCH  13  17
ENDBRANCH  11  13
ENDBRANCH  10  11
ENDBRANCH   1  10
TORSDOF 0
ENDMDL
MODEL 8
REMARK VINA RESULT:    -3.120     11.746     13.394
REMARK INTER + INTRA:          -4.173
REMARK INTER:                  -4.420
REMARK INTRA:                   0.247
REMARK UNBOUND:                 0.223
REMARK SMILES CC1=CCC(=C(C)C)C(=O)CC(C)=CCC1
REMARK SMILES IDX 12 1 14 2 13 3 15 4 16 5 2 6 1 7 3 8 11 10 9 11 10 12 5 13
REMARK SMILES IDX 6 14 7 15 8 16 4 17
REMARK H PARENT
REMARK Flexibility Score: 60.00
ROOT
ATOM      1  C   UNL     1       6.126  76.002 -30.168  1.00  0.00    -0.070 C 
ATOM      2  C   UNL     1       5.878  74.674 -30.147  1.00  0.00    -0.027 C 
ATOM      3  C   UNL     1       5.192  76.883 -30.958  1.00  0.00     0.039 C 
ENDROOT
BRANCH   2   4
ATOM      4  C   UNL     1       6.749  73.622 -29.495  1.00  0.00     0.032 C 
BRANCH   4   5
ATOM      5  C   UNL     1       8.059  73.309 -30.248  1.00  0.00     0.034 C 
BRANCH   5   6
ATOM      6  C   UNL     1       9.294  73.425 -29.371  1.00  0.00    -0.077 C 
ATOM      7  C   UNL     1       9.398  72.506 -28.181  1.00  0.00     0.039 C 
ATOM      8  C   UNL     1      10.272  74.346 -29.548  1.00  0.00    -0.023 CG0
ATOM      9  G   UNL     1      10.388  75.353 -30.676  1.00  0.00     0.000 G0
ENDBRANCH   5   6
ENDBRANCH   4   5
ENDBRANCH   2   4
BRANCH   1  10
ATOM     10  C   UNL     1       7.342  76.631 -29.517  1.00  0.00     0.111 C 
BRANCH  10  11
ATOM     11  C   UNL     1       8.403  76.969 -30.531  1.00  0.00     0.163 C 
ATOM     12  O   UNL     1       8.033  77.427 -31.646  1.00  0.00    -0.294 OA
BRANCH  11  13
ATOM     13  C   UNL     1       9.855  76.723 -30.284  1.00  0.00    -0.002 C 
ATOM     14  C   UNL     1      10.662  77.720 -29.813  1.00  0.00    -0.069 C 
ATOM     15  C   UNL     1      12.161  77.552 -29.703  1.00  0.00     0.039 C 
ATOM     16  C   UNL     1      10.091  79.052 -29.377  1.00  0.00     0.039 C 
BRANCH  13  17
ATOM     17  C   UNL     1      10.404  75.358 -30.668  1.00  0.00     0.066 CG0
ATOM     18  G   UNL     1      10.260  74.344 -29.551  1.00  0.00     0.000 G0
ENDBRANCH  13  17
ENDBRANCH  11  13
ENDBRANCH  10  11
ENDBRANCH   1  10
TORSDOF 0
ENDMDL
MODEL 9
REMARK VINA RESULT:    -3.075      2.230      5.144
REMARK INTER + INTRA:          -4.111
REMARK INTER:                  -4.524
REMARK INTRA:                   0.414
REMARK UNBOUND:                 0.223
REMARK SMILES CC1=CCC(=C(C)C)C(=O)CC(C)=CCC1
REMARK SMILES IDX 12 1 14 2 13 3 15 4 16 5 2 6 1 7 3 8 11 10 9 11 10 12 5 13
REMARK SMILES IDX 6 14 7 15 8 16 4 17
REMARK H PARENT
REMARK Flexibility Score: 60.00
ROOT
ATOM      1  C   UNL     1      -0.737  77.830 -22.853  1.00  0.00    -0.070 C 
ATOM      2  C   UNL     1      -1.135  76.540 -22.797  1.00  0.00    -0.027 C 
ATOM      3  C   UNL     1      -0.433  78.418 -24.208  1.00  0.00     0.039 C 
ENDROOT
BRANCH   2   4
ATOM      4  C   UNL     1      -1.391  75.747 -21.534  1.00  0.00     0.032 C 
BRANCH   4   5
ATOM      5  C   UNL     1      -0.496  74.503 -21.359  1.00  0.00     0.034 C 
BRANCH   5   6
ATOM      6  C   UNL     1       0.987  74.819 -21.426  1.00  0.00    -0.077 C 
ATOM      7  C   UNL     1       1.813  74.093 -22.458  1.00  0.00     0.039 C 
ATOM      8  C   UNL     1       1.628  75.657 -20.576  1.00  0.00    -0.023 CG0
ATOM      9  G   UNL     1       1.007  76.502 -19.482  1.00  0.00     0.000 G0
ENDBRANCH   5   6
ENDBRANCH   4   5
ENDBRANCH   2   4
BRANCH   1  10
ATOM     10  C   UNL     1      -0.493  78.678 -21.621  1.00  0.00     0.111 C 
BRANCH  10  11
ATOM     11  C   UNL     1       0.909  78.509 -21.098  1.00  0.00     0.163 C 
ATOM     12  O   UNL     1       1.868  78.756 -21.878  1.00  0.00    -0.294 OA
BRANCH  11  13
ATOM     13  C   UNL     1       1.195  78.002 -19.722  1.00  0.00    -0.002 C 
ATOM     14  C   UNL     1       1.677  78.840 -18.756  1.00  0.00    -0.069 C 
ATOM     15  C   UNL     1       2.125  78.329 -17.404  1.00  0.00     0.039 C 
ATOM     16  C   UNL     1       1.788  80.330 -18.993  1.00  0.00     0.039 C 
BRANCH  13  17
ATOM     17  C   UNL     1       1.019  76.512 -19.479  1.00  0.00     0.066 CG0
ATOM     18  G   UNL     1       1.627  75.672 -20.584  1.00  0.00     0.000 G0
ENDBRANCH  13  17
ENDBRANCH  11  13
ENDBRANCH  10  11
ENDBRANCH   1  10
TORSDOF 0
ENDMDL
