MODEL 1
REMARK VINA RESULT:    17.585      0.000      0.000
REMARK INTER + INTRA:          18.398
REMARK INTER:                  18.613
REMARK INTRA:                  -0.215
REMARK UNBOUND:                -0.215
REMARK SMILES CC1=CC[C@@]23[C@@H]([C@@H](C(C)C)CC[C@@H]2C)[C@H]13
REMARK SMILES IDX 14 1 13 2 12 3 11 4 7 5 6 6 5 7 15 8 2 9 3 10 4 11 1 12 8 13
REMARK SMILES IDX 9 14 10 15
REMARK H PARENT
REMARK Flexibility Score: inf
ROOT
ATOM      1  C   UNL     1      -0.021   5.250 -14.356  1.00  0.00     0.008 C 
ATOM      2  C   UNL     1      -0.248   4.881 -12.882  1.00  0.00    -0.007 C 
ATOM      3  C   UNL     1       0.884   5.466 -12.014  1.00  0.00     0.004 C 
ATOM      4  C   UNL     1       0.558   5.343 -10.528  1.00  0.00     0.004 C 
ATOM      5  C   UNL     1      -0.630   6.254 -10.169  1.00  0.00    -0.004 C 
ATOM      6  C   UNL     1      -1.881   5.912 -11.019  1.00  0.00     0.007 C 
ATOM      7  C   UNL     1      -1.675   5.275 -12.403  1.00  0.00    -0.013 C 
ATOM      8  C   UNL     1      -2.004   6.760 -12.294  1.00  0.00     0.025 C 
ATOM      9  C   UNL     1      -3.369   6.862 -12.888  1.00  0.00    -0.073 C 
ATOM     10  C   UNL     1      -3.850   5.691 -13.288  1.00  0.00    -0.027 C 
ATOM     11  C   UNL     1      -2.903   4.576 -13.009  1.00  0.00     0.035 C 
ATOM     12  C   UNL     1      -4.125   8.149 -13.007  1.00  0.00     0.039 C 
ENDROOT
BRANCH   5  13
ATOM     13  C   UNL     1      -0.920   6.240  -8.638  1.00  0.00    -0.014 C 
ATOM     14  C   UNL     1      -1.694   7.474  -8.137  1.00  0.00     0.007 C 
ATOM     15  C   UNL     1       0.371   6.054  -7.825  1.00  0.00     0.007 C 
ENDBRANCH   5  13
TORSDOF 1
ENDMDL
MODEL 2
REMARK VINA RESULT:    19.428      1.278      4.871
REMARK INTER + INTRA:          20.349
REMARK INTER:                  20.556
REMARK INTRA:                  -0.207
REMARK UNBOUND:                -0.215
REMARK SMILES CC1=CC[C@@]23[C@@H]([C@@H](C(C)C)CC[C@@H]2C)[C@H]13
REMARK SMILES IDX 14 1 13 2 12 3 11 4 7 5 6 6 5 7 15 8 2 9 3 10 4 11 1 12 8 13
REMARK SMILES IDX 9 14 10 15
REMARK H PARENT
REMARK Flexibility Score: inf
ROOT
ATOM      1  C   UNL     1       1.802   4.689  -7.661  1.00  0.00     0.008 C 
ATOM      2  C   UNL     1       1.493   5.248  -9.058  1.00  0.00    -0.007 C 
ATOM      3  C   UNL     1       1.069   4.104 -10.000  1.00  0.00     0.004 C 
ATOM      4  C   UNL     1       0.510   4.649 -11.311  1.00  0.00     0.004 C 
ATOM      5  C   UNL     1      -0.826   5.372 -11.058  1.00  0.00    -0.004 C 
ATOM      6  C   UNL     1      -0.659   6.522 -10.031  1.00  0.00     0.007 C 
ATOM      7  C   UNL     1       0.473   6.422  -8.996  1.00  0.00    -0.013 C 
ATOM      8  C   UNL     1      -0.959   6.099  -8.585  1.00  0.00     0.025 C 
ATOM      9  C   UNL     1      -1.309   7.196  -7.637  1.00  0.00    -0.073 C 
ATOM     10  C   UNL     1      -0.324   8.071  -7.469  1.00  0.00    -0.027 C 
ATOM     11  C   UNL     1       0.865   7.736  -8.301  1.00  0.00     0.035 C 
ATOM     12  C   UNL     1      -2.637   7.309  -6.955  1.00  0.00     0.039 C 
ENDROOT
BRANCH   5  13
ATOM     13  C   UNL     1      -1.483   5.845 -12.390  1.00  0.00    -0.014 C 
ATOM     14  C   UNL     1      -2.884   5.257 -12.638  1.00  0.00     0.007 C 
ATOM     15  C   UNL     1      -0.568   5.570 -13.594  1.00  0.00     0.007 C 
ENDBRANCH   5  13
TORSDOF 1
ENDMDL
