MODEL 1
REMARK VINA RESULT:    -4.793      0.000      0.000
REMARK INTER + INTRA:         -11.265
REMARK INTER:                  -8.995
REMARK INTRA:                  -2.270
REMARK UNBOUND:                -2.270
REMARK SMILES O=C([O-])CCCCCCCCCCCCCCC(=O)[O-]
REMARK SMILES IDX 10 1 9 2 8 3 7 4 6 5 5 6 4 7 2 8 1 9 3 10 11 11 12 12 13 13
REMARK SMILES IDX 14 14 15 15 16 16 17 17 18 18 19 19 20 20
REMARK H PARENT
REMARK Flexibility Score: inf
ROOT
ATOM      1  C   UNL     1      60.222  28.856  12.668  1.00  0.00     0.000 C 
ENDROOT
BRANCH   1   2
ATOM      2  C   UNL     1      60.139  28.660  11.146  1.00  0.00     0.000 C 
BRANCH   2   3
ATOM      3  C   UNL     1      60.359  29.987  10.410  1.00  0.00     0.000 C 
BRANCH   3   4
ATOM      4  C   UNL     1      61.387  29.828   9.283  1.00  0.00     0.000 C 
BRANCH   4   5
ATOM      5  C   UNL     1      62.453  28.785   9.654  1.00  0.00     0.000 C 
BRANCH   5   6
ATOM      6  C   UNL     1      63.867  29.205   9.224  1.00  0.00     0.006 C 
BRANCH   6   7
ATOM      7  C   UNL     1      63.987  30.716   8.984  1.00  0.00     0.053 C 
BRANCH   7   8
ATOM      8  C   UNL     1      65.279  31.231   9.534  1.00  0.00     0.041 C 
ATOM      9  O   UNL     1      66.354  30.617   9.310  1.00  0.00    -0.550 OA
ATOM     10  O   UNL     1      65.289  32.365  10.338  1.00  0.00    -0.550 OA
ENDBRANCH   7   8
ENDBRANCH   6   7
ENDBRANCH   5   6
ENDBRANCH   4   5
ENDBRANCH   3   4
ENDBRANCH   2   3
ENDBRANCH   1   2
BRANCH   1  11
ATOM     11  C   UNL     1      61.651  28.694  13.212  1.00  0.00     0.000 C 
BRANCH  11  12
ATOM     12  C   UNL     1      62.204  29.998  13.813  1.00  0.00     0.000 C 
BRANCH  12  13
ATOM     13  C   UNL     1      63.050  30.798  12.810  1.00  0.00     0.000 C 
BRANCH  13  14
ATOM     14  C   UNL     1      62.576  32.252  12.661  1.00  0.00     0.000 C 
BRANCH  14  15
ATOM     15  C   UNL     1      61.118  32.401  13.110  1.00  0.00     0.000 C 
BRANCH  15  16
ATOM     16  C   UNL     1      60.966  33.547  14.122  1.00  0.00     0.006 C 
BRANCH  16  17
ATOM     17  C   UNL     1      62.124  33.591  15.128  1.00  0.00     0.053 C 
BRANCH  17  18
ATOM     18  C   UNL     1      61.741  32.986  16.444  1.00  0.00     0.041 C 
ATOM     19  O   UNL     1      62.033  33.572  17.519  1.00  0.00    -0.550 OA
ATOM     20  O   UNL     1      61.032  31.791  16.481  1.00  0.00    -0.550 OA
ENDBRANCH  17  18
ENDBRANCH  16  17
ENDBRANCH  15  16
ENDBRANCH  14  15
ENDBRANCH  13  14
ENDBRANCH  12  13
ENDBRANCH  11  12
ENDBRANCH   1  11
TORSDOF 15
ENDMDL
MODEL 2
REMARK VINA RESULT:    -4.706     12.109     15.230
REMARK INTER + INTRA:         -11.103
REMARK INTER:                  -9.149
REMARK INTRA:                  -1.954
REMARK UNBOUND:                -2.270
REMARK SMILES O=C([O-])CCCCCCCCCCCCCCC(=O)[O-]
REMARK SMILES IDX 10 1 9 2 8 3 7 4 6 5 5 6 4 7 2 8 1 9 3 10 11 11 12 12 13 13
REMARK SMILES IDX 14 14 15 15 16 16 17 17 18 18 19 19 20 20
REMARK H PARENT
REMARK Flexibility Score: inf
ROOT
ATOM      1  C   UNL     1      61.931  27.582  25.428  1.00  0.00     0.000 C 
ENDROOT
BRANCH   1   2
ATOM      2  C   UNL     1      60.940  27.015  26.456  1.00  0.00     0.000 C 
BRANCH   2   3
ATOM      3  C   UNL     1      61.565  26.975  27.856  1.00  0.00     0.000 C 
BRANCH   3   4
ATOM      4  C   UNL     1      60.711  27.755  28.863  1.00  0.00     0.000 C 
BRANCH   4   5
ATOM      5  C   UNL     1      61.129  29.233  28.909  1.00  0.00     0.000 C 
BRANCH   5   6
ATOM      6  C   UNL     1      62.639  29.429  28.708  1.00  0.00     0.006 C 
BRANCH   6   7
ATOM      7  C   UNL     1      63.074  30.889  28.893  1.00  0.00     0.053 C 
BRANCH   7   8
ATOM      8  C   UNL     1      64.566  30.997  28.855  1.00  0.00     0.041 C 
ATOM      9  O   UNL     1      65.123  32.124  28.933  1.00  0.00    -0.550 OA
ATOM     10  O   UNL     1      65.342  29.858  28.683  1.00  0.00    -0.550 OA
ENDBRANCH   7   8
ENDBRANCH   6   7
ENDBRANCH   5   6
ENDBRANCH   4   5
ENDBRANCH   3   4
ENDBRANCH   2   3
ENDBRANCH   1   2
BRANCH   1  11
ATOM     11  C   UNL     1      61.504  28.956  24.886  1.00  0.00     0.000 C 
BRANCH  11  12
ATOM     12  C   UNL     1      62.686  29.934  24.762  1.00  0.00     0.000 C 
BRANCH  12  13
ATOM     13  C   UNL     1      64.013  29.318  25.230  1.00  0.00     0.000 C 
BRANCH  13  14
ATOM     14  C   UNL     1      65.147  29.507  24.210  1.00  0.00     0.000 C 
BRANCH  14  15
ATOM     15  C   UNL     1      66.147  28.346  24.282  1.00  0.00     0.000 C 
BRANCH  15  16
ATOM     16  C   UNL     1      65.922  27.352  23.133  1.00  0.00     0.006 C 
BRANCH  16  17
ATOM     17  C   UNL     1      65.199  26.081  23.598  1.00  0.00     0.053 C 
BRANCH  17  18
ATOM     18  C   UNL     1      63.813  25.991  23.035  1.00  0.00     0.041 C 
ATOM     19  O   UNL     1      63.409  26.851  22.210  1.00  0.00    -0.550 OA
ATOM     20  O   UNL     1      62.982  24.938  23.397  1.00  0.00    -0.550 OA
ENDBRANCH  17  18
ENDBRANCH  16  17
ENDBRANCH  15  16
ENDBRANCH  14  15
ENDBRANCH  13  14
ENDBRANCH  12  13
ENDBRANCH  11  12
ENDBRANCH   1  11
TORSDOF 15
ENDMDL
MODEL 3
REMARK VINA RESULT:    -4.663     12.158     14.402
REMARK INTER + INTRA:         -11.022
REMARK INTER:                  -8.808
REMARK INTRA:                  -2.215
REMARK UNBOUND:                -2.270
REMARK SMILES O=C([O-])CCCCCCCCCCCCCCC(=O)[O-]
REMARK SMILES IDX 10 1 9 2 8 3 7 4 6 5 5 6 4 7 2 8 1 9 3 10 11 11 12 12 13 13
REMARK SMILES IDX 14 14 15 15 16 16 17 17 18 18 19 19 20 20
REMARK H PARENT
REMARK Flexibility Score: inf
ROOT
ATOM      1  C   UNL     1      60.737  27.834  24.986  1.00  0.00     0.000 C 
ENDROOT
BRANCH   1   2
ATOM      2  C   UNL     1      61.721  28.996  25.191  1.00  0.00     0.000 C 
BRANCH   2   3
ATOM      3  C   UNL     1      62.560  29.233  23.930  1.00  0.00     0.000 C 
BRANCH   3   4
ATOM      4  C   UNL     1      64.037  29.448  24.284  1.00  0.00     0.000 C 
BRANCH   4   5
ATOM      5  C   UNL     1      64.599  28.243  25.053  1.00  0.00     0.000 C 
BRANCH   5   6
ATOM      6  C   UNL     1      65.646  27.460  24.245  1.00  0.00     0.006 C 
BRANCH   6   7
ATOM      7  C   UNL     1      65.242  25.998  24.017  1.00  0.00     0.053 C 
BRANCH   7   8
ATOM      8  C   UNL     1      63.915  25.924  23.330  1.00  0.00     0.041 C 
ATOM      9  O   UNL     1      62.963  25.289  23.855  1.00  0.00    -0.550 OA
ATOM     10  O   UNL     1      63.743  26.515  22.084  1.00  0.00    -0.550 OA
ENDBRANCH   7   8
ENDBRANCH   6   7
ENDBRANCH   5   6
ENDBRANCH   4   5
ENDBRANCH   3   4
ENDBRANCH   2   3
ENDBRANCH   1   2
BRANCH   1  11
ATOM     11  C   UNL     1      60.478  27.039  26.276  1.00  0.00     0.000 C 
BRANCH  11  12
ATOM     12  C   UNL     1      61.769  26.760  27.066  1.00  0.00     0.000 C 
BRANCH  12  13
ATOM     13  C   UNL     1      61.704  27.288  28.508  1.00  0.00     0.000 C 
BRANCH  13  14
ATOM     14  C   UNL     1      61.007  28.654  28.609  1.00  0.00     0.000 C 
BRANCH  14  15
ATOM     15  C   UNL     1      61.976  29.725  29.125  1.00  0.00     0.000 C 
BRANCH  15  16
ATOM     16  C   UNL     1      63.384  29.522  28.546  1.00  0.00     0.006 C 
BRANCH  16  17
ATOM     17  C   UNL     1      63.865  30.740  27.746  1.00  0.00     0.053 C 
BRANCH  17  18
ATOM     18  C   UNL     1      65.321  31.013  27.971  1.00  0.00     0.041 C 
ATOM     19  O   UNL     1      66.191  30.408  27.293  1.00  0.00    -0.550 OA
ATOM     20  O   UNL     1      65.715  31.963  28.906  1.00  0.00    -0.550 OA
ENDBRANCH  17  18
ENDBRANCH  16  17
ENDBRANCH  15  16
ENDBRANCH  14  15
ENDBRANCH  13  14
ENDBRANCH  12  13
ENDBRANCH  11  12
ENDBRANCH   1  11
TORSDOF 15
ENDMDL
MODEL 4
REMARK VINA RESULT:    -4.582      1.276      6.515
REMARK INTER + INTRA:         -10.870
REMARK INTER:                  -9.060
REMARK INTRA:                  -1.810
REMARK UNBOUND:                -2.270
REMARK SMILES O=C([O-])CCCCCCCCCCCCCCC(=O)[O-]
REMARK SMILES IDX 10 1 9 2 8 3 7 4 6 5 5 6 4 7 2 8 1 9 3 10 11 11 12 12 13 13
REMARK SMILES IDX 14 14 15 15 16 16 17 17 18 18 19 19 20 20
REMARK H PARENT
REMARK Flexibility Score: inf
ROOT
ATOM      1  C   UNL     1      61.920  29.371  12.796  1.00  0.00     0.000 C 
ENDROOT
BRANCH   1   2
ATOM      2  C   UNL     1      62.124  30.679  13.577  1.00  0.00     0.000 C 
BRANCH   2   3
ATOM      3  C   UNL     1      61.956  31.897  12.662  1.00  0.00     0.000 C 
BRANCH   3   4
ATOM      4  C   UNL     1      60.716  32.712  13.052  1.00  0.00     0.000 C 
BRANCH   4   5
ATOM      5  C   UNL     1      60.477  32.657  14.569  1.00  0.00     0.000 C 
BRANCH   5   6
ATOM      6  C   UNL     1      60.962  33.923  15.291  1.00  0.00     0.006 C 
BRANCH   6   7
ATOM      7  C   UNL     1      62.369  33.763  15.882  1.00  0.00     0.053 C 
BRANCH   7   8
ATOM      8  C   UNL     1      62.346  34.007  17.358  1.00  0.00     0.041 C 
ATOM      9  O   UNL     1      61.409  34.668  17.878  1.00  0.00    -0.550 OA
ATOM     10  O   UNL     1      63.387  33.547  18.155  1.00  0.00    -0.550 OA
ENDBRANCH   7   8
ENDBRANCH   6   7
ENDBRANCH   5   6
ENDBRANCH   4   5
ENDBRANCH   3   4
ENDBRANCH   2   3
ENDBRANCH   1   2
BRANCH   1  11
ATOM     11  C   UNL     1      60.582  28.687  13.121  1.00  0.00     0.000 C 
BRANCH  11  12
ATOM     12  C   UNL     1      59.691  28.514  11.879  1.00  0.00     0.000 C 
BRANCH  12  13
ATOM     13  C   UNL     1      60.127  29.413  10.711  1.00  0.00     0.000 C 
BRANCH  13  14
ATOM     14  C   UNL     1      60.110  28.681   9.360  1.00  0.00     0.000 C 
BRANCH  14  15
ATOM     15  C   UNL     1      61.530  28.284   8.935  1.00  0.00     0.000 C 
BRANCH  15  16
ATOM     16  C   UNL     1      62.451  29.512   8.875  1.00  0.00     0.006 C 
BRANCH  16  17
ATOM     17  C   UNL     1      63.762  29.292   9.643  1.00  0.00     0.053 C 
BRANCH  17  18
ATOM     18  C   UNL     1      64.431  30.588   9.985  1.00  0.00     0.041 C 
ATOM     19  O   UNL     1      64.869  30.787  11.148  1.00  0.00    -0.550 OA
ATOM     20  O   UNL     1      64.601  31.563   9.009  1.00  0.00    -0.550 OA
ENDBRANCH  17  18
ENDBRANCH  16  17
ENDBRANCH  15  16
ENDBRANCH  14  15
ENDBRANCH  13  14
ENDBRANCH  12  13
ENDBRANCH  11  12
ENDBRANCH   1  11
TORSDOF 15
ENDMDL
MODEL 5
REMARK VINA RESULT:    -4.512      1.945      5.490
REMARK INTER + INTRA:         -10.738
REMARK INTER:                  -8.727
REMARK INTRA:                  -2.011
REMARK UNBOUND:                -2.270
REMARK SMILES O=C([O-])CCCCCCCCCCCCCCC(=O)[O-]
REMARK SMILES IDX 10 1 9 2 8 3 7 4 6 5 5 6 4 7 2 8 1 9 3 10 11 11 12 12 13 13
REMARK SMILES IDX 14 14 15 15 16 16 17 17 18 18 19 19 20 20
REMARK H PARENT
REMARK Flexibility Score: inf
ROOT
ATOM      1  C   UNL     1      60.387  28.397  11.934  1.00  0.00     0.000 C 
ENDROOT
BRANCH   1   2
ATOM      2  C   UNL     1      60.592  29.483  13.000  1.00  0.00     0.000 C 
BRANCH   2   3
ATOM      3  C   UNL     1      60.504  30.884  12.382  1.00  0.00     0.000 C 
BRANCH   3   4
ATOM      4  C   UNL     1      60.253  31.947  13.458  1.00  0.00     0.000 C 
BRANCH   4   5
ATOM      5  C   UNL     1      61.154  33.173  13.241  1.00  0.00     0.000 C 
BRANCH   5   6
ATOM      6  C   UNL     1      61.990  33.521  14.482  1.00  0.00     0.006 C 
BRANCH   6   7
ATOM      7  C   UNL     1      61.175  34.251  15.557  1.00  0.00     0.053 C 
BRANCH   7   8
ATOM      8  C   UNL     1      61.670  33.890  16.923  1.00  0.00     0.041 C 
ATOM      9  O   UNL     1      62.189  32.762  17.132  1.00  0.00    -0.550 OA
ATOM     10  O   UNL     1      61.512  34.781  17.976  1.00  0.00    -0.550 OA
ENDBRANCH   7   8
ENDBRANCH   6   7
ENDBRANCH   5   6
ENDBRANCH   4   5
ENDBRANCH   3   4
ENDBRANCH   2   3
ENDBRANCH   1   2
BRANCH   1  11
ATOM     11  C   UNL     1      60.451  28.951  10.501  1.00  0.00     0.000 C 
BRANCH  11  12
ATOM     12  C   UNL     1      61.502  28.231   9.637  1.00  0.00     0.000 C 
BRANCH  12  13
ATOM     13  C   UNL     1      62.596  29.181   9.125  1.00  0.00     0.000 C 
BRANCH  13  14
ATOM     14  C   UNL     1      63.765  29.326  10.112  1.00  0.00     0.000 C 
BRANCH  14  15
ATOM     15  C   UNL     1      64.161  30.798  10.281  1.00  0.00     0.000 C 
BRANCH  15  16
ATOM     16  C   UNL     1      64.279  31.171  11.766  1.00  0.00     0.006 C 
BRANCH  16  17
ATOM     17  C   UNL     1      64.133  29.951  12.685  1.00  0.00     0.053 C 
BRANCH  17  18
ATOM     18  C   UNL     1      64.337  30.311  14.125  1.00  0.00     0.041 C 
ATOM     19  O   UNL     1      65.493  30.553  14.559  1.00  0.00    -0.550 OA
ATOM     20  O   UNL     1      63.245  30.413  14.979  1.00  0.00    -0.550 OA
ENDBRANCH  17  18
ENDBRANCH  16  17
ENDBRANCH  15  16
ENDBRANCH  14  15
ENDBRANCH  13  14
ENDBRANCH  12  13
ENDBRANCH  11  12
ENDBRANCH   1  11
TORSDOF 15
ENDMDL
MODEL 6
REMARK VINA RESULT:    -4.511      2.525      5.968
REMARK INTER + INTRA:         -10.736
REMARK INTER:                  -8.719
REMARK INTRA:                  -2.017
REMARK UNBOUND:                -2.270
REMARK SMILES O=C([O-])CCCCCCCCCCCCCCC(=O)[O-]
REMARK SMILES IDX 10 1 9 2 8 3 7 4 6 5 5 6 4 7 2 8 1 9 3 10 11 11 12 12 13 13
REMARK SMILES IDX 14 14 15 15 16 16 17 17 18 18 19 19 20 20
REMARK H PARENT
REMARK Flexibility Score: inf
ROOT
ATOM      1  C   UNL     1      63.946  30.781  12.747  1.00  0.00     0.000 C 
ENDROOT
BRANCH   1   2
ATOM      2  C   UNL     1      64.115  32.158  12.088  1.00  0.00     0.000 C 
BRANCH   2   3
ATOM      3  C   UNL     1      64.432  33.232  13.135  1.00  0.00     0.000 C 
BRANCH   3   4
ATOM      4  C   UNL     1      64.689  32.603  14.510  1.00  0.00     0.000 C 
BRANCH   4   5
ATOM      5  C   UNL     1      63.835  33.280  15.593  1.00  0.00     0.000 C 
BRANCH   5   6
ATOM      6  C   UNL     1      62.496  33.802  15.052  1.00  0.00     0.006 C 
BRANCH   6   7
ATOM      7  C   UNL     1      61.337  32.831  15.309  1.00  0.00     0.053 C 
BRANCH   7   8
ATOM      8  C   UNL     1      60.527  32.643  14.064  1.00  0.00     0.041 C 
ATOM      9  O   UNL     1      60.921  33.128  12.972  1.00  0.00    -0.550 OA
ATOM     10  O   UNL     1      59.310  31.975  14.121  1.00  0.00    -0.550 OA
ENDBRANCH   7   8
ENDBRANCH   6   7
ENDBRANCH   5   6
ENDBRANCH   4   5
ENDBRANCH   3   4
ENDBRANCH   2   3
ENDBRANCH   1   2
BRANCH   1  11
ATOM     11  C   UNL     1      63.997  29.626  11.733  1.00  0.00     0.000 C 
BRANCH  11  12
ATOM     12  C   UNL     1      63.916  30.116  10.277  1.00  0.00     0.000 C 
BRANCH  12  13
ATOM     13  C   UNL     1      63.745  28.962   9.275  1.00  0.00     0.000 C 
BRANCH  13  14
ATOM     14  C   UNL     1      62.277  28.548   9.091  1.00  0.00     0.000 C 
BRANCH  14  15
ATOM     15  C   UNL     1      61.353  29.771   9.139  1.00  0.00     0.000 C 
BRANCH  15  16
ATOM     16  C   UNL     1      60.112  29.493  10.001  1.00  0.00     0.006 C 
BRANCH  16  17
ATOM     17  C   UNL     1      60.333  29.866  11.473  1.00  0.00     0.053 C 
BRANCH  17  18
ATOM     18  C   UNL     1      60.132  28.691  12.381  1.00  0.00     0.041 C 
ATOM     19  O   UNL     1      61.100  28.224  13.036  1.00  0.00    -0.550 OA
ATOM     20  O   UNL     1      58.867  28.135  12.530  1.00  0.00    -0.550 OA
ENDBRANCH  17  18
ENDBRANCH  16  17
ENDBRANCH  15  16
ENDBRANCH  14  15
ENDBRANCH  13  14
ENDBRANCH  12  13
ENDBRANCH  11  12
ENDBRANCH   1  11
TORSDOF 15
ENDMDL
MODEL 7
REMARK VINA RESULT:    -4.498      2.238      6.466
REMARK INTER + INTRA:         -10.712
REMARK INTER:                  -9.102
REMARK INTRA:                  -1.610
REMARK UNBOUND:                -2.270
REMARK SMILES O=C([O-])CCCCCCCCCCCCCCC(=O)[O-]
REMARK SMILES IDX 10 1 9 2 8 3 7 4 6 5 5 6 4 7 2 8 1 9 3 10 11 11 12 12 13 13
REMARK SMILES IDX 14 14 15 15 16 16 17 17 18 18 19 19 20 20
REMARK H PARENT
REMARK Flexibility Score: inf
ROOT
ATOM      1  C   UNL     1      64.712  32.151  11.620  1.00  0.00     0.000 C 
ENDROOT
BRANCH   1   2
ATOM      2  C   UNL     1      63.982  32.907  12.741  1.00  0.00     0.000 C 
BRANCH   2   3
ATOM      3  C   UNL     1      62.736  32.140  13.199  1.00  0.00     0.000 C 
BRANCH   3   4
ATOM      4  C   UNL     1      61.477  33.006  13.071  1.00  0.00     0.000 C 
BRANCH   4   5
ATOM      5  C   UNL     1      60.683  33.019  14.387  1.00  0.00     0.000 C 
BRANCH   5   6
ATOM      6  C   UNL     1      61.463  33.661  15.544  1.00  0.00     0.006 C 
BRANCH   6   7
ATOM      7  C   UNL     1      61.629  32.715  16.740  1.00  0.00     0.053 C 
BRANCH   7   8
ATOM      8  C   UNL     1      62.226  33.444  17.903  1.00  0.00     0.041 C 
ATOM      9  O   UNL     1      61.491  34.103  18.684  1.00  0.00    -0.550 OA
ATOM     10  O   UNL     1      63.602  33.435  18.096  1.00  0.00    -0.550 OA
ENDBRANCH   7   8
ENDBRANCH   6   7
ENDBRANCH   5   6
ENDBRANCH   4   5
ENDBRANCH   3   4
ENDBRANCH   2   3
ENDBRANCH   1   2
BRANCH   1  11
ATOM     11  C   UNL     1      64.128  30.752  11.368  1.00  0.00     0.000 C 
BRANCH  11  12
ATOM     12  C   UNL     1      63.862  30.483   9.876  1.00  0.00     0.000 C 
BRANCH  12  13
ATOM     13  C   UNL     1      63.714  28.985   9.564  1.00  0.00     0.000 C 
BRANCH  13  14
ATOM     14  C   UNL     1      62.348  28.639   8.952  1.00  0.00     0.000 C 
BRANCH  14  15
ATOM     15  C   UNL     1      61.354  29.791   9.144  1.00  0.00     0.000 C 
BRANCH  15  16
ATOM     16  C   UNL     1      60.176  29.361  10.032  1.00  0.00     0.006 C 
BRANCH  16  17
ATOM     17  C   UNL     1      60.336  29.839  11.481  1.00  0.00     0.053 C 
BRANCH  17  18
ATOM     18  C   UNL     1      60.642  28.704  12.411  1.00  0.00     0.041 C 
ATOM     19  O   UNL     1      61.821  28.509  12.804  1.00  0.00    -0.550 OA
ATOM     20  O   UNL     1      59.618  27.884  12.869  1.00  0.00    -0.550 OA
ENDBRANCH  17  18
ENDBRANCH  16  17
ENDBRANCH  15  16
ENDBRANCH  14  15
ENDBRANCH  13  14
ENDBRANCH  12  13
ENDBRANCH  11  12
ENDBRANCH   1  11
TORSDOF 15
ENDMDL
MODEL 8
REMARK VINA RESULT:    -4.483     11.713     13.904
REMARK INTER + INTRA:         -10.683
REMARK INTER:                  -8.934
REMARK INTRA:                  -1.749
REMARK UNBOUND:                -2.270
REMARK SMILES O=C([O-])CCCCCCCCCCCCCCC(=O)[O-]
REMARK SMILES IDX 10 1 9 2 8 3 7 4 6 5 5 6 4 7 2 8 1 9 3 10 11 11 12 12 13 13
REMARK SMILES IDX 14 14 15 15 16 16 17 17 18 18 19 19 20 20
REMARK H PARENT
REMARK Flexibility Score: inf
ROOT
ATOM      1  C   UNL     1      63.411  29.699  24.536  1.00  0.00     0.000 C 
ENDROOT
BRANCH   1   2
ATOM      2  C   UNL     1      64.586  29.985  23.588  1.00  0.00     0.000 C 
BRANCH   2   3
ATOM      3  C   UNL     1      65.923  29.922  24.336  1.00  0.00     0.000 C 
BRANCH   3   4
ATOM      4  C   UNL     1      66.727  28.682  23.925  1.00  0.00     0.000 C 
BRANCH   4   5
ATOM      5  C   UNL     1      66.418  28.283  22.473  1.00  0.00     0.000 C 
BRANCH   5   6
ATOM      6  C   UNL     1      66.042  26.799  22.334  1.00  0.00     0.006 C 
BRANCH   6   7
ATOM      7  C   UNL     1      65.247  26.277  23.537  1.00  0.00     0.053 C 
BRANCH   7   8
ATOM      8  C   UNL     1      63.803  26.115  23.178  1.00  0.00     0.041 C 
ATOM      9  O   UNL     1      63.091  25.269  23.779  1.00  0.00    -0.550 OA
ATOM     10  O   UNL     1      63.256  26.864  22.144  1.00  0.00    -0.550 OA
ENDBRANCH   7   8
ENDBRANCH   6   7
ENDBRANCH   5   6
ENDBRANCH   4   5
ENDBRANCH   3   4
ENDBRANCH   2   3
ENDBRANCH   1   2
BRANCH   1  11
ATOM     11  C   UNL     1      63.565  30.394  25.899  1.00  0.00     0.000 C 
BRANCH  11  12
ATOM     12  C   UNL     1      63.876  29.403  27.034  1.00  0.00     0.000 C 
BRANCH  12  13
ATOM     13  C   UNL     1      63.408  29.912  28.406  1.00  0.00     0.000 C 
BRANCH  13  14
ATOM     14  C   UNL     1      62.402  28.964  29.079  1.00  0.00     0.000 C 
BRANCH  14  15
ATOM     15  C   UNL     1      61.143  28.802  28.218  1.00  0.00     0.000 C 
BRANCH  15  16
ATOM     16  C   UNL     1      60.861  27.320  27.926  1.00  0.00     0.006 C 
BRANCH  16  17
ATOM     17  C   UNL     1      61.343  26.901  26.531  1.00  0.00     0.053 C 
BRANCH  17  18
ATOM     18  C   UNL     1      60.282  27.103  25.492  1.00  0.00     0.041 C 
ATOM     19  O   UNL     1      59.308  26.310  25.420  1.00  0.00    -0.550 OA
ATOM     20  O   UNL     1      60.352  28.188  24.626  1.00  0.00    -0.550 OA
ENDBRANCH  17  18
ENDBRANCH  16  17
ENDBRANCH  15  16
ENDBRANCH  14  15
ENDBRANCH  13  14
ENDBRANCH  12  13
ENDBRANCH  11  12
ENDBRANCH   1  11
TORSDOF 15
ENDMDL
MODEL 9
REMARK VINA RESULT:    -4.457      2.670      4.883
REMARK INTER + INTRA:         -10.635
REMARK INTER:                  -8.305
REMARK INTRA:                  -2.330
REMARK UNBOUND:                -2.270
REMARK SMILES O=C([O-])CCCCCCCCCCCCCCC(=O)[O-]
REMARK SMILES IDX 10 1 9 2 8 3 7 4 6 5 5 6 4 7 2 8 1 9 3 10 11 11 12 12 13 13
REMARK SMILES IDX 14 14 15 15 16 16 17 17 18 18 19 19 20 20
REMARK H PARENT
REMARK Flexibility Score: inf
ROOT
ATOM      1  C   UNL     1      60.751  33.162  14.469  1.00  0.00     0.000 C 
ENDROOT
BRANCH   1   2
ATOM      2  C   UNL     1      61.077  31.694  14.786  1.00  0.00     0.000 C 
BRANCH   2   3
ATOM      3  C   UNL     1      61.068  30.843  13.510  1.00  0.00     0.000 C 
BRANCH   3   4
ATOM      4  C   UNL     1      61.453  29.390  13.815  1.00  0.00     0.000 C 
BRANCH   4   5
ATOM      5  C   UNL     1      62.593  28.919  12.899  1.00  0.00     0.000 C 
BRANCH   5   6
ATOM      6  C   UNL     1      62.713  29.762  11.620  1.00  0.00     0.006 C 
BRANCH   6   7
ATOM      7  C   UNL     1      62.723  28.905  10.348  1.00  0.00     0.053 C 
BRANCH   7   8
ATOM      8  C   UNL     1      61.329  28.705   9.842  1.00  0.00     0.041 C 
ATOM      9  O   UNL     1      61.080  27.789   9.015  1.00  0.00    -0.550 OA
ATOM     10  O   UNL     1      60.313  29.561  10.246  1.00  0.00    -0.550 OA
ENDBRANCH   7   8
ENDBRANCH   6   7
ENDBRANCH   5   6
ENDBRANCH   4   5
ENDBRANCH   3   4
ENDBRANCH   2   3
ENDBRANCH   1   2
BRANCH   1  11
ATOM     11  C   UNL     1      61.294  34.134  15.529  1.00  0.00     0.000 C 
BRANCH  11  12
ATOM     12  C   UNL     1      62.061  33.414  16.652  1.00  0.00     0.000 C 
BRANCH  12  13
ATOM     13  C   UNL     1      63.512  33.902  16.783  1.00  0.00     0.000 C 
BRANCH  13  14
ATOM     14  C   UNL     1      64.264  33.894  15.442  1.00  0.00     0.000 C 
BRANCH  14  15
ATOM     15  C   UNL     1      65.004  32.567  15.237  1.00  0.00     0.000 C 
BRANCH  15  16
ATOM     16  C   UNL     1      64.649  31.942  13.879  1.00  0.00     0.006 C 
BRANCH  16  17
ATOM     17  C   UNL     1      64.207  32.994  12.853  1.00  0.00     0.053 C 
BRANCH  17  18
ATOM     18  C   UNL     1      65.192  33.125  11.731  1.00  0.00     0.041 C 
ATOM     19  O   UNL     1      65.202  32.284  10.795  1.00  0.00    -0.550 OA
ATOM     20  O   UNL     1      66.075  34.198  11.702  1.00  0.00    -0.550 OA
ENDBRANCH  17  18
ENDBRANCH  16  17
ENDBRANCH  15  16
ENDBRANCH  14  15
ENDBRANCH  13  14
ENDBRANCH  12  13
ENDBRANCH  11  12
ENDBRANCH   1  11
TORSDOF 15
ENDMDL
