MODEL 1
REMARK VINA RESULT:    -4.466      0.000      0.000
REMARK INTER + INTRA:          -6.128
REMARK INTER:                  -6.032
REMARK INTRA:                  -0.096
REMARK UNBOUND:                -0.096
REMARK SMILES [NH3+]CCCC[C@@H]([NH3+])C(=O)[O-]
REMARK SMILES IDX 4 1 3 2 2 3 1 4 5 8 6 9 7 10 8 14 9 15 10 16
REMARK H PARENT 1 5 1 6 1 7 7 11 7 12 7 13
REMARK Flexibility Score: inf
ROOT
ATOM      1  C   UNL     1      -5.977 -19.100 -13.264  1.00  0.00     0.012 C 
ENDROOT
BRANCH   1   2
ATOM      2  C   UNL     1      -6.196 -19.381 -14.760  1.00  0.00     0.061 C 
BRANCH   2   3
ATOM      3  C   UNL     1      -6.978 -18.262 -15.468  1.00  0.00     0.258 C 
BRANCH   3   4
ATOM      4  N   UNL     1      -6.699 -16.963 -14.855  1.00  0.00    -0.358 N 
ATOM      5  H   UNL     1      -6.362 -17.112 -13.878  1.00  0.00     0.344 HD
ATOM      6  H   UNL     1      -7.571 -16.384 -14.827  1.00  0.00     0.344 HD
ATOM      7  H   UNL     1      -5.958 -16.462 -15.398  1.00  0.00     0.344 HD
ENDBRANCH   3   4
ENDBRANCH   2   3
ENDBRANCH   1   2
BRANCH   1   8
ATOM      8  C   UNL     1      -4.993 -20.089 -12.616  1.00  0.00     0.072 C 
BRANCH   8   9
ATOM      9  C   UNL     1      -5.690 -21.071 -11.645  1.00  0.00     0.227 C 
BRANCH   9  10
ATOM     10  N   UNL     1      -6.542 -22.033 -12.359  1.00  0.00    -0.350 N 
ATOM     11  H   UNL     1      -6.933 -21.596 -13.223  1.00  0.00     0.345 HD
ATOM     12  H   UNL     1      -7.351 -22.309 -11.754  1.00  0.00     0.345 HD
ATOM     13  H   UNL     1      -6.001 -22.891 -12.616  1.00  0.00     0.345 HD
ENDBRANCH   9  10
BRANCH   9  14
ATOM     14  C   UNL     1      -4.654 -21.801 -10.833  1.00  0.00     0.099 C 
ATOM     15  O   UNL     1      -4.785 -21.917  -9.585  1.00  0.00    -0.544 OA
ATOM     16  O   UNL     1      -3.553 -22.370 -11.461  1.00  0.00    -0.544 OA
ENDBRANCH   9  14
ENDBRANCH   8   9
ENDBRANCH   1   8
TORSDOF 7
ENDMDL
MODEL 2
REMARK VINA RESULT:    -4.375      3.313      4.892
REMARK INTER + INTRA:          -6.005
REMARK INTER:                  -5.809
REMARK INTRA:                  -0.196
REMARK UNBOUND:                -0.096
REMARK SMILES [NH3+]CCCC[C@@H]([NH3+])C(=O)[O-]
REMARK SMILES IDX 4 1 3 2 2 3 1 4 5 8 6 9 7 10 8 14 9 15 10 16
REMARK H PARENT 1 5 1 6 1 7 7 11 7 12 7 13
REMARK Flexibility Score: inf
ROOT
ATOM      1  C   UNL     1      -4.580 -20.258 -12.199  1.00  0.00     0.012 C 
ENDROOT
BRANCH   1   2
ATOM      2  C   UNL     1      -4.914 -21.652 -11.643  1.00  0.00     0.061 C 
BRANCH   2   3
ATOM      3  C   UNL     1      -6.371 -21.770 -11.168  1.00  0.00     0.258 C 
BRANCH   3   4
ATOM      4  N   UNL     1      -7.106 -22.742 -11.977  1.00  0.00    -0.358 N 
ATOM      5  H   UNL     1      -8.129 -22.546 -11.901  1.00  0.00     0.344 HD
ATOM      6  H   UNL     1      -6.921 -23.712 -11.630  1.00  0.00     0.344 HD
ATOM      7  H   UNL     1      -6.818 -22.664 -12.981  1.00  0.00     0.344 HD
ENDBRANCH   3   4
ENDBRANCH   2   3
ENDBRANCH   1   2
BRANCH   1   8
ATOM      8  C   UNL     1      -5.838 -19.417 -12.478  1.00  0.00     0.072 C 
BRANCH   8   9
ATOM      9  C   UNL     1      -5.968 -19.014 -13.965  1.00  0.00     0.227 C 
BRANCH   9  10
ATOM     10  N   UNL     1      -6.323 -20.160 -14.813  1.00  0.00    -0.350 N 
ATOM     11  H   UNL     1      -5.462 -20.670 -15.111  1.00  0.00     0.345 HD
ATOM     12  H   UNL     1      -6.805 -19.826 -15.680  1.00  0.00     0.345 HD
ATOM     13  H   UNL     1      -6.959 -20.818 -14.304  1.00  0.00     0.345 HD
ENDBRANCH   9  10
BRANCH   9  14
ATOM     14  C   UNL     1      -6.997 -17.925 -14.107  1.00  0.00     0.099 C 
ATOM     15  O   UNL     1      -7.690 -17.568 -13.118  1.00  0.00    -0.544 OA
ATOM     16  O   UNL     1      -7.172 -17.290 -15.330  1.00  0.00    -0.544 OA
ENDBRANCH   9  14
ENDBRANCH   8   9
ENDBRANCH   1   8
TORSDOF 7
ENDMDL
MODEL 3
REMARK VINA RESULT:    -4.372      2.993      5.222
REMARK INTER + INTRA:          -6.001
REMARK INTER:                  -5.844
REMARK INTRA:                  -0.157
REMARK UNBOUND:                -0.096
REMARK SMILES [NH3+]CCCC[C@@H]([NH3+])C(=O)[O-]
REMARK SMILES IDX 4 1 3 2 2 3 1 4 5 8 6 9 7 10 8 14 9 15 10 16
REMARK H PARENT 1 5 1 6 1 7 7 11 7 12 7 13
REMARK Flexibility Score: inf
ROOT
ATOM      1  C   UNL     1      -3.368 -22.406 -10.842  1.00  0.00     0.012 C 
ENDROOT
BRANCH   1   2
ATOM      2  C   UNL     1      -3.299 -23.582 -11.831  1.00  0.00     0.061 C 
BRANCH   2   3
ATOM      3  C   UNL     1      -1.886 -24.175 -11.952  1.00  0.00     0.258 C 
BRANCH   3   4
ATOM      4  N   UNL     1      -1.913 -25.438 -12.690  1.00  0.00    -0.358 N 
ATOM      5  H   UNL     1      -2.257 -25.261 -13.660  1.00  0.00     0.344 HD
ATOM      6  H   UNL     1      -2.560 -26.115 -12.221  1.00  0.00     0.344 HD
ATOM      7  H   UNL     1      -0.951 -25.846 -12.740  1.00  0.00     0.344 HD
ENDBRANCH   3   4
ENDBRANCH   2   3
ENDBRANCH   1   2
BRANCH   1   8
ATOM      8  C   UNL     1      -4.798 -21.865 -10.668  1.00  0.00     0.072 C 
BRANCH   8   9
ATOM      9  C   UNL     1      -5.601 -21.868 -11.990  1.00  0.00     0.227 C 
BRANCH   9  10
ATOM     10  N   UNL     1      -6.924 -22.487 -11.824  1.00  0.00    -0.350 N 
ATOM     11  H   UNL     1      -7.489 -21.950 -11.129  1.00  0.00     0.345 HD
ATOM     12  H   UNL     1      -6.818 -23.461 -11.455  1.00  0.00     0.345 HD
ATOM     13  H   UNL     1      -7.435 -22.523 -12.736  1.00  0.00     0.345 HD
ENDBRANCH   9  10
BRANCH   9  14
ATOM     14  C   UNL     1      -5.747 -20.459 -12.497  1.00  0.00     0.099 C 
ATOM     15  O   UNL     1      -5.547 -19.480 -11.730  1.00  0.00    -0.544 OA
ATOM     16  O   UNL     1      -6.085 -20.230 -13.825  1.00  0.00    -0.544 OA
ENDBRANCH   9  14
ENDBRANCH   8   9
ENDBRANCH   1   8
TORSDOF 7
ENDMDL
MODEL 4
REMARK VINA RESULT:    -4.264      1.694      1.859
REMARK INTER + INTRA:          -5.856
REMARK INTER:                  -5.759
REMARK INTRA:                  -0.096
REMARK UNBOUND:                -0.096
REMARK SMILES [NH3+]CCCC[C@@H]([NH3+])C(=O)[O-]
REMARK SMILES IDX 4 1 3 2 2 3 1 4 5 8 6 9 7 10 8 14 9 15 10 16
REMARK H PARENT 1 5 1 6 1 7 7 11 7 12 7 13
REMARK Flexibility Score: inf
ROOT
ATOM      1  C   UNL     1      -6.087 -19.756 -14.145  1.00  0.00     0.012 C 
ENDROOT
BRANCH   1   2
ATOM      2  C   UNL     1      -6.576 -18.472 -14.835  1.00  0.00     0.061 C 
BRANCH   2   3
ATOM      3  C   UNL     1      -7.328 -17.532 -13.880  1.00  0.00     0.258 C 
BRANCH   3   4
ATOM      4  N   UNL     1      -7.285 -16.153 -14.364  1.00  0.00    -0.358 N 
ATOM      5  H   UNL     1      -7.953 -16.049 -15.160  1.00  0.00     0.344 HD
ATOM      6  H   UNL     1      -6.321 -15.920 -14.700  1.00  0.00     0.344 HD
ATOM      7  H   UNL     1      -7.562 -15.494 -13.600  1.00  0.00     0.344 HD
ENDBRANCH   3   4
ENDBRANCH   2   3
ENDBRANCH   1   2
BRANCH   1   8
ATOM      8  C   UNL     1      -5.490 -19.488 -12.753  1.00  0.00     0.072 C 
BRANCH   8   9
ATOM      9  C   UNL     1      -4.921 -20.765 -12.092  1.00  0.00     0.227 C 
BRANCH   9  10
ATOM     10  N   UNL     1      -3.460 -20.703 -11.950  1.00  0.00    -0.350 N 
ATOM     11  H   UNL     1      -3.183 -20.915 -10.965  1.00  0.00     0.345 HD
ATOM     12  H   UNL     1      -3.121 -19.737 -12.169  1.00  0.00     0.345 HD
ATOM     13  H   UNL     1      -2.993 -21.382 -12.596  1.00  0.00     0.345 HD
ENDBRANCH   9  10
BRANCH   9  14
ATOM     14  C   UNL     1      -5.565 -20.969 -10.747  1.00  0.00     0.099 C 
ATOM     15  O   UNL     1      -5.062 -20.455  -9.714  1.00  0.00    -0.544 OA
ATOM     16  O   UNL     1      -6.735 -21.711 -10.643  1.00  0.00    -0.544 OA
ENDBRANCH   9  14
ENDBRANCH   8   9
ENDBRANCH   1   8
TORSDOF 7
ENDMDL
MODEL 5
REMARK VINA RESULT:    -4.251      3.220      5.051
REMARK INTER + INTRA:          -5.838
REMARK INTER:                  -5.723
REMARK INTRA:                  -0.115
REMARK UNBOUND:                -0.096
REMARK SMILES [NH3+]CCCC[C@@H]([NH3+])C(=O)[O-]
REMARK SMILES IDX 4 1 3 2 2 3 1 4 5 8 6 9 7 10 8 14 9 15 10 16
REMARK H PARENT 1 5 1 6 1 7 7 11 7 12 7 13
REMARK Flexibility Score: inf
ROOT
ATOM      1  C   UNL     1      -3.238 -22.841 -11.444  1.00  0.00     0.012 C 
ENDROOT
BRANCH   1   2
ATOM      2  C   UNL     1      -2.055 -21.912 -11.762  1.00  0.00     0.061 C 
BRANCH   2   3
ATOM      3  C   UNL     1      -0.693 -22.550 -11.444  1.00  0.00     0.258 C 
BRANCH   3   4
ATOM      4  N   UNL     1       0.259 -22.315 -12.529  1.00  0.00    -0.358 N 
ATOM      5  H   UNL     1       0.826 -23.179 -12.680  1.00  0.00     0.344 HD
ATOM      6  H   UNL     1       0.902 -21.528 -12.279  1.00  0.00     0.344 HD
ATOM      7  H   UNL     1      -0.253 -22.087 -13.413  1.00  0.00     0.344 HD
ENDBRANCH   3   4
ENDBRANCH   2   3
ENDBRANCH   1   2
BRANCH   1   8
ATOM      8  C   UNL     1      -4.502 -22.068 -11.032  1.00  0.00     0.072 C 
BRANCH   8   9
ATOM      9  C   UNL     1      -5.520 -21.932 -12.188  1.00  0.00     0.227 C 
BRANCH   9  10
ATOM     10  N   UNL     1      -6.814 -22.543 -11.852  1.00  0.00    -0.350 N 
ATOM     11  H   UNL     1      -7.084 -23.242 -12.579  1.00  0.00     0.345 HD
ATOM     12  H   UNL     1      -7.560 -21.809 -11.832  1.00  0.00     0.345 HD
ATOM     13  H   UNL     1      -6.773 -23.010 -10.916  1.00  0.00     0.345 HD
ENDBRANCH   9  10
BRANCH   9  14
ATOM     14  C   UNL     1      -5.706 -20.478 -12.530  1.00  0.00     0.099 C 
ATOM     15  O   UNL     1      -5.547 -19.589 -11.652  1.00  0.00    -0.544 OA
ATOM     16  O   UNL     1      -6.036 -20.107 -13.828  1.00  0.00    -0.544 OA
ENDBRANCH   9  14
ENDBRANCH   8   9
ENDBRANCH   1   8
TORSDOF 7
ENDMDL
MODEL 6
REMARK VINA RESULT:    -4.156      3.324      5.302
REMARK INTER + INTRA:          -5.710
REMARK INTER:                  -5.537
REMARK INTRA:                  -0.173
REMARK UNBOUND:                -0.096
REMARK SMILES [NH3+]CCCC[C@@H]([NH3+])C(=O)[O-]
REMARK SMILES IDX 4 1 3 2 2 3 1 4 5 8 6 9 7 10 8 14 9 15 10 16
REMARK H PARENT 1 5 1 6 1 7 7 11 7 12 7 13
REMARK Flexibility Score: inf
ROOT
ATOM      1  C   UNL     1      -2.122 -21.877 -11.384  1.00  0.00     0.012 C 
ENDROOT
BRANCH   1   2
ATOM      2  C   UNL     1      -1.587 -23.044 -12.230  1.00  0.00     0.061 C 
BRANCH   2   3
ATOM      3  C   UNL     1      -2.488 -24.288 -12.165  1.00  0.00     0.258 C 
BRANCH   3   4
ATOM      4  N   UNL     1      -1.775 -25.473 -12.641  1.00  0.00    -0.358 N 
ATOM      5  H   UNL     1      -0.772 -25.228 -12.800  1.00  0.00     0.344 HD
ATOM      6  H   UNL     1      -2.188 -25.803 -13.544  1.00  0.00     0.344 HD
ATOM      7  H   UNL     1      -1.829 -26.236 -11.927  1.00  0.00     0.344 HD
ENDBRANCH   3   4
ENDBRANCH   2   3
ENDBRANCH   1   2
BRANCH   1   8
ATOM      8  C   UNL     1      -3.482 -22.191 -10.737  1.00  0.00     0.072 C 
BRANCH   8   9
ATOM      9  C   UNL     1      -4.535 -21.090 -11.000  1.00  0.00     0.227 C 
BRANCH   9  10
ATOM     10  N   UNL     1      -4.159 -20.233 -12.134  1.00  0.00    -0.350 N 
ATOM     11  H   UNL     1      -4.099 -20.799 -13.010  1.00  0.00     0.345 HD
ATOM     12  H   UNL     1      -3.214 -19.815 -11.966  1.00  0.00     0.345 HD
ATOM     13  H   UNL     1      -4.854 -19.461 -12.264  1.00  0.00     0.345 HD
ENDBRANCH   9  10
BRANCH   9  14
ATOM     14  C   UNL     1      -5.878 -21.722 -11.252  1.00  0.00     0.099 C 
ATOM     15  O   UNL     1      -6.068 -22.432 -12.275  1.00  0.00    -0.544 OA
ATOM     16  O   UNL     1      -6.911 -21.543 -10.341  1.00  0.00    -0.544 OA
ENDBRANCH   9  14
ENDBRANCH   8   9
ENDBRANCH   1   8
TORSDOF 7
ENDMDL
MODEL 7
REMARK VINA RESULT:    -4.056      3.675      5.321
REMARK INTER + INTRA:          -5.574
REMARK INTER:                  -5.486
REMARK INTRA:                  -0.088
REMARK UNBOUND:                -0.096
REMARK SMILES [NH3+]CCCC[C@@H]([NH3+])C(=O)[O-]
REMARK SMILES IDX 4 1 3 2 2 3 1 4 5 8 6 9 7 10 8 14 9 15 10 16
REMARK H PARENT 1 5 1 6 1 7 7 11 7 12 7 13
REMARK Flexibility Score: inf
ROOT
ATOM      1  C   UNL     1      -8.625 -17.625 -17.302  1.00  0.00     0.012 C 
ENDROOT
BRANCH   1   2
ATOM      2  C   UNL     1     -10.010 -17.995 -17.858  1.00  0.00     0.061 C 
BRANCH   2   3
ATOM      3  C   UNL     1     -10.125 -17.765 -19.374  1.00  0.00     0.258 C 
BRANCH   3   4
ATOM      4  N   UNL     1      -9.253 -16.671 -19.802  1.00  0.00    -0.358 N 
ATOM      5  H   UNL     1      -9.797 -16.017 -20.408  1.00  0.00     0.344 HD
ATOM      6  H   UNL     1      -8.446 -17.049 -20.352  1.00  0.00     0.344 HD
ATOM      7  H   UNL     1      -8.898 -16.147 -18.968  1.00  0.00     0.344 HD
ENDBRANCH   3   4
ENDBRANCH   2   3
ENDBRANCH   1   2
BRANCH   1   8
ATOM      8  C   UNL     1      -8.466 -17.998 -15.818  1.00  0.00     0.072 C 
BRANCH   8   9
ATOM      9  C   UNL     1      -7.065 -17.648 -15.264  1.00  0.00     0.227 C 
BRANCH   9  10
ATOM     10  N   UNL     1      -7.098 -16.454 -14.407  1.00  0.00    -0.350 N 
ATOM     11  H   UNL     1      -6.215 -15.907 -14.515  1.00  0.00     0.345 HD
ATOM     12  H   UNL     1      -7.170 -16.739 -13.402  1.00  0.00     0.345 HD
ATOM     13  H   UNL     1      -7.916 -15.847 -14.647  1.00  0.00     0.345 HD
ENDBRANCH   9  10
BRANCH   9  14
ATOM     14  C   UNL     1      -6.516 -18.822 -14.497  1.00  0.00     0.099 C 
ATOM     15  O   UNL     1      -6.165 -19.871 -15.099  1.00  0.00    -0.544 OA
ATOM     16  O   UNL     1      -6.374 -18.744 -13.117  1.00  0.00    -0.544 OA
ENDBRANCH   9  14
ENDBRANCH   8   9
ENDBRANCH   1   8
TORSDOF 7
ENDMDL
MODEL 8
REMARK VINA RESULT:    -3.970      3.627      5.077
REMARK INTER + INTRA:          -5.458
REMARK INTER:                  -5.352
REMARK INTRA:                  -0.106
REMARK UNBOUND:                -0.096
REMARK SMILES [NH3+]CCCC[C@@H]([NH3+])C(=O)[O-]
REMARK SMILES IDX 4 1 3 2 2 3 1 4 5 8 6 9 7 10 8 14 9 15 10 16
REMARK H PARENT 1 5 1 6 1 7 7 11 7 12 7 13
REMARK Flexibility Score: inf
ROOT
ATOM      1  C   UNL     1      -3.405 -22.391 -11.422  1.00  0.00     0.012 C 
ENDROOT
BRANCH   1   2
ATOM      2  C   UNL     1      -4.529 -21.392 -11.743  1.00  0.00     0.061 C 
BRANCH   2   3
ATOM      3  C   UNL     1      -5.850 -21.734 -11.034  1.00  0.00     0.258 C 
BRANCH   3   4
ATOM      4  N   UNL     1      -6.739 -22.482 -11.922  1.00  0.00    -0.358 N 
ATOM      5  H   UNL     1      -6.764 -23.481 -11.620  1.00  0.00     0.344 HD
ATOM      6  H   UNL     1      -6.387 -22.435 -12.907  1.00  0.00     0.344 HD
ATOM      7  H   UNL     1      -7.708 -22.088 -11.874  1.00  0.00     0.344 HD
ENDBRANCH   3   4
ENDBRANCH   2   3
ENDBRANCH   1   2
BRANCH   1   8
ATOM      8  C   UNL     1      -2.004 -21.778 -11.597  1.00  0.00     0.072 C 
BRANCH   8   9
ATOM      9  C   UNL     1      -0.905 -22.850 -11.785  1.00  0.00     0.227 C 
BRANCH   9  10
ATOM     10  N   UNL     1       0.260 -22.317 -12.507  1.00  0.00    -0.350 N 
ATOM     11  H   UNL     1       0.898 -23.095 -12.787  1.00  0.00     0.345 HD
ATOM     12  H   UNL     1       0.803 -21.676 -11.883  1.00  0.00     0.345 HD
ATOM     13  H   UNL     1      -0.040 -21.789 -13.359  1.00  0.00     0.345 HD
ENDBRANCH   9  10
BRANCH   9  14
ATOM     14  C   UNL     1      -0.484 -23.385 -10.443  1.00  0.00     0.099 C 
ATOM     15  O   UNL     1      -0.063 -24.567 -10.330  1.00  0.00    -0.544 OA
ATOM     16  O   UNL     1      -0.537 -22.567  -9.322  1.00  0.00    -0.544 OA
ENDBRANCH   9  14
ENDBRANCH   8   9
ENDBRANCH   1   8
TORSDOF 7
ENDMDL
MODEL 9
REMARK VINA RESULT:    -3.923      3.253      4.302
REMARK INTER + INTRA:          -5.395
REMARK INTER:                  -5.289
REMARK INTRA:                  -0.106
REMARK UNBOUND:                -0.096
REMARK SMILES [NH3+]CCCC[C@@H]([NH3+])C(=O)[O-]
REMARK SMILES IDX 4 1 3 2 2 3 1 4 5 8 6 9 7 10 8 14 9 15 10 16
REMARK H PARENT 1 5 1 6 1 7 7 11 7 12 7 13
REMARK Flexibility Score: inf
ROOT
ATOM      1  C   UNL     1      -4.246 -20.779 -11.988  1.00  0.00     0.012 C 
ENDROOT
BRANCH   1   2
ATOM      2  C   UNL     1      -5.765 -20.885 -12.201  1.00  0.00     0.061 C 
BRANCH   2   3
ATOM      3  C   UNL     1      -6.411 -21.988 -11.346  1.00  0.00     0.258 C 
BRANCH   3   4
ATOM      4  N   UNL     1      -7.235 -22.871 -12.171  1.00  0.00    -0.358 N 
ATOM      5  H   UNL     1      -7.601 -22.333 -12.988  1.00  0.00     0.344 HD
ATOM      6  H   UNL     1      -8.045 -23.231 -11.614  1.00  0.00     0.344 HD
ATOM      7  H   UNL     1      -6.661 -23.673 -12.522  1.00  0.00     0.344 HD
ENDBRANCH   3   4
ENDBRANCH   2   3
ENDBRANCH   1   2
BRANCH   1   8
ATOM      8  C   UNL     1      -3.642 -22.066 -11.397  1.00  0.00     0.072 C 
BRANCH   8   9
ATOM      9  C   UNL     1      -2.141 -22.228 -11.735  1.00  0.00     0.227 C 
BRANCH   9  10
ATOM     10  N   UNL     1      -1.297 -21.359 -10.903  1.00  0.00    -0.350 N 
ATOM     11  H   UNL     1      -1.806 -21.086 -10.033  1.00  0.00     0.345 HD
ATOM     12  H   UNL     1      -1.070 -20.479 -11.422  1.00  0.00     0.345 HD
ATOM     13  H   UNL     1      -0.404 -21.842 -10.647  1.00  0.00     0.345 HD
ENDBRANCH   9  10
BRANCH   9  14
ATOM     14  C   UNL     1      -1.736 -23.667 -11.560  1.00  0.00     0.099 C 
ATOM     15  O   UNL     1      -2.342 -24.581 -12.179  1.00  0.00    -0.544 OA
ATOM     16  O   UNL     1      -0.672 -23.992 -10.728  1.00  0.00    -0.544 OA
ENDBRANCH   9  14
ENDBRANCH   8   9
ENDBRANCH   1   8
TORSDOF 7
ENDMDL
