MODEL 1
REMARK VINA RESULT:    -4.392      0.000      0.000
REMARK INTER + INTRA:         -11.248
REMARK INTER:                  -8.500
REMARK INTRA:                  -2.748
REMARK UNBOUND:                -2.748
REMARK SMILES CCCCCCCCCCCCCCCCCC(=O)[O-]
REMARK SMILES IDX 10 1 11 2 12 3 13 4 14 5 15 6 16 7 17 8 18 9 19 10 20 11
REMARK SMILES IDX 9 12 8 13 7 14 6 15 5 16 4 17 3 18 2 19 1 20
REMARK H PARENT
REMARK Flexibility Score: inf
ROOT
ATOM      1  C   UNL     1      -1.649  44.232  21.532  1.00  0.00     0.000 C 
ENDROOT
BRANCH   1   2
ATOM      2  C   UNL     1      -2.189  44.195  20.086  1.00  0.00     0.000 C 
BRANCH   2   3
ATOM      3  C   UNL     1      -3.416  45.108  19.902  1.00  0.00     0.000 C 
BRANCH   3   4
ATOM      4  C   UNL     1      -4.631  44.358  19.334  1.00  0.00     0.000 C 
BRANCH   4   5
ATOM      5  C   UNL     1      -5.431  43.618  20.420  1.00  0.00     0.000 C 
BRANCH   5   6
ATOM      6  C   UNL     1      -5.411  42.089  20.217  1.00  0.00     0.000 C 
BRANCH   6   7
ATOM      7  C   UNL     1      -4.298  41.375  21.003  1.00  0.00     0.006 C 
BRANCH   7   8
ATOM      8  C   UNL     1      -4.277  41.757  22.487  1.00  0.00     0.053 C 
BRANCH   8   9
ATOM      9  C   UNL     1      -5.253  40.924  23.256  1.00  0.00     0.041 C 
ATOM     10  O   UNL     1      -5.730  41.347  24.342  1.00  0.00    -0.550 OA
ATOM     11  O   UNL     1      -5.601  39.659  22.798  1.00  0.00    -0.550 OA
ENDBRANCH   8   9
ENDBRANCH   7   8
ENDBRANCH   6   7
ENDBRANCH   5   6
ENDBRANCH   4   5
ENDBRANCH   3   4
ENDBRANCH   2   3
ENDBRANCH   1   2
BRANCH   1  12
ATOM     12  C   UNL     1      -0.273  43.564  21.693  1.00  0.00     0.000 C 
BRANCH  12  13
ATOM     13  C   UNL     1       0.196  43.508  23.156  1.00  0.00    -0.000 C 
BRANCH  13  14
ATOM     14  C   UNL     1      -0.796  44.182  24.118  1.00  0.00    -0.000 C 
BRANCH  14  15
ATOM     15  C   UNL     1      -1.274  43.231  25.230  1.00  0.00    -0.000 C 
BRANCH  15  16
ATOM     16  C   UNL     1      -2.809  43.159  25.340  1.00  0.00    -0.000 C 
BRANCH  16  17
ATOM     17  C   UNL     1      -3.509  44.501  25.623  1.00  0.00    -0.000 C 
BRANCH  17  18
ATOM     18  C   UNL     1      -4.772  44.711  24.769  1.00  0.00    -0.000 C 
BRANCH  18  19
ATOM     19  C   UNL     1      -4.481  45.481  23.471  1.00  0.00    -0.003 C 
ATOM     20  C   UNL     1      -3.719  46.783  23.713  1.00  0.00     0.004 C 
ENDBRANCH  18  19
ENDBRANCH  17  18
ENDBRANCH  16  17
ENDBRANCH  15  16
ENDBRANCH  14  15
ENDBRANCH  13  14
ENDBRANCH  12  13
ENDBRANCH   1  12
TORSDOF 16
ENDMDL
MODEL 2
REMARK VINA RESULT:    -4.051      2.880      4.685
REMARK INTER + INTRA:         -10.589
REMARK INTER:                  -8.178
REMARK INTRA:                  -2.411
REMARK UNBOUND:                -2.748
REMARK SMILES CCCCCCCCCCCCCCCCCC(=O)[O-]
REMARK SMILES IDX 10 1 11 2 12 3 13 4 14 5 15 6 16 7 17 8 18 9 19 10 20 11
REMARK SMILES IDX 9 12 8 13 7 14 6 15 5 16 4 17 3 18 2 19 1 20
REMARK H PARENT
REMARK Flexibility Score: inf
ROOT
ATOM      1  C   UNL     1      -4.808  41.686  19.322  1.00  0.00     0.000 C 
ENDROOT
BRANCH   1   2
ATOM      2  C   UNL     1      -4.011  42.865  18.724  1.00  0.00     0.000 C 
BRANCH   2   3
ATOM      3  C   UNL     1      -4.532  44.227  19.219  1.00  0.00     0.000 C 
BRANCH   3   4
ATOM      4  C   UNL     1      -3.485  44.998  20.037  1.00  0.00     0.000 C 
BRANCH   4   5
ATOM      5  C   UNL     1      -2.187  44.198  20.245  1.00  0.00     0.000 C 
BRANCH   5   6
ATOM      6  C   UNL     1      -1.629  44.357  21.674  1.00  0.00     0.000 C 
BRANCH   6   7
ATOM      7  C   UNL     1      -0.543  43.327  22.031  1.00  0.00     0.006 C 
BRANCH   7   8
ATOM      8  C   UNL     1       0.206  43.672  23.323  1.00  0.00     0.053 C 
BRANCH   8   9
ATOM      9  C   UNL     1       1.682  43.533  23.125  1.00  0.00     0.041 C 
ATOM     10  O   UNL     1       2.475  43.786  24.069  1.00  0.00    -0.550 OA
ATOM     11  O   UNL     1       2.186  43.171  21.881  1.00  0.00    -0.550 OA
ENDBRANCH   8   9
ENDBRANCH   7   8
ENDBRANCH   6   7
ENDBRANCH   5   6
ENDBRANCH   4   5
ENDBRANCH   3   4
ENDBRANCH   2   3
ENDBRANCH   1   2
BRANCH   1  12
ATOM     12  C   UNL     1      -5.611  42.059  20.579  1.00  0.00     0.000 C 
BRANCH  12  13
ATOM     13  C   UNL     1      -5.695  40.910  21.598  1.00  0.00    -0.000 C 
BRANCH  13  14
ATOM     14  C   UNL     1      -4.999  41.250  22.926  1.00  0.00    -0.000 C 
BRANCH  14  15
ATOM     15  C   UNL     1      -4.442  42.684  22.948  1.00  0.00    -0.000 C 
BRANCH  15  16
ATOM     16  C   UNL     1      -4.112  43.178  24.369  1.00  0.00    -0.000 C 
BRANCH  16  17
ATOM     17  C   UNL     1      -4.391  44.670  24.625  1.00  0.00    -0.000 C 
BRANCH  17  18
ATOM     18  C   UNL     1      -5.052  45.372  23.425  1.00  0.00    -0.000 C 
BRANCH  18  19
ATOM     19  C   UNL     1      -4.340  46.678  23.042  1.00  0.00    -0.003 C 
ATOM     20  C   UNL     1      -3.514  47.261  24.189  1.00  0.00     0.004 C 
ENDBRANCH  18  19
ENDBRANCH  17  18
ENDBRANCH  16  17
ENDBRANCH  15  16
ENDBRANCH  14  15
ENDBRANCH  13  14
ENDBRANCH  12  13
ENDBRANCH   1  12
TORSDOF 16
ENDMDL
MODEL 3
REMARK VINA RESULT:    -4.044      2.110      5.350
REMARK INTER + INTRA:         -10.574
REMARK INTER:                  -7.667
REMARK INTRA:                  -2.908
REMARK UNBOUND:                -2.748
REMARK SMILES CCCCCCCCCCCCCCCCCC(=O)[O-]
REMARK SMILES IDX 10 1 11 2 12 3 13 4 14 5 15 6 16 7 17 8 18 9 19 10 20 11
REMARK SMILES IDX 9 12 8 13 7 14 6 15 5 16 4 17 3 18 2 19 1 20
REMARK H PARENT
REMARK Flexibility Score: inf
ROOT
ATOM      1  C   UNL     1      -0.332  43.092  19.670  1.00  0.00     0.000 C 
ENDROOT
BRANCH   1   2
ATOM      2  C   UNL     1      -0.109  43.498  21.143  1.00  0.00     0.000 C 
BRANCH   2   3
ATOM      3  C   UNL     1       1.045  42.711  21.793  1.00  0.00     0.000 C 
BRANCH   3   4
ATOM      4  C   UNL     1       1.013  42.775  23.327  1.00  0.00     0.000 C 
BRANCH   4   5
ATOM      5  C   UNL     1       0.103  43.899  23.855  1.00  0.00     0.000 C 
BRANCH   5   6
ATOM      6  C   UNL     1      -1.002  43.362  24.788  1.00  0.00     0.000 C 
BRANCH   6   7
ATOM      7  C   UNL     1      -2.421  43.789  24.374  1.00  0.00     0.006 C 
BRANCH   7   8
ATOM      8  C   UNL     1      -2.432  45.025  23.468  1.00  0.00     0.053 C 
BRANCH   8   9
ATOM      9  C   UNL     1      -3.617  45.885  23.772  1.00  0.00     0.041 C 
ATOM     10  O   UNL     1      -4.053  46.692  22.910  1.00  0.00    -0.550 OA
ATOM     11  O   UNL     1      -4.213  45.833  25.027  1.00  0.00    -0.550 OA
ENDBRANCH   8   9
ENDBRANCH   7   8
ENDBRANCH   6   7
ENDBRANCH   5   6
ENDBRANCH   4   5
ENDBRANCH   3   4
ENDBRANCH   2   3
ENDBRANCH   1   2
BRANCH   1  12
ATOM     12  C   UNL     1      -1.592  43.714  19.044  1.00  0.00     0.000 C 
BRANCH  12  13
ATOM     13  C   UNL     1      -2.396  44.565  20.040  1.00  0.00    -0.000 C 
BRANCH  13  14
ATOM     14  C   UNL     1      -3.627  45.221  19.392  1.00  0.00    -0.000 C 
BRANCH  14  15
ATOM     15  C   UNL     1      -4.799  44.238  19.229  1.00  0.00    -0.000 C 
BRANCH  15  16
ATOM     16  C   UNL     1      -5.335  43.713  20.575  1.00  0.00    -0.000 C 
BRANCH  16  17
ATOM     17  C   UNL     1      -5.256  42.187  20.762  1.00  0.00    -0.000 C 
BRANCH  17  18
ATOM     18  C   UNL     1      -4.282  41.769  21.878  1.00  0.00    -0.000 C 
BRANCH  18  19
ATOM     19  C   UNL     1      -3.022  41.081  21.330  1.00  0.00    -0.003 C 
ATOM     20  C   UNL     1      -2.067  40.628  22.435  1.00  0.00     0.004 C 
ENDBRANCH  18  19
ENDBRANCH  17  18
ENDBRANCH  16  17
ENDBRANCH  15  16
ENDBRANCH  14  15
ENDBRANCH  13  14
ENDBRANCH  12  13
ENDBRANCH   1  12
TORSDOF 16
ENDMDL
MODEL 4
REMARK VINA RESULT:    -3.987      1.456      2.626
REMARK INTER + INTRA:         -10.465
REMARK INTER:                  -8.123
REMARK INTRA:                  -2.342
REMARK UNBOUND:                -2.748
REMARK SMILES CCCCCCCCCCCCCCCCCC(=O)[O-]
REMARK SMILES IDX 10 1 11 2 12 3 13 4 14 5 15 6 16 7 17 8 18 9 19 10 20 11
REMARK SMILES IDX 9 12 8 13 7 14 6 15 5 16 4 17 3 18 2 19 1 20
REMARK H PARENT
REMARK Flexibility Score: inf
ROOT
ATOM      1  C   UNL     1      -3.530  44.995  19.956  1.00  0.00     0.000 C 
ENDROOT
BRANCH   1   2
ATOM      2  C   UNL     1      -4.742  44.196  19.430  1.00  0.00     0.000 C 
BRANCH   2   3
ATOM      3  C   UNL     1      -5.499  43.478  20.562  1.00  0.00     0.000 C 
BRANCH   3   4
ATOM      4  C   UNL     1      -5.479  41.949  20.409  1.00  0.00     0.000 C 
BRANCH   4   5
ATOM      5  C   UNL     1      -4.685  41.251  21.527  1.00  0.00     0.000 C 
BRANCH   5   6
ATOM      6  C   UNL     1      -5.451  41.243  22.866  1.00  0.00     0.000 C 
BRANCH   6   7
ATOM      7  C   UNL     1      -6.183  39.920  23.151  1.00  0.00     0.006 C 
BRANCH   7   8
ATOM      8  C   UNL     1      -7.596  40.126  23.705  1.00  0.00     0.053 C 
BRANCH   8   9
ATOM      9  C   UNL     1      -7.549  40.383  25.178  1.00  0.00     0.041 C 
ATOM     10  O   UNL     1      -6.768  39.722  25.912  1.00  0.00    -0.550 OA
ATOM     11  O   UNL     1      -8.403  41.318  25.750  1.00  0.00    -0.550 OA
ENDBRANCH   8   9
ENDBRANCH   7   8
ENDBRANCH   6   7
ENDBRANCH   5   6
ENDBRANCH   4   5
ENDBRANCH   3   4
ENDBRANCH   2   3
ENDBRANCH   1   2
BRANCH   1  12
ATOM     12  C   UNL     1      -2.181  44.295  19.718  1.00  0.00     0.000 C 
BRANCH  12  13
ATOM     13  C   UNL     1      -1.807  43.318  20.846  1.00  0.00    -0.000 C 
BRANCH  13  14
ATOM     14  C   UNL     1      -0.731  43.888  21.784  1.00  0.00    -0.000 C 
BRANCH  14  15
ATOM     15  C   UNL     1      -1.287  44.232  23.177  1.00  0.00    -0.000 C 
BRANCH  15  16
ATOM     16  C   UNL     1      -2.731  43.736  23.386  1.00  0.00    -0.000 C 
BRANCH  16  17
ATOM     17  C   UNL     1      -3.327  44.022  24.776  1.00  0.00    -0.000 C 
BRANCH  17  18
ATOM     18  C   UNL     1      -4.515  44.999  24.730  1.00  0.00    -0.000 C 
BRANCH  18  19
ATOM     19  C   UNL     1      -4.683  45.655  23.351  1.00  0.00    -0.003 C 
ATOM     20  C   UNL     1      -4.087  47.062  23.288  1.00  0.00     0.004 C 
ENDBRANCH  18  19
ENDBRANCH  17  18
ENDBRANCH  16  17
ENDBRANCH  15  16
ENDBRANCH  14  15
ENDBRANCH  13  14
ENDBRANCH  12  13
ENDBRANCH   1  12
TORSDOF 16
ENDMDL
MODEL 5
REMARK VINA RESULT:    -3.973      3.053      5.838
REMARK INTER + INTRA:         -10.437
REMARK INTER:                  -7.953
REMARK INTRA:                  -2.484
REMARK UNBOUND:                -2.748
REMARK SMILES CCCCCCCCCCCCCCCCCC(=O)[O-]
REMARK SMILES IDX 10 1 11 2 12 3 13 4 14 5 15 6 16 7 17 8 18 9 19 10 20 11
REMARK SMILES IDX 9 12 8 13 7 14 6 15 5 16 4 17 3 18 2 19 1 20
REMARK H PARENT
REMARK Flexibility Score: inf
ROOT
ATOM      1  C   UNL     1      -4.297  41.428  21.126  1.00  0.00     0.000 C 
ENDROOT
BRANCH   1   2
ATOM      2  C   UNL     1      -4.390  41.665  22.649  1.00  0.00     0.000 C 
BRANCH   2   3
ATOM      3  C   UNL     1      -3.318  40.876  23.425  1.00  0.00     0.000 C 
BRANCH   3   4
ATOM      4  C   UNL     1      -2.806  41.632  24.660  1.00  0.00     0.000 C 
BRANCH   4   5
ATOM      5  C   UNL     1      -1.271  41.748  24.690  1.00  0.00     0.000 C 
BRANCH   5   6
ATOM      6  C   UNL     1      -0.803  43.162  25.094  1.00  0.00     0.000 C 
BRANCH   6   7
ATOM      7  C   UNL     1       0.071  43.850  24.032  1.00  0.00     0.006 C 
BRANCH   7   8
ATOM      8  C   UNL     1       0.978  42.870  23.280  1.00  0.00     0.053 C 
BRANCH   8   9
ATOM      9  C   UNL     1       2.279  43.523  22.933  1.00  0.00     0.041 C 
ATOM     10  O   UNL     1       2.940  44.129  23.818  1.00  0.00    -0.550 OA
ATOM     11  O   UNL     1       2.740  43.505  21.622  1.00  0.00    -0.550 OA
ENDBRANCH   8   9
ENDBRANCH   7   8
ENDBRANCH   6   7
ENDBRANCH   5   6
ENDBRANCH   4   5
ENDBRANCH   3   4
ENDBRANCH   2   3
ENDBRANCH   1   2
BRANCH   1  12
ATOM     12  C   UNL     1      -5.481  42.015  20.339  1.00  0.00     0.000 C 
BRANCH  12  13
ATOM     13  C   UNL     1      -5.500  43.553  20.345  1.00  0.00    -0.000 C 
BRANCH  13  14
ATOM     14  C   UNL     1      -4.609  44.155  19.246  1.00  0.00    -0.000 C 
BRANCH  14  15
ATOM     15  C   UNL     1      -3.612  45.189  19.799  1.00  0.00    -0.000 C 
BRANCH  15  16
ATOM     16  C   UNL     1      -2.503  44.554  20.659  1.00  0.00    -0.000 C 
BRANCH  16  17
ATOM     17  C   UNL     1      -2.640  44.781  22.176  1.00  0.00    -0.000 C 
BRANCH  17  18
ATOM     18  C   UNL     1      -3.695  45.843  22.531  1.00  0.00    -0.000 C 
BRANCH  18  19
ATOM     19  C   UNL     1      -4.725  45.331  23.550  1.00  0.00    -0.003 C 
ATOM     20  C   UNL     1      -4.105  45.017  24.911  1.00  0.00     0.004 C 
ENDBRANCH  18  19
ENDBRANCH  17  18
ENDBRANCH  16  17
ENDBRANCH  15  16
ENDBRANCH  14  15
ENDBRANCH  13  14
ENDBRANCH  12  13
ENDBRANCH   1  12
TORSDOF 16
ENDMDL
MODEL 6
REMARK VINA RESULT:    -3.954      2.359      4.998
REMARK INTER + INTRA:         -10.400
REMARK INTER:                  -8.448
REMARK INTRA:                  -1.952
REMARK UNBOUND:                -2.748
REMARK SMILES CCCCCCCCCCCCCCCCCC(=O)[O-]
REMARK SMILES IDX 10 1 11 2 12 3 13 4 14 5 15 6 16 7 17 8 18 9 19 10 20 11
REMARK SMILES IDX 9 12 8 13 7 14 6 15 5 16 4 17 3 18 2 19 1 20
REMARK H PARENT
REMARK Flexibility Score: inf
ROOT
ATOM      1  C   UNL     1      -2.505  43.634  17.460  1.00  0.00     0.000 C 
ENDROOT
BRANCH   1   2
ATOM      2  C   UNL     1      -4.024  43.828  17.658  1.00  0.00     0.000 C 
BRANCH   2   3
ATOM      3  C   UNL     1      -4.345  44.611  18.945  1.00  0.00     0.000 C 
BRANCH   3   4
ATOM      4  C   UNL     1      -5.085  43.758  19.987  1.00  0.00     0.000 C 
BRANCH   4   5
ATOM      5  C   UNL     1      -4.853  44.246  21.427  1.00  0.00     0.000 C 
BRANCH   5   6
ATOM      6  C   UNL     1      -3.734  45.305  21.508  1.00  0.00     0.000 C 
BRANCH   6   7
ATOM      7  C   UNL     1      -3.415  45.758  22.944  1.00  0.00     0.006 C 
BRANCH   7   8
ATOM      8  C   UNL     1      -2.206  45.033  23.544  1.00  0.00     0.053 C 
BRANCH   8   9
ATOM      9  C   UNL     1      -2.654  43.928  24.447  1.00  0.00     0.041 C 
ATOM     10  O   UNL     1      -2.443  42.727  24.133  1.00  0.00    -0.550 OA
ATOM     11  O   UNL     1      -3.350  44.221  25.614  1.00  0.00    -0.550 OA
ENDBRANCH   8   9
ENDBRANCH   7   8
ENDBRANCH   6   7
ENDBRANCH   5   6
ENDBRANCH   4   5
ENDBRANCH   3   4
ENDBRANCH   2   3
ENDBRANCH   1   2
BRANCH   1  12
ATOM     12  C   UNL     1      -1.653  44.260  18.578  1.00  0.00     0.000 C 
BRANCH  12  13
ATOM     13  C   UNL     1      -0.736  43.240  19.272  1.00  0.00    -0.000 C 
BRANCH  13  14
ATOM     14  C   UNL     1      -1.200  42.909  20.700  1.00  0.00    -0.000 C 
BRANCH  14  15
ATOM     15  C   UNL     1      -0.073  42.315  21.562  1.00  0.00    -0.000 C 
BRANCH  15  16
ATOM     16  C   UNL     1       0.865  43.387  22.148  1.00  0.00    -0.000 C 
BRANCH  16  17
ATOM     17  C   UNL     1       2.369  43.088  22.011  1.00  0.00    -0.000 C 
BRANCH  17  18
ATOM     18  C   UNL     1       3.257  44.277  22.416  1.00  0.00    -0.000 C 
BRANCH  18  19
ATOM     19  C   UNL     1       3.587  44.280  23.916  1.00  0.00    -0.003 C 
ATOM     20  C   UNL     1       4.525  43.142  24.319  1.00  0.00     0.004 C 
ENDBRANCH  18  19
ENDBRANCH  17  18
ENDBRANCH  16  17
ENDBRANCH  15  16
ENDBRANCH  14  15
ENDBRANCH  13  14
ENDBRANCH  12  13
ENDBRANCH   1  12
TORSDOF 16
ENDMDL
MODEL 7
REMARK VINA RESULT:    -3.928      2.519      2.988
REMARK INTER + INTRA:         -10.350
REMARK INTER:                  -7.802
REMARK INTRA:                  -2.548
REMARK UNBOUND:                -2.748
REMARK SMILES CCCCCCCCCCCCCCCCCC(=O)[O-]
REMARK SMILES IDX 10 1 11 2 12 3 13 4 14 5 15 6 16 7 17 8 18 9 19 10 20 11
REMARK SMILES IDX 9 12 8 13 7 14 6 15 5 16 4 17 3 18 2 19 1 20
REMARK H PARENT
REMARK Flexibility Score: inf
ROOT
ATOM      1  C   UNL     1      -2.569  44.530  21.104  1.00  0.00     0.000 C 
ENDROOT
BRANCH   1   2
ATOM      2  C   UNL     1      -3.142  44.849  19.706  1.00  0.00     0.000 C 
BRANCH   2   3
ATOM      3  C   UNL     1      -4.547  44.250  19.505  1.00  0.00     0.000 C 
BRANCH   3   4
ATOM      4  C   UNL     1      -5.126  43.654  20.797  1.00  0.00     0.000 C 
BRANCH   4   5
ATOM      5  C   UNL     1      -5.471  42.161  20.660  1.00  0.00     0.000 C 
BRANCH   5   6
ATOM      6  C   UNL     1      -5.073  41.597  19.280  1.00  0.00     0.000 C 
BRANCH   6   7
ATOM      7  C   UNL     1      -4.078  40.426  19.355  1.00  0.00     0.006 C 
BRANCH   7   8
ATOM      8  C   UNL     1      -2.638  40.882  19.619  1.00  0.00     0.053 C 
BRANCH   8   9
ATOM      9  C   UNL     1      -1.907  41.079  18.329  1.00  0.00     0.041 C 
ATOM     10  O   UNL     1      -1.105  40.202  17.914  1.00  0.00    -0.550 OA
ATOM     11  O   UNL     1      -2.073  42.256  17.608  1.00  0.00    -0.550 OA
ENDBRANCH   8   9
ENDBRANCH   7   8
ENDBRANCH   6   7
ENDBRANCH   5   6
ENDBRANCH   4   5
ENDBRANCH   3   4
ENDBRANCH   2   3
ENDBRANCH   1   2
BRANCH   1  12
ATOM     12  C   UNL     1      -1.223  43.787  21.063  1.00  0.00     0.000 C 
BRANCH  12  13
ATOM     13  C   UNL     1      -0.453  43.872  22.392  1.00  0.00    -0.000 C 
BRANCH  13  14
ATOM     14  C   UNL     1      -1.311  44.443  23.533  1.00  0.00    -0.000 C 
BRANCH  14  15
ATOM     15  C   UNL     1      -1.388  43.494  24.741  1.00  0.00    -0.000 C 
BRANCH  15  16
ATOM     16  C   UNL     1      -2.779  43.477  25.404  1.00  0.00    -0.000 C 
BRANCH  16  17
ATOM     17  C   UNL     1      -3.965  43.672  24.442  1.00  0.00    -0.000 C 
BRANCH  17  18
ATOM     18  C   UNL     1      -4.726  44.987  24.687  1.00  0.00    -0.000 C 
BRANCH  18  19
ATOM     19  C   UNL     1      -4.858  45.836  23.413  1.00  0.00    -0.003 C 
ATOM     20  C   UNL     1      -3.984  47.089  23.441  1.00  0.00     0.004 C 
ENDBRANCH  18  19
ENDBRANCH  17  18
ENDBRANCH  16  17
ENDBRANCH  15  16
ENDBRANCH  14  15
ENDBRANCH  13  14
ENDBRANCH  12  13
ENDBRANCH   1  12
TORSDOF 16
ENDMDL
MODEL 8
REMARK VINA RESULT:    -3.899      2.197      3.700
REMARK INTER + INTRA:         -10.295
REMARK INTER:                  -7.369
REMARK INTRA:                  -2.926
REMARK UNBOUND:                -2.748
REMARK SMILES CCCCCCCCCCCCCCCCCC(=O)[O-]
REMARK SMILES IDX 10 1 11 2 12 3 13 4 14 5 15 6 16 7 17 8 18 9 19 10 20 11
REMARK SMILES IDX 9 12 8 13 7 14 6 15 5 16 4 17 3 18 2 19 1 20
REMARK H PARENT
REMARK Flexibility Score: inf
ROOT
ATOM      1  C   UNL     1      -1.772  43.908  19.019  1.00  0.00     0.000 C 
ENDROOT
BRANCH   1   2
ATOM      2  C   UNL     1      -2.542  42.763  18.327  1.00  0.00     0.000 C 
BRANCH   2   3
ATOM      3  C   UNL     1      -4.066  42.982  18.367  1.00  0.00     0.000 C 
BRANCH   3   4
ATOM      4  C   UNL     1      -4.464  44.218  19.189  1.00  0.00     0.000 C 
BRANCH   4   5
ATOM      5  C   UNL     1      -5.382  43.872  20.375  1.00  0.00     0.000 C 
BRANCH   5   6
ATOM      6  C   UNL     1      -4.648  43.052  21.457  1.00  0.00     0.000 C 
BRANCH   6   7
ATOM      7  C   UNL     1      -4.524  43.781  22.805  1.00  0.00     0.006 C 
BRANCH   7   8
ATOM      8  C   UNL     1      -4.405  45.302  22.653  1.00  0.00     0.053 C 
BRANCH   8   9
ATOM      9  C   UNL     1      -4.098  45.937  23.973  1.00  0.00     0.041 C 
ATOM     10  O   UNL     1      -4.255  45.288  25.040  1.00  0.00    -0.550 OA
ATOM     11  O   UNL     1      -3.685  47.263  24.028  1.00  0.00    -0.550 OA
ENDBRANCH   8   9
ENDBRANCH   7   8
ENDBRANCH   6   7
ENDBRANCH   5   6
ENDBRANCH   4   5
ENDBRANCH   3   4
ENDBRANCH   2   3
ENDBRANCH   1   2
BRANCH   1  12
ATOM     12  C   UNL     1      -0.890  43.440  20.188  1.00  0.00     0.000 C 
BRANCH  12  13
ATOM     13  C   UNL     1      -1.204  44.171  21.504  1.00  0.00    -0.000 C 
BRANCH  13  14
ATOM     14  C   UNL     1      -0.415  43.602  22.695  1.00  0.00    -0.000 C 
BRANCH  14  15
ATOM     15  C   UNL     1      -0.869  44.198  24.039  1.00  0.00    -0.000 C 
BRANCH  15  16
ATOM     16  C   UNL     1      -1.396  43.134  25.020  1.00  0.00    -0.000 C 
BRANCH  16  17
ATOM     17  C   UNL     1      -1.387  41.690  24.488  1.00  0.00    -0.000 C 
BRANCH  17  18
ATOM     18  C   UNL     1      -2.770  41.018  24.551  1.00  0.00    -0.000 C 
BRANCH  18  19
ATOM     19  C   UNL     1      -3.062  40.157  23.313  1.00  0.00    -0.003 C 
ATOM     20  C   UNL     1      -2.119  40.456  22.148  1.00  0.00     0.004 C 
ENDBRANCH  18  19
ENDBRANCH  17  18
ENDBRANCH  16  17
ENDBRANCH  15  16
ENDBRANCH  14  15
ENDBRANCH  13  14
ENDBRANCH  12  13
ENDBRANCH   1  12
TORSDOF 16
ENDMDL
MODEL 9
REMARK VINA RESULT:    -3.843      1.665      2.918
REMARK INTER + INTRA:         -10.185
REMARK INTER:                  -7.266
REMARK INTRA:                  -2.919
REMARK UNBOUND:                -2.748
REMARK SMILES CCCCCCCCCCCCCCCCCC(=O)[O-]
REMARK SMILES IDX 10 1 11 2 12 3 13 4 14 5 15 6 16 7 17 8 18 9 19 10 20 11
REMARK SMILES IDX 9 12 8 13 7 14 6 15 5 16 4 17 3 18 2 19 1 20
REMARK H PARENT
REMARK Flexibility Score: inf
ROOT
ATOM      1  C   UNL     1      -3.426  45.022  19.435  1.00  0.00     0.000 C 
ENDROOT
BRANCH   1   2
ATOM      2  C   UNL     1      -4.739  44.238  19.227  1.00  0.00     0.000 C 
BRANCH   2   3
ATOM      3  C   UNL     1      -5.395  43.838  20.562  1.00  0.00     0.000 C 
BRANCH   3   4
ATOM      4  C   UNL     1      -5.400  42.318  20.786  1.00  0.00     0.000 C 
BRANCH   4   5
ATOM      5  C   UNL     1      -4.465  41.884  21.929  1.00  0.00     0.000 C 
BRANCH   5   6
ATOM      6  C   UNL     1      -3.433  40.833  21.469  1.00  0.00     0.000 C 
BRANCH   6   7
ATOM      7  C   UNL     1      -3.258  40.768  19.942  1.00  0.00     0.006 C 
BRANCH   7   8
ATOM      8  C   UNL     1      -3.382  39.346  19.386  1.00  0.00     0.053 C 
BRANCH   8   9
ATOM      9  C   UNL     1      -4.785  38.848  19.532  1.00  0.00     0.041 C 
ATOM     10  O   UNL     1      -5.059  37.964  20.386  1.00  0.00    -0.550 OA
ATOM     11  O   UNL     1      -5.784  39.323  18.690  1.00  0.00    -0.550 OA
ENDBRANCH   8   9
ENDBRANCH   7   8
ENDBRANCH   6   7
ENDBRANCH   5   6
ENDBRANCH   4   5
ENDBRANCH   3   4
ENDBRANCH   2   3
ENDBRANCH   1   2
BRANCH   1  12
ATOM     12  C   UNL     1      -2.169  44.241  19.018  1.00  0.00     0.000 C 
BRANCH  12  13
ATOM     13  C   UNL     1      -1.328  43.776  20.219  1.00  0.00    -0.000 C 
BRANCH  13  14
ATOM     14  C   UNL     1      -1.784  44.420  21.539  1.00  0.00    -0.000 C 
BRANCH  14  15
ATOM     15  C   UNL     1      -0.961  43.932  22.745  1.00  0.00    -0.000 C 
BRANCH  15  16
ATOM     16  C   UNL     1      -1.516  44.432  24.092  1.00  0.00    -0.000 C 
BRANCH  16  17
ATOM     17  C   UNL     1      -2.848  43.797  24.529  1.00  0.00    -0.000 C 
BRANCH  17  18
ATOM     18  C   UNL     1      -4.027  44.785  24.487  1.00  0.00    -0.000 C 
BRANCH  18  19
ATOM     19  C   UNL     1      -3.575  46.227  24.209  1.00  0.00    -0.003 C 
ATOM     20  C   UNL     1      -4.294  46.854  23.015  1.00  0.00     0.004 C 
ENDBRANCH  18  19
ENDBRANCH  17  18
ENDBRANCH  16  17
ENDBRANCH  15  16
ENDBRANCH  14  15
ENDBRANCH  13  14
ENDBRANCH  12  13
ENDBRANCH   1  12
TORSDOF 16
ENDMDL
