MODEL 1
REMARK VINA RESULT:    -2.912      0.000      0.000
REMARK INTER + INTRA:          -4.516
REMARK INTER:                  -4.444
REMARK INTRA:                  -0.072
REMARK UNBOUND:                -0.072
REMARK SMILES CC1=CCC[C@@H](C)C(=O)C[C@H](C(C)C)C(=O)C1
REMARK SMILES IDX 8 1 9 2 6 3 7 4 5 5 4 6 3 7 2 8 1 9 10 11 11 12 15 13 16 14
REMARK SMILES IDX 17 15 12 17 13 18 14 19
REMARK H PARENT
REMARK Flexibility Score: 70.00
ROOT
ATOM      1  C   UNL     1       1.431 -15.722  10.449  1.00  0.00     0.136 C 
ATOM      2  O   UNL     1       1.911 -16.771  10.042  1.00  0.00    -0.299 OA
ENDROOT
BRANCH   1   3
ATOM      3  C   UNL     1       0.646 -14.817   9.513  1.00  0.00     0.053 C 
ATOM      4  C   UNL     1      -0.138 -15.584   8.435  1.00  0.00     0.016 C 
BRANCH   3   5
ATOM      5  C   UNL     1       1.499 -13.662   8.926  1.00  0.00     0.015 C 
BRANCH   5   6
ATOM      6  C   UNL     1       2.048 -12.591   9.892  1.00  0.00     0.028 C 
BRANCH   6   7
ATOM      7  C   UNL     1       3.537 -12.556  10.136  1.00  0.00    -0.028 C 
ATOM      8  C   UNL     1       4.165 -12.703  11.324  1.00  0.00    -0.070 CG0
ATOM      9  C   UNL     1       5.623 -12.315  11.387  1.00  0.00     0.039 C 
ATOM     10  G   UNL     1       3.492 -13.225  12.582  1.00  0.00     0.000 G0
ENDBRANCH   6   7
ENDBRANCH   5   6
ENDBRANCH   3   5
ENDBRANCH   1   3
BRANCH   1  11
ATOM     11  C   UNL     1       1.526 -15.381  11.922  1.00  0.00     0.087 C 
BRANCH  11  12
ATOM     12  C   UNL     1       2.839 -15.809  12.641  1.00  0.00     0.066 C 
BRANCH  12  13
ATOM     13  C   UNL     1       3.832 -14.674  12.843  1.00  0.00     0.140 C 
ATOM     14  O   UNL     1       4.934 -14.952  13.295  1.00  0.00    -0.299 OA
BRANCH  13  15
ATOM     15  C   UNL     1       3.492 -13.219  12.596  1.00  0.00     0.106 CG0
ATOM     16  G   UNL     1       4.169 -12.725  11.329  1.00  0.00     0.000 G0
ENDBRANCH  13  15
ENDBRANCH  12  13
BRANCH  12  17
ATOM     17  C   UNL     1       2.550 -16.546  13.987  1.00  0.00    -0.006 C 
ATOM     18  C   UNL     1       2.264 -18.044  13.773  1.00  0.00     0.008 C 
ATOM     19  C   UNL     1       1.360 -15.916  14.735  1.00  0.00     0.008 C 
ENDBRANCH  12  17
ENDBRANCH  11  12
ENDBRANCH   1  11
TORSDOF 1
ENDMDL
MODEL 2
REMARK VINA RESULT:    -2.872      2.069      4.411
REMARK INTER + INTRA:          -4.455
REMARK INTER:                  -4.379
REMARK INTRA:                  -0.076
REMARK UNBOUND:                -0.072
REMARK SMILES CC1=CCC[C@@H](C)C(=O)C[C@H](C(C)C)C(=O)C1
REMARK SMILES IDX 8 1 9 2 6 3 7 4 5 5 4 6 3 7 2 8 1 9 10 11 11 12 15 13 16 14
REMARK SMILES IDX 17 15 12 17 13 18 14 19
REMARK H PARENT
REMARK Flexibility Score: 70.00
ROOT
ATOM      1  C   UNL     1       2.003 -15.894  12.230  1.00  0.00     0.136 C 
ATOM      2  O   UNL     1       1.151 -15.183  12.745  1.00  0.00    -0.299 OA
ENDROOT
BRANCH   1   3
ATOM      3  C   UNL     1       2.756 -16.923  13.060  1.00  0.00     0.053 C 
ATOM      4  C   UNL     1       1.832 -17.874  13.840  1.00  0.00     0.016 C 
BRANCH   3   5
ATOM      5  C   UNL     1       3.860 -16.297  13.950  1.00  0.00     0.015 C 
BRANCH   5   6
ATOM      6  C   UNL     1       4.860 -15.316  13.299  1.00  0.00     0.028 C 
BRANCH   6   7
ATOM      7  C   UNL     1       5.602 -15.777  12.068  1.00  0.00    -0.028 C 
ATOM      8  C   UNL     1       5.533 -15.233  10.833  1.00  0.00    -0.070 CG0
ATOM      9  C   UNL     1       6.101 -16.040   9.690  1.00  0.00     0.039 C 
ATOM     10  G   UNL     1       4.921 -13.874  10.535  1.00  0.00     0.000 G0
ENDBRANCH   6   7
ENDBRANCH   5   6
ENDBRANCH   3   5
ENDBRANCH   1   3
BRANCH   1  11
ATOM     11  C   UNL     1       2.228 -15.824  10.734  1.00  0.00     0.087 C 
BRANCH  11  12
ATOM     12  C   UNL     1       2.309 -14.395  10.121  1.00  0.00     0.066 C 
BRANCH  12  13
ATOM     13  C   UNL     1       3.691 -14.022   9.603  1.00  0.00     0.140 C 
ATOM     14  O   UNL     1       3.837 -13.913   8.394  1.00  0.00    -0.299 OA
BRANCH  13  15
ATOM     15  C   UNL     1       4.901 -13.871  10.499  1.00  0.00     0.106 CG0
ATOM     16  G   UNL     1       5.499 -15.232  10.816  1.00  0.00     0.000 G0
ENDBRANCH  13  15
ENDBRANCH  12  13
BRANCH  12  17
ATOM     17  C   UNL     1       1.221 -14.172   9.023  1.00  0.00    -0.006 C 
ATOM     18  C   UNL     1       0.457 -12.851   9.232  1.00  0.00     0.008 C 
ATOM     19  C   UNL     1       0.207 -15.331   8.984  1.00  0.00     0.008 C 
ENDBRANCH  12  17
ENDBRANCH  11  12
ENDBRANCH   1  11
TORSDOF 1
ENDMDL
MODEL 3
REMARK VINA RESULT:    -2.759      2.171      4.591
REMARK INTER + INTRA:          -4.283
REMARK INTER:                  -4.125
REMARK INTRA:                  -0.158
REMARK UNBOUND:                -0.072
REMARK SMILES CC1=CCC[C@@H](C)C(=O)C[C@H](C(C)C)C(=O)C1
REMARK SMILES IDX 8 1 9 2 6 3 7 4 5 5 4 6 3 7 2 8 1 9 10 11 11 12 15 13 16 14
REMARK SMILES IDX 17 15 12 17 13 18 14 19
REMARK H PARENT
REMARK Flexibility Score: 70.00
ROOT
ATOM      1  C   UNL     1       3.940 -13.348   8.899  1.00  0.00     0.136 C 
ATOM      2  O   UNL     1       4.201 -13.225   7.711  1.00  0.00    -0.299 OA
ENDROOT
BRANCH   1   3
ATOM      3  C   UNL     1       5.044 -13.634   9.906  1.00  0.00     0.053 C 
ATOM      4  C   UNL     1       6.174 -12.591   9.887  1.00  0.00     0.016 C 
BRANCH   3   5
ATOM      5  C   UNL     1       5.570 -15.091   9.835  1.00  0.00     0.015 C 
BRANCH   5   6
ATOM      6  C   UNL     1       4.869 -16.168  10.690  1.00  0.00     0.028 C 
BRANCH   6   7
ATOM      7  C   UNL     1       4.587 -15.847  12.138  1.00  0.00    -0.028 C 
ATOM      8  C   UNL     1       3.383 -15.564  12.682  1.00  0.00    -0.070 CG0
ATOM      9  C   UNL     1       3.376 -14.963  14.068  1.00  0.00     0.039 C 
ATOM     10  G   UNL     1       2.055 -15.808  11.984  1.00  0.00     0.000 G0
ENDBRANCH   6   7
ENDBRANCH   5   6
ENDBRANCH   3   5
ENDBRANCH   1   3
BRANCH   1  11
ATOM     11  C   UNL     1       2.526 -13.103   9.382  1.00  0.00     0.087 C 
BRANCH  11  12
ATOM     12  C   UNL     1       1.708 -14.368   9.777  1.00  0.00     0.066 C 
BRANCH  12  13
ATOM     13  C   UNL     1       1.573 -14.574  11.278  1.00  0.00     0.140 C 
ATOM     14  O   UNL     1       1.134 -13.647  11.944  1.00  0.00    -0.299 OA
BRANCH  13  15
ATOM     15  C   UNL     1       2.035 -15.828  11.990  1.00  0.00     0.106 CG0
ATOM     16  G   UNL     1       3.364 -15.582  12.686  1.00  0.00     0.000 G0
ENDBRANCH  13  15
ENDBRANCH  12  13
BRANCH  12  17
ATOM     17  C   UNL     1       0.311 -14.396   9.079  1.00  0.00    -0.006 C 
ATOM     18  C   UNL     1      -0.013 -15.785   8.498  1.00  0.00     0.008 C 
ATOM     19  C   UNL     1       0.218 -13.352   7.951  1.00  0.00     0.008 C 
ENDBRANCH  12  17
ENDBRANCH  11  12
ENDBRANCH   1  11
TORSDOF 1
ENDMDL
MODEL 4
REMARK VINA RESULT:    -2.742      1.862      2.486
REMARK INTER + INTRA:          -4.256
REMARK INTER:                  -4.308
REMARK INTRA:                   0.052
REMARK UNBOUND:                -0.072
REMARK SMILES CC1=CCC[C@@H](C)C(=O)C[C@H](C(C)C)C(=O)C1
REMARK SMILES IDX 8 1 9 2 6 3 7 4 5 5 4 6 3 7 2 8 1 9 10 11 11 12 15 13 16 14
REMARK SMILES IDX 17 15 12 17 13 18 14 19
REMARK H PARENT
REMARK Flexibility Score: 70.00
ROOT
ATOM      1  C   UNL     1       1.641 -16.059   9.836  1.00  0.00     0.136 C 
ATOM      2  O   UNL     1       2.342 -16.760   9.119  1.00  0.00    -0.299 OA
ENDROOT
BRANCH   1   3
ATOM      3  C   UNL     1       0.576 -15.157   9.232  1.00  0.00     0.053 C 
ATOM      4  C   UNL     1      -0.378 -15.893   8.277  1.00  0.00     0.016 C 
BRANCH   3   5
ATOM      5  C   UNL     1       1.156 -13.858   8.617  1.00  0.00     0.015 C 
BRANCH   5   6
ATOM      6  C   UNL     1       1.653 -12.751   9.571  1.00  0.00     0.028 C 
BRANCH   6   7
ATOM      7  C   UNL     1       0.665 -12.172  10.555  1.00  0.00    -0.028 C 
ATOM      8  C   UNL     1       0.734 -12.239  11.903  1.00  0.00    -0.070 CG0
ATOM      9  C   UNL     1      -0.511 -11.877  12.677  1.00  0.00     0.039 C 
ATOM     10  G   UNL     1       1.977 -12.657  12.671  1.00  0.00     0.000 G0
ENDBRANCH   6   7
ENDBRANCH   5   6
ENDBRANCH   3   5
ENDBRANCH   1   3
BRANCH   1  11
ATOM     11  C   UNL     1       1.763 -16.177  11.342  1.00  0.00     0.087 C 
BRANCH  11  12
ATOM     12  C   UNL     1       2.697 -15.142  12.035  1.00  0.00     0.066 C 
BRANCH  12  13
ATOM     13  C   UNL     1       1.967 -14.155  12.934  1.00  0.00     0.140 C 
ATOM     14  O   UNL     1       1.282 -14.607  13.841  1.00  0.00    -0.299 OA
BRANCH  13  15
ATOM     15  C   UNL     1       1.977 -12.658  12.705  1.00  0.00     0.106 CG0
ATOM     16  G   UNL     1       0.758 -12.238  11.901  1.00  0.00     0.000 G0
ENDBRANCH  13  15
ENDBRANCH  12  13
BRANCH  12  17
ATOM     17  C   UNL     1       3.866 -15.839  12.802  1.00  0.00    -0.006 C 
ATOM     18  C   UNL     1       3.396 -17.108  13.536  1.00  0.00     0.008 C 
ATOM     19  C   UNL     1       4.521 -14.889  13.822  1.00  0.00     0.008 C 
ENDBRANCH  12  17
ENDBRANCH  11  12
ENDBRANCH   1  11
TORSDOF 1
ENDMDL
MODEL 5
REMARK VINA RESULT:    -2.526      1.530      4.050
REMARK INTER + INTRA:          -3.927
REMARK INTER:                  -4.211
REMARK INTRA:                   0.284
REMARK UNBOUND:                -0.072
REMARK SMILES CC1=CCC[C@@H](C)C(=O)C[C@H](C(C)C)C(=O)C1
REMARK SMILES IDX 8 1 9 2 6 3 7 4 5 5 4 6 3 7 2 8 1 9 10 11 11 12 15 13 16 14
REMARK SMILES IDX 17 15 12 17 13 18 14 19
REMARK H PARENT
REMARK Flexibility Score: 70.00
ROOT
ATOM      1  C   UNL     1       3.143 -16.446  12.546  1.00  0.00     0.136 C 
ATOM      2  O   UNL     1       4.343 -16.209  12.526  1.00  0.00    -0.299 OA
ENDROOT
BRANCH   1   3
ATOM      3  C   UNL     1       2.429 -16.708  13.863  1.00  0.00     0.053 C 
ATOM      4  C   UNL     1       2.207 -18.202  14.152  1.00  0.00     0.016 C 
BRANCH   3   5
ATOM      5  C   UNL     1       1.138 -15.866  14.034  1.00  0.00     0.015 C 
BRANCH   5   6
ATOM      6  C   UNL     1       1.275 -14.393  14.474  1.00  0.00     0.028 C 
BRANCH   6   7
ATOM      7  C   UNL     1       2.658 -13.787  14.494  1.00  0.00    -0.028 C 
ATOM      8  C   UNL     1       3.297 -13.199  13.458  1.00  0.00    -0.070 CG0
ATOM      9  C   UNL     1       4.779 -12.955  13.611  1.00  0.00     0.039 C 
ATOM     10  G   UNL     1       2.616 -12.782  12.165  1.00  0.00     0.000 G0
ENDBRANCH   6   7
ENDBRANCH   5   6
ENDBRANCH   3   5
ENDBRANCH   1   3
BRANCH   1  11
ATOM     11  C   UNL     1       2.346 -16.369  11.260  1.00  0.00     0.087 C 
BRANCH  11  12
ATOM     12  C   UNL     1       1.794 -14.963  10.880  1.00  0.00     0.066 C 
BRANCH  12  13
ATOM     13  C   UNL     1       2.789 -13.831  11.090  1.00  0.00     0.140 C 
ATOM     14  O   UNL     1       3.801 -13.825  10.404  1.00  0.00    -0.299 OA
BRANCH  13  15
ATOM     15  C   UNL     1       2.628 -12.772  12.160  1.00  0.00     0.106 CG0
ATOM     16  G   UNL     1       3.306 -13.213  13.447  1.00  0.00     0.000 G0
ENDBRANCH  13  15
ENDBRANCH  12  13
BRANCH  12  17
ATOM     17  C   UNL     1       1.217 -14.939   9.429  1.00  0.00    -0.006 C 
ATOM     18  C   UNL     1       0.368 -13.681   9.169  1.00  0.00     0.008 C 
ATOM     19  C   UNL     1       0.360 -16.185   9.138  1.00  0.00     0.008 C 
ENDBRANCH  12  17
ENDBRANCH  11  12
ENDBRANCH   1  11
TORSDOF 1
ENDMDL
MODEL 6
REMARK VINA RESULT:    -2.471      1.698      1.864
REMARK INTER + INTRA:          -3.844
REMARK INTER:                  -3.868
REMARK INTRA:                   0.024
REMARK UNBOUND:                -0.072
REMARK SMILES CC1=CCC[C@@H](C)C(=O)C[C@H](C(C)C)C(=O)C1
REMARK SMILES IDX 8 1 9 2 6 3 7 4 5 5 4 6 3 7 2 8 1 9 10 11 11 12 15 13 16 14
REMARK SMILES IDX 17 15 12 17 13 18 14 19
REMARK H PARENT
REMARK Flexibility Score: 70.00
ROOT
ATOM      1  C   UNL     1       1.820 -15.665  10.915  1.00  0.00     0.136 C 
ATOM      2  O   UNL     1       1.702 -16.763  10.387  1.00  0.00    -0.299 OA
ENDROOT
BRANCH   1   3
ATOM      3  C   UNL     1       1.646 -14.394  10.099  1.00  0.00     0.053 C 
ATOM      4  C   UNL     1       0.299 -14.321   9.360  1.00  0.00     0.016 C 
BRANCH   3   5
ATOM      5  C   UNL     1       2.854 -14.092   9.176  1.00  0.00     0.015 C 
BRANCH   5   6
ATOM      6  C   UNL     1       4.135 -13.509   9.809  1.00  0.00     0.028 C 
BRANCH   6   7
ATOM      7  C   UNL     1       5.288 -14.450  10.065  1.00  0.00    -0.028 C 
ATOM      8  C   UNL     1       5.708 -14.904  11.267  1.00  0.00    -0.070 CG0
ATOM      9  C   UNL     1       7.063 -15.570  11.319  1.00  0.00     0.039 C 
ATOM     10  G   UNL     1       4.905 -14.779  12.552  1.00  0.00     0.000 G0
ENDBRANCH   6   7
ENDBRANCH   5   6
ENDBRANCH   3   5
ENDBRANCH   1   3
BRANCH   1  11
ATOM     11  C   UNL     1       2.030 -15.577  12.413  1.00  0.00     0.087 C 
BRANCH  11  12
ATOM     12  C   UNL     1       3.020 -16.609  13.027  1.00  0.00     0.066 C 
BRANCH  12  13
ATOM     13  C   UNL     1       4.466 -16.135  13.060  1.00  0.00     0.140 C 
ATOM     14  O   UNL     1       5.295 -16.865  13.584  1.00  0.00    -0.299 OA
BRANCH  13  15
ATOM     15  C   UNL     1       4.906 -14.776  12.559  1.00  0.00     0.106 CG0
ATOM     16  G   UNL     1       5.707 -14.918  11.275  1.00  0.00     0.000 G0
ENDBRANCH  13  15
ENDBRANCH  12  13
BRANCH  12  17
ATOM     17  C   UNL     1       2.556 -17.089  14.439  1.00  0.00    -0.006 C 
ATOM     18  C   UNL     1       1.210 -17.835  14.379  1.00  0.00     0.008 C 
ATOM     19  C   UNL     1       2.428 -15.912  15.425  1.00  0.00     0.008 C 
ENDBRANCH  12  17
ENDBRANCH  11  12
ENDBRANCH   1  11
TORSDOF 1
ENDMDL
MODEL 7
REMARK VINA RESULT:    -2.441      5.007      7.481
REMARK INTER + INTRA:          -3.798
REMARK INTER:                  -3.767
REMARK INTRA:                  -0.031
REMARK UNBOUND:                -0.072
REMARK SMILES CC1=CCC[C@@H](C)C(=O)C[C@H](C(C)C)C(=O)C1
REMARK SMILES IDX 8 1 9 2 6 3 7 4 5 5 4 6 3 7 2 8 1 9 10 11 11 12 15 13 16 14
REMARK SMILES IDX 17 15 12 17 13 18 14 19
REMARK H PARENT
REMARK Flexibility Score: 70.00
ROOT
ATOM      1  C   UNL     1       2.581 -18.406  14.295  1.00  0.00     0.136 C 
ATOM      2  O   UNL     1       3.618 -17.876  13.922  1.00  0.00    -0.299 OA
ENDROOT
BRANCH   1   3
ATOM      3  C   UNL     1       1.266 -17.643  14.256  1.00  0.00     0.053 C 
ATOM      4  C   UNL     1       1.441 -16.118  14.367  1.00  0.00     0.016 C 
BRANCH   3   5
ATOM      5  C   UNL     1       0.210 -18.198  15.246  1.00  0.00     0.015 C 
BRANCH   5   6
ATOM      6  C   UNL     1       0.030 -17.487  16.604  1.00  0.00     0.028 C 
BRANCH   6   7
ATOM      7  C   UNL     1       1.141 -17.607  17.618  1.00  0.00    -0.028 C 
ATOM      8  C   UNL     1       1.633 -18.751  18.145  1.00  0.00    -0.070 CG0
ATOM      9  C   UNL     1       2.511 -18.626  19.367  1.00  0.00     0.039 C 
ATOM     10  G   UNL     1       1.350 -20.135  17.586  1.00  0.00     0.000 G0
ENDBRANCH   6   7
ENDBRANCH   5   6
ENDBRANCH   3   5
ENDBRANCH   1   3
BRANCH   1  11
ATOM     11  C   UNL     1       2.592 -19.868  14.691  1.00  0.00     0.087 C 
BRANCH  11  12
ATOM     12  C   UNL     1       3.451 -20.233  15.937  1.00  0.00     0.066 C 
BRANCH  12  13
ATOM     13  C   UNL     1       2.644 -20.774  17.109  1.00  0.00     0.140 C 
ATOM     14  O   UNL     1       3.026 -21.809  17.635  1.00  0.00    -0.299 OA
BRANCH  13  15
ATOM     15  C   UNL     1       1.352 -20.146  17.588  1.00  0.00     0.106 CG0
ATOM     16  G   UNL     1       1.617 -18.763  18.159  1.00  0.00     0.000 G0
ENDBRANCH  13  15
ENDBRANCH  12  13
BRANCH  12  17
ATOM     17  C   UNL     1       4.623 -21.198  15.571  1.00  0.00    -0.006 C 
ATOM     18  C   UNL     1       5.997 -20.524  15.743  1.00  0.00     0.008 C 
ATOM     19  C   UNL     1       4.502 -21.716  14.126  1.00  0.00     0.008 C 
ENDBRANCH  12  17
ENDBRANCH  11  12
ENDBRANCH   1  11
TORSDOF 1
ENDMDL
MODEL 8
REMARK VINA RESULT:    -2.417      2.019      4.097
REMARK INTER + INTRA:          -3.761
REMARK INTER:                  -3.418
REMARK INTRA:                  -0.343
REMARK UNBOUND:                -0.072
REMARK SMILES CC1=CCC[C@@H](C)C(=O)C[C@H](C(C)C)C(=O)C1
REMARK SMILES IDX 8 1 9 2 6 3 7 4 5 5 4 6 3 7 2 8 1 9 10 11 11 12 15 13 16 14
REMARK SMILES IDX 17 15 12 17 13 18 14 19
REMARK H PARENT
REMARK Flexibility Score: 70.00
ROOT
ATOM      1  C   UNL     1       3.224 -14.779  10.025  1.00  0.00     0.136 C 
ATOM      2  O   UNL     1       3.499 -14.093   9.051  1.00  0.00    -0.299 OA
ENDROOT
BRANCH   1   3
ATOM      3  C   UNL     1       1.781 -14.925  10.485  1.00  0.00     0.053 C 
ATOM      4  C   UNL     1       0.779 -15.048   9.325  1.00  0.00     0.016 C 
BRANCH   3   5
ATOM      5  C   UNL     1       1.364 -13.856  11.527  1.00  0.00     0.015 C 
BRANCH   5   6
ATOM      6  C   UNL     1       1.361 -14.248  13.020  1.00  0.00     0.028 C 
BRANCH   6   7
ATOM      7  C   UNL     1       1.438 -15.715  13.366  1.00  0.00    -0.028 C 
ATOM      8  C   UNL     1       2.531 -16.388  13.790  1.00  0.00    -0.070 CG0
ATOM      9  C   UNL     1       2.465 -17.897  13.767  1.00  0.00     0.039 C 
ATOM     10  G   UNL     1       3.806 -15.720  14.277  1.00  0.00     0.000 G0
ENDBRANCH   6   7
ENDBRANCH   5   6
ENDBRANCH   3   5
ENDBRANCH   1   3
BRANCH   1  11
ATOM     11  C   UNL     1       4.316 -15.577  10.708  1.00  0.00     0.087 C 
BRANCH  11  12
ATOM     12  C   UNL     1       4.943 -14.930  11.978  1.00  0.00     0.066 C 
BRANCH  12  13
ATOM     13  C   UNL     1       4.902 -15.822  13.211  1.00  0.00     0.140 C 
ATOM     14  O   UNL     1       5.744 -16.703  13.306  1.00  0.00    -0.299 OA
BRANCH  13  15
ATOM     15  C   UNL     1       3.823 -15.728  14.268  1.00  0.00     0.106 CG0
ATOM     16  G   UNL     1       2.542 -16.383  13.779  1.00  0.00     0.000 G0
ENDBRANCH  13  15
ENDBRANCH  12  13
BRANCH  12  17
ATOM     17  C   UNL     1       6.391 -14.412  11.710  1.00  0.00    -0.006 C 
ATOM     18  C   UNL     1       6.423 -12.891  11.472  1.00  0.00     0.008 C 
ATOM     19  C   UNL     1       7.032 -15.117  10.499  1.00  0.00     0.008 C 
ENDBRANCH  12  17
ENDBRANCH  11  12
ENDBRANCH   1  11
TORSDOF 1
ENDMDL
MODEL 9
REMARK VINA RESULT:    -2.319      3.916      6.877
REMARK INTER + INTRA:          -3.612
REMARK INTER:                  -3.330
REMARK INTRA:                  -0.282
REMARK UNBOUND:                -0.072
REMARK SMILES CC1=CCC[C@@H](C)C(=O)C[C@H](C(C)C)C(=O)C1
REMARK SMILES IDX 8 1 9 2 6 3 7 4 5 5 4 6 3 7 2 8 1 9 10 11 11 12 15 13 16 14
REMARK SMILES IDX 17 15 12 17 13 18 14 19
REMARK H PARENT
REMARK Flexibility Score: 70.00
ROOT
ATOM      1  C   UNL     1       2.800 -20.594  17.176  1.00  0.00     0.136 C 
ATOM      2  O   UNL     1       3.049 -21.774  17.377  1.00  0.00    -0.299 OA
ENDROOT
BRANCH   1   3
ATOM      3  C   UNL     1       1.431 -20.024  17.515  1.00  0.00     0.053 C 
ATOM      4  C   UNL     1       0.623 -20.907  18.482  1.00  0.00     0.016 C 
BRANCH   3   5
ATOM      5  C   UNL     1       0.618 -19.608  16.263  1.00  0.00     0.015 C 
BRANCH   5   6
ATOM      6  C   UNL     1       0.328 -18.107  16.041  1.00  0.00     0.028 C 
BRANCH   6   7
ATOM      7  C   UNL     1       0.700 -17.506  14.707  1.00  0.00    -0.028 C 
ATOM      8  C   UNL     1       1.853 -16.871  14.402  1.00  0.00    -0.070 CG0
ATOM      9  C   UNL     1       1.883 -16.073  13.119  1.00  0.00     0.039 C 
ATOM     10  G   UNL     1       3.102 -16.912  15.267  1.00  0.00     0.000 G0
ENDBRANCH   6   7
ENDBRANCH   5   6
ENDBRANCH   3   5
ENDBRANCH   1   3
BRANCH   1  11
ATOM     11  C   UNL     1       3.899 -19.672  16.690  1.00  0.00     0.087 C 
BRANCH  11  12
ATOM     12  C   UNL     1       3.965 -19.437  15.153  1.00  0.00     0.066 C 
BRANCH  12  13
ATOM     13  C   UNL     1       4.058 -17.971  14.754  1.00  0.00     0.140 C 
ATOM     14  O   UNL     1       4.996 -17.629  14.049  1.00  0.00    -0.299 OA
BRANCH  13  15
ATOM     15  C   UNL     1       3.102 -16.911  15.259  1.00  0.00     0.106 CG0
ATOM     16  G   UNL     1       1.859 -16.860  14.385  1.00  0.00     0.000 G0
ENDBRANCH  13  15
ENDBRANCH  12  13
BRANCH  12  17
ATOM     17  C   UNL     1       5.106 -20.271  14.487  1.00  0.00    -0.006 C 
ATOM     18  C   UNL     1       4.553 -21.467  13.690  1.00  0.00     0.008 C 
ATOM     19  C   UNL     1       6.111 -20.793  15.531  1.00  0.00     0.008 C 
ENDBRANCH  12  17
ENDBRANCH  11  12
ENDBRANCH   1  11
TORSDOF 1
ENDMDL
