MODEL 1
REMARK VINA RESULT:    -3.485      0.000      0.000
REMARK INTER + INTRA:          -5.496
REMARK INTER:                  -5.114
REMARK INTRA:                  -0.381
REMARK UNBOUND:                -0.381
REMARK SMILES O=C([O-])CCCCCCCC(=O)[O-]
REMARK SMILES IDX 7 1 6 2 5 3 4 4 2 5 1 6 3 7 8 8 9 9 10 10 11 11 12 12 13 13
REMARK H PARENT
REMARK Flexibility Score: inf
ROOT
ATOM      1  C   UNL     1      56.944  28.266  50.444  1.00  0.00     0.000 C 
ENDROOT
BRANCH   1   2
ATOM      2  C   UNL     1      55.507  28.825  50.514  1.00  0.00     0.000 C 
BRANCH   2   3
ATOM      3  C   UNL     1      54.438  27.964  49.818  1.00  0.00     0.006 C 
BRANCH   3   4
ATOM      4  C   UNL     1      54.751  26.463  49.875  1.00  0.00     0.053 C 
BRANCH   4   5
ATOM      5  C   UNL     1      53.586  25.668  49.379  1.00  0.00     0.041 C 
ATOM      6  O   UNL     1      52.875  26.105  48.436  1.00  0.00    -0.550 OA
ATOM      7  O   UNL     1      53.254  24.466  49.990  1.00  0.00    -0.550 OA
ENDBRANCH   4   5
ENDBRANCH   3   4
ENDBRANCH   2   3
ENDBRANCH   1   2
BRANCH   1   8
ATOM      8  C   UNL     1      58.003  29.249  49.913  1.00  0.00     0.000 C 
BRANCH   8   9
ATOM      9  C   UNL     1      59.088  28.559  49.070  1.00  0.00     0.006 C 
BRANCH   9  10
ATOM     10  C   UNL     1      59.188  27.057  49.369  1.00  0.00     0.053 C 
BRANCH  10  11
ATOM     11  C   UNL     1      60.571  26.665  49.791  1.00  0.00     0.041 C 
ATOM     12  O   UNL     1      61.549  27.418  49.540  1.00  0.00    -0.550 OA
ATOM     13  O   UNL     1      60.783  25.454  50.439  1.00  0.00    -0.550 OA
ENDBRANCH  10  11
ENDBRANCH   9  10
ENDBRANCH   8   9
ENDBRANCH   1   8
TORSDOF 8
ENDMDL
MODEL 2
REMARK VINA RESULT:    -3.465     12.659     14.521
REMARK INTER + INTRA:          -5.466
REMARK INTER:                  -4.741
REMARK INTRA:                  -0.725
REMARK UNBOUND:                -0.381
REMARK SMILES O=C([O-])CCCCCCCC(=O)[O-]
REMARK SMILES IDX 7 1 6 2 5 3 4 4 2 5 1 6 3 7 8 8 9 9 10 10 11 11 12 12 13 13
REMARK H PARENT
REMARK Flexibility Score: inf
ROOT
ATOM      1  C   UNL     1      60.664  31.830  60.089  1.00  0.00     0.000 C 
ENDROOT
BRANCH   1   2
ATOM      2  C   UNL     1      61.495  33.022  59.571  1.00  0.00     0.000 C 
BRANCH   2   3
ATOM      3  C   UNL     1      61.865  34.071  60.634  1.00  0.00     0.006 C 
BRANCH   3   4
ATOM      4  C   UNL     1      63.380  34.227  60.816  1.00  0.00     0.053 C 
BRANCH   4   5
ATOM      5  C   UNL     1      63.697  35.546  61.446  1.00  0.00     0.041 C 
ATOM      6  O   UNL     1      62.786  36.393  61.636  1.00  0.00    -0.550 OA
ATOM      7  O   UNL     1      65.009  35.859  61.780  1.00  0.00    -0.550 OA
ENDBRANCH   4   5
ENDBRANCH   3   4
ENDBRANCH   2   3
ENDBRANCH   1   2
BRANCH   1   8
ATOM      8  C   UNL     1      60.953  31.414  61.543  1.00  0.00     0.000 C 
BRANCH   8   9
ATOM      9  C   UNL     1      61.885  30.195  61.641  1.00  0.00     0.006 C 
BRANCH   9  10
ATOM     10  C   UNL     1      63.363  30.600  61.709  1.00  0.00     0.053 C 
BRANCH  10  11
ATOM     11  C   UNL     1      64.067  30.357  60.409  1.00  0.00     0.041 C 
ATOM     12  O   UNL     1      63.479  29.758  59.471  1.00  0.00    -0.550 OA
ATOM     13  O   UNL     1      65.383  30.772  60.243  1.00  0.00    -0.550 OA
ENDBRANCH  10  11
ENDBRANCH   9  10
ENDBRANCH   8   9
ENDBRANCH   1   8
TORSDOF 8
ENDMDL
MODEL 3
REMARK VINA RESULT:    -3.464      1.282      5.686
REMARK INTER + INTRA:          -5.466
REMARK INTER:                  -5.005
REMARK INTRA:                  -0.461
REMARK UNBOUND:                -0.381
REMARK SMILES O=C([O-])CCCCCCCC(=O)[O-]
REMARK SMILES IDX 7 1 6 2 5 3 4 4 2 5 1 6 3 7 8 8 9 9 10 10 11 11 12 12 13 13
REMARK H PARENT
REMARK Flexibility Score: inf
ROOT
ATOM      1  C   UNL     1      56.893  29.130  51.330  1.00  0.00     0.000 C 
ENDROOT
BRANCH   1   2
ATOM      2  C   UNL     1      58.246  29.579  50.739  1.00  0.00     0.000 C 
BRANCH   2   3
ATOM      3  C   UNL     1      58.526  29.092  49.306  1.00  0.00     0.006 C 
BRANCH   3   4
ATOM      4  C   UNL     1      59.865  28.355  49.179  1.00  0.00     0.053 C 
BRANCH   4   5
ATOM      5  C   UNL     1      59.692  26.901  49.479  1.00  0.00     0.041 C 
ATOM      6  O   UNL     1      58.548  26.377  49.435  1.00  0.00    -0.550 OA
ATOM      7  O   UNL     1      60.786  26.133  49.856  1.00  0.00    -0.550 OA
ENDBRANCH   4   5
ENDBRANCH   3   4
ENDBRANCH   2   3
ENDBRANCH   1   2
BRANCH   1   8
ATOM      8  C   UNL     1      55.920  28.491  50.323  1.00  0.00     0.000 C 
BRANCH   8   9
ATOM      9  C   UNL     1      54.470  28.971  50.507  1.00  0.00     0.006 C 
BRANCH   9  10
ATOM     10  C   UNL     1      53.479  28.155  49.667  1.00  0.00     0.053 C 
BRANCH  10  11
ATOM     11  C   UNL     1      53.598  26.686  49.939  1.00  0.00     0.041 C 
ATOM     12  O   UNL     1      53.325  26.227  51.079  1.00  0.00    -0.550 OA
ATOM     13  O   UNL     1      54.035  25.828  48.937  1.00  0.00    -0.550 OA
ENDBRANCH  10  11
ENDBRANCH   9  10
ENDBRANCH   8   9
ENDBRANCH   1   8
TORSDOF 8
ENDMDL
MODEL 4
REMARK VINA RESULT:    -3.397     12.766     14.369
REMARK INTER + INTRA:          -5.366
REMARK INTER:                  -4.762
REMARK INTRA:                  -0.604
REMARK UNBOUND:                -0.381
REMARK SMILES O=C([O-])CCCCCCCC(=O)[O-]
REMARK SMILES IDX 7 1 6 2 5 3 4 4 2 5 1 6 3 7 8 8 9 9 10 10 11 11 12 12 13 13
REMARK H PARENT
REMARK Flexibility Score: inf
ROOT
ATOM      1  C   UNL     1      61.390  31.910  59.694  1.00  0.00     0.000 C 
ENDROOT
BRANCH   1   2
ATOM      2  C   UNL     1      60.741  31.687  61.076  1.00  0.00     0.000 C 
BRANCH   2   3
ATOM      3  C   UNL     1      61.509  30.736  62.011  1.00  0.00     0.006 C 
BRANCH   3   4
ATOM      4  C   UNL     1      62.936  30.448  61.528  1.00  0.00     0.053 C 
BRANCH   4   5
ATOM      5  C   UNL     1      63.143  28.977  61.360  1.00  0.00     0.041 C 
ATOM      6  O   UNL     1      62.219  28.170  61.641  1.00  0.00    -0.550 OA
ATOM      7  O   UNL     1      64.375  28.492  60.939  1.00  0.00    -0.550 OA
ENDBRANCH   4   5
ENDBRANCH   3   4
ENDBRANCH   2   3
ENDBRANCH   1   2
BRANCH   1   8
ATOM      8  C   UNL     1      61.781  33.366  59.382  1.00  0.00     0.000 C 
BRANCH   8   9
ATOM      9  C   UNL     1      62.012  34.207  60.648  1.00  0.00     0.006 C 
BRANCH   9  10
ATOM     10  C   UNL     1      63.496  34.284  61.030  1.00  0.00     0.053 C 
BRANCH  10  11
ATOM     11  C   UNL     1      63.875  35.651  61.513  1.00  0.00     0.041 C 
ATOM     12  O   UNL     1      65.075  35.918  61.785  1.00  0.00    -0.550 OA
ATOM     13  O   UNL     1      62.897  36.623  61.686  1.00  0.00    -0.550 OA
ENDBRANCH  10  11
ENDBRANCH   9  10
ENDBRANCH   8   9
ENDBRANCH   1   8
TORSDOF 8
ENDMDL
MODEL 5
REMARK VINA RESULT:    -3.376     13.010     14.930
REMARK INTER + INTRA:          -5.336
REMARK INTER:                  -4.585
REMARK INTRA:                  -0.751
REMARK UNBOUND:                -0.381
REMARK SMILES O=C([O-])CCCCCCCC(=O)[O-]
REMARK SMILES IDX 7 1 6 2 5 3 4 4 2 5 1 6 3 7 8 8 9 9 10 10 11 11 12 12 13 13
REMARK H PARENT
REMARK Flexibility Score: inf
ROOT
ATOM      1  C   UNL     1      62.521  33.103  59.478  1.00  0.00     0.000 C 
ENDROOT
BRANCH   1   2
ATOM      2  C   UNL     1      63.921  33.522  59.972  1.00  0.00     0.000 C 
BRANCH   2   3
ATOM      3  C   UNL     1      63.974  34.037  61.421  1.00  0.00     0.006 C 
BRANCH   3   4
ATOM      4  C   UNL     1      64.420  35.501  61.518  1.00  0.00     0.053 C 
BRANCH   4   5
ATOM      5  C   UNL     1      63.378  36.404  60.939  1.00  0.00     0.041 C 
ATOM      6  O   UNL     1      62.239  36.480  61.471  1.00  0.00    -0.550 OA
ATOM      7  O   UNL     1      63.646  37.125  59.783  1.00  0.00    -0.550 OA
ENDBRANCH   4   5
ENDBRANCH   3   4
ENDBRANCH   2   3
ENDBRANCH   1   2
BRANCH   1   8
ATOM      8  C   UNL     1      61.409  33.155  60.541  1.00  0.00     0.000 C 
BRANCH   8   9
ATOM      9  C   UNL     1      60.701  31.803  60.732  1.00  0.00     0.006 C 
BRANCH   9  10
ATOM     10  C   UNL     1      61.154  31.088  62.012  1.00  0.00     0.053 C 
BRANCH  10  11
ATOM     11  C   UNL     1      62.218  30.071  61.734  1.00  0.00     0.041 C 
ATOM     12  O   UNL     1      61.910  28.865  61.541  1.00  0.00    -0.550 OA
ATOM     13  O   UNL     1      63.555  30.451  61.713  1.00  0.00    -0.550 OA
ENDBRANCH  10  11
ENDBRANCH   9  10
ENDBRANCH   8   9
ENDBRANCH   1   8
TORSDOF 8
ENDMDL
MODEL 6
REMARK VINA RESULT:    -3.350      1.405      5.681
REMARK INTER + INTRA:          -5.298
REMARK INTER:                  -4.561
REMARK INTRA:                  -0.736
REMARK UNBOUND:                -0.381
REMARK SMILES O=C([O-])CCCCCCCC(=O)[O-]
REMARK SMILES IDX 7 1 6 2 5 3 4 4 2 5 1 6 3 7 8 8 9 9 10 10 11 11 12 12 13 13
REMARK H PARENT
REMARK Flexibility Score: inf
ROOT
ATOM      1  C   UNL     1      57.064  28.219  51.660  1.00  0.00     0.000 C 
ENDROOT
BRANCH   1   2
ATOM      2  C   UNL     1      57.690  26.838  51.375  1.00  0.00     0.000 C 
BRANCH   2   3
ATOM      3  C   UNL     1      57.893  26.508  49.886  1.00  0.00     0.006 C 
BRANCH   3   4
ATOM      4  C   UNL     1      59.372  26.375  49.501  1.00  0.00     0.053 C 
BRANCH   4   5
ATOM      5  C   UNL     1      59.965  27.722  49.235  1.00  0.00     0.041 C 
ATOM      6  O   UNL     1      61.187  27.931  49.454  1.00  0.00    -0.550 OA
ATOM      7  O   UNL     1      59.158  28.761  48.791  1.00  0.00    -0.550 OA
ENDBRANCH   4   5
ENDBRANCH   3   4
ENDBRANCH   2   3
ENDBRANCH   1   2
BRANCH   1   8
ATOM      8  C   UNL     1      56.210  28.798  50.518  1.00  0.00     0.000 C 
BRANCH   8   9
ATOM      9  C   UNL     1      54.704  28.780  50.830  1.00  0.00     0.006 C 
BRANCH   9  10
ATOM     10  C   UNL     1      53.904  28.002  49.777  1.00  0.00     0.053 C 
BRANCH  10  11
ATOM     11  C   UNL     1      54.083  26.522  49.924  1.00  0.00     0.041 C 
ATOM     12  O   UNL     1      54.086  25.779  48.907  1.00  0.00    -0.550 OA
ATOM     13  O   UNL     1      54.222  25.961  51.187  1.00  0.00    -0.550 OA
ENDBRANCH  10  11
ENDBRANCH   9  10
ENDBRANCH   8   9
ENDBRANCH   1   8
TORSDOF 8
ENDMDL
MODEL 7
REMARK VINA RESULT:    -3.305     12.806     14.760
REMARK INTER + INTRA:          -5.232
REMARK INTER:                  -4.639
REMARK INTRA:                  -0.593
REMARK UNBOUND:                -0.381
REMARK SMILES O=C([O-])CCCCCCCC(=O)[O-]
REMARK SMILES IDX 7 1 6 2 5 3 4 4 2 5 1 6 3 7 8 8 9 9 10 10 11 11 12 12 13 13
REMARK H PARENT
REMARK Flexibility Score: inf
ROOT
ATOM      1  C   UNL     1      61.068  34.039  58.896  1.00  0.00     0.000 C 
ENDROOT
BRANCH   1   2
ATOM      2  C   UNL     1      60.862  35.164  59.932  1.00  0.00     0.000 C 
BRANCH   2   3
ATOM      3  C   UNL     1      62.001  36.196  60.009  1.00  0.00     0.006 C 
BRANCH   3   4
ATOM      4  C   UNL     1      62.650  36.265  61.397  1.00  0.00     0.053 C 
BRANCH   4   5
ATOM      5  C   UNL     1      63.999  35.621  61.375  1.00  0.00     0.041 C 
ATOM      6  O   UNL     1      64.869  35.941  62.227  1.00  0.00    -0.550 OA
ATOM      7  O   UNL     1      64.314  34.702  60.383  1.00  0.00    -0.550 OA
ENDBRANCH   4   5
ENDBRANCH   3   4
ENDBRANCH   2   3
ENDBRANCH   1   2
BRANCH   1   8
ATOM      8  C   UNL     1      61.550  32.696  59.475  1.00  0.00     0.000 C 
BRANCH   8   9
ATOM      9  C   UNL     1      61.464  32.642  61.009  1.00  0.00     0.006 C 
BRANCH   9  10
ATOM     10  C   UNL     1      61.032  31.260  61.517  1.00  0.00     0.053 C 
BRANCH  10  11
ATOM     11  C   UNL     1      62.204  30.348  61.713  1.00  0.00     0.041 C 
ATOM     12  O   UNL     1      63.369  30.820  61.796  1.00  0.00    -0.550 OA
ATOM     13  O   UNL     1      62.012  28.974  61.778  1.00  0.00    -0.550 OA
ENDBRANCH  10  11
ENDBRANCH   9  10
ENDBRANCH   8   9
ENDBRANCH   1   8
TORSDOF 8
ENDMDL
MODEL 8
REMARK VINA RESULT:    -3.260     12.572     14.290
REMARK INTER + INTRA:          -5.166
REMARK INTER:                  -4.312
REMARK INTRA:                  -0.854
REMARK UNBOUND:                -0.381
REMARK SMILES O=C([O-])CCCCCCCC(=O)[O-]
REMARK SMILES IDX 7 1 6 2 5 3 4 4 2 5 1 6 3 7 8 8 9 9 10 10 11 11 12 12 13 13
REMARK H PARENT
REMARK Flexibility Score: inf
ROOT
ATOM      1  C   UNL     1      61.128  32.584  61.024  1.00  0.00     0.000 C 
ENDROOT
BRANCH   1   2
ATOM      2  C   UNL     1      61.025  31.051  61.174  1.00  0.00     0.000 C 
BRANCH   2   3
ATOM      3  C   UNL     1      62.222  30.382  61.873  1.00  0.00     0.006 C 
BRANCH   3   4
ATOM      4  C   UNL     1      62.970  29.399  60.963  1.00  0.00     0.053 C 
BRANCH   4   5
ATOM      5  C   UNL     1      64.011  30.116  60.165  1.00  0.00     0.041 C 
ATOM      6  O   UNL     1      65.016  30.615  60.736  1.00  0.00    -0.550 OA
ATOM      7  O   UNL     1      63.849  30.276  58.795  1.00  0.00    -0.550 OA
ENDBRANCH   4   5
ENDBRANCH   3   4
ENDBRANCH   2   3
ENDBRANCH   1   2
BRANCH   1   8
ATOM      8  C   UNL     1      61.539  33.077  59.625  1.00  0.00     0.000 C 
BRANCH   8   9
ATOM      9  C   UNL     1      62.959  33.668  59.593  1.00  0.00     0.006 C 
BRANCH   9  10
ATOM     10  C   UNL     1      63.554  33.823  60.999  1.00  0.00     0.053 C 
BRANCH  10  11
ATOM     11  C   UNL     1      63.650  35.261  61.407  1.00  0.00     0.041 C 
ATOM     12  O   UNL     1      62.631  36.000  61.373  1.00  0.00    -0.550 OA
ATOM     13  O   UNL     1      64.872  35.791  61.801  1.00  0.00    -0.550 OA
ENDBRANCH  10  11
ENDBRANCH   9  10
ENDBRANCH   8   9
ENDBRANCH   1   8
TORSDOF 8
ENDMDL
MODEL 9
REMARK VINA RESULT:    -3.257     12.858     14.337
REMARK INTER + INTRA:          -5.162
REMARK INTER:                  -4.416
REMARK INTRA:                  -0.745
REMARK UNBOUND:                -0.381
REMARK SMILES O=C([O-])CCCCCCCC(=O)[O-]
REMARK SMILES IDX 7 1 6 2 5 3 4 4 2 5 1 6 3 7 8 8 9 9 10 10 11 11 12 12 13 13
REMARK H PARENT
REMARK Flexibility Score: inf
ROOT
ATOM      1  C   UNL     1      61.127  34.647  60.614  1.00  0.00     0.000 C 
ENDROOT
BRANCH   1   2
ATOM      2  C   UNL     1      61.093  33.831  59.305  1.00  0.00     0.000 C 
BRANCH   2   3
ATOM      3  C   UNL     1      61.575  32.375  59.433  1.00  0.00     0.006 C 
BRANCH   3   4
ATOM      4  C   UNL     1      62.345  32.113  60.734  1.00  0.00     0.053 C 
BRANCH   4   5
ATOM      5  C   UNL     1      61.591  31.156  61.602  1.00  0.00     0.041 C 
ATOM      6  O   UNL     1      60.418  31.424  61.970  1.00  0.00    -0.550 OA
ATOM      7  O   UNL     1      62.203  29.991  62.045  1.00  0.00    -0.550 OA
ENDBRANCH   4   5
ENDBRANCH   3   4
ENDBRANCH   2   3
ENDBRANCH   1   2
BRANCH   1   8
ATOM      8  C   UNL     1      61.539  36.122  60.454  1.00  0.00     0.000 C 
BRANCH   8   9
ATOM      9  C   UNL     1      62.652  36.540  61.429  1.00  0.00     0.006 C 
BRANCH   9  10
ATOM     10  C   UNL     1      63.812  35.536  61.449  1.00  0.00     0.053 C 
BRANCH  10  11
ATOM     11  C   UNL     1      64.614  35.589  60.184  1.00  0.00     0.041 C 
ATOM     12  O   UNL     1      64.582  34.627  59.372  1.00  0.00    -0.550 OA
ATOM     13  O   UNL     1      65.418  36.690  59.917  1.00  0.00    -0.550 OA
ENDBRANCH  10  11
ENDBRANCH   9  10
ENDBRANCH   8   9
ENDBRANCH   1   8
TORSDOF 8
ENDMDL
