MODEL 1
REMARK VINA RESULT:    -5.177      0.000      0.000
REMARK INTER + INTRA:          -7.963
REMARK INTER:                  -7.598
REMARK INTRA:                  -0.365
REMARK UNBOUND:                -0.365
REMARK SMILES O=C([O-])CCCCCCCC(=O)[O-]
REMARK SMILES IDX 7 1 6 2 5 3 4 4 2 5 1 6 3 7 8 8 9 9 10 10 11 11 12 12 13 13
REMARK H PARENT
REMARK Flexibility Score: inf
ROOT
ATOM      1  C   UNL     1      28.877  56.955  -7.249  1.00  0.00     0.000 C 
ENDROOT
BRANCH   1   2
ATOM      2  C   UNL     1      28.624  56.085  -6.007  1.00  0.00     0.000 C 
BRANCH   2   3
ATOM      3  C   UNL     1      29.221  56.689  -4.728  1.00  0.00     0.006 C 
BRANCH   3   4
ATOM      4  C   UNL     1      30.499  57.475  -5.039  1.00  0.00     0.053 C 
BRANCH   4   5
ATOM      5  C   UNL     1      30.753  58.502  -3.981  1.00  0.00     0.041 C 
ATOM      6  O   UNL     1      31.374  59.561  -4.261  1.00  0.00    -0.550 OA
ATOM      7  O   UNL     1      30.260  58.313  -2.696  1.00  0.00    -0.550 OA
ENDBRANCH   4   5
ENDBRANCH   3   4
ENDBRANCH   2   3
ENDBRANCH   1   2
BRANCH   1   8
ATOM      8  C   UNL     1      28.207  56.393  -8.511  1.00  0.00     0.000 C 
BRANCH   8   9
ATOM      9  C   UNL     1      28.080  57.476  -9.593  1.00  0.00     0.006 C 
BRANCH   9  10
ATOM     10  C   UNL     1      28.440  58.871  -9.065  1.00  0.00     0.053 C 
BRANCH  10  11
ATOM     11  C   UNL     1      27.676  59.948  -9.772  1.00  0.00     0.041 C 
ATOM     12  O   UNL     1      28.277  60.960 -10.222  1.00  0.00    -0.550 OA
ATOM     13  O   UNL     1      26.306  59.820  -9.963  1.00  0.00    -0.550 OA
ENDBRANCH  10  11
ENDBRANCH   9  10
ENDBRANCH   8   9
ENDBRANCH   1   8
TORSDOF 8
ENDMDL
MODEL 2
REMARK VINA RESULT:    -4.890     17.757     19.341
REMARK INTER + INTRA:          -7.542
REMARK INTER:                  -7.285
REMARK INTRA:                  -0.257
REMARK UNBOUND:                -0.365
REMARK SMILES O=C([O-])CCCCCCCC(=O)[O-]
REMARK SMILES IDX 7 1 6 2 5 3 4 4 2 5 1 6 3 7 8 8 9 9 10 10 11 11 12 12 13 13
REMARK H PARENT
REMARK Flexibility Score: inf
ROOT
ATOM      1  C   UNL     1      39.460  63.497   8.329  1.00  0.00     0.000 C 
ENDROOT
BRANCH   1   2
ATOM      2  C   UNL     1      39.169  64.988   8.097  1.00  0.00     0.000 C 
BRANCH   2   3
ATOM      3  C   UNL     1      38.794  65.300   6.641  1.00  0.00     0.006 C 
BRANCH   3   4
ATOM      4  C   UNL     1      37.427  65.987   6.562  1.00  0.00     0.053 C 
BRANCH   4   5
ATOM      5  C   UNL     1      37.469  67.127   5.593  1.00  0.00     0.041 C 
ATOM      6  O   UNL     1      38.093  67.012   4.506  1.00  0.00    -0.550 OA
ATOM      7  O   UNL     1      36.779  68.301   5.870  1.00  0.00    -0.550 OA
ENDBRANCH   4   5
ENDBRANCH   3   4
ENDBRANCH   2   3
ENDBRANCH   1   2
BRANCH   1   8
ATOM      8  C   UNL     1      40.962  63.197   8.435  1.00  0.00     0.000 C 
BRANCH   8   9
ATOM      9  C   UNL     1      41.229  61.687   8.341  1.00  0.00     0.006 C 
BRANCH   9  10
ATOM     10  C   UNL     1      39.950  60.887   8.065  1.00  0.00     0.053 C 
BRANCH  10  11
ATOM     11  C   UNL     1      40.197  59.410   8.109  1.00  0.00     0.041 C 
ATOM     12  O   UNL     1      41.372  58.967   8.213  1.00  0.00    -0.550 OA
ATOM     13  O   UNL     1      39.128  58.523   8.067  1.00  0.00    -0.550 OA
ENDBRANCH  10  11
ENDBRANCH   9  10
ENDBRANCH   8   9
ENDBRANCH   1   8
TORSDOF 8
ENDMDL
MODEL 3
REMARK VINA RESULT:    -4.832     17.770     18.811
REMARK INTER + INTRA:          -7.456
REMARK INTER:                  -7.082
REMARK INTRA:                  -0.375
REMARK UNBOUND:                -0.365
REMARK SMILES O=C([O-])CCCCCCCC(=O)[O-]
REMARK SMILES IDX 7 1 6 2 5 3 4 4 2 5 1 6 3 7 8 8 9 9 10 10 11 11 12 12 13 13
REMARK H PARENT
REMARK Flexibility Score: inf
ROOT
ATOM      1  C   UNL     1      40.865  63.335   8.495  1.00  0.00     0.000 C 
ENDROOT
BRANCH   1   2
ATOM      2  C   UNL     1      41.115  61.869   8.106  1.00  0.00     0.000 C 
BRANCH   2   3
ATOM      3  C   UNL     1      39.899  60.970   8.371  1.00  0.00     0.006 C 
BRANCH   3   4
ATOM      4  C   UNL     1      39.786  59.874   7.305  1.00  0.00     0.053 C 
BRANCH   4   5
ATOM      5  C   UNL     1      39.577  58.539   7.947  1.00  0.00     0.041 C 
ATOM      6  O   UNL     1      38.418  58.060   8.052  1.00  0.00    -0.550 OA
ATOM      7  O   UNL     1      40.669  57.801   8.386  1.00  0.00    -0.550 OA
ENDBRANCH   4   5
ENDBRANCH   3   4
ENDBRANCH   2   3
ENDBRANCH   1   2
BRANCH   1   8
ATOM      8  C   UNL     1      39.393  63.616   8.827  1.00  0.00     0.000 C 
BRANCH   8   9
ATOM      9  C   UNL     1      38.952  64.974   8.261  1.00  0.00     0.006 C 
BRANCH   9  10
ATOM     10  C   UNL     1      38.965  64.996   6.727  1.00  0.00     0.053 C 
BRANCH  10  11
ATOM     11  C   UNL     1      38.026  66.026   6.177  1.00  0.00     0.041 C 
ATOM     12  O   UNL     1      37.025  66.392   6.848  1.00  0.00    -0.550 OA
ATOM     13  O   UNL     1      38.274  66.604   4.938  1.00  0.00    -0.550 OA
ENDBRANCH  10  11
ENDBRANCH   9  10
ENDBRANCH   8   9
ENDBRANCH   1   8
TORSDOF 8
ENDMDL
MODEL 4
REMARK VINA RESULT:    -4.620     17.653     18.529
REMARK INTER + INTRA:          -7.145
REMARK INTER:                  -6.946
REMARK INTRA:                  -0.199
REMARK UNBOUND:                -0.365
REMARK SMILES O=C([O-])CCCCCCCC(=O)[O-]
REMARK SMILES IDX 7 1 6 2 5 3 4 4 2 5 1 6 3 7 8 8 9 9 10 10 11 11 12 12 13 13
REMARK H PARENT
REMARK Flexibility Score: inf
ROOT
ATOM      1  C   UNL     1      40.307  63.843   8.137  1.00  0.00     0.000 C 
ENDROOT
BRANCH   1   2
ATOM      2  C   UNL     1      39.948  62.393   8.500  1.00  0.00     0.000 C 
BRANCH   2   3
ATOM      3  C   UNL     1      41.094  61.410   8.221  1.00  0.00     0.006 C 
BRANCH   3   4
ATOM      4  C   UNL     1      40.624  59.961   8.381  1.00  0.00     0.053 C 
BRANCH   4   5
ATOM      5  C   UNL     1      40.355  59.348   7.043  1.00  0.00     0.041 C 
ATOM      6  O   UNL     1      39.452  58.481   6.912  1.00  0.00    -0.550 OA
ATOM      7  O   UNL     1      41.071  59.769   5.929  1.00  0.00    -0.550 OA
ENDBRANCH   4   5
ENDBRANCH   3   4
ENDBRANCH   2   3
ENDBRANCH   1   2
BRANCH   1   8
ATOM      8  C   UNL     1      39.082  64.769   8.118  1.00  0.00     0.000 C 
BRANCH   8   9
ATOM      9  C   UNL     1      38.849  65.342   6.713  1.00  0.00     0.006 C 
BRANCH   9  10
ATOM     10  C   UNL     1      37.467  65.995   6.573  1.00  0.00     0.053 C 
BRANCH  10  11
ATOM     11  C   UNL     1      37.482  67.125   5.589  1.00  0.00     0.041 C 
ATOM     12  O   UNL     1      38.110  67.010   4.503  1.00  0.00    -0.550 OA
ATOM     13  O   UNL     1      36.777  68.291   5.856  1.00  0.00    -0.550 OA
ENDBRANCH  10  11
ENDBRANCH   9  10
ENDBRANCH   8   9
ENDBRANCH   1   8
TORSDOF 8
ENDMDL
MODEL 5
REMARK VINA RESULT:    -4.544     17.742     19.144
REMARK INTER + INTRA:          -7.034
REMARK INTER:                  -6.637
REMARK INTRA:                  -0.396
REMARK UNBOUND:                -0.365
REMARK SMILES O=C([O-])CCCCCCCC(=O)[O-]
REMARK SMILES IDX 7 1 6 2 5 3 4 4 2 5 1 6 3 7 8 8 9 9 10 10 11 11 12 12 13 13
REMARK H PARENT
REMARK Flexibility Score: inf
ROOT
ATOM      1  C   UNL     1      41.133  63.159   8.016  1.00  0.00     0.000 C 
ENDROOT
BRANCH   1   2
ATOM      2  C   UNL     1      39.921  63.539   8.881  1.00  0.00     0.000 C 
BRANCH   2   3
ATOM      3  C   UNL     1      38.997  64.555   8.193  1.00  0.00     0.006 C 
BRANCH   3   4
ATOM      4  C   UNL     1      39.520  64.914   6.798  1.00  0.00     0.053 C 
BRANCH   4   5
ATOM      5  C   UNL     1      38.582  65.857   6.114  1.00  0.00     0.041 C 
ATOM      6  O   UNL     1      38.813  66.239   4.937  1.00  0.00    -0.550 OA
ATOM      7  O   UNL     1      37.425  66.277   6.759  1.00  0.00    -0.550 OA
ENDBRANCH   4   5
ENDBRANCH   3   4
ENDBRANCH   2   3
ENDBRANCH   1   2
BRANCH   1   8
ATOM      8  C   UNL     1      41.378  61.644   7.974  1.00  0.00     0.000 C 
BRANCH   8   9
ATOM      9  C   UNL     1      40.137  60.874   8.452  1.00  0.00     0.006 C 
BRANCH   9  10
ATOM     10  C   UNL     1      40.364  59.357   8.467  1.00  0.00     0.053 C 
BRANCH  10  11
ATOM     11  C   UNL     1      39.387  58.640   7.586  1.00  0.00     0.041 C 
ATOM     12  O   UNL     1      38.155  58.884   7.675  1.00  0.00    -0.550 OA
ATOM     13  O   UNL     1      39.841  57.725   6.643  1.00  0.00    -0.550 OA
ENDBRANCH  10  11
ENDBRANCH   9  10
ENDBRANCH   8   9
ENDBRANCH   1   8
TORSDOF 8
ENDMDL
MODEL 6
REMARK VINA RESULT:    -4.530     18.652     19.593
REMARK INTER + INTRA:          -7.013
REMARK INTER:                  -6.667
REMARK INTRA:                  -0.347
REMARK UNBOUND:                -0.365
REMARK SMILES O=C([O-])CCCCCCCC(=O)[O-]
REMARK SMILES IDX 7 1 6 2 5 3 4 4 2 5 1 6 3 7 8 8 9 9 10 10 11 11 12 12 13 13
REMARK H PARENT
REMARK Flexibility Score: inf
ROOT
ATOM      1  C   UNL     1      39.818  61.598   8.025  1.00  0.00     0.000 C 
ENDROOT
BRANCH   1   2
ATOM      2  C   UNL     1      41.100  62.403   8.293  1.00  0.00     0.000 C 
BRANCH   2   3
ATOM      3  C   UNL     1      40.864  63.920   8.266  1.00  0.00     0.006 C 
BRANCH   3   4
ATOM      4  C   UNL     1      39.366  64.242   8.308  1.00  0.00     0.053 C 
BRANCH   4   5
ATOM      5  C   UNL     1      38.980  65.092   7.139  1.00  0.00     0.041 C 
ATOM      6  O   UNL     1      37.935  65.793   7.182  1.00  0.00    -0.550 OA
ATOM      7  O   UNL     1      39.801  65.148   6.019  1.00  0.00    -0.550 OA
ENDBRANCH   4   5
ENDBRANCH   3   4
ENDBRANCH   2   3
ENDBRANCH   1   2
BRANCH   1   8
ATOM      8  C   UNL     1      39.969  60.111   8.378  1.00  0.00     0.000 C 
BRANCH   8   9
ATOM      9  C   UNL     1      41.342  59.580   7.939  1.00  0.00     0.006 C 
BRANCH   9  10
ATOM     10  C   UNL     1      41.609  58.160   8.456  1.00  0.00     0.053 C 
BRANCH  10  11
ATOM     11  C   UNL     1      41.399  57.130   7.388  1.00  0.00     0.041 C 
ATOM     12  O   UNL     1      41.986  56.018   7.457  1.00  0.00    -0.550 OA
ATOM     13  O   UNL     1      40.529  57.386   6.335  1.00  0.00    -0.550 OA
ENDBRANCH  10  11
ENDBRANCH   9  10
ENDBRANCH   8   9
ENDBRANCH   1   8
TORSDOF 8
ENDMDL
MODEL 7
REMARK VINA RESULT:    -4.493     18.293     19.364
REMARK INTER + INTRA:          -6.959
REMARK INTER:                  -6.472
REMARK INTRA:                  -0.487
REMARK UNBOUND:                -0.365
REMARK SMILES O=C([O-])CCCCCCCC(=O)[O-]
REMARK SMILES IDX 7 1 6 2 5 3 4 4 2 5 1 6 3 7 8 8 9 9 10 10 11 11 12 12 13 13
REMARK H PARENT
REMARK Flexibility Score: inf
ROOT
ATOM      1  C   UNL     1      39.911  60.871   8.357  1.00  0.00     0.000 C 
ENDROOT
BRANCH   1   2
ATOM      2  C   UNL     1      39.530  59.794   7.329  1.00  0.00     0.000 C 
BRANCH   2   3
ATOM      3  C   UNL     1      39.404  58.397   7.953  1.00  0.00     0.006 C 
BRANCH   3   4
ATOM      4  C   UNL     1      40.641  58.058   8.792  1.00  0.00     0.053 C 
BRANCH   4   5
ATOM      5  C   UNL     1      41.734  57.525   7.921  1.00  0.00     0.041 C 
ATOM      6  O   UNL     1      41.715  56.324   7.543  1.00  0.00    -0.550 OA
ATOM      7  O   UNL     1      42.751  58.367   7.487  1.00  0.00    -0.550 OA
ENDBRANCH   4   5
ENDBRANCH   3   4
ENDBRANCH   2   3
ENDBRANCH   1   2
BRANCH   1   8
ATOM      8  C   UNL     1      41.114  61.716   7.911  1.00  0.00     0.000 C 
BRANCH   8   9
ATOM      9  C   UNL     1      41.021  63.142   8.474  1.00  0.00     0.006 C 
BRANCH   9  10
ATOM     10  C   UNL     1      39.570  63.626   8.596  1.00  0.00     0.053 C 
BRANCH  10  11
ATOM     11  C   UNL     1      39.266  64.724   7.623  1.00  0.00     0.041 C 
ATOM     12  O   UNL     1      38.327  65.531   7.852  1.00  0.00    -0.550 OA
ATOM     13  O   UNL     1      40.041  64.876   6.480  1.00  0.00    -0.550 OA
ENDBRANCH  10  11
ENDBRANCH   9  10
ENDBRANCH   8   9
ENDBRANCH   1   8
TORSDOF 8
ENDMDL
MODEL 8
REMARK VINA RESULT:    -4.352     18.283     19.349
REMARK INTER + INTRA:          -6.753
REMARK INTER:                  -6.232
REMARK INTRA:                  -0.521
REMARK UNBOUND:                -0.365
REMARK SMILES O=C([O-])CCCCCCCC(=O)[O-]
REMARK SMILES IDX 7 1 6 2 5 3 4 4 2 5 1 6 3 7 8 8 9 9 10 10 11 11 12 12 13 13
REMARK H PARENT
REMARK Flexibility Score: inf
ROOT
ATOM      1  C   UNL     1      41.179  61.505   8.361  1.00  0.00     0.000 C 
ENDROOT
BRANCH   1   2
ATOM      2  C   UNL     1      41.608  60.526   7.256  1.00  0.00     0.000 C 
BRANCH   2   3
ATOM      3  C   UNL     1      42.002  59.148   7.805  1.00  0.00     0.006 C 
BRANCH   3   4
ATOM      4  C   UNL     1      40.847  58.522   8.594  1.00  0.00     0.053 C 
BRANCH   4   5
ATOM      5  C   UNL     1      39.755  58.089   7.668  1.00  0.00     0.041 C 
ATOM      6  O   UNL     1      38.551  58.322   7.953  1.00  0.00    -0.550 OA
ATOM      7  O   UNL     1      40.069  57.469   6.464  1.00  0.00    -0.550 OA
ENDBRANCH   4   5
ENDBRANCH   3   4
ENDBRANCH   2   3
ENDBRANCH   1   2
BRANCH   1   8
ATOM      8  C   UNL     1      39.788  62.106   8.112  1.00  0.00     0.000 C 
BRANCH   8   9
ATOM      9  C   UNL     1      39.606  63.412   8.899  1.00  0.00     0.006 C 
BRANCH   9  10
ATOM     10  C   UNL     1      39.306  64.606   7.984  1.00  0.00     0.053 C 
BRANCH  10  11
ATOM     11  C   UNL     1      40.476  64.945   7.111  1.00  0.00     0.041 C 
ATOM     12  O   UNL     1      40.304  65.191   5.888  1.00  0.00    -0.550 OA
ATOM     13  O   UNL     1      41.752  65.023   7.655  1.00  0.00    -0.550 OA
ENDBRANCH  10  11
ENDBRANCH   9  10
ENDBRANCH   8   9
ENDBRANCH   1   8
TORSDOF 8
ENDMDL
MODEL 9
REMARK VINA RESULT:    -4.256     17.083     18.906
REMARK INTER + INTRA:          -6.611
REMARK INTER:                  -6.121
REMARK INTRA:                  -0.491
REMARK UNBOUND:                -0.365
REMARK SMILES O=C([O-])CCCCCCCC(=O)[O-]
REMARK SMILES IDX 7 1 6 2 5 3 4 4 2 5 1 6 3 7 8 8 9 9 10 10 11 11 12 12 13 13
REMARK H PARENT
REMARK Flexibility Score: inf
ROOT
ATOM      1  C   UNL     1      41.656  61.457   7.400  1.00  0.00     0.000 C 
ENDROOT
BRANCH   1   2
ATOM      2  C   UNL     1      40.660  62.075   8.396  1.00  0.00     0.000 C 
BRANCH   2   3
ATOM      3  C   UNL     1      40.718  63.609   8.417  1.00  0.00     0.006 C 
BRANCH   3   4
ATOM      4  C   UNL     1      39.309  64.210   8.366  1.00  0.00     0.053 C 
BRANCH   4   5
ATOM      5  C   UNL     1      39.136  65.031   7.127  1.00  0.00     0.041 C 
ATOM      6  O   UNL     1      38.136  65.786   7.001  1.00  0.00    -0.550 OA
ATOM      7  O   UNL     1      40.104  64.998   6.130  1.00  0.00    -0.550 OA
ENDBRANCH   4   5
ENDBRANCH   3   4
ENDBRANCH   2   3
ENDBRANCH   1   2
BRANCH   1   8
ATOM      8  C   UNL     1      41.901  59.964   7.658  1.00  0.00     0.000 C 
BRANCH   8   9
ATOM      9  C   UNL     1      40.663  59.304   8.283  1.00  0.00     0.006 C 
BRANCH   9  10
ATOM     10  C   UNL     1      39.799  58.584   7.239  1.00  0.00     0.053 C 
BRANCH  10  11
ATOM     11  C   UNL     1      38.537  59.336   6.946  1.00  0.00     0.041 C 
ATOM     12  O   UNL     1      38.555  60.324   6.164  1.00  0.00    -0.550 OA
ATOM     13  O   UNL     1      37.335  58.927   7.509  1.00  0.00    -0.550 OA
ENDBRANCH  10  11
ENDBRANCH   9  10
ENDBRANCH   8   9
ENDBRANCH   1   8
TORSDOF 8
ENDMDL
