MODEL 1
REMARK VINA RESULT:    -3.807      0.000      0.000
REMARK INTER + INTRA:          -4.064
REMARK INTER:                  -4.697
REMARK INTRA:                   0.632
REMARK UNBOUND:                 0.632
REMARK SMILES C=C1[C@H]2CC[C@@H]3[C@H]2C(C)(C)CCC[C@]13C
REMARK SMILES IDX 14 1 6 2 7 3 3 4 2 5 1 6 4 7 5 8 15 9 8 10 9 11 10 12 11 13
REMARK SMILES IDX 13 15 12 16
REMARK H PARENT
REMARK Flexibility Score: 80.00
ROOT
ATOM      1  C   UNL     1     134.195 137.474 134.090  1.00  0.00    -0.008 C 
ATOM      2  C   UNL     1     133.680 136.192 133.325  1.00  0.00     0.003 C 
ATOM      3  C   UNL     1     132.629 135.571 134.268  1.00  0.00     0.006 C 
ATOM      4  C   UNL     1     131.850 136.878 134.420  1.00  0.00     0.019 C 
ATOM      5  C   UNL     1     132.929 137.843 134.823  1.00  0.00    -0.068 C 
ATOM      6  C   UNL     1     132.756 138.899 135.627  1.00  0.00     0.009 C 
ATOM      7  C   UNL     1     131.508 137.190 132.944  1.00  0.00     0.008 C 
ATOM      8  C   UNL     1     132.727 136.621 132.175  1.00  0.00     0.005 C 
ATOM      9  C   UNL     1     134.634 138.626 133.144  1.00  0.00     0.016 C 
ENDROOT
BRANCH   3  10
ATOM     10  C   UNL     1     133.097 134.773 135.559  1.00  0.00    -0.032 C 
ATOM     11  C   UNL     1     132.908 133.256 135.277  1.00  0.00     0.011 C 
ATOM     12  C   UNL     1     132.201 135.098 136.783  1.00  0.00     0.011 C 
BRANCH  10  13
ATOM     13  C   UNL     1     134.600 134.937 135.924  1.00  0.00     0.007 CG0
ATOM     14  G   UNL     1     135.048 136.353 136.277  1.00  0.00     0.000 G0
ENDBRANCH  10  13
ENDBRANCH   3  10
BRANCH   1  15
ATOM     15  C   UNL     1     135.387 137.172 135.035  1.00  0.00     0.011 C 
BRANCH  15  16
ATOM     16  C   UNL     1     135.062 136.345 136.276  1.00  0.00     0.001 CG0
ATOM     17  G   UNL     1     134.604 134.931 135.931  1.00  0.00     0.000 G0
ENDBRANCH  15  16
ENDBRANCH   1  15
TORSDOF 0
ENDMDL
MODEL 2
REMARK VINA RESULT:    -3.775      3.117      4.773
REMARK INTER + INTRA:          -4.025
REMARK INTER:                  -4.655
REMARK INTRA:                   0.630
REMARK UNBOUND:                 0.632
REMARK SMILES C=C1[C@H]2CC[C@@H]3[C@H]2C(C)(C)CCC[C@]13C
REMARK SMILES IDX 14 1 6 2 7 3 3 4 2 5 1 6 4 7 5 8 15 9 8 10 9 11 10 12 11 13
REMARK SMILES IDX 13 15 12 16
REMARK H PARENT
REMARK Flexibility Score: 80.00
ROOT
ATOM      1  C   UNL     1     135.127 134.155 134.114  1.00  0.00    -0.008 C 
ATOM      2  C   UNL     1     136.451 133.719 133.373  1.00  0.00     0.003 C 
ATOM      3  C   UNL     1     137.104 132.687 134.316  1.00  0.00     0.006 C 
ATOM      4  C   UNL     1     135.836 131.840 134.429  1.00  0.00     0.019 C 
ATOM      5  C   UNL     1     134.808 132.862 134.823  1.00  0.00    -0.068 C 
ATOM      6  C   UNL     1     133.744 132.624 135.600  1.00  0.00     0.009 C 
ATOM      7  C   UNL     1     135.576 131.503 132.941  1.00  0.00     0.008 C 
ATOM      8  C   UNL     1     136.098 132.760 132.201  1.00  0.00     0.005 C 
ATOM      9  C   UNL     1     133.976 134.548 133.148  1.00  0.00     0.016 C 
ENDROOT
BRANCH   3  10
ATOM     10  C   UNL     1     137.848 133.178 135.632  1.00  0.00    -0.032 C 
ATOM     11  C   UNL     1     139.378 133.071 135.382  1.00  0.00     0.011 C 
ATOM     12  C   UNL     1     137.542 132.250 136.836  1.00  0.00     0.011 C 
BRANCH  10  13
ATOM     13  C   UNL     1     137.598 134.665 136.012  1.00  0.00     0.007 CG0
ATOM     14  G   UNL     1     136.152 135.038 136.330  1.00  0.00     0.000 G0
ENDBRANCH  10  13
ENDBRANCH   3  10
BRANCH   1  15
ATOM     15  C   UNL     1     135.346 135.348 135.082  1.00  0.00     0.011 C 
BRANCH  15  16
ATOM     16  C   UNL     1     136.167 135.051 136.333  1.00  0.00     0.001 CG0
ATOM     17  G   UNL     1     137.606 134.661 136.006  1.00  0.00     0.000 G0
ENDBRANCH  15  16
ENDBRANCH   1  15
TORSDOF 0
ENDMDL
MODEL 3
REMARK VINA RESULT:    -3.746      4.554      6.719
REMARK INTER + INTRA:          -3.990
REMARK INTER:                  -4.619
REMARK INTRA:                   0.629
REMARK UNBOUND:                 0.632
REMARK SMILES C=C1[C@H]2CC[C@@H]3[C@H]2C(C)(C)CCC[C@]13C
REMARK SMILES IDX 14 1 6 2 7 3 3 4 2 5 1 6 4 7 5 8 15 9 8 10 9 11 10 12 11 13
REMARK SMILES IDX 13 15 12 16
REMARK H PARENT
REMARK Flexibility Score: 80.00
ROOT
ATOM      1  C   UNL     1     138.422 135.133 134.179  1.00  0.00    -0.008 C 
ATOM      2  C   UNL     1     138.822 136.441 133.388  1.00  0.00     0.003 C 
ATOM      3  C   UNL     1     139.939 137.083 134.237  1.00  0.00     0.006 C 
ATOM      4  C   UNL     1     140.769 135.800 134.295  1.00  0.00     0.019 C 
ATOM      5  C   UNL     1     139.763 134.796 134.784  1.00  0.00    -0.068 C 
ATOM      6  C   UNL     1     140.043 133.736 135.552  1.00  0.00     0.009 C 
ATOM      7  C   UNL     1     140.978 135.517 132.789  1.00  0.00     0.008 C 
ATOM      8  C   UNL     1     139.674 136.056 132.147  1.00  0.00     0.005 C 
ATOM      9  C   UNL     1     137.930 133.980 133.263  1.00  0.00     0.016 C 
ENDROOT
BRANCH   3  10
ATOM     10  C   UNL     1     139.572 137.850 135.579  1.00  0.00    -0.032 C 
ATOM     11  C   UNL     1     139.693 139.375 135.304  1.00  0.00     0.011 C 
ATOM     12  C   UNL     1     140.586 137.534 136.709  1.00  0.00     0.011 C 
BRANCH  10  13
ATOM     13  C   UNL     1     138.115 137.639 136.079  1.00  0.00     0.007 CG0
ATOM     14  G   UNL     1     137.740 136.207 136.453  1.00  0.00     0.000 G0
ENDBRANCH  10  13
ENDBRANCH   3  10
BRANCH   1  15
ATOM     15  C   UNL     1     137.317 135.386 135.238  1.00  0.00     0.011 C 
BRANCH  15  16
ATOM     16  C   UNL     1     137.733 136.207 136.455  1.00  0.00     0.001 CG0
ATOM     17  G   UNL     1     138.117 137.639 136.089  1.00  0.00     0.000 G0
ENDBRANCH  15  16
ENDBRANCH   1  15
TORSDOF 0
ENDMDL
MODEL 4
REMARK VINA RESULT:    -3.721      3.123      4.685
REMARK INTER + INTRA:          -3.958
REMARK INTER:                  -4.590
REMARK INTRA:                   0.632
REMARK UNBOUND:                 0.632
REMARK SMILES C=C1[C@H]2CC[C@@H]3[C@H]2C(C)(C)CCC[C@]13C
REMARK SMILES IDX 14 1 6 2 7 3 3 4 2 5 1 6 4 7 5 8 15 9 8 10 9 11 10 12 11 13
REMARK SMILES IDX 13 15 12 16
REMARK H PARENT
REMARK Flexibility Score: 80.00
ROOT
ATOM      1  C   UNL     1     137.386 138.305 134.159  1.00  0.00    -0.008 C 
ATOM      2  C   UNL     1     136.111 138.805 133.373  1.00  0.00     0.003 C 
ATOM      3  C   UNL     1     135.515 139.916 134.264  1.00  0.00     0.006 C 
ATOM      4  C   UNL     1     136.838 140.676 134.372  1.00  0.00     0.019 C 
ATOM      5  C   UNL     1     137.783 139.599 134.826  1.00  0.00    -0.068 C 
ATOM      6  C   UNL     1     138.846 139.791 135.616  1.00  0.00     0.009 C 
ATOM      7  C   UNL     1     137.150 140.935 132.878  1.00  0.00     0.008 C 
ATOM      8  C   UNL     1     136.553 139.690 132.175  1.00  0.00     0.005 C 
ATOM      9  C   UNL     1     138.525 137.795 133.233  1.00  0.00     0.016 C 
ENDROOT
BRANCH   3  10
ATOM     10  C   UNL     1     134.714 139.531 135.580  1.00  0.00    -0.032 C 
ATOM     11  C   UNL     1     133.200 139.742 135.296  1.00  0.00     0.011 C 
ATOM     12  C   UNL     1     135.068 140.476 136.757  1.00  0.00     0.011 C 
BRANCH  10  13
ATOM     13  C   UNL     1     134.844 138.044 136.017  1.00  0.00     0.007 CG0
ATOM     14  G   UNL     1     136.252 137.576 136.377  1.00  0.00     0.000 G0
ENDBRANCH  10  13
ENDBRANCH   3  10
BRANCH   1  15
ATOM     15  C   UNL     1     137.065 137.169 135.165  1.00  0.00     0.011 C 
BRANCH  15  16
ATOM     16  C   UNL     1     136.240 137.571 136.385  1.00  0.00     0.001 CG0
ATOM     17  G   UNL     1     134.835 138.037 136.011  1.00  0.00     0.000 G0
ENDBRANCH  15  16
ENDBRANCH   1  15
TORSDOF 0
ENDMDL
MODEL 5
REMARK VINA RESULT:    -3.674      4.134      6.181
REMARK INTER + INTRA:          -3.900
REMARK INTER:                  -4.527
REMARK INTRA:                   0.626
REMARK UNBOUND:                 0.632
REMARK SMILES C=C1[C@H]2CC[C@@H]3[C@H]2C(C)(C)CCC[C@]13C
REMARK SMILES IDX 14 1 6 2 7 3 3 4 2 5 1 6 4 7 5 8 15 9 8 10 9 11 10 12 11 13
REMARK SMILES IDX 13 15 12 16
REMARK H PARENT
REMARK Flexibility Score: 80.00
ROOT
ATOM      1  C   UNL     1     138.358 137.618 134.891  1.00  0.00    -0.008 C 
ATOM      2  C   UNL     1     138.530 137.297 136.428  1.00  0.00     0.003 C 
ATOM      3  C   UNL     1     139.412 136.031 136.465  1.00  0.00     0.006 C 
ATOM      4  C   UNL     1     140.490 136.635 135.565  1.00  0.00     0.019 C 
ATOM      5  C   UNL     1     139.687 137.111 134.387  1.00  0.00    -0.068 C 
ATOM      6  C   UNL     1     140.126 137.155 133.123  1.00  0.00     0.009 C 
ATOM      7  C   UNL     1     140.875 137.897 136.374  1.00  0.00     0.008 C 
ATOM      8  C   UNL     1     139.542 138.295 137.056  1.00  0.00     0.005 C 
ATOM      9  C   UNL     1     138.200 139.133 134.588  1.00  0.00     0.016 C 
ENDROOT
BRANCH   3  10
ATOM     10  C   UNL     1     138.783 134.617 136.106  1.00  0.00    -0.032 C 
ATOM     11  C   UNL     1     138.592 133.830 137.433  1.00  0.00     0.011 C 
ATOM     12  C   UNL     1     139.748 133.770 135.238  1.00  0.00     0.011 C 
BRANCH  10  13
ATOM     13  C   UNL     1     137.371 134.672 135.456  1.00  0.00     0.007 CG0
ATOM     14  G   UNL     1     137.286 135.380 134.107  1.00  0.00     0.000 G0
ENDBRANCH  10  13
ENDBRANCH   3  10
BRANCH   1  15
ATOM     15  C   UNL     1     137.143 136.890 134.257  1.00  0.00     0.011 C 
BRANCH  15  16
ATOM     16  C   UNL     1     137.273 135.376 134.111  1.00  0.00     0.001 CG0
ATOM     17  G   UNL     1     137.375 134.668 135.459  1.00  0.00     0.000 G0
ENDBRANCH  15  16
ENDBRANCH   1  15
TORSDOF 0
ENDMDL
MODEL 6
REMARK VINA RESULT:    -3.669      2.647      4.863
REMARK INTER + INTRA:          -3.894
REMARK INTER:                  -4.520
REMARK INTRA:                   0.626
REMARK UNBOUND:                 0.632
REMARK SMILES C=C1[C@H]2CC[C@@H]3[C@H]2C(C)(C)CCC[C@]13C
REMARK SMILES IDX 14 1 6 2 7 3 3 4 2 5 1 6 4 7 5 8 15 9 8 10 9 11 10 12 11 13
REMARK SMILES IDX 13 15 12 16
REMARK H PARENT
REMARK Flexibility Score: 80.00
ROOT
ATOM      1  C   UNL     1     134.715 138.304 135.038  1.00  0.00    -0.008 C 
ATOM      2  C   UNL     1     135.188 138.563 136.522  1.00  0.00     0.003 C 
ATOM      3  C   UNL     1     136.440 139.456 136.382  1.00  0.00     0.006 C 
ATOM      4  C   UNL     1     135.733 140.477 135.490  1.00  0.00     0.019 C 
ATOM      5  C   UNL     1     135.151 139.606 134.413  1.00  0.00    -0.068 C 
ATOM      6  C   UNL     1     134.973 139.973 133.138  1.00  0.00     0.009 C 
ATOM      7  C   UNL     1     134.555 140.897 136.402  1.00  0.00     0.008 C 
ATOM      8  C   UNL     1     134.246 139.601 137.193  1.00  0.00     0.005 C 
ATOM      9  C   UNL     1     133.179 138.117 134.900  1.00  0.00     0.016 C 
ENDROOT
BRANCH   3  10
ATOM     10  C   UNL     1     137.818 138.818 135.916  1.00  0.00    -0.032 C 
ATOM     11  C   UNL     1     138.739 138.709 137.164  1.00  0.00     0.011 C 
ATOM     12  C   UNL     1     138.560 139.739 134.913  1.00  0.00     0.011 C 
BRANCH  10  13
ATOM     13  C   UNL     1     137.716 137.371 135.355  1.00  0.00     0.007 CG0
ATOM     14  G   UNL     1     136.869 137.203 134.097  1.00  0.00     0.000 G0
ENDBRANCH  10  13
ENDBRANCH   3  10
BRANCH   1  15
ATOM     15  C   UNL     1     135.391 137.060 134.401  1.00  0.00     0.011 C 
BRANCH  15  16
ATOM     16  C   UNL     1     136.880 137.194 134.093  1.00  0.00     0.001 CG0
ATOM     17  G   UNL     1     137.722 137.372 135.354  1.00  0.00     0.000 G0
ENDBRANCH  15  16
ENDBRANCH   1  15
TORSDOF 0
ENDMDL
MODEL 7
REMARK VINA RESULT:    -3.667      2.904      5.164
REMARK INTER + INTRA:          -3.893
REMARK INTER:                  -4.528
REMARK INTRA:                   0.635
REMARK UNBOUND:                 0.632
REMARK SMILES C=C1[C@H]2CC[C@@H]3[C@H]2C(C)(C)CCC[C@]13C
REMARK SMILES IDX 14 1 6 2 7 3 3 4 2 5 1 6 4 7 5 8 15 9 8 10 9 11 10 12 11 13
REMARK SMILES IDX 13 15 12 16
REMARK H PARENT
REMARK Flexibility Score: 80.00
ROOT
ATOM      1  C   UNL     1     137.620 134.674 135.964  1.00  0.00    -0.008 C 
ATOM      2  C   UNL     1     136.723 133.809 136.934  1.00  0.00     0.003 C 
ATOM      3  C   UNL     1     135.882 132.918 135.996  1.00  0.00     0.006 C 
ATOM      4  C   UNL     1     137.101 132.404 135.229  1.00  0.00     0.019 C 
ATOM      5  C   UNL     1     137.791 133.682 134.842  1.00  0.00    -0.068 C 
ATOM      6  C   UNL     1     138.509 133.861 133.726  1.00  0.00     0.009 C 
ATOM      7  C   UNL     1     137.932 131.786 136.379  1.00  0.00     0.008 C 
ATOM      8  C   UNL     1     137.588 132.695 137.586  1.00  0.00     0.005 C 
ATOM      9  C   UNL     1     138.998 135.057 136.571  1.00  0.00     0.016 C 
ENDROOT
BRANCH   3  10
ATOM     10  C   UNL     1     134.654 133.541 135.203  1.00  0.00    -0.032 C 
ATOM     11  C   UNL     1     133.347 133.050 135.887  1.00  0.00     0.011 C 
ATOM     12  C   UNL     1     134.598 133.021 133.744  1.00  0.00     0.011 C 
BRANCH  10  13
ATOM     13  C   UNL     1     134.573 135.094 135.232  1.00  0.00     0.007 CG0
ATOM     14  G   UNL     1     135.738 135.834 134.581  1.00  0.00     0.000 G0
ENDBRANCH  10  13
ENDBRANCH   3  10
BRANCH   1  15
ATOM     15  C   UNL     1     136.929 135.990 135.521  1.00  0.00     0.011 C 
BRANCH  15  16
ATOM     16  C   UNL     1     135.732 135.834 134.586  1.00  0.00     0.001 CG0
ATOM     17  G   UNL     1     134.574 135.086 135.241  1.00  0.00     0.000 G0
ENDBRANCH  15  16
ENDBRANCH   1  15
TORSDOF 0
ENDMDL
MODEL 8
REMARK VINA RESULT:    -3.625      4.251      6.665
REMARK INTER + INTRA:          -3.840
REMARK INTER:                  -4.469
REMARK INTRA:                   0.629
REMARK UNBOUND:                 0.632
REMARK SMILES C=C1[C@H]2CC[C@@H]3[C@H]2C(C)(C)CCC[C@]13C
REMARK SMILES IDX 14 1 6 2 7 3 3 4 2 5 1 6 4 7 5 8 15 9 8 10 9 11 10 12 11 13
REMARK SMILES IDX 13 15 12 16
REMARK H PARENT
REMARK Flexibility Score: 80.00
ROOT
ATOM      1  C   UNL     1     139.718 136.612 134.390  1.00  0.00    -0.008 C 
ATOM      2  C   UNL     1     140.090 138.044 134.944  1.00  0.00     0.003 C 
ATOM      3  C   UNL     1     138.769 138.594 135.522  1.00  0.00     0.006 C 
ATOM      4  C   UNL     1     138.513 137.354 136.380  1.00  0.00     0.019 C 
ATOM      5  C   UNL     1     138.637 136.244 135.376  1.00  0.00    -0.068 C 
ATOM      6  C   UNL     1     137.960 135.090 135.416  1.00  0.00     0.009 C 
ATOM      7  C   UNL     1     139.802 137.320 137.237  1.00  0.00     0.008 C 
ATOM      8  C   UNL     1     140.874 137.895 136.278  1.00  0.00     0.005 C 
ATOM      9  C   UNL     1     140.891 135.596 134.459  1.00  0.00     0.016 C 
ENDROOT
BRANCH   3  10
ATOM     10  C   UNL     1     137.637 139.125 134.541  1.00  0.00    -0.032 C 
ATOM     11  C   UNL     1     137.644 140.678 134.603  1.00  0.00     0.011 C 
ATOM     12  C   UNL     1     136.227 138.681 135.009  1.00  0.00     0.011 C 
BRANCH  10  13
ATOM     13  C   UNL     1     137.850 138.773 133.041  1.00  0.00     0.007 CG0
ATOM     14  G   UNL     1     137.850 137.286 132.699  1.00  0.00     0.000 G0
ENDBRANCH  10  13
ENDBRANCH   3  10
BRANCH   1  15
ATOM     15  C   UNL     1     139.223 136.648 132.920  1.00  0.00     0.011 C 
BRANCH  15  16
ATOM     16  C   UNL     1     137.857 137.290 132.691  1.00  0.00     0.001 CG0
ATOM     17  G   UNL     1     137.846 138.776 133.041  1.00  0.00     0.000 G0
ENDBRANCH  15  16
ENDBRANCH   1  15
TORSDOF 0
ENDMDL
MODEL 9
REMARK VINA RESULT:    -3.613      4.497      6.663
REMARK INTER + INTRA:          -3.826
REMARK INTER:                  -4.452
REMARK INTRA:                   0.626
REMARK UNBOUND:                 0.632
REMARK SMILES C=C1[C@H]2CC[C@@H]3[C@H]2C(C)(C)CCC[C@]13C
REMARK SMILES IDX 14 1 6 2 7 3 3 4 2 5 1 6 4 7 5 8 15 9 8 10 9 11 10 12 11 13
REMARK SMILES IDX 13 15 12 16
REMARK H PARENT
REMARK Flexibility Score: 80.00
ROOT
ATOM      1  C   UNL     1     138.743 136.468 136.056  1.00  0.00    -0.008 C 
ATOM      2  C   UNL     1     140.267 136.593 135.660  1.00  0.00     0.003 C 
ATOM      3  C   UNL     1     140.251 137.076 134.194  1.00  0.00     0.006 C 
ATOM      4  C   UNL     1     139.317 138.251 134.488  1.00  0.00     0.019 C 
ATOM      5  C   UNL     1     138.179 137.578 135.203  1.00  0.00    -0.068 C 
ATOM      6  C   UNL     1     136.899 137.967 135.152  1.00  0.00     0.009 C 
ATOM      7  C   UNL     1     140.128 139.009 135.565  1.00  0.00     0.008 C 
ATOM      8  C   UNL     1     140.869 137.870 136.311  1.00  0.00     0.005 C 
ATOM      9  C   UNL     1     138.468 136.741 137.560  1.00  0.00     0.016 C 
ENDROOT
BRANCH   3  10
ATOM     10  C   UNL     1     139.897 136.056 133.029  1.00  0.00    -0.032 C 
ATOM     11  C   UNL     1     141.219 135.693 132.296  1.00  0.00     0.011 C 
ATOM     12  C   UNL     1     138.979 136.707 131.963  1.00  0.00     0.011 C 
BRANCH  10  13
ATOM     13  C   UNL     1     139.305 134.697 133.502  1.00  0.00     0.007 CG0
ATOM     14  G   UNL     1     137.967 134.772 134.233  1.00  0.00     0.000 G0
ENDBRANCH  10  13
ENDBRANCH   3  10
BRANCH   1  15
ATOM     15  C   UNL     1     138.148 135.075 135.722  1.00  0.00     0.011 C 
BRANCH  15  16
ATOM     16  C   UNL     1     137.974 134.760 134.239  1.00  0.00     0.001 CG0
ATOM     17  G   UNL     1     139.306 134.696 133.496  1.00  0.00     0.000 G0
ENDBRANCH  15  16
ENDBRANCH   1  15
TORSDOF 0
ENDMDL
