MODEL 1
REMARK VINA RESULT:    -1.114      0.000      0.000
REMARK INTER + INTRA:          -4.633
REMARK INTER:                  -2.938
REMARK INTRA:                  -1.694
REMARK UNBOUND:                -1.694
REMARK SMILES CCCCCCCCCCCCCCCCCCCCCCCCCCCCCC(=O)[O-]
REMARK SMILES IDX 16 1 17 2 18 3 19 4 20 5 21 6 22 7 23 8 24 9 25 10 26 11
REMARK SMILES IDX 27 12 28 13 29 14 30 15 31 16 32 17 15 18 14 19 13 20 12 21
REMARK SMILES IDX 11 22 10 23 9 24 8 25 7 26 6 27 5 28 4 29 3 30 2 31 1 32
REMARK H PARENT
REMARK Flexibility Score: inf
ROOT
ATOM      1  C   UNL     1      -2.479 -22.497  15.416  1.00  0.00     0.000 C 
ENDROOT
BRANCH   1   2
ATOM      2  C   UNL     1      -3.273 -21.176  15.401  1.00  0.00     0.000 C 
BRANCH   2   3
ATOM      3  C   UNL     1      -4.788 -21.332  15.630  1.00  0.00     0.000 C 
BRANCH   3   4
ATOM      4  C   UNL     1      -5.146 -22.641  16.358  1.00  0.00     0.000 C 
BRANCH   4   5
ATOM      5  C   UNL     1      -6.623 -23.032  16.192  1.00  0.00     0.000 C 
BRANCH   5   6
ATOM      6  C   UNL     1      -7.588 -21.879  16.527  1.00  0.00     0.000 C 
BRANCH   6   7
ATOM      7  C   UNL     1      -8.379 -22.157  17.818  1.00  0.00     0.000 C 
BRANCH   7   8
ATOM      8  C   UNL     1      -9.796 -22.685  17.526  1.00  0.00     0.000 C 
BRANCH   8   9
ATOM      9  C   UNL     1     -10.625 -22.863  18.810  1.00  0.00     0.000 C 
BRANCH   9  10
ATOM     10  C   UNL     1     -10.467 -21.664  19.761  1.00  0.00     0.000 C 
BRANCH  10  11
ATOM     11  C   UNL     1      -9.509 -21.952  20.928  1.00  0.00     0.000 C 
BRANCH  11  12
ATOM     12  C   UNL     1     -10.240 -22.489  22.170  1.00  0.00     0.000 C 
BRANCH  12  13
ATOM     13  C   UNL     1     -10.537 -21.392  23.208  1.00  0.00     0.006 C 
BRANCH  13  14
ATOM     14  C   UNL     1      -9.555 -20.216  23.137  1.00  0.00     0.053 C 
BRANCH  14  15
ATOM     15  C   UNL     1     -10.242 -18.968  22.677  1.00  0.00     0.041 C 
ATOM     16  O   UNL     1     -10.882 -18.959  21.589  1.00  0.00    -0.550 OA
ATOM     17  O   UNL     1     -10.223 -17.829  23.471  1.00  0.00    -0.550 OA
ENDBRANCH  14  15
ENDBRANCH  13  14
ENDBRANCH  12  13
ENDBRANCH  11  12
ENDBRANCH  10  11
ENDBRANCH   9  10
ENDBRANCH   8   9
ENDBRANCH   7   8
ENDBRANCH   6   7
ENDBRANCH   5   6
ENDBRANCH   4   5
ENDBRANCH   3   4
ENDBRANCH   2   3
ENDBRANCH   1   2
BRANCH   1  18
ATOM     18  C   UNL     1      -1.182 -22.465  16.249  1.00  0.00     0.000 C 
BRANCH  18  19
ATOM     19  C   UNL     1       0.050 -23.095  15.569  1.00  0.00     0.000 C 
BRANCH  19  20
ATOM     20  C   UNL     1       1.405 -22.750  16.219  1.00  0.00     0.000 C 
BRANCH  20  21
ATOM     21  C   UNL     1       2.361 -21.918  15.339  1.00  0.00     0.000 C 
BRANCH  21  22
ATOM     22  C   UNL     1       2.127 -22.043  13.823  1.00  0.00     0.000 C 
BRANCH  22  23
ATOM     23  C   UNL     1       3.003 -23.125  13.170  1.00  0.00     0.000 C 
BRANCH  23  24
ATOM     24  C   UNL     1       4.461 -23.065  13.653  1.00  0.00    -0.000 C 
BRANCH  24  25
ATOM     25  C   UNL     1       5.458 -22.907  12.491  1.00  0.00    -0.000 C 
BRANCH  25  26
ATOM     26  C   UNL     1       6.471 -21.780  12.740  1.00  0.00    -0.000 C 
BRANCH  26  27
ATOM     27  C   UNL     1       7.902 -22.303  12.958  1.00  0.00    -0.000 C 
BRANCH  27  28
ATOM     28  C   UNL     1       8.149 -22.732  14.415  1.00  0.00    -0.000 C 
BRANCH  28  29
ATOM     29  C   UNL     1       7.904 -21.586  15.414  1.00  0.00    -0.000 C 
BRANCH  29  30
ATOM     30  C   UNL     1       8.005 -22.040  16.881  1.00  0.00    -0.000 C 
BRANCH  30  31
ATOM     31  C   UNL     1       6.756 -21.757  17.733  1.00  0.00    -0.003 C 
ATOM     32  C   UNL     1       5.529 -21.417  16.890  1.00  0.00     0.004 C 
ENDBRANCH  30  31
ENDBRANCH  29  30
ENDBRANCH  28  29
ENDBRANCH  27  28
ENDBRANCH  26  27
ENDBRANCH  25  26
ENDBRANCH  24  25
ENDBRANCH  23  24
ENDBRANCH  22  23
ENDBRANCH  21  22
ENDBRANCH  20  21
ENDBRANCH  19  20
ENDBRANCH  18  19
ENDBRANCH   1  18
TORSDOF 28
ENDMDL
MODEL 2
REMARK VINA RESULT:    -0.995      5.551     15.360
REMARK INTER + INTRA:          -4.317
REMARK INTER:                  -2.197
REMARK INTRA:                  -2.120
REMARK UNBOUND:                -1.694
REMARK SMILES CCCCCCCCCCCCCCCCCCCCCCCCCCCCCC(=O)[O-]
REMARK SMILES IDX 16 1 17 2 18 3 19 4 20 5 21 6 22 7 23 8 24 9 25 10 26 11
REMARK SMILES IDX 27 12 28 13 29 14 30 15 31 16 32 17 15 18 14 19 13 20 12 21
REMARK SMILES IDX 11 22 10 23 9 24 8 25 7 26 6 27 5 28 4 29 3 30 2 31 1 32
REMARK H PARENT
REMARK Flexibility Score: inf
ROOT
ATOM      1  C   UNL     1      -1.728 -21.487  16.231  1.00  0.00     0.000 C 
ENDROOT
BRANCH   1   2
ATOM      2  C   UNL     1      -0.502 -21.489  17.165  1.00  0.00     0.000 C 
BRANCH   2   3
ATOM      3  C   UNL     1       0.722 -22.249  16.620  1.00  0.00     0.000 C 
BRANCH   3   4
ATOM      4  C   UNL     1       1.307 -21.600  15.352  1.00  0.00     0.000 C 
BRANCH   4   5
ATOM      5  C   UNL     1       1.670 -22.627  14.268  1.00  0.00     0.000 C 
BRANCH   5   6
ATOM      6  C   UNL     1       3.123 -23.125  14.380  1.00  0.00     0.000 C 
BRANCH   6   7
ATOM      7  C   UNL     1       3.981 -22.644  13.196  1.00  0.00     0.000 C 
BRANCH   7   8
ATOM      8  C   UNL     1       5.486 -22.671  13.522  1.00  0.00     0.000 C 
BRANCH   8   9
ATOM      9  C   UNL     1       5.759 -23.110  14.971  1.00  0.00     0.000 C 
BRANCH   9  10
ATOM     10  C   UNL     1       6.084 -21.911  15.878  1.00  0.00     0.000 C 
BRANCH  10  11
ATOM     11  C   UNL     1       7.436 -22.057  16.597  1.00  0.00     0.000 C 
BRANCH  11  12
ATOM     12  C   UNL     1       8.605 -22.248  15.617  1.00  0.00     0.000 C 
BRANCH  12  13
ATOM     13  C   UNL     1       8.696 -21.124  14.571  1.00  0.00     0.006 C 
BRANCH  13  14
ATOM     14  C   UNL     1       9.050 -21.635  13.169  1.00  0.00     0.053 C 
BRANCH  14  15
ATOM     15  C   UNL     1       8.398 -20.801  12.110  1.00  0.00     0.041 C 
ATOM     16  O   UNL     1       7.550 -19.922  12.428  1.00  0.00    -0.550 OA
ATOM     17  O   UNL     1       8.761 -20.955  10.779  1.00  0.00    -0.550 OA
ENDBRANCH  14  15
ENDBRANCH  13  14
ENDBRANCH  12  13
ENDBRANCH  11  12
ENDBRANCH  10  11
ENDBRANCH   9  10
ENDBRANCH   8   9
ENDBRANCH   7   8
ENDBRANCH   6   7
ENDBRANCH   5   6
ENDBRANCH   4   5
ENDBRANCH   3   4
ENDBRANCH   2   3
ENDBRANCH   1   2
BRANCH   1  18
ATOM     18  C   UNL     1      -2.174 -22.879  15.741  1.00  0.00     0.000 C 
BRANCH  18  19
ATOM     19  C   UNL     1      -3.695 -23.124  15.762  1.00  0.00     0.000 C 
BRANCH  19  20
ATOM     20  C   UNL     1      -4.427 -22.602  17.016  1.00  0.00     0.000 C 
BRANCH  20  21
ATOM     21  C   UNL     1      -5.693 -21.767  16.735  1.00  0.00     0.000 C 
BRANCH  21  22
ATOM     22  C   UNL     1      -6.959 -22.585  16.426  1.00  0.00     0.000 C 
BRANCH  22  23
ATOM     23  C   UNL     1      -8.255 -21.836  16.779  1.00  0.00     0.000 C 
BRANCH  23  24
ATOM     24  C   UNL     1      -9.250 -22.722  17.545  1.00  0.00    -0.000 C 
BRANCH  24  25
ATOM     25  C   UNL     1      -9.484 -22.231  18.986  1.00  0.00    -0.000 C 
BRANCH  25  26
ATOM     26  C   UNL     1      -9.584 -20.700  19.072  1.00  0.00    -0.000 C 
BRANCH  26  27
ATOM     27  C   UNL     1     -11.037 -20.203  19.174  1.00  0.00    -0.000 C 
BRANCH  27  28
ATOM     28  C   UNL     1     -11.119 -18.674  19.329  1.00  0.00    -0.000 C 
BRANCH  28  29
ATOM     29  C   UNL     1     -11.124 -18.233  20.804  1.00  0.00    -0.000 C 
BRANCH  29  30
ATOM     30  C   UNL     1      -9.744 -17.755  21.290  1.00  0.00    -0.000 C 
BRANCH  30  31
ATOM     31  C   UNL     1      -9.326 -18.286  22.671  1.00  0.00    -0.003 C 
ATOM     32  C   UNL     1      -9.852 -19.693  22.949  1.00  0.00     0.004 C 
ENDBRANCH  30  31
ENDBRANCH  29  30
ENDBRANCH  28  29
ENDBRANCH  27  28
ENDBRANCH  26  27
ENDBRANCH  25  26
ENDBRANCH  24  25
ENDBRANCH  23  24
ENDBRANCH  22  23
ENDBRANCH  21  22
ENDBRANCH  20  21
ENDBRANCH  19  20
ENDBRANCH  18  19
ENDBRANCH   1  18
TORSDOF 28
ENDMDL
MODEL 3
REMARK VINA RESULT:    -0.915      1.150      2.484
REMARK INTER + INTRA:          -4.106
REMARK INTER:                  -3.550
REMARK INTRA:                  -0.556
REMARK UNBOUND:                -1.694
REMARK SMILES CCCCCCCCCCCCCCCCCCCCCCCCCCCCCC(=O)[O-]
REMARK SMILES IDX 16 1 17 2 18 3 19 4 20 5 21 6 22 7 23 8 24 9 25 10 26 11
REMARK SMILES IDX 27 12 28 13 29 14 30 15 31 16 32 17 15 18 14 19 13 20 12 21
REMARK SMILES IDX 11 22 10 23 9 24 8 25 7 26 6 27 5 28 4 29 3 30 2 31 1 32
REMARK H PARENT
REMARK Flexibility Score: inf
ROOT
ATOM      1  C   UNL     1      -2.658 -22.650  15.932  1.00  0.00     0.000 C 
ENDROOT
BRANCH   1   2
ATOM      2  C   UNL     1      -3.287 -21.331  15.439  1.00  0.00     0.000 C 
BRANCH   2   3
ATOM      3  C   UNL     1      -4.826 -21.315  15.430  1.00  0.00     0.000 C 
BRANCH   3   4
ATOM      4  C   UNL     1      -5.437 -22.617  15.979  1.00  0.00     0.000 C 
BRANCH   4   5
ATOM      5  C   UNL     1      -6.887 -22.442  16.455  1.00  0.00     0.000 C 
BRANCH   5   6
ATOM      6  C   UNL     1      -6.999 -22.287  17.984  1.00  0.00     0.000 C 
BRANCH   6   7
ATOM      7  C   UNL     1      -8.325 -22.858  18.518  1.00  0.00     0.000 C 
BRANCH   7   8
ATOM      8  C   UNL     1      -9.295 -21.750  18.966  1.00  0.00     0.000 C 
BRANCH   8   9
ATOM      9  C   UNL     1     -10.667 -22.310  19.381  1.00  0.00     0.000 C 
BRANCH   9  10
ATOM     10  C   UNL     1     -10.889 -22.205  20.900  1.00  0.00     0.000 C 
BRANCH  10  11
ATOM     11  C   UNL     1     -11.091 -20.757  21.374  1.00  0.00     0.000 C 
BRANCH  11  12
ATOM     12  C   UNL     1     -10.802 -19.731  20.266  1.00  0.00     0.000 C 
BRANCH  12  13
ATOM     13  C   UNL     1     -10.928 -18.276  20.752  1.00  0.00     0.006 C 
BRANCH  13  14
ATOM     14  C   UNL     1      -9.678 -17.778  21.488  1.00  0.00     0.053 C 
BRANCH  14  15
ATOM     15  C   UNL     1      -9.859 -17.860  22.973  1.00  0.00     0.041 C 
ATOM     16  O   UNL     1      -9.313 -17.007  23.726  1.00  0.00    -0.550 OA
ATOM     17  O   UNL     1     -10.670 -18.842  23.523  1.00  0.00    -0.550 OA
ENDBRANCH  14  15
ENDBRANCH  13  14
ENDBRANCH  12  13
ENDBRANCH  11  12
ENDBRANCH  10  11
ENDBRANCH   9  10
ENDBRANCH   8   9
ENDBRANCH   7   8
ENDBRANCH   6   7
ENDBRANCH   5   6
ENDBRANCH   4   5
ENDBRANCH   3   4
ENDBRANCH   2   3
ENDBRANCH   1   2
BRANCH   1  18
ATOM     18  C   UNL     1      -1.263 -22.504  16.571  1.00  0.00     0.000 C 
BRANCH  18  19
ATOM     19  C   UNL     1      -0.092 -23.020  15.712  1.00  0.00     0.000 C 
BRANCH  19  20
ATOM     20  C   UNL     1       1.134 -22.085  15.646  1.00  0.00     0.000 C 
BRANCH  20  21
ATOM     21  C   UNL     1       1.755 -21.918  14.244  1.00  0.00     0.000 C 
BRANCH  21  22
ATOM     22  C   UNL     1       2.565 -23.125  13.740  1.00  0.00     0.000 C 
BRANCH  22  23
ATOM     23  C   UNL     1       4.046 -23.064  14.151  1.00  0.00     0.000 C 
BRANCH  23  24
ATOM     24  C   UNL     1       4.225 -22.916  15.670  1.00  0.00    -0.000 C 
BRANCH  24  25
ATOM     25  C   UNL     1       5.122 -21.720  16.042  1.00  0.00    -0.000 C 
BRANCH  25  26
ATOM     26  C   UNL     1       6.085 -22.047  17.192  1.00  0.00    -0.000 C 
BRANCH  26  27
ATOM     27  C   UNL     1       7.520 -22.319  16.707  1.00  0.00    -0.000 C 
BRANCH  27  28
ATOM     28  C   UNL     1       7.970 -21.317  15.629  1.00  0.00    -0.000 C 
BRANCH  28  29
ATOM     29  C   UNL     1       8.819 -21.981  14.528  1.00  0.00    -0.000 C 
BRANCH  29  30
ATOM     30  C   UNL     1       7.989 -22.882  13.596  1.00  0.00    -0.000 C 
BRANCH  30  31
ATOM     31  C   UNL     1       7.164 -22.131  12.537  1.00  0.00    -0.003 C 
ATOM     32  C   UNL     1       7.924 -20.960  11.916  1.00  0.00     0.004 C 
ENDBRANCH  30  31
ENDBRANCH  29  30
ENDBRANCH  28  29
ENDBRANCH  27  28
ENDBRANCH  26  27
ENDBRANCH  25  26
ENDBRANCH  24  25
ENDBRANCH  23  24
ENDBRANCH  22  23
ENDBRANCH  21  22
ENDBRANCH  20  21
ENDBRANCH  19  20
ENDBRANCH  18  19
ENDBRANCH   1  18
TORSDOF 28
ENDMDL
MODEL 4
REMARK VINA RESULT:    -0.587      4.701     15.038
REMARK INTER + INTRA:          -3.243
REMARK INTER:                  -2.660
REMARK INTRA:                  -0.583
REMARK UNBOUND:                -1.694
REMARK SMILES CCCCCCCCCCCCCCCCCCCCCCCCCCCCCC(=O)[O-]
REMARK SMILES IDX 16 1 17 2 18 3 19 4 20 5 21 6 22 7 23 8 24 9 25 10 26 11
REMARK SMILES IDX 27 12 28 13 29 14 30 15 31 16 32 17 15 18 14 19 13 20 12 21
REMARK SMILES IDX 11 22 10 23 9 24 8 25 7 26 6 27 5 28 4 29 3 30 2 31 1 32
REMARK H PARENT
REMARK Flexibility Score: inf
ROOT
ATOM      1  C   UNL     1       0.002 -21.694  16.014  1.00  0.00     0.000 C 
ENDROOT
BRANCH   1   2
ATOM      2  C   UNL     1       1.369 -21.806  15.309  1.00  0.00     0.000 C 
BRANCH   2   3
ATOM      3  C   UNL     1       2.169 -23.075  15.653  1.00  0.00     0.000 C 
BRANCH   3   4
ATOM      4  C   UNL     1       3.684 -22.896  15.444  1.00  0.00     0.000 C 
BRANCH   4   5
ATOM      5  C   UNL     1       4.052 -22.571  13.989  1.00  0.00     0.000 C 
BRANCH   5   6
ATOM      6  C   UNL     1       5.431 -23.125  13.583  1.00  0.00     0.000 C 
BRANCH   6   7
ATOM      7  C   UNL     1       5.857 -22.626  12.191  1.00  0.00     0.000 C 
BRANCH   7   8
ATOM      8  C   UNL     1       6.442 -21.202  12.239  1.00  0.00     0.000 C 
BRANCH   8   9
ATOM      9  C   UNL     1       7.810 -21.160  12.944  1.00  0.00     0.000 C 
BRANCH   9  10
ATOM     10  C   UNL     1       8.527 -22.520  12.877  1.00  0.00     0.000 C 
BRANCH  10  11
ATOM     11  C   UNL     1       8.807 -23.114  14.267  1.00  0.00     0.000 C 
BRANCH  11  12
ATOM     12  C   UNL     1       9.098 -22.033  15.321  1.00  0.00     0.000 C 
BRANCH  12  13
ATOM     13  C   UNL     1       9.027 -22.569  16.762  1.00  0.00     0.006 C 
BRANCH  13  14
ATOM     14  C   UNL     1       7.611 -22.990  17.176  1.00  0.00     0.053 C 
BRANCH  14  15
ATOM     15  C   UNL     1       6.702 -21.803  17.267  1.00  0.00     0.041 C 
ATOM     16  O   UNL     1       6.765 -20.888  16.400  1.00  0.00    -0.550 OA
ATOM     17  O   UNL     1       5.751 -21.729  18.275  1.00  0.00    -0.550 OA
ENDBRANCH  14  15
ENDBRANCH  13  14
ENDBRANCH  12  13
ENDBRANCH  11  12
ENDBRANCH  10  11
ENDBRANCH   9  10
ENDBRANCH   8   9
ENDBRANCH   7   8
ENDBRANCH   6   7
ENDBRANCH   5   6
ENDBRANCH   4   5
ENDBRANCH   3   4
ENDBRANCH   2   3
ENDBRANCH   1   2
BRANCH   1  18
ATOM     18  C   UNL     1      -0.946 -22.887  15.783  1.00  0.00     0.000 C 
BRANCH  18  19
ATOM     19  C   UNL     1      -2.442 -22.525  15.688  1.00  0.00     0.000 C 
BRANCH  19  20
ATOM     20  C   UNL     1      -3.324 -23.079  16.826  1.00  0.00     0.000 C 
BRANCH  20  21
ATOM     21  C   UNL     1      -4.801 -22.635  16.786  1.00  0.00     0.000 C 
BRANCH  21  22
ATOM     22  C   UNL     1      -5.590 -22.873  18.085  1.00  0.00     0.000 C 
BRANCH  22  23
ATOM     23  C   UNL     1      -6.926 -22.113  18.121  1.00  0.00     0.000 C 
BRANCH  23  24
ATOM     24  C   UNL     1      -8.007 -22.870  18.910  1.00  0.00    -0.000 C 
BRANCH  24  25
ATOM     25  C   UNL     1      -9.133 -21.942  19.400  1.00  0.00    -0.000 C 
BRANCH  25  26
ATOM     26  C   UNL     1     -10.382 -22.017  18.509  1.00  0.00    -0.000 C 
BRANCH  26  27
ATOM     27  C   UNL     1     -11.090 -20.659  18.361  1.00  0.00    -0.000 C 
BRANCH  27  28
ATOM     28  C   UNL     1     -10.614 -19.887  17.118  1.00  0.00    -0.000 C 
BRANCH  28  29
ATOM     29  C   UNL     1     -10.919 -20.637  15.808  1.00  0.00    -0.000 C 
BRANCH  29  30
ATOM     30  C   UNL     1     -10.028 -20.183  14.638  1.00  0.00    -0.000 C 
BRANCH  30  31
ATOM     31  C   UNL     1      -8.539 -20.538  14.785  1.00  0.00    -0.003 C 
ATOM     32  C   UNL     1      -8.308 -21.779  15.644  1.00  0.00     0.004 C 
ENDBRANCH  30  31
ENDBRANCH  29  30
ENDBRANCH  28  29
ENDBRANCH  27  28
ENDBRANCH  26  27
ENDBRANCH  25  26
ENDBRANCH  24  25
ENDBRANCH  23  24
ENDBRANCH  22  23
ENDBRANCH  21  22
ENDBRANCH  20  21
ENDBRANCH  19  20
ENDBRANCH  18  19
ENDBRANCH   1  18
TORSDOF 28
ENDMDL
MODEL 5
REMARK VINA RESULT:    -0.563      4.672     14.944
REMARK INTER + INTRA:          -3.179
REMARK INTER:                  -1.522
REMARK INTRA:                  -1.657
REMARK UNBOUND:                -1.694
REMARK SMILES CCCCCCCCCCCCCCCCCCCCCCCCCCCCCC(=O)[O-]
REMARK SMILES IDX 16 1 17 2 18 3 19 4 20 5 21 6 22 7 23 8 24 9 25 10 26 11
REMARK SMILES IDX 27 12 28 13 29 14 30 15 31 16 32 17 15 18 14 19 13 20 12 21
REMARK SMILES IDX 11 22 10 23 9 24 8 25 7 26 6 27 5 28 4 29 3 30 2 31 1 32
REMARK H PARENT
REMARK Flexibility Score: inf
ROOT
ATOM      1  C   UNL     1       0.092 -21.470  16.038  1.00  0.00     0.000 C 
ENDROOT
BRANCH   1   2
ATOM      2  C   UNL     1       1.397 -21.694  15.248  1.00  0.00     0.000 C 
BRANCH   2   3
ATOM      3  C   UNL     1       2.171 -22.969  15.630  1.00  0.00     0.000 C 
BRANCH   3   4
ATOM      4  C   UNL     1       3.687 -22.834  15.397  1.00  0.00     0.000 C 
BRANCH   4   5
ATOM      5  C   UNL     1       4.057 -22.744  13.909  1.00  0.00     0.000 C 
BRANCH   5   6
ATOM      6  C   UNL     1       5.524 -23.125  13.634  1.00  0.00     0.000 C 
BRANCH   6   7
ATOM      7  C   UNL     1       5.927 -22.823  12.180  1.00  0.00     0.000 C 
BRANCH   7   8
ATOM      8  C   UNL     1       6.517 -21.409  12.023  1.00  0.00     0.000 C 
BRANCH   8   9
ATOM      9  C   UNL     1       7.797 -21.217  12.855  1.00  0.00     0.000 C 
BRANCH   9  10
ATOM     10  C   UNL     1       8.736 -22.432  12.742  1.00  0.00     0.000 C 
BRANCH  10  11
ATOM     11  C   UNL     1       8.994 -23.113  14.096  1.00  0.00     0.000 C 
BRANCH  11  12
ATOM     12  C   UNL     1       9.125 -22.102  15.247  1.00  0.00     0.000 C 
BRANCH  12  13
ATOM     13  C   UNL     1       8.599 -22.650  16.585  1.00  0.00     0.006 C 
BRANCH  13  14
ATOM     14  C   UNL     1       7.073 -22.803  16.614  1.00  0.00     0.053 C 
BRANCH  14  15
ATOM     15  C   UNL     1       6.429 -21.644  17.310  1.00  0.00     0.041 C 
ATOM     16  O   UNL     1       5.521 -21.842  18.164  1.00  0.00    -0.550 OA
ATOM     17  O   UNL     1       6.864 -20.350  17.058  1.00  0.00    -0.550 OA
ENDBRANCH  14  15
ENDBRANCH  13  14
ENDBRANCH  12  13
ENDBRANCH  11  12
ENDBRANCH  10  11
ENDBRANCH   9  10
ENDBRANCH   8   9
ENDBRANCH   7   8
ENDBRANCH   6   7
ENDBRANCH   5   6
ENDBRANCH   4   5
ENDBRANCH   3   4
ENDBRANCH   2   3
ENDBRANCH   1   2
BRANCH   1  18
ATOM     18  C   UNL     1      -0.952 -22.595  15.898  1.00  0.00     0.000 C 
BRANCH  18  19
ATOM     19  C   UNL     1      -2.421 -22.127  15.886  1.00  0.00     0.000 C 
BRANCH  19  20
ATOM     20  C   UNL     1      -3.431 -23.123  16.493  1.00  0.00     0.000 C 
BRANCH  20  21
ATOM     21  C   UNL     1      -4.812 -22.527  16.837  1.00  0.00     0.000 C 
BRANCH  21  22
ATOM     22  C   UNL     1      -5.399 -21.585  15.772  1.00  0.00     0.000 C 
BRANCH  22  23
ATOM     23  C   UNL     1      -6.937 -21.570  15.769  1.00  0.00     0.000 C 
BRANCH  23  24
ATOM     24  C   UNL     1      -7.510 -20.634  14.692  1.00  0.00    -0.000 C 
BRANCH  24  25
ATOM     25  C   UNL     1      -8.998 -20.910  14.407  1.00  0.00    -0.000 C 
BRANCH  25  26
ATOM     26  C   UNL     1      -9.919 -19.860  15.044  1.00  0.00    -0.000 C 
BRANCH  26  27
ATOM     27  C   UNL     1     -11.115 -20.487  15.783  1.00  0.00    -0.000 C 
BRANCH  27  28
ATOM     28  C   UNL     1     -11.124 -20.132  17.280  1.00  0.00    -0.000 C 
BRANCH  28  29
ATOM     29  C   UNL     1     -10.203 -21.048  18.107  1.00  0.00    -0.000 C 
BRANCH  29  30
ATOM     30  C   UNL     1     -10.802 -21.422  19.474  1.00  0.00    -0.000 C 
BRANCH  30  31
ATOM     31  C   UNL     1     -10.152 -22.640  20.153  1.00  0.00    -0.003 C 
ATOM     32  C   UNL     1      -8.793 -22.997  19.553  1.00  0.00     0.004 C 
ENDBRANCH  30  31
ENDBRANCH  29  30
ENDBRANCH  28  29
ENDBRANCH  27  28
ENDBRANCH  26  27
ENDBRANCH  25  26
ENDBRANCH  24  25
ENDBRANCH  23  24
ENDBRANCH  22  23
ENDBRANCH  21  22
ENDBRANCH  20  21
ENDBRANCH  19  20
ENDBRANCH  18  19
ENDBRANCH   1  18
TORSDOF 28
ENDMDL
MODEL 6
REMARK VINA RESULT:    -0.472      1.567      2.992
REMARK INTER + INTRA:          -2.940
REMARK INTER:                  -2.266
REMARK INTRA:                  -0.674
REMARK UNBOUND:                -1.694
REMARK SMILES CCCCCCCCCCCCCCCCCCCCCCCCCCCCCC(=O)[O-]
REMARK SMILES IDX 16 1 17 2 18 3 19 4 20 5 21 6 22 7 23 8 24 9 25 10 26 11
REMARK SMILES IDX 27 12 28 13 29 14 30 15 31 16 32 17 15 18 14 19 13 20 12 21
REMARK SMILES IDX 11 22 10 23 9 24 8 25 7 26 6 27 5 28 4 29 3 30 2 31 1 32
REMARK H PARENT
REMARK Flexibility Score: inf
ROOT
ATOM      1  C   UNL     1      -2.231 -21.749  15.803  1.00  0.00     0.000 C 
ENDROOT
BRANCH   1   2
ATOM      2  C   UNL     1      -3.611 -22.389  15.553  1.00  0.00     0.000 C 
BRANCH   2   3
ATOM      3  C   UNL     1      -4.806 -21.433  15.722  1.00  0.00     0.000 C 
BRANCH   3   4
ATOM      4  C   UNL     1      -5.504 -21.591  17.085  1.00  0.00     0.000 C 
BRANCH   4   5
ATOM      5  C   UNL     1      -5.966 -23.031  17.356  1.00  0.00     0.000 C 
BRANCH   5   6
ATOM      6  C   UNL     1      -7.220 -23.099  18.247  1.00  0.00     0.000 C 
BRANCH   6   7
ATOM      7  C   UNL     1      -8.093 -21.840  18.098  1.00  0.00     0.000 C 
BRANCH   7   8
ATOM      8  C   UNL     1      -9.379 -21.923  18.941  1.00  0.00     0.000 C 
BRANCH   8   9
ATOM      9  C   UNL     1      -9.366 -23.122  19.905  1.00  0.00     0.000 C 
BRANCH   9  10
ATOM     10  C   UNL     1      -8.935 -22.707  21.323  1.00  0.00     0.000 C 
BRANCH  10  11
ATOM     11  C   UNL     1     -10.115 -22.240  22.191  1.00  0.00     0.000 C 
BRANCH  11  12
ATOM     12  C   UNL     1     -10.785 -20.972  21.638  1.00  0.00     0.000 C 
BRANCH  12  13
ATOM     13  C   UNL     1     -10.880 -19.844  22.682  1.00  0.00     0.006 C 
BRANCH  13  14
ATOM     14  C   UNL     1     -10.069 -18.600  22.298  1.00  0.00     0.053 C 
BRANCH  14  15
ATOM     15  C   UNL     1     -10.264 -18.255  20.854  1.00  0.00     0.041 C 
ATOM     16  O   UNL     1     -10.880 -17.202  20.532  1.00  0.00    -0.550 OA
ATOM     17  O   UNL     1      -9.723 -19.064  19.864  1.00  0.00    -0.550 OA
ENDBRANCH  14  15
ENDBRANCH  13  14
ENDBRANCH  12  13
ENDBRANCH  11  12
ENDBRANCH  10  11
ENDBRANCH   9  10
ENDBRANCH   8   9
ENDBRANCH   7   8
ENDBRANCH   6   7
ENDBRANCH   5   6
ENDBRANCH   4   5
ENDBRANCH   3   4
ENDBRANCH   2   3
ENDBRANCH   1   2
BRANCH   1  18
ATOM     18  C   UNL     1      -1.048 -22.476  15.134  1.00  0.00     0.000 C 
BRANCH  18  19
ATOM     19  C   UNL     1       0.008 -23.040  16.105  1.00  0.00     0.000 C 
BRANCH  19  20
ATOM     20  C   UNL     1       1.447 -22.535  15.875  1.00  0.00     0.000 C 
BRANCH  20  21
ATOM     21  C   UNL     1       1.824 -22.282  14.400  1.00  0.00     0.000 C 
BRANCH  21  22
ATOM     22  C   UNL     1       3.280 -22.620  14.033  1.00  0.00     0.000 C 
BRANCH  22  23
ATOM     23  C   UNL     1       4.274 -22.284  15.157  1.00  0.00     0.000 C 
BRANCH  23  24
ATOM     24  C   UNL     1       5.559 -23.123  15.070  1.00  0.00    -0.000 C 
BRANCH  24  25
ATOM     25  C   UNL     1       6.722 -22.500  15.864  1.00  0.00    -0.000 C 
BRANCH  25  26
ATOM     26  C   UNL     1       7.744 -21.803  14.954  1.00  0.00    -0.000 C 
BRANCH  26  27
ATOM     27  C   UNL     1       8.726 -22.790  14.297  1.00  0.00    -0.000 C 
BRANCH  27  28
ATOM     28  C   UNL     1       8.481 -22.936  12.785  1.00  0.00    -0.000 C 
BRANCH  28  29
ATOM     29  C   UNL     1       7.420 -21.949  12.264  1.00  0.00    -0.000 C 
BRANCH  29  30
ATOM     30  C   UNL     1       7.556 -21.665  10.757  1.00  0.00    -0.000 C 
BRANCH  30  31
ATOM     31  C   UNL     1       8.851 -22.189  10.116  1.00  0.00    -0.003 C 
ATOM     32  C   UNL     1       9.010 -21.754   8.660  1.00  0.00     0.004 C 
ENDBRANCH  30  31
ENDBRANCH  29  30
ENDBRANCH  28  29
ENDBRANCH  27  28
ENDBRANCH  26  27
ENDBRANCH  25  26
ENDBRANCH  24  25
ENDBRANCH  23  24
ENDBRANCH  22  23
ENDBRANCH  21  22
ENDBRANCH  20  21
ENDBRANCH  19  20
ENDBRANCH  18  19
ENDBRANCH   1  18
TORSDOF 28
ENDMDL
MODEL 7
REMARK VINA RESULT:    -0.188      5.484     15.496
REMARK INTER + INTRA:          -2.191
REMARK INTER:                  -1.934
REMARK INTRA:                  -0.257
REMARK UNBOUND:                -1.694
REMARK SMILES CCCCCCCCCCCCCCCCCCCCCCCCCCCCCC(=O)[O-]
REMARK SMILES IDX 16 1 17 2 18 3 19 4 20 5 21 6 22 7 23 8 24 9 25 10 26 11
REMARK SMILES IDX 27 12 28 13 29 14 30 15 31 16 32 17 15 18 14 19 13 20 12 21
REMARK SMILES IDX 11 22 10 23 9 24 8 25 7 26 6 27 5 28 4 29 3 30 2 31 1 32
REMARK H PARENT
REMARK Flexibility Score: inf
ROOT
ATOM      1  C   UNL     1      -0.520 -22.285  16.371  1.00  0.00     0.000 C 
ENDROOT
BRANCH   1   2
ATOM      2  C   UNL     1       0.185 -22.247  15.001  1.00  0.00     0.000 C 
BRANCH   2   3
ATOM      3  C   UNL     1       1.458 -23.107  14.906  1.00  0.00     0.000 C 
BRANCH   3   4
ATOM      4  C   UNL     1       2.378 -22.943  16.130  1.00  0.00     0.000 C 
BRANCH   4   5
ATOM      5  C   UNL     1       2.770 -21.481  16.392  1.00  0.00     0.000 C 
BRANCH   5   6
ATOM      6  C   UNL     1       4.050 -21.347  17.237  1.00  0.00     0.000 C 
BRANCH   6   7
ATOM      7  C   UNL     1       5.152 -22.307  16.756  1.00  0.00     0.000 C 
BRANCH   7   8
ATOM      8  C   UNL     1       6.563 -21.737  16.995  1.00  0.00     0.000 C 
BRANCH   8   9
ATOM      9  C   UNL     1       7.526 -22.790  17.571  1.00  0.00     0.000 C 
BRANCH   9  10
ATOM     10  C   UNL     1       8.798 -22.926  16.716  1.00  0.00     0.000 C 
BRANCH  10  11
ATOM     11  C   UNL     1       8.496 -23.036  15.212  1.00  0.00     0.000 C 
BRANCH  11  12
ATOM     12  C   UNL     1       7.958 -21.721  14.624  1.00  0.00     0.000 C 
BRANCH  12  13
ATOM     13  C   UNL     1       9.039 -20.909  13.890  1.00  0.00     0.006 C 
BRANCH  13  14
ATOM     14  C   UNL     1       9.121 -21.233  12.393  1.00  0.00     0.053 C 
BRANCH  14  15
ATOM     15  C   UNL     1       7.946 -20.669  11.655  1.00  0.00     0.041 C 
ATOM     16  O   UNL     1       7.326 -21.375  10.814  1.00  0.00    -0.550 OA
ATOM     17  O   UNL     1       7.501 -19.383  11.933  1.00  0.00    -0.550 OA
ENDBRANCH  14  15
ENDBRANCH  13  14
ENDBRANCH  12  13
ENDBRANCH  11  12
ENDBRANCH  10  11
ENDBRANCH   9  10
ENDBRANCH   8   9
ENDBRANCH   7   8
ENDBRANCH   6   7
ENDBRANCH   5   6
ENDBRANCH   4   5
ENDBRANCH   3   4
ENDBRANCH   2   3
ENDBRANCH   1   2
BRANCH   1  18
ATOM     18  C   UNL     1      -2.024 -21.950  16.337  1.00  0.00     0.000 C 
BRANCH  18  19
ATOM     19  C   UNL     1      -2.948 -23.125  15.958  1.00  0.00     0.000 C 
BRANCH  19  20
ATOM     20  C   UNL     1      -4.368 -23.061  16.557  1.00  0.00     0.000 C 
BRANCH  20  21
ATOM     21  C   UNL     1      -4.425 -22.862  18.085  1.00  0.00     0.000 C 
BRANCH  21  22
ATOM     22  C   UNL     1      -5.824 -23.005  18.710  1.00  0.00     0.000 C 
BRANCH  22  23
ATOM     23  C   UNL     1      -6.893 -22.174  17.979  1.00  0.00     0.000 C 
BRANCH  23  24
ATOM     24  C   UNL     1      -7.868 -23.052  17.178  1.00  0.00    -0.000 C 
BRANCH  24  25
ATOM     25  C   UNL     1      -9.337 -22.793  17.558  1.00  0.00    -0.000 C 
BRANCH  25  26
ATOM     26  C   UNL     1      -9.624 -21.304  17.804  1.00  0.00    -0.000 C 
BRANCH  26  27
ATOM     27  C   UNL     1     -10.961 -21.067  18.528  1.00  0.00    -0.000 C 
BRANCH  27  28
ATOM     28  C   UNL     1     -10.771 -20.390  19.896  1.00  0.00    -0.000 C 
BRANCH  28  29
ATOM     29  C   UNL     1     -10.567 -18.869  19.775  1.00  0.00    -0.000 C 
BRANCH  29  30
ATOM     30  C   UNL     1     -10.152 -18.214  21.105  1.00  0.00    -0.000 C 
BRANCH  30  31
ATOM     31  C   UNL     1     -10.815 -18.815  22.356  1.00  0.00    -0.003 C 
ATOM     32  C   UNL     1     -10.011 -19.965  22.958  1.00  0.00     0.004 C 
ENDBRANCH  30  31
ENDBRANCH  29  30
ENDBRANCH  28  29
ENDBRANCH  27  28
ENDBRANCH  26  27
ENDBRANCH  25  26
ENDBRANCH  24  25
ENDBRANCH  23  24
ENDBRANCH  22  23
ENDBRANCH  21  22
ENDBRANCH  20  21
ENDBRANCH  19  20
ENDBRANCH  18  19
ENDBRANCH   1  18
TORSDOF 28
ENDMDL
MODEL 8
REMARK VINA RESULT:    -0.047      5.989     15.609
REMARK INTER + INTRA:          -1.819
REMARK INTER:                  -0.108
REMARK INTRA:                  -1.712
REMARK UNBOUND:                -1.694
REMARK SMILES CCCCCCCCCCCCCCCCCCCCCCCCCCCCCC(=O)[O-]
REMARK SMILES IDX 16 1 17 2 18 3 19 4 20 5 21 6 22 7 23 8 24 9 25 10 26 11
REMARK SMILES IDX 27 12 28 13 29 14 30 15 31 16 32 17 15 18 14 19 13 20 12 21
REMARK SMILES IDX 11 22 10 23 9 24 8 25 7 26 6 27 5 28 4 29 3 30 2 31 1 32
REMARK H PARENT
REMARK Flexibility Score: inf
ROOT
ATOM      1  C   UNL     1      -3.798 -22.225  17.381  1.00  0.00     0.000 C 
ENDROOT
BRANCH   1   2
ATOM      2  C   UNL     1      -2.862 -22.725  16.263  1.00  0.00     0.000 C 
BRANCH   2   3
ATOM      3  C   UNL     1      -2.433 -21.648  15.250  1.00  0.00     0.000 C 
BRANCH   3   4
ATOM      4  C   UNL     1      -0.995 -21.150  15.486  1.00  0.00     0.000 C 
BRANCH   4   5
ATOM      5  C   UNL     1      -0.292 -21.879  16.641  1.00  0.00     0.000 C 
BRANCH   5   6
ATOM      6  C   UNL     1       1.091 -22.429  16.247  1.00  0.00     0.000 C 
BRANCH   6   7
ATOM      7  C   UNL     1       1.094 -22.985  14.811  1.00  0.00     0.000 C 
BRANCH   7   8
ATOM      8  C   UNL     1       2.215 -22.369  13.954  1.00  0.00     0.000 C 
BRANCH   8   9
ATOM      9  C   UNL     1       3.548 -23.123  14.110  1.00  0.00     0.000 C 
BRANCH   9  10
ATOM     10  C   UNL     1       4.739 -22.280  13.622  1.00  0.00     0.000 C 
BRANCH  10  11
ATOM     11  C   UNL     1       6.002 -23.121  13.376  1.00  0.00     0.000 C 
BRANCH  11  12
ATOM     12  C   UNL     1       7.269 -22.258  13.261  1.00  0.00     0.000 C 
BRANCH  12  13
ATOM     13  C   UNL     1       7.512 -21.743  11.831  1.00  0.00     0.006 C 
BRANCH  13  14
ATOM     14  C   UNL     1       6.867 -22.627  10.756  1.00  0.00     0.053 C 
BRANCH  14  15
ATOM     15  C   UNL     1       7.531 -22.431   9.428  1.00  0.00     0.041 C 
ATOM     16  O   UNL     1       7.070 -22.997   8.399  1.00  0.00    -0.550 OA
ATOM     17  O   UNL     1       8.625 -21.584   9.315  1.00  0.00    -0.550 OA
ENDBRANCH  14  15
ENDBRANCH  13  14
ENDBRANCH  12  13
ENDBRANCH  11  12
ENDBRANCH  10  11
ENDBRANCH   9  10
ENDBRANCH   8   9
ENDBRANCH   7   8
ENDBRANCH   6   7
ENDBRANCH   5   6
ENDBRANCH   4   5
ENDBRANCH   3   4
ENDBRANCH   2   3
ENDBRANCH   1   2
BRANCH   1  18
ATOM     18  C   UNL     1      -5.083 -23.054  17.570  1.00  0.00     0.000 C 
BRANCH  18  19
ATOM     19  C   UNL     1      -6.162 -22.846  16.489  1.00  0.00     0.000 C 
BRANCH  19  20
ATOM     20  C   UNL     1      -7.616 -22.844  17.005  1.00  0.00     0.000 C 
BRANCH  20  21
ATOM     21  C   UNL     1      -8.239 -21.446  17.200  1.00  0.00     0.000 C 
BRANCH  21  22
ATOM     22  C   UNL     1      -9.777 -21.418  17.239  1.00  0.00     0.000 C 
BRANCH  22  23
ATOM     23  C   UNL     1     -10.393 -22.795  17.537  1.00  0.00     0.000 C 
BRANCH  23  24
ATOM     24  C   UNL     1     -11.080 -22.843  18.911  1.00  0.00    -0.000 C 
BRANCH  24  25
ATOM     25  C   UNL     1     -10.087 -23.125  20.053  1.00  0.00    -0.000 C 
BRANCH  25  26
ATOM     26  C   UNL     1     -10.728 -22.959  21.439  1.00  0.00    -0.000 C 
BRANCH  26  27
ATOM     27  C   UNL     1      -9.686 -22.794  22.561  1.00  0.00    -0.000 C 
BRANCH  27  28
ATOM     28  C   UNL     1     -10.027 -21.628  23.505  1.00  0.00    -0.000 C 
BRANCH  28  29
ATOM     29  C   UNL     1     -10.676 -20.444  22.765  1.00  0.00    -0.000 C 
BRANCH  29  30
ATOM     30  C   UNL     1      -9.965 -19.106  23.037  1.00  0.00    -0.000 C 
BRANCH  30  31
ATOM     31  C   UNL     1     -10.385 -17.952  22.111  1.00  0.00    -0.003 C 
ATOM     32  C   UNL     1     -10.443 -18.363  20.641  1.00  0.00     0.004 C 
ENDBRANCH  30  31
ENDBRANCH  29  30
ENDBRANCH  28  29
ENDBRANCH  27  28
ENDBRANCH  26  27
ENDBRANCH  25  26
ENDBRANCH  24  25
ENDBRANCH  23  24
ENDBRANCH  22  23
ENDBRANCH  21  22
ENDBRANCH  20  21
ENDBRANCH  19  20
ENDBRANCH  18  19
ENDBRANCH   1  18
TORSDOF 28
ENDMDL
MODEL 9
REMARK VINA RESULT:     0.268      5.826     15.681
REMARK INTER + INTRA:          -0.987
REMARK INTER:                  -0.334
REMARK INTRA:                  -0.653
REMARK UNBOUND:                -1.694
REMARK SMILES CCCCCCCCCCCCCCCCCCCCCCCCCCCCCC(=O)[O-]
REMARK SMILES IDX 16 1 17 2 18 3 19 4 20 5 21 6 22 7 23 8 24 9 25 10 26 11
REMARK SMILES IDX 27 12 28 13 29 14 30 15 31 16 32 17 15 18 14 19 13 20 12 21
REMARK SMILES IDX 11 22 10 23 9 24 8 25 7 26 6 27 5 28 4 29 3 30 2 31 1 32
REMARK H PARENT
REMARK Flexibility Score: inf
ROOT
ATOM      1  C   UNL     1      -1.802 -22.106  15.636  1.00  0.00     0.000 C 
ENDROOT
BRANCH   1   2
ATOM      2  C   UNL     1      -0.412 -22.714  15.908  1.00  0.00     0.000 C 
BRANCH   2   3
ATOM      3  C   UNL     1       0.730 -22.114  15.067  1.00  0.00     0.000 C 
BRANCH   3   4
ATOM      4  C   UNL     1       1.857 -23.125  14.790  1.00  0.00     0.000 C 
BRANCH   4   5
ATOM      5  C   UNL     1       2.946 -23.118  15.875  1.00  0.00     0.000 C 
BRANCH   5   6
ATOM      6  C   UNL     1       3.492 -21.707  16.164  1.00  0.00     0.000 C 
BRANCH   6   7
ATOM      7  C   UNL     1       5.018 -21.718  16.365  1.00  0.00     0.000 C 
BRANCH   7   8
ATOM      8  C   UNL     1       5.616 -23.125  16.182  1.00  0.00     0.000 C 
BRANCH   8   9
ATOM      9  C   UNL     1       7.154 -23.102  16.143  1.00  0.00     0.000 C 
BRANCH   9  10
ATOM     10  C   UNL     1       7.687 -21.837  15.446  1.00  0.00     0.000 C 
BRANCH  10  11
ATOM     11  C   UNL     1       9.112 -22.015  14.897  1.00  0.00     0.000 C 
BRANCH  11  12
ATOM     12  C   UNL     1       9.125 -22.454  13.424  1.00  0.00     0.000 C 
BRANCH  12  13
ATOM     13  C   UNL     1       7.730 -22.403  12.775  1.00  0.00     0.006 C 
BRANCH  13  14
ATOM     14  C   UNL     1       7.723 -22.906  11.326  1.00  0.00     0.053 C 
BRANCH  14  15
ATOM     15  C   UNL     1       7.966 -21.783  10.365  1.00  0.00     0.041 C 
ATOM     16  O   UNL     1       8.854 -20.920  10.609  1.00  0.00    -0.550 OA
ATOM     17  O   UNL     1       7.252 -21.716   9.176  1.00  0.00    -0.550 OA
ENDBRANCH  14  15
ENDBRANCH  13  14
ENDBRANCH  12  13
ENDBRANCH  11  12
ENDBRANCH  10  11
ENDBRANCH   9  10
ENDBRANCH   8   9
ENDBRANCH   7   8
ENDBRANCH   6   7
ENDBRANCH   5   6
ENDBRANCH   4   5
ENDBRANCH   3   4
ENDBRANCH   2   3
ENDBRANCH   1   2
BRANCH   1  18
ATOM     18  C   UNL     1      -2.862 -22.402  16.716  1.00  0.00     0.000 C 
BRANCH  18  19
ATOM     19  C   UNL     1      -4.259 -22.770  16.178  1.00  0.00     0.000 C 
BRANCH  19  20
ATOM     20  C   UNL     1      -5.305 -23.119  17.257  1.00  0.00     0.000 C 
BRANCH  20  21
ATOM     21  C   UNL     1      -6.755 -22.717  16.918  1.00  0.00     0.000 C 
BRANCH  21  22
ATOM     22  C   UNL     1      -6.897 -21.444  16.066  1.00  0.00     0.000 C 
BRANCH  22  23
ATOM     23  C   UNL     1      -8.142 -21.463  15.162  1.00  0.00     0.000 C 
BRANCH  23  24
ATOM     24  C   UNL     1      -9.316 -20.679  15.770  1.00  0.00    -0.000 C 
BRANCH  24  25
ATOM     25  C   UNL     1     -10.272 -21.582  16.571  1.00  0.00    -0.000 C 
BRANCH  25  26
ATOM     26  C   UNL     1      -9.583 -22.243  17.773  1.00  0.00    -0.000 C 
BRANCH  26  27
ATOM     27  C   UNL     1     -10.574 -22.954  18.711  1.00  0.00    -0.000 C 
BRANCH  27  28
ATOM     28  C   UNL     1     -11.023 -22.053  19.875  1.00  0.00    -0.000 C 
BRANCH  28  29
ATOM     29  C   UNL     1     -10.400 -20.647  19.803  1.00  0.00    -0.000 C 
BRANCH  29  30
ATOM     30  C   UNL     1     -10.515 -19.873  21.128  1.00  0.00    -0.000 C 
BRANCH  30  31
ATOM     31  C   UNL     1     -10.830 -18.375  20.976  1.00  0.00    -0.003 C 
ATOM     32  C   UNL     1      -9.683 -17.479  21.439  1.00  0.00     0.004 C 
ENDBRANCH  30  31
ENDBRANCH  29  30
ENDBRANCH  28  29
ENDBRANCH  27  28
ENDBRANCH  26  27
ENDBRANCH  25  26
ENDBRANCH  24  25
ENDBRANCH  23  24
ENDBRANCH  22  23
ENDBRANCH  21  22
ENDBRANCH  20  21
ENDBRANCH  19  20
ENDBRANCH  18  19
ENDBRANCH   1  18
TORSDOF 28
ENDMDL
