MODEL 1
REMARK VINA RESULT:    -3.871      0.000      0.000
REMARK INTER + INTRA:          -5.899
REMARK INTER:                  -5.907
REMARK INTRA:                   0.008
REMARK UNBOUND:                 0.008
REMARK SMILES CC1=CCC[C@H](C)C(=O)C[C@@H](C(C)C)C(=O)C1
REMARK SMILES IDX 8 1 9 2 6 3 7 4 5 5 4 6 3 7 2 8 1 9 10 11 11 12 15 13 16 14
REMARK SMILES IDX 17 15 12 17 13 18 14 19
REMARK H PARENT
REMARK Flexibility Score: 70.00
ROOT
ATOM      1  C   UNL     1      -6.898  -6.529  19.105  1.00  0.00     0.136 C 
ATOM      2  O   UNL     1      -6.576  -6.176  20.231  1.00  0.00    -0.299 OA
ENDROOT
BRANCH   1   3
ATOM      3  C   UNL     1      -6.372  -7.873  18.607  1.00  0.00     0.053 C 
ATOM      4  C   UNL     1      -5.701  -8.604  19.780  1.00  0.00     0.016 C 
BRANCH   3   5
ATOM      5  C   UNL     1      -7.398  -8.818  17.928  1.00  0.00     0.015 C 
BRANCH   5   6
ATOM      6  C   UNL     1      -7.496  -8.655  16.392  1.00  0.00     0.028 C 
BRANCH   6   7
ATOM      7  C   UNL     1      -8.918  -8.833  15.908  1.00  0.00    -0.028 C 
ATOM      8  C   UNL     1      -9.865  -7.867  15.864  1.00  0.00    -0.070 CG0
ATOM      9  C   UNL     1     -11.248  -8.254  15.406  1.00  0.00     0.039 C 
ATOM     10  G   UNL     1      -9.591  -6.421  16.233  1.00  0.00     0.000 G0
ENDBRANCH   6   7
ENDBRANCH   5   6
ENDBRANCH   3   5
ENDBRANCH   1   3
BRANCH   1  11
ATOM     11  C   UNL     1      -7.831  -5.625  18.322  1.00  0.00     0.087 C 
BRANCH  11  12
ATOM     12  C   UNL     1      -9.320  -5.718  18.764  1.00  0.00     0.066 C 
BRANCH  12  13
ATOM     13  C   UNL     1     -10.196  -6.040  17.563  1.00  0.00     0.140 C 
ATOM     14  O   UNL     1     -11.413  -6.012  17.677  1.00  0.00    -0.299 OA
BRANCH  13  15
ATOM     15  C   UNL     1      -9.603  -6.424  16.233  1.00  0.00     0.106 CG0
ATOM     16  G   UNL     1      -9.876  -7.873  15.873  1.00  0.00     0.000 G0
ENDBRANCH  13  15
ENDBRANCH  12  13
BRANCH  12  17
ATOM     17  C   UNL     1      -9.854  -4.467  19.537  1.00  0.00    -0.006 C 
ATOM     18  C   UNL     1      -9.592  -4.606  21.049  1.00  0.00     0.008 C 
ATOM     19  C   UNL     1      -9.223  -3.152  19.044  1.00  0.00     0.008 C 
ENDBRANCH  12  17
ENDBRANCH  11  12
ENDBRANCH   1  11
TORSDOF 1
ENDMDL
MODEL 2
REMARK VINA RESULT:    -3.803      1.381      2.149
REMARK INTER + INTRA:          -5.795
REMARK INTER:                  -5.461
REMARK INTRA:                  -0.334
REMARK UNBOUND:                 0.008
REMARK SMILES CC1=CCC[C@H](C)C(=O)C[C@@H](C(C)C)C(=O)C1
REMARK SMILES IDX 8 1 9 2 6 3 7 4 5 5 4 6 3 7 2 8 1 9 10 11 11 12 15 13 16 14
REMARK SMILES IDX 17 15 12 17 13 18 14 19
REMARK H PARENT
REMARK Flexibility Score: 70.00
ROOT
ATOM      1  C   UNL     1      -7.144  -6.428  18.716  1.00  0.00     0.136 C 
ATOM      2  O   UNL     1      -7.241  -6.030  19.868  1.00  0.00    -0.299 OA
ENDROOT
BRANCH   1   3
ATOM      3  C   UNL     1      -6.264  -7.649  18.460  1.00  0.00     0.053 C 
ATOM      4  C   UNL     1      -4.896  -7.417  19.119  1.00  0.00     0.016 C 
BRANCH   3   5
ATOM      5  C   UNL     1      -6.829  -9.023  18.910  1.00  0.00     0.015 C 
BRANCH   5   6
ATOM      6  C   UNL     1      -7.886  -9.623  17.952  1.00  0.00     0.028 C 
BRANCH   6   7
ATOM      7  C   UNL     1      -7.451  -9.503  16.507  1.00  0.00    -0.028 C 
ATOM      8  C   UNL     1      -8.184  -8.968  15.504  1.00  0.00    -0.070 CG0
ATOM      9  C   UNL     1      -7.602  -8.993  14.113  1.00  0.00     0.039 C 
ATOM     10  G   UNL     1      -9.546  -8.333  15.718  1.00  0.00     0.000 G0
ENDBRANCH   6   7
ENDBRANCH   5   6
ENDBRANCH   3   5
ENDBRANCH   1   3
BRANCH   1  11
ATOM     11  C   UNL     1      -7.944  -5.704  17.650  1.00  0.00     0.087 C 
BRANCH  11  12
ATOM     12  C   UNL     1      -9.360  -6.302  17.407  1.00  0.00     0.066 C 
BRANCH  12  13
ATOM     13  C   UNL     1      -9.458  -6.838  15.987  1.00  0.00     0.140 C 
ATOM     14  O   UNL     1      -9.487  -6.057  15.046  1.00  0.00    -0.299 OA
BRANCH  13  15
ATOM     15  C   UNL     1      -9.550  -8.314  15.704  1.00  0.00     0.106 CG0
ATOM     16  G   UNL     1      -8.187  -8.954  15.510  1.00  0.00     0.000 G0
ENDBRANCH  13  15
ENDBRANCH  12  13
BRANCH  12  17
ATOM     17  C   UNL     1     -10.546  -5.333  17.730  1.00  0.00    -0.006 C 
ATOM     18  C   UNL     1     -11.899  -6.056  17.581  1.00  0.00     0.008 C 
ATOM     19  C   UNL     1     -10.456  -4.738  19.147  1.00  0.00     0.008 C 
ENDBRANCH  12  17
ENDBRANCH  11  12
ENDBRANCH   1  11
TORSDOF 1
ENDMDL
MODEL 3
REMARK VINA RESULT:    -3.510     19.606     22.003
REMARK INTER + INTRA:          -5.349
REMARK INTER:                  -5.244
REMARK INTRA:                  -0.105
REMARK UNBOUND:                 0.008
REMARK SMILES CC1=CCC[C@H](C)C(=O)C[C@@H](C(C)C)C(=O)C1
REMARK SMILES IDX 8 1 9 2 6 3 7 4 5 5 4 6 3 7 2 8 1 9 10 11 11 12 15 13 16 14
REMARK SMILES IDX 17 15 12 17 13 18 14 19
REMARK H PARENT
REMARK Flexibility Score: 70.00
ROOT
ATOM      1  C   UNL     1       1.204   6.343  29.959  1.00  0.00     0.136 C 
ATOM      2  O   UNL     1       0.515   7.326  29.726  1.00  0.00    -0.299 OA
ENDROOT
BRANCH   1   3
ATOM      3  C   UNL     1       1.343   5.907  31.416  1.00  0.00     0.053 C 
ATOM      4  C   UNL     1       1.498   4.379  31.460  1.00  0.00     0.016 C 
BRANCH   3   5
ATOM      5  C   UNL     1       2.482   6.567  32.237  1.00  0.00     0.015 C 
BRANCH   5   6
ATOM      6  C   UNL     1       2.870   7.988  31.763  1.00  0.00     0.028 C 
BRANCH   6   7
ATOM      7  C   UNL     1       4.345   8.076  31.438  1.00  0.00    -0.028 C 
ATOM      8  C   UNL     1       4.885   8.030  30.198  1.00  0.00    -0.070 CG0
ATOM      9  C   UNL     1       6.387   8.072  30.079  1.00  0.00     0.039 C 
ATOM     10  G   UNL     1       4.050   7.957  28.932  1.00  0.00     0.000 G0
ENDBRANCH   6   7
ENDBRANCH   5   6
ENDBRANCH   3   5
ENDBRANCH   1   3
BRANCH   1  11
ATOM     11  C   UNL     1       1.818   5.615  28.779  1.00  0.00     0.087 C 
BRANCH  11  12
ATOM     12  C   UNL     1       3.358   5.416  28.891  1.00  0.00     0.066 C 
BRANCH  12  13
ATOM     13  C   UNL     1       4.078   6.605  28.273  1.00  0.00     0.140 C 
ATOM     14  O   UNL     1       4.715   6.455  27.240  1.00  0.00    -0.299 OA
BRANCH  13  15
ATOM     15  C   UNL     1       4.052   7.965  28.916  1.00  0.00     0.106 CG0
ATOM     16  G   UNL     1       4.871   8.018  30.194  1.00  0.00     0.000 G0
ENDBRANCH  13  15
ENDBRANCH  12  13
BRANCH  12  17
ATOM     17  C   UNL     1       3.888   4.064  28.307  1.00  0.00    -0.006 C 
ATOM     18  C   UNL     1       4.839   3.375  29.305  1.00  0.00     0.008 C 
ATOM     19  C   UNL     1       2.754   3.088  27.948  1.00  0.00     0.008 C 
ENDBRANCH  12  17
ENDBRANCH  11  12
ENDBRANCH   1  11
TORSDOF 1
ENDMDL
MODEL 4
REMARK VINA RESULT:    -3.383      1.614      4.008
REMARK INTER + INTRA:          -5.154
REMARK INTER:                  -5.001
REMARK INTRA:                  -0.153
REMARK UNBOUND:                 0.008
REMARK SMILES CC1=CCC[C@H](C)C(=O)C[C@@H](C(C)C)C(=O)C1
REMARK SMILES IDX 8 1 9 2 6 3 7 4 5 5 4 6 3 7 2 8 1 9 10 11 11 12 15 13 16 14
REMARK SMILES IDX 17 15 12 17 13 18 14 19
REMARK H PARENT
REMARK Flexibility Score: 70.00
ROOT
ATOM      1  C   UNL     1     -11.195  -5.170  17.330  1.00  0.00     0.136 C 
ATOM      2  O   UNL     1     -11.595  -4.014  17.300  1.00  0.00    -0.299 OA
ENDROOT
BRANCH   1   3
ATOM      3  C   UNL     1     -11.465  -6.043  16.107  1.00  0.00     0.053 C 
ATOM      4  C   UNL     1     -12.976  -6.050  15.830  1.00  0.00     0.016 C 
BRANCH   3   5
ATOM      5  C   UNL     1     -10.702  -5.679  14.805  1.00  0.00     0.015 C 
BRANCH   5   6
ATOM      6  C   UNL     1      -9.164  -5.812  14.908  1.00  0.00     0.028 C 
BRANCH   6   7
ATOM      7  C   UNL     1      -8.766  -7.136  15.524  1.00  0.00    -0.028 C 
ATOM      8  C   UNL     1      -7.908  -7.301  16.557  1.00  0.00    -0.070 CG0
ATOM      9  C   UNL     1      -7.589  -8.709  16.992  1.00  0.00     0.039 C 
ATOM     10  G   UNL     1      -7.273  -6.141  17.301  1.00  0.00     0.000 G0
ENDBRANCH   6   7
ENDBRANCH   5   6
ENDBRANCH   3   5
ENDBRANCH   1   3
BRANCH   1  11
ATOM     11  C   UNL     1     -10.424  -5.619  18.556  1.00  0.00     0.087 C 
BRANCH  11  12
ATOM     12  C   UNL     1      -9.069  -4.879  18.757  1.00  0.00     0.066 C 
BRANCH  12  13
ATOM     13  C   UNL     1      -7.919  -5.867  18.636  1.00  0.00     0.140 C 
ATOM     14  O   UNL     1      -7.498  -6.431  19.636  1.00  0.00    -0.299 OA
BRANCH  13  15
ATOM     15  C   UNL     1      -7.257  -6.150  17.314  1.00  0.00     0.106 CG0
ATOM     16  G   UNL     1      -7.906  -7.308  16.576  1.00  0.00     0.000 G0
ENDBRANCH  13  15
ENDBRANCH  12  13
BRANCH  12  17
ATOM     17  C   UNL     1      -8.966  -4.047  20.079  1.00  0.00    -0.006 C 
ATOM     18  C   UNL     1      -9.503  -2.618  19.867  1.00  0.00     0.008 C 
ATOM     19  C   UNL     1      -9.730  -4.695  21.248  1.00  0.00     0.008 C 
ENDBRANCH  12  17
ENDBRANCH  11  12
ENDBRANCH   1  11
TORSDOF 1
ENDMDL
MODEL 5
REMARK VINA RESULT:    -3.323      1.711      4.149
REMARK INTER + INTRA:          -5.063
REMARK INTER:                  -5.230
REMARK INTRA:                   0.167
REMARK UNBOUND:                 0.008
REMARK SMILES CC1=CCC[C@H](C)C(=O)C[C@@H](C(C)C)C(=O)C1
REMARK SMILES IDX 8 1 9 2 6 3 7 4 5 5 4 6 3 7 2 8 1 9 10 11 11 12 15 13 16 14
REMARK SMILES IDX 17 15 12 17 13 18 14 19
REMARK H PARENT
REMARK Flexibility Score: 70.00
ROOT
ATOM      1  C   UNL     1      -9.990  -5.202  18.323  1.00  0.00     0.136 C 
ATOM      2  O   UNL     1     -10.909  -5.632  19.006  1.00  0.00    -0.299 OA
ENDROOT
BRANCH   1   3
ATOM      3  C   UNL     1      -8.779  -4.622  19.050  1.00  0.00     0.053 C 
ATOM      4  C   UNL     1      -9.243  -3.441  19.915  1.00  0.00     0.016 C 
BRANCH   3   5
ATOM      5  C   UNL     1      -7.949  -5.605  19.918  1.00  0.00     0.015 C 
BRANCH   5   6
ATOM      6  C   UNL     1      -6.727  -6.220  19.194  1.00  0.00     0.028 C 
BRANCH   6   7
ATOM      7  C   UNL     1      -6.994  -7.651  18.782  1.00  0.00    -0.028 C 
ATOM      8  C   UNL     1      -7.449  -8.054  17.573  1.00  0.00    -0.070 CG0
ATOM      9  C   UNL     1      -7.712  -9.524  17.371  1.00  0.00     0.039 C 
ATOM     10  G   UNL     1      -7.686  -7.099  16.416  1.00  0.00     0.000 G0
ENDBRANCH   6   7
ENDBRANCH   5   6
ENDBRANCH   3   5
ENDBRANCH   1   3
BRANCH   1  11
ATOM     11  C   UNL     1     -10.113  -5.327  16.816  1.00  0.00     0.087 C 
BRANCH  11  12
ATOM     12  C   UNL     1     -10.303  -6.789  16.316  1.00  0.00     0.066 C 
BRANCH  12  13
ATOM     13  C   UNL     1      -9.002  -7.303  15.720  1.00  0.00     0.140 C 
ATOM     14  O   UNL     1      -9.023  -7.920  14.664  1.00  0.00    -0.299 OA
BRANCH  13  15
ATOM     15  C   UNL     1      -7.681  -7.100  16.412  1.00  0.00     0.106 CG0
ATOM     16  G   UNL     1      -7.475  -8.065  17.565  1.00  0.00     0.000 G0
ENDBRANCH  13  15
ENDBRANCH  12  13
BRANCH  12  17
ATOM     17  C   UNL     1     -11.500  -6.993  15.329  1.00  0.00    -0.006 C 
ATOM     18  C   UNL     1     -11.960  -8.464  15.327  1.00  0.00     0.008 C 
ATOM     19  C   UNL     1     -12.706  -6.098  15.666  1.00  0.00     0.008 C 
ENDBRANCH  12  17
ENDBRANCH  11  12
ENDBRANCH   1  11
TORSDOF 1
ENDMDL
MODEL 6
REMARK VINA RESULT:    -3.205      1.917      3.011
REMARK INTER + INTRA:          -4.883
REMARK INTER:                  -4.910
REMARK INTRA:                   0.028
REMARK UNBOUND:                 0.008
REMARK SMILES CC1=CCC[C@H](C)C(=O)C[C@@H](C(C)C)C(=O)C1
REMARK SMILES IDX 8 1 9 2 6 3 7 4 5 5 4 6 3 7 2 8 1 9 10 11 11 12 15 13 16 14
REMARK SMILES IDX 17 15 12 17 13 18 14 19
REMARK H PARENT
REMARK Flexibility Score: 70.00
ROOT
ATOM      1  C   UNL     1      -8.226  -7.890  16.459  1.00  0.00     0.136 C 
ATOM      2  O   UNL     1      -8.134  -8.613  17.441  1.00  0.00    -0.299 OA
ENDROOT
BRANCH   1   3
ATOM      3  C   UNL     1      -8.226  -8.560  15.087  1.00  0.00     0.053 C 
ATOM      4  C   UNL     1      -7.561  -9.938  15.211  1.00  0.00     0.016 C 
BRANCH   3   5
ATOM      5  C   UNL     1      -9.601  -8.710  14.382  1.00  0.00     0.015 C 
BRANCH   5   6
ATOM      6  C   UNL     1     -10.820  -8.479  15.307  1.00  0.00     0.028 C 
BRANCH   6   7
ATOM      7  C   UNL     1     -11.668  -7.324  14.822  1.00  0.00    -0.028 C 
ATOM      8  C   UNL     1     -12.153  -6.322  15.592  1.00  0.00    -0.070 CG0
ATOM      9  C   UNL     1     -13.032  -5.289  14.935  1.00  0.00     0.039 C 
ATOM     10  G   UNL     1     -11.836  -6.185  17.070  1.00  0.00     0.000 G0
ENDBRANCH   6   7
ENDBRANCH   5   6
ENDBRANCH   3   5
ENDBRANCH   1   3
BRANCH   1  11
ATOM     11  C   UNL     1      -8.381  -6.400  16.691  1.00  0.00     0.087 C 
BRANCH  11  12
ATOM     12  C   UNL     1      -9.321  -6.039  17.878  1.00  0.00     0.066 C 
BRANCH  12  13
ATOM     13  C   UNL     1     -10.589  -5.385  17.353  1.00  0.00     0.140 C 
ATOM     14  O   UNL     1     -10.611  -4.179  17.155  1.00  0.00    -0.299 OA
BRANCH  13  15
ATOM     15  C   UNL     1     -11.840  -6.183  17.095  1.00  0.00     0.106 CG0
ATOM     16  G   UNL     1     -12.139  -6.331  15.614  1.00  0.00     0.000 G0
ENDBRANCH  13  15
ENDBRANCH  12  13
BRANCH  12  17
ATOM     17  C   UNL     1      -8.657  -5.170  18.999  1.00  0.00    -0.006 C 
ATOM     18  C   UNL     1      -9.655  -4.897  20.141  1.00  0.00     0.008 C 
ATOM     19  C   UNL     1      -7.396  -5.828  19.589  1.00  0.00     0.008 C 
ENDBRANCH  12  17
ENDBRANCH  11  12
ENDBRANCH   1  11
TORSDOF 1
ENDMDL
MODEL 7
REMARK VINA RESULT:    -3.191      1.725      4.176
REMARK INTER + INTRA:          -4.862
REMARK INTER:                  -4.645
REMARK INTRA:                  -0.217
REMARK UNBOUND:                 0.008
REMARK SMILES CC1=CCC[C@H](C)C(=O)C[C@@H](C(C)C)C(=O)C1
REMARK SMILES IDX 8 1 9 2 6 3 7 4 5 5 4 6 3 7 2 8 1 9 10 11 11 12 15 13 16 14
REMARK SMILES IDX 17 15 12 17 13 18 14 19
REMARK H PARENT
REMARK Flexibility Score: 70.00
ROOT
ATOM      1  C   UNL     1      -8.661  -5.612  19.349  1.00  0.00     0.136 C 
ATOM      2  O   UNL     1      -7.478  -5.312  19.424  1.00  0.00    -0.299 OA
ENDROOT
BRANCH   1   3
ATOM      3  C   UNL     1      -9.656  -4.767  20.142  1.00  0.00     0.053 C 
ATOM      4  C   UNL     1      -9.090  -4.533  21.551  1.00  0.00     0.016 C 
BRANCH   3   5
ATOM      5  C   UNL     1     -10.073  -3.409  19.519  1.00  0.00     0.015 C 
BRANCH   5   6
ATOM      6  C   UNL     1     -10.015  -3.372  17.973  1.00  0.00     0.028 C 
BRANCH   6   7
ATOM      7  C   UNL     1     -11.273  -3.948  17.361  1.00  0.00    -0.028 C 
ATOM      8  C   UNL     1     -11.329  -4.730  16.258  1.00  0.00    -0.070 CG0
ATOM      9  C   UNL     1     -12.687  -5.159  15.764  1.00  0.00     0.039 C 
ATOM     10  G   UNL     1     -10.093  -5.204  15.515  1.00  0.00     0.000 G0
ENDBRANCH   6   7
ENDBRANCH   5   6
ENDBRANCH   3   5
ENDBRANCH   1   3
BRANCH   1  11
ATOM     11  C   UNL     1      -9.042  -6.763  18.438  1.00  0.00     0.087 C 
BRANCH  11  12
ATOM     12  C   UNL     1      -8.458  -6.651  17.000  1.00  0.00     0.066 C 
BRANCH  12  13
ATOM     13  C   UNL     1      -9.590  -6.549  15.989  1.00  0.00     0.140 C 
ATOM     14  O   UNL     1     -10.090  -7.568  15.536  1.00  0.00    -0.299 OA
BRANCH  13  15
ATOM     15  C   UNL     1     -10.097  -5.217  15.505  1.00  0.00     0.106 CG0
ATOM     16  G   UNL     1     -11.326  -4.752  16.266  1.00  0.00     0.000 G0
ENDBRANCH  13  15
ENDBRANCH  12  13
BRANCH  12  17
ATOM     17  C   UNL     1      -7.451  -7.785  16.611  1.00  0.00    -0.006 C 
ATOM     18  C   UNL     1      -6.004  -7.254  16.613  1.00  0.00     0.008 C 
ATOM     19  C   UNL     1      -7.534  -9.000  17.553  1.00  0.00     0.008 C 
ENDBRANCH  12  17
ENDBRANCH  11  12
ENDBRANCH   1  11
TORSDOF 1
ENDMDL
MODEL 8
REMARK VINA RESULT:    -3.176      1.856      3.852
REMARK INTER + INTRA:          -4.839
REMARK INTER:                  -4.703
REMARK INTRA:                  -0.136
REMARK UNBOUND:                 0.008
REMARK SMILES CC1=CCC[C@H](C)C(=O)C[C@@H](C(C)C)C(=O)C1
REMARK SMILES IDX 8 1 9 2 6 3 7 4 5 5 4 6 3 7 2 8 1 9 10 11 11 12 15 13 16 14
REMARK SMILES IDX 17 15 12 17 13 18 14 19
REMARK H PARENT
REMARK Flexibility Score: 70.00
ROOT
ATOM      1  C   UNL     1      -8.731  -5.723  19.050  1.00  0.00     0.136 C 
ATOM      2  O   UNL     1      -7.868  -5.304  19.809  1.00  0.00    -0.299 OA
ENDROOT
BRANCH   1   3
ATOM      3  C   UNL     1     -10.056  -4.966  18.999  1.00  0.00     0.053 C 
ATOM      4  C   UNL     1      -9.858  -3.679  18.185  1.00  0.00     0.016 C 
BRANCH   3   5
ATOM      5  C   UNL     1     -11.283  -5.742  18.451  1.00  0.00     0.015 C 
BRANCH   5   6
ATOM      6  C   UNL     1     -11.640  -5.415  16.981  1.00  0.00     0.028 C 
BRANCH   6   7
ATOM      7  C   UNL     1     -12.120  -6.647  16.245  1.00  0.00    -0.028 C 
ATOM      8  C   UNL     1     -11.434  -7.312  15.287  1.00  0.00    -0.070 CG0
ATOM      9  C   UNL     1     -12.106  -8.486  14.623  1.00  0.00     0.039 C 
ATOM     10  G   UNL     1     -10.022  -6.942  14.870  1.00  0.00     0.000 G0
ENDBRANCH   6   7
ENDBRANCH   5   6
ENDBRANCH   3   5
ENDBRANCH   1   3
BRANCH   1  11
ATOM     11  C   UNL     1      -8.392  -6.926  18.191  1.00  0.00     0.087 C 
BRANCH  11  12
ATOM     12  C   UNL     1      -8.136  -6.583  16.695  1.00  0.00     0.066 C 
BRANCH  12  13
ATOM     13  C   UNL     1      -8.972  -7.491  15.806  1.00  0.00     0.140 C 
ATOM     14  O   UNL     1      -8.786  -8.699  15.831  1.00  0.00    -0.299 OA
BRANCH  13  15
ATOM     15  C   UNL     1     -10.012  -6.938  14.868  1.00  0.00     0.106 CG0
ATOM     16  G   UNL     1     -11.423  -7.322  15.273  1.00  0.00     0.000 G0
ENDBRANCH  13  15
ENDBRANCH  12  13
BRANCH  12  17
ATOM     17  C   UNL     1      -6.631  -6.599  16.266  1.00  0.00    -0.006 C 
ATOM     18  C   UNL     1      -6.304  -5.386  15.374  1.00  0.00     0.008 C 
ATOM     19  C   UNL     1      -5.672  -6.602  17.470  1.00  0.00     0.008 C 
ENDBRANCH  12  17
ENDBRANCH  11  12
ENDBRANCH   1  11
TORSDOF 1
ENDMDL
