MODEL 1
REMARK VINA RESULT:    -3.053      0.000      0.000
REMARK INTER + INTRA:          -4.438
REMARK INTER:                  -4.035
REMARK INTRA:                  -0.403
REMARK UNBOUND:                -0.403
REMARK SMILES C=CCC[C@H](O)CCC
REMARK SMILES IDX 4 1 5 2 7 3 8 4 9 5 6 6 3 8 2 9 1 10
REMARK H PARENT 6 7
REMARK Flexibility Score: inf
ROOT
ATOM      1  C   UNL     1     -16.154 -14.157  10.170  1.00  0.00     0.036 C 
ENDROOT
BRANCH   1   2
ATOM      2  C   UNL     1     -17.625 -13.700  10.064  1.00  0.00     0.114 C 
BRANCH   2   3
ATOM      3  C   UNL     1     -18.615 -14.801  10.506  1.00  0.00     0.031 C 
BRANCH   3   4
ATOM      4  C   UNL     1     -18.976 -14.674  11.994  1.00  0.00    -0.001 C 
ATOM      5  C   UNL     1     -18.749 -15.992  12.730  1.00  0.00     0.004 C 
ENDBRANCH   3   4
ENDBRANCH   2   3
BRANCH   2   6
ATOM      6  O   UNL     1     -17.815 -12.533  10.827  1.00  0.00    -0.393 OA
ATOM      7  H   UNL     1     -17.730 -11.757  10.212  1.00  0.00     0.210 HD
ENDBRANCH   2   6
ENDBRANCH   1   2
BRANCH   1   8
ATOM      8  C   UNL     1     -15.994 -15.684  10.092  1.00  0.00     0.029 C 
BRANCH   8   9
ATOM      9  C   UNL     1     -15.799 -16.138   8.671  1.00  0.00    -0.035 C 
ATOM     10  C   UNL     1     -16.676 -16.941   8.062  1.00  0.00     0.004 C 
ENDBRANCH   8   9
ENDBRANCH   1   8
TORSDOF 6
ENDMDL
MODEL 2
REMARK VINA RESULT:    -3.053      1.791      2.736
REMARK INTER + INTRA:          -4.438
REMARK INTER:                  -3.860
REMARK INTRA:                  -0.578
REMARK UNBOUND:                -0.403
REMARK SMILES C=CCC[C@H](O)CCC
REMARK SMILES IDX 4 1 5 2 7 3 8 4 9 5 6 6 3 8 2 9 1 10
REMARK H PARENT 6 7
REMARK Flexibility Score: inf
ROOT
ATOM      1  C   UNL     1     -18.746 -16.173  10.411  1.00  0.00     0.036 C 
ENDROOT
BRANCH   1   2
ATOM      2  C   UNL     1     -17.943 -15.236  11.339  1.00  0.00     0.114 C 
BRANCH   2   3
ATOM      3  C   UNL     1     -18.582 -13.834  11.453  1.00  0.00     0.031 C 
BRANCH   3   4
ATOM      4  C   UNL     1     -18.934 -13.258  10.073  1.00  0.00    -0.001 C 
ATOM      5  C   UNL     1     -17.686 -12.760   9.349  1.00  0.00     0.004 C 
ENDBRANCH   3   4
ENDBRANCH   2   3
BRANCH   2   6
ATOM      6  O   UNL     1     -17.817 -15.824  12.611  1.00  0.00    -0.393 OA
ATOM      7  H   UNL     1     -18.159 -16.755  12.546  1.00  0.00     0.210 HD
ENDBRANCH   2   6
ENDBRANCH   1   2
BRANCH   1   8
ATOM      8  C   UNL     1     -17.885 -16.796   9.300  1.00  0.00     0.029 C 
BRANCH   8   9
ATOM      9  C   UNL     1     -16.472 -16.284   9.356  1.00  0.00    -0.035 C 
ATOM     10  C   UNL     1     -15.711 -16.195   8.260  1.00  0.00     0.004 C 
ENDBRANCH   8   9
ENDBRANCH   1   8
TORSDOF 6
ENDMDL
MODEL 3
REMARK VINA RESULT:    -3.044      2.045      3.177
REMARK INTER + INTRA:          -4.426
REMARK INTER:                  -3.920
REMARK INTRA:                  -0.506
REMARK UNBOUND:                -0.403
REMARK SMILES C=CCC[C@H](O)CCC
REMARK SMILES IDX 4 1 5 2 7 3 8 4 9 5 6 6 3 8 2 9 1 10
REMARK H PARENT 6 7
REMARK Flexibility Score: inf
ROOT
ATOM      1  C   UNL     1     -16.184 -14.169  10.064  1.00  0.00     0.036 C 
ENDROOT
BRANCH   1   2
ATOM      2  C   UNL     1     -16.427 -15.659  10.389  1.00  0.00     0.114 C 
BRANCH   2   3
ATOM      3  C   UNL     1     -17.764 -16.175   9.811  1.00  0.00     0.031 C 
BRANCH   3   4
ATOM      4  C   UNL     1     -18.788 -16.461  10.919  1.00  0.00    -0.001 C 
ATOM      5  C   UNL     1     -18.286 -15.968  12.274  1.00  0.00     0.004 C 
ENDBRANCH   3   4
ENDBRANCH   2   3
BRANCH   2   6
ATOM      6  O   UNL     1     -15.353 -16.429   9.908  1.00  0.00    -0.393 OA
ATOM      7  H   UNL     1     -14.717 -16.559  10.661  1.00  0.00     0.210 HD
ENDBRANCH   2   6
ENDBRANCH   1   2
BRANCH   1   8
ATOM      8  C   UNL     1     -17.179 -13.611   9.033  1.00  0.00     0.029 C 
BRANCH   8   9
ATOM      9  C   UNL     1     -18.074 -12.571   9.649  1.00  0.00    -0.035 C 
ATOM     10  C   UNL     1     -18.479 -12.653  10.920  1.00  0.00     0.004 C 
ENDBRANCH   8   9
ENDBRANCH   1   8
TORSDOF 6
ENDMDL
MODEL 4
REMARK VINA RESULT:    -2.709      0.991      3.613
REMARK INTER + INTRA:          -3.983
REMARK INTER:                  -3.638
REMARK INTRA:                  -0.344
REMARK UNBOUND:                -0.403
REMARK SMILES C=CCC[C@H](O)CCC
REMARK SMILES IDX 4 1 5 2 7 3 8 4 9 5 6 6 3 8 2 9 1 10
REMARK H PARENT 6 7
REMARK Flexibility Score: inf
ROOT
ATOM      1  C   UNL     1     -18.436 -13.717  11.172  1.00  0.00     0.036 C 
ENDROOT
BRANCH   1   2
ATOM      2  C   UNL     1     -17.204 -13.263  10.359  1.00  0.00     0.114 C 
BRANCH   2   3
ATOM      3  C   UNL     1     -16.200 -14.414  10.123  1.00  0.00     0.031 C 
BRANCH   3   4
ATOM      4  C   UNL     1     -16.231 -14.902   8.667  1.00  0.00    -0.001 C 
ATOM      5  C   UNL     1     -15.750 -16.347   8.560  1.00  0.00     0.004 C 
ENDBRANCH   3   4
ENDBRANCH   2   3
BRANCH   2   6
ATOM      6  O   UNL     1     -17.622 -12.715   9.133  1.00  0.00    -0.393 OA
ATOM      7  H   UNL     1     -16.868 -12.807   8.492  1.00  0.00     0.210 HD
ENDBRANCH   2   6
ENDBRANCH   1   2
BRANCH   1   8
ATOM      8  C   UNL     1     -19.124 -14.956  10.574  1.00  0.00     0.029 C 
BRANCH   8   9
ATOM      9  C   UNL     1     -19.122 -16.102  11.548  1.00  0.00    -0.035 C 
ATOM     10  C   UNL     1     -18.563 -15.998  12.757  1.00  0.00     0.004 C 
ENDBRANCH   8   9
ENDBRANCH   1   8
TORSDOF 6
ENDMDL
MODEL 5
REMARK VINA RESULT:    -2.674      1.485      3.762
REMARK INTER + INTRA:          -3.937
REMARK INTER:                  -3.507
REMARK INTRA:                  -0.430
REMARK UNBOUND:                -0.403
REMARK SMILES C=CCC[C@H](O)CCC
REMARK SMILES IDX 4 1 5 2 7 3 8 4 9 5 6 6 3 8 2 9 1 10
REMARK H PARENT 6 7
REMARK Flexibility Score: inf
ROOT
ATOM      1  C   UNL     1     -16.810 -13.882  10.191  1.00  0.00     0.036 C 
ENDROOT
BRANCH   1   2
ATOM      2  C   UNL     1     -16.574 -14.341   8.735  1.00  0.00     0.114 C 
BRANCH   2   3
ATOM      3  C   UNL     1     -17.610 -15.391   8.275  1.00  0.00     0.031 C 
BRANCH   3   4
ATOM      4  C   UNL     1     -16.937 -16.713   7.876  1.00  0.00    -0.001 C 
ATOM      5  C   UNL     1     -15.419 -16.620   8.005  1.00  0.00     0.004 C 
ENDBRANCH   3   4
ENDBRANCH   2   3
BRANCH   2   6
ATOM      6  O   UNL     1     -16.590 -13.225   7.879  1.00  0.00    -0.393 OA
ATOM      7  H   UNL     1     -15.827 -12.642   8.132  1.00  0.00     0.210 HD
ENDBRANCH   2   6
ENDBRANCH   1   2
BRANCH   1   8
ATOM      8  C   UNL     1     -18.300 -13.734  10.537  1.00  0.00     0.029 C 
BRANCH   8   9
ATOM      9  C   UNL     1     -18.687 -14.639  11.675  1.00  0.00    -0.035 C 
ATOM     10  C   UNL     1     -17.971 -15.723  11.987  1.00  0.00     0.004 C 
ENDBRANCH   8   9
ENDBRANCH   1   8
TORSDOF 6
ENDMDL
MODEL 6
REMARK VINA RESULT:    -2.233      1.618      3.116
REMARK INTER + INTRA:          -3.355
REMARK INTER:                  -3.041
REMARK INTRA:                  -0.314
REMARK UNBOUND:                -0.403
REMARK SMILES C=CCC[C@H](O)CCC
REMARK SMILES IDX 4 1 5 2 7 3 8 4 9 5 6 6 3 8 2 9 1 10
REMARK H PARENT 6 7
REMARK Flexibility Score: inf
ROOT
ATOM      1  C   UNL     1     -17.504 -14.970  11.117  1.00  0.00     0.036 C 
ENDROOT
BRANCH   1   2
ATOM      2  C   UNL     1     -17.640 -13.477  10.747  1.00  0.00     0.114 C 
BRANCH   2   3
ATOM      3  C   UNL     1     -17.906 -13.266   9.240  1.00  0.00     0.031 C 
BRANCH   3   4
ATOM      4  C   UNL     1     -16.628 -13.446   8.408  1.00  0.00    -0.001 C 
ATOM      5  C   UNL     1     -16.513 -14.873   7.876  1.00  0.00     0.004 C 
ENDBRANCH   3   4
ENDBRANCH   2   3
BRANCH   2   6
ATOM      6  O   UNL     1     -18.663 -12.890  11.514  1.00  0.00    -0.393 OA
ATOM      7  H   UNL     1     -19.514 -13.346  11.277  1.00  0.00     0.210 HD
ENDBRANCH   2   6
ENDBRANCH   1   2
BRANCH   1   8
ATOM      8  C   UNL     1     -18.851 -15.711  11.113  1.00  0.00     0.029 C 
BRANCH   8   9
ATOM      9  C   UNL     1     -18.804 -16.920  10.219  1.00  0.00    -0.035 C 
ATOM     10  C   UNL     1     -19.125 -16.851   8.924  1.00  0.00     0.004 C 
ENDBRANCH   8   9
ENDBRANCH   1   8
TORSDOF 6
ENDMDL
