MODEL 1
REMARK VINA RESULT:    -4.310      0.000      0.000
REMARK INTER + INTRA:         -12.619
REMARK INTER:                  -9.350
REMARK INTRA:                  -3.269
REMARK UNBOUND:                -3.269
REMARK SMILES CCCCCCCCCCCCCCCCCCCCCC(=O)[O-]
REMARK SMILES IDX 12 1 11 2 10 3 9 4 8 5 7 6 6 7 5 8 4 9 3 10 2 11 1 12 13 13
REMARK SMILES IDX 14 14 15 15 16 16 17 17 18 18 19 19 20 20 21 21 22 22 23 23
REMARK SMILES IDX 24 24
REMARK H PARENT
REMARK Flexibility Score: inf
ROOT
ATOM      1  C   UNL     1      16.122  50.733  26.041  1.00  0.00     0.000 C 
ENDROOT
BRANCH   1   2
ATOM      2  C   UNL     1      16.299  52.019  25.219  1.00  0.00     0.000 C 
BRANCH   2   3
ATOM      3  C   UNL     1      15.380  52.063  23.985  1.00  0.00     0.000 C 
BRANCH   3   4
ATOM      4  C   UNL     1      14.528  53.341  23.927  1.00  0.00    -0.000 C 
BRANCH   4   5
ATOM      5  C   UNL     1      14.297  53.967  25.311  1.00  0.00    -0.000 C 
BRANCH   5   6
ATOM      6  C   UNL     1      12.891  53.643  25.829  1.00  0.00    -0.000 C 
BRANCH   6   7
ATOM      7  C   UNL     1      12.939  52.558  26.913  1.00  0.00    -0.000 C 
BRANCH   7   8
ATOM      8  C   UNL     1      13.081  53.135  28.332  1.00  0.00    -0.000 C 
BRANCH   8   9
ATOM      9  C   UNL     1      14.342  52.645  29.074  1.00  0.00    -0.000 C 
BRANCH   9  10
ATOM     10  C   UNL     1      15.517  53.630  28.932  1.00  0.00    -0.000 C 
BRANCH  10  11
ATOM     11  C   UNL     1      15.710  54.503  30.181  1.00  0.00    -0.003 C 
ATOM     12  C   UNL     1      15.824  53.681  31.465  1.00  0.00     0.004 C 
ENDBRANCH  10  11
ENDBRANCH   9  10
ENDBRANCH   8   9
ENDBRANCH   7   8
ENDBRANCH   6   7
ENDBRANCH   5   6
ENDBRANCH   4   5
ENDBRANCH   3   4
ENDBRANCH   2   3
ENDBRANCH   1   2
BRANCH   1  13
ATOM     13  C   UNL     1      17.109  50.642  27.218  1.00  0.00     0.000 C 
BRANCH  13  14
ATOM     14  C   UNL     1      18.082  51.829  27.269  1.00  0.00     0.000 C 
BRANCH  14  15
ATOM     15  C   UNL     1      19.243  51.601  28.249  1.00  0.00     0.000 C 
BRANCH  15  16
ATOM     16  C   UNL     1      18.878  52.094  29.654  1.00  0.00     0.000 C 
BRANCH  16  17
ATOM     17  C   UNL     1      19.253  51.052  30.719  1.00  0.00     0.000 C 
BRANCH  17  18
ATOM     18  C   UNL     1      18.078  50.712  31.649  1.00  0.00     0.000 C 
BRANCH  18  19
ATOM     19  C   UNL     1      16.892  50.084  30.896  1.00  0.00     0.000 C 
BRANCH  19  20
ATOM     20  C   UNL     1      16.113  49.069  31.751  1.00  0.00     0.006 C 
BRANCH  20  21
ATOM     21  C   UNL     1      14.674  49.496  32.082  1.00  0.00     0.053 C 
BRANCH  21  22
ATOM     22  C   UNL     1      13.687  48.400  31.826  1.00  0.00     0.041 C 
ATOM     23  O   UNL     1      14.023  47.195  31.972  1.00  0.00    -0.550 OA
ATOM     24  O   UNL     1      12.403  48.708  31.396  1.00  0.00    -0.550 OA
ENDBRANCH  21  22
ENDBRANCH  20  21
ENDBRANCH  19  20
ENDBRANCH  18  19
ENDBRANCH  17  18
ENDBRANCH  16  17
ENDBRANCH  15  16
ENDBRANCH  14  15
ENDBRANCH  13  14
ENDBRANCH   1  13
TORSDOF 20
ENDMDL
MODEL 2
REMARK VINA RESULT:    -4.235      8.142     11.110
REMARK INTER + INTRA:         -12.456
REMARK INTER:                  -8.504
REMARK INTRA:                  -3.952
REMARK UNBOUND:                -3.269
REMARK SMILES CCCCCCCCCCCCCCCCCCCCCC(=O)[O-]
REMARK SMILES IDX 12 1 11 2 10 3 9 4 8 5 7 6 6 7 5 8 4 9 3 10 2 11 1 12 13 13
REMARK SMILES IDX 14 14 15 15 16 16 17 17 18 18 19 19 20 20 21 21 22 22 23 23
REMARK SMILES IDX 24 24
REMARK H PARENT
REMARK Flexibility Score: inf
ROOT
ATOM      1  C   UNL     1      17.112  51.386  35.614  1.00  0.00     0.000 C 
ENDROOT
BRANCH   1   2
ATOM      2  C   UNL     1      18.484  52.079  35.591  1.00  0.00     0.000 C 
BRANCH   2   3
ATOM      3  C   UNL     1      19.306  51.804  36.862  1.00  0.00     0.000 C 
BRANCH   3   4
ATOM      4  C   UNL     1      20.417  52.842  37.085  1.00  0.00    -0.000 C 
BRANCH   4   5
ATOM      5  C   UNL     1      20.377  53.467  38.488  1.00  0.00    -0.000 C 
BRANCH   5   6
ATOM      6  C   UNL     1      21.710  53.256  39.217  1.00  0.00    -0.000 C 
BRANCH   6   7
ATOM      7  C   UNL     1      22.511  52.111  38.581  1.00  0.00    -0.000 C 
BRANCH   7   8
ATOM      8  C   UNL     1      22.436  50.806  39.393  1.00  0.00    -0.000 C 
BRANCH   8   9
ATOM      9  C   UNL     1      22.114  51.026  40.886  1.00  0.00    -0.000 C 
BRANCH   9  10
ATOM     10  C   UNL     1      20.784  50.367  41.296  1.00  0.00    -0.000 C 
BRANCH  10  11
ATOM     11  C   UNL     1      19.879  50.065  40.091  1.00  0.00    -0.003 C 
ATOM     12  C   UNL     1      18.459  50.601  40.270  1.00  0.00     0.004 C 
ENDBRANCH  10  11
ENDBRANCH   9  10
ENDBRANCH   8   9
ENDBRANCH   7   8
ENDBRANCH   6   7
ENDBRANCH   5   6
ENDBRANCH   4   5
ENDBRANCH   3   4
ENDBRANCH   2   3
ENDBRANCH   1   2
BRANCH   1  13
ATOM     13  C   UNL     1      16.561  51.210  37.040  1.00  0.00     0.000 C 
BRANCH  13  14
ATOM     14  C   UNL     1      16.141  49.763  37.338  1.00  0.00     0.000 C 
BRANCH  14  15
ATOM     15  C   UNL     1      16.979  48.732  36.567  1.00  0.00     0.000 C 
BRANCH  15  16
ATOM     16  C   UNL     1      18.122  48.195  37.434  1.00  0.00     0.000 C 
BRANCH  16  17
ATOM     17  C   UNL     1      19.435  48.128  36.639  1.00  0.00     0.000 C 
BRANCH  17  18
ATOM     18  C   UNL     1      19.243  48.481  35.155  1.00  0.00     0.000 C 
BRANCH  18  19
ATOM     19  C   UNL     1      20.530  49.015  34.505  1.00  0.00     0.000 C 
BRANCH  19  20
ATOM     20  C   UNL     1      21.789  48.714  35.339  1.00  0.00     0.006 C 
BRANCH  20  21
ATOM     21  C   UNL     1      22.827  47.837  34.621  1.00  0.00     0.053 C 
BRANCH  21  22
ATOM     22  C   UNL     1      22.226  46.573  34.087  1.00  0.00     0.041 C 
ATOM     23  O   UNL     1      22.223  46.345  32.849  1.00  0.00    -0.550 OA
ATOM     24  O   UNL     1      21.640  45.662  34.956  1.00  0.00    -0.550 OA
ENDBRANCH  21  22
ENDBRANCH  20  21
ENDBRANCH  19  20
ENDBRANCH  18  19
ENDBRANCH  17  18
ENDBRANCH  16  17
ENDBRANCH  15  16
ENDBRANCH  14  15
ENDBRANCH  13  14
ENDBRANCH   1  13
TORSDOF 20
ENDMDL
MODEL 3
REMARK VINA RESULT:    -4.206      6.967     11.467
REMARK INTER + INTRA:         -12.393
REMARK INTER:                  -8.331
REMARK INTRA:                  -4.062
REMARK UNBOUND:                -3.269
REMARK SMILES CCCCCCCCCCCCCCCCCCCCCC(=O)[O-]
REMARK SMILES IDX 12 1 11 2 10 3 9 4 8 5 7 6 6 7 5 8 4 9 3 10 2 11 1 12 13 13
REMARK SMILES IDX 14 14 15 15 16 16 17 17 18 18 19 19 20 20 21 21 22 22 23 23
REMARK SMILES IDX 24 24
REMARK H PARENT
REMARK Flexibility Score: inf
ROOT
ATOM      1  C   UNL     1      19.792  49.869  41.009  1.00  0.00     0.000 C 
ENDROOT
BRANCH   1   2
ATOM      2  C   UNL     1      20.086  51.150  41.806  1.00  0.00     0.000 C 
BRANCH   2   3
ATOM      3  C   UNL     1      21.348  51.878  41.310  1.00  0.00     0.000 C 
BRANCH   3   4
ATOM      4  C   UNL     1      21.050  53.292  40.789  1.00  0.00    -0.000 C 
BRANCH   4   5
ATOM      5  C   UNL     1      21.336  53.447  39.287  1.00  0.00    -0.000 C 
BRANCH   5   6
ATOM      6  C   UNL     1      20.046  53.307  38.469  1.00  0.00    -0.000 C 
BRANCH   6   7
ATOM      7  C   UNL     1      20.154  52.152  37.464  1.00  0.00    -0.000 C 
BRANCH   7   8
ATOM      8  C   UNL     1      21.482  51.385  37.575  1.00  0.00    -0.000 C 
BRANCH   8   9
ATOM      9  C   UNL     1      21.311  49.851  37.570  1.00  0.00    -0.000 C 
BRANCH   9  10
ATOM     10  C   UNL     1      20.039  49.412  36.821  1.00  0.00    -0.000 C 
BRANCH  10  11
ATOM     11  C   UNL     1      20.335  48.415  35.691  1.00  0.00    -0.003 C 
ATOM     12  C   UNL     1      20.994  49.073  34.479  1.00  0.00     0.004 C 
ENDBRANCH  10  11
ENDBRANCH   9  10
ENDBRANCH   8   9
ENDBRANCH   7   8
ENDBRANCH   6   7
ENDBRANCH   5   6
ENDBRANCH   4   5
ENDBRANCH   3   4
ENDBRANCH   2   3
ENDBRANCH   1   2
BRANCH   1  13
ATOM     13  C   UNL     1      18.542  49.996  40.121  1.00  0.00     0.000 C 
BRANCH  13  14
ATOM     14  C   UNL     1      17.649  51.179  40.522  1.00  0.00     0.000 C 
BRANCH  14  15
ATOM     15  C   UNL     1      16.847  51.744  39.340  1.00  0.00     0.000 C 
BRANCH  15  16
ATOM     16  C   UNL     1      16.529  50.645  38.319  1.00  0.00     0.000 C 
BRANCH  16  17
ATOM     17  C   UNL     1      16.580  51.192  36.885  1.00  0.00     0.000 C 
BRANCH  17  18
ATOM     18  C   UNL     1      16.133  50.155  35.843  1.00  0.00     0.000 C 
BRANCH  18  19
ATOM     19  C   UNL     1      17.089  50.077  34.640  1.00  0.00     0.000 C 
BRANCH  19  20
ATOM     20  C   UNL     1      17.235  51.424  33.908  1.00  0.00     0.006 C 
BRANCH  20  21
ATOM     21  C   UNL     1      18.678  51.770  33.507  1.00  0.00     0.053 C 
BRANCH  21  22
ATOM     22  C   UNL     1      18.942  51.497  32.058  1.00  0.00     0.041 C 
ATOM     23  O   UNL     1      18.008  51.116  31.303  1.00  0.00    -0.550 OA
ATOM     24  O   UNL     1      20.226  51.634  31.548  1.00  0.00    -0.550 OA
ENDBRANCH  21  22
ENDBRANCH  20  21
ENDBRANCH  19  20
ENDBRANCH  18  19
ENDBRANCH  17  18
ENDBRANCH  16  17
ENDBRANCH  15  16
ENDBRANCH  14  15
ENDBRANCH  13  14
ENDBRANCH   1  13
TORSDOF 20
ENDMDL
MODEL 4
REMARK VINA RESULT:    -4.202      1.307      4.906
REMARK INTER + INTRA:         -12.383
REMARK INTER:                  -8.803
REMARK INTRA:                  -3.580
REMARK UNBOUND:                -3.269
REMARK SMILES CCCCCCCCCCCCCCCCCCCCCC(=O)[O-]
REMARK SMILES IDX 12 1 11 2 10 3 9 4 8 5 7 6 6 7 5 8 4 9 3 10 2 11 1 12 13 13
REMARK SMILES IDX 14 14 15 15 16 16 17 17 18 18 19 19 20 20 21 21 22 22 23 23
REMARK SMILES IDX 24 24
REMARK H PARENT
REMARK Flexibility Score: inf
ROOT
ATOM      1  C   UNL     1      19.037  50.559  32.733  1.00  0.00     0.000 C 
ENDROOT
BRANCH   1   2
ATOM      2  C   UNL     1      19.601  50.394  31.312  1.00  0.00     0.000 C 
BRANCH   2   3
ATOM      3  C   UNL     1      19.813  51.743  30.601  1.00  0.00     0.000 C 
BRANCH   3   4
ATOM      4  C   UNL     1      19.393  51.705  29.123  1.00  0.00    -0.000 C 
BRANCH   4   5
ATOM      5  C   UNL     1      18.836  50.338  28.697  1.00  0.00    -0.000 C 
BRANCH   5   6
ATOM      6  C   UNL     1      17.684  50.506  27.699  1.00  0.00    -0.000 C 
BRANCH   6   7
ATOM      7  C   UNL     1      17.530  51.973  27.276  1.00  0.00    -0.000 C 
BRANCH   7   8
ATOM      8  C   UNL     1      16.733  52.139  25.971  1.00  0.00    -0.000 C 
BRANCH   8   9
ATOM      9  C   UNL     1      15.455  51.276  25.914  1.00  0.00    -0.000 C 
BRANCH   9  10
ATOM     10  C   UNL     1      14.176  52.129  25.994  1.00  0.00    -0.000 C 
BRANCH  10  11
ATOM     11  C   UNL     1      13.521  52.081  27.383  1.00  0.00    -0.003 C 
ATOM     12  C   UNL     1      12.387  53.094  27.538  1.00  0.00     0.004 C 
ENDBRANCH  10  11
ENDBRANCH   9  10
ENDBRANCH   8   9
ENDBRANCH   7   8
ENDBRANCH   6   7
ENDBRANCH   5   6
ENDBRANCH   4   5
ENDBRANCH   3   4
ENDBRANCH   2   3
ENDBRANCH   1   2
BRANCH   1  13
ATOM     13  C   UNL     1      18.740  52.027  33.087  1.00  0.00     0.000 C 
BRANCH  13  14
ATOM     14  C   UNL     1      17.269  52.260  33.461  1.00  0.00     0.000 C 
BRANCH  14  15
ATOM     15  C   UNL     1      16.613  53.366  32.621  1.00  0.00     0.000 C 
BRANCH  15  16
ATOM     16  C   UNL     1      16.511  52.949  31.149  1.00  0.00     0.000 C 
BRANCH  16  17
ATOM     17  C   UNL     1      15.047  52.734  30.735  1.00  0.00     0.000 C 
BRANCH  17  18
ATOM     18  C   UNL     1      14.661  51.247  30.689  1.00  0.00     0.000 C 
BRANCH  18  19
ATOM     19  C   UNL     1      15.885  50.318  30.758  1.00  0.00     0.000 C 
BRANCH  19  20
ATOM     20  C   UNL     1      15.695  49.155  31.750  1.00  0.00     0.006 C 
BRANCH  20  21
ATOM     21  C   UNL     1      14.324  49.138  32.445  1.00  0.00     0.053 C 
BRANCH  21  22
ATOM     22  C   UNL     1      13.397  48.129  31.840  1.00  0.00     0.041 C 
ATOM     23  O   UNL     1      12.261  48.480  31.425  1.00  0.00    -0.550 OA
ATOM     24  O   UNL     1      13.775  46.796  31.764  1.00  0.00    -0.550 OA
ENDBRANCH  21  22
ENDBRANCH  20  21
ENDBRANCH  19  20
ENDBRANCH  18  19
ENDBRANCH  17  18
ENDBRANCH  16  17
ENDBRANCH  15  16
ENDBRANCH  14  15
ENDBRANCH  13  14
ENDBRANCH   1  13
TORSDOF 20
ENDMDL
MODEL 5
REMARK VINA RESULT:    -4.200      7.561     11.870
REMARK INTER + INTRA:         -12.378
REMARK INTER:                  -8.775
REMARK INTRA:                  -3.603
REMARK UNBOUND:                -3.269
REMARK SMILES CCCCCCCCCCCCCCCCCCCCCC(=O)[O-]
REMARK SMILES IDX 12 1 11 2 10 3 9 4 8 5 7 6 6 7 5 8 4 9 3 10 2 11 1 12 13 13
REMARK SMILES IDX 14 14 15 15 16 16 17 17 18 18 19 19 20 20 21 21 22 22 23 23
REMARK SMILES IDX 24 24
REMARK H PARENT
REMARK Flexibility Score: inf
ROOT
ATOM      1  C   UNL     1      17.567  51.102  38.977  1.00  0.00     0.000 C 
ENDROOT
BRANCH   1   2
ATOM      2  C   UNL     1      18.420  49.838  38.786  1.00  0.00     0.000 C 
BRANCH   2   3
ATOM      3  C   UNL     1      19.218  49.467  40.049  1.00  0.00     0.000 C 
BRANCH   3   4
ATOM      4  C   UNL     1      19.391  50.655  41.009  1.00  0.00    -0.000 C 
BRANCH   4   5
ATOM      5  C   UNL     1      20.714  50.604  41.788  1.00  0.00    -0.000 C 
BRANCH   5   6
ATOM      6  C   UNL     1      21.248  52.017  42.051  1.00  0.00    -0.000 C 
BRANCH   6   7
ATOM      7  C   UNL     1      22.657  52.192  41.470  1.00  0.00    -0.000 C 
BRANCH   7   8
ATOM      8  C   UNL     1      22.910  51.306  40.238  1.00  0.00    -0.000 C 
BRANCH   8   9
ATOM      9  C   UNL     1      22.841  52.074  38.901  1.00  0.00    -0.000 C 
BRANCH   9  10
ATOM     10  C   UNL     1      21.702  51.566  37.999  1.00  0.00    -0.000 C 
BRANCH  10  11
ATOM     11  C   UNL     1      20.720  52.680  37.605  1.00  0.00    -0.003 C 
ATOM     12  C   UNL     1      20.295  53.542  38.794  1.00  0.00     0.004 C 
ENDBRANCH  10  11
ENDBRANCH   9  10
ENDBRANCH   8   9
ENDBRANCH   7   8
ENDBRANCH   6   7
ENDBRANCH   5   6
ENDBRANCH   4   5
ENDBRANCH   3   4
ENDBRANCH   2   3
ENDBRANCH   1   2
BRANCH   1  13
ATOM     13  C   UNL     1      16.206  51.012  38.264  1.00  0.00     0.000 C 
BRANCH  13  14
ATOM     14  C   UNL     1      16.273  51.475  36.801  1.00  0.00     0.000 C 
BRANCH  14  15
ATOM     15  C   UNL     1      16.162  50.310  35.806  1.00  0.00     0.000 C 
BRANCH  15  16
ATOM     16  C   UNL     1      17.182  50.459  34.672  1.00  0.00     0.000 C 
BRANCH  16  17
ATOM     17  C   UNL     1      18.462  51.151  35.167  1.00  0.00     0.000 C 
BRANCH  17  18
ATOM     18  C   UNL     1      19.691  50.231  35.103  1.00  0.00     0.000 C 
BRANCH  18  19
ATOM     19  C   UNL     1      19.393  48.813  35.618  1.00  0.00     0.000 C 
BRANCH  19  20
ATOM     20  C   UNL     1      20.668  47.980  35.841  1.00  0.00     0.006 C 
BRANCH  20  21
ATOM     21  C   UNL     1      21.848  48.380  34.941  1.00  0.00     0.053 C 
BRANCH  21  22
ATOM     22  C   UNL     1      22.316  47.243  34.086  1.00  0.00     0.041 C 
ATOM     23  O   UNL     1      21.787  47.034  32.962  1.00  0.00    -0.550 OA
ATOM     24  O   UNL     1      23.316  46.396  34.542  1.00  0.00    -0.550 OA
ENDBRANCH  21  22
ENDBRANCH  20  21
ENDBRANCH  19  20
ENDBRANCH  18  19
ENDBRANCH  17  18
ENDBRANCH  16  17
ENDBRANCH  15  16
ENDBRANCH  14  15
ENDBRANCH  13  14
ENDBRANCH   1  13
TORSDOF 20
ENDMDL
MODEL 6
REMARK VINA RESULT:    -4.121      1.489      2.117
REMARK INTER + INTRA:         -12.207
REMARK INTER:                  -8.625
REMARK INTRA:                  -3.582
REMARK UNBOUND:                -3.269
REMARK SMILES CCCCCCCCCCCCCCCCCCCCCC(=O)[O-]
REMARK SMILES IDX 12 1 11 2 10 3 9 4 8 5 7 6 6 7 5 8 4 9 3 10 2 11 1 12 13 13
REMARK SMILES IDX 14 14 15 15 16 16 17 17 18 18 19 19 20 20 21 21 22 22 23 23
REMARK SMILES IDX 24 24
REMARK H PARENT
REMARK Flexibility Score: inf
ROOT
ATOM      1  C   UNL     1      16.508  50.817  27.211  1.00  0.00     0.000 C 
ENDROOT
BRANCH   1   2
ATOM      2  C   UNL     1      15.776  50.600  25.876  1.00  0.00     0.000 C 
BRANCH   2   3
ATOM      3  C   UNL     1      14.727  51.690  25.594  1.00  0.00     0.000 C 
BRANCH   3   4
ATOM      4  C   UNL     1      13.570  51.675  26.605  1.00  0.00    -0.000 C 
BRANCH   4   5
ATOM      5  C   UNL     1      12.854  53.031  26.712  1.00  0.00    -0.000 C 
BRANCH   5   6
ATOM      6  C   UNL     1      12.922  53.572  28.145  1.00  0.00    -0.000 C 
BRANCH   6   7
ATOM      7  C   UNL     1      14.218  54.361  28.376  1.00  0.00    -0.000 C 
BRANCH   7   8
ATOM      8  C   UNL     1      14.997  53.882  29.613  1.00  0.00    -0.000 C 
BRANCH   8   9
ATOM      9  C   UNL     1      14.688  52.423  30.010  1.00  0.00    -0.000 C 
BRANCH   9  10
ATOM     10  C   UNL     1      15.613  51.919  31.133  1.00  0.00    -0.000 C 
BRANCH  10  11
ATOM     11  C   UNL     1      16.415  53.053  31.789  1.00  0.00    -0.003 C 
ATOM     12  C   UNL     1      17.174  52.597  33.035  1.00  0.00     0.004 C 
ENDBRANCH  10  11
ENDBRANCH   9  10
ENDBRANCH   8   9
ENDBRANCH   7   8
ENDBRANCH   6   7
ENDBRANCH   5   6
ENDBRANCH   4   5
ENDBRANCH   3   4
ENDBRANCH   2   3
ENDBRANCH   1   2
BRANCH   1  13
ATOM     13  C   UNL     1      17.266  52.155  27.259  1.00  0.00     0.000 C 
BRANCH  13  14
ATOM     14  C   UNL     1      18.734  51.989  27.679  1.00  0.00     0.000 C 
BRANCH  14  15
ATOM     15  C   UNL     1      18.901  51.836  29.199  1.00  0.00     0.000 C 
BRANCH  15  16
ATOM     16  C   UNL     1      19.829  50.662  29.532  1.00  0.00     0.000 C 
BRANCH  16  17
ATOM     17  C   UNL     1      19.098  49.319  29.383  1.00  0.00     0.000 C 
BRANCH  17  18
ATOM     18  C   UNL     1      17.892  49.198  30.328  1.00  0.00     0.000 C 
BRANCH  18  19
ATOM     19  C   UNL     1      18.284  49.351  31.807  1.00  0.00     0.000 C 
BRANCH  19  20
ATOM     20  C   UNL     1      17.683  48.250  32.700  1.00  0.00     0.006 C 
BRANCH  20  21
ATOM     21  C   UNL     1      16.244  47.855  32.332  1.00  0.00     0.053 C 
BRANCH  21  22
ATOM     22  C   UNL     1      15.231  48.752  32.972  1.00  0.00     0.041 C 
ATOM     23  O   UNL     1      15.434  49.219  34.124  1.00  0.00    -0.550 OA
ATOM     24  O   UNL     1      14.048  49.049  32.308  1.00  0.00    -0.550 OA
ENDBRANCH  21  22
ENDBRANCH  20  21
ENDBRANCH  19  20
ENDBRANCH  18  19
ENDBRANCH  17  18
ENDBRANCH  16  17
ENDBRANCH  15  16
ENDBRANCH  14  15
ENDBRANCH  13  14
ENDBRANCH   1  13
TORSDOF 20
ENDMDL
MODEL 7
REMARK VINA RESULT:    -4.116      7.385     11.875
REMARK INTER + INTRA:         -12.197
REMARK INTER:                  -8.415
REMARK INTRA:                  -3.782
REMARK UNBOUND:                -3.269
REMARK SMILES CCCCCCCCCCCCCCCCCCCCCC(=O)[O-]
REMARK SMILES IDX 12 1 11 2 10 3 9 4 8 5 7 6 6 7 5 8 4 9 3 10 2 11 1 12 13 13
REMARK SMILES IDX 14 14 15 15 16 16 17 17 18 18 19 19 20 20 21 21 22 22 23 23
REMARK SMILES IDX 24 24
REMARK H PARENT
REMARK Flexibility Score: inf
ROOT
ATOM      1  C   UNL     1      17.975  50.199  39.513  1.00  0.00     0.000 C 
ENDROOT
BRANCH   1   2
ATOM      2  C   UNL     1      18.996  50.235  40.662  1.00  0.00     0.000 C 
BRANCH   2   3
ATOM      3  C   UNL     1      18.995  51.580  41.411  1.00  0.00     0.000 C 
BRANCH   3   4
ATOM      4  C   UNL     1      20.342  51.882  42.086  1.00  0.00    -0.000 C 
BRANCH   4   5
ATOM      5  C   UNL     1      21.294  52.683  41.184  1.00  0.00    -0.000 C 
BRANCH   5   6
ATOM      6  C   UNL     1      22.700  52.069  41.195  1.00  0.00    -0.000 C 
BRANCH   6   7
ATOM      7  C   UNL     1      23.163  51.729  39.772  1.00  0.00    -0.000 C 
BRANCH   7   8
ATOM      8  C   UNL     1      22.770  50.306  39.339  1.00  0.00    -0.000 C 
BRANCH   8   9
ATOM      9  C   UNL     1      21.614  50.269  38.318  1.00  0.00    -0.000 C 
BRANCH   9  10
ATOM     10  C   UNL     1      21.546  51.554  37.472  1.00  0.00    -0.000 C 
BRANCH  10  11
ATOM     11  C   UNL     1      20.130  52.147  37.413  1.00  0.00    -0.003 C 
ATOM     12  C   UNL     1      20.081  53.607  37.862  1.00  0.00     0.004 C 
ENDBRANCH  10  11
ENDBRANCH   9  10
ENDBRANCH   8   9
ENDBRANCH   7   8
ENDBRANCH   6   7
ENDBRANCH   5   6
ENDBRANCH   4   5
ENDBRANCH   3   4
ENDBRANCH   2   3
ENDBRANCH   1   2
BRANCH   1  13
ATOM     13  C   UNL     1      17.888  48.818  38.841  1.00  0.00     0.000 C 
BRANCH  13  14
ATOM     14  C   UNL     1      16.751  48.730  37.812  1.00  0.00     0.000 C 
BRANCH  14  15
ATOM     15  C   UNL     1      16.117  50.097  37.512  1.00  0.00     0.000 C 
BRANCH  15  16
ATOM     16  C   UNL     1      16.456  50.558  36.090  1.00  0.00     0.000 C 
BRANCH  16  17
ATOM     17  C   UNL     1      16.874  49.370  35.209  1.00  0.00     0.000 C 
BRANCH  17  18
ATOM     18  C   UNL     1      17.885  49.770  34.123  1.00  0.00     0.000 C 
BRANCH  18  19
ATOM     19  C   UNL     1      19.312  49.927  34.675  1.00  0.00     0.000 C 
BRANCH  19  20
ATOM     20  C   UNL     1      19.715  48.778  35.618  1.00  0.00     0.006 C 
BRANCH  20  21
ATOM     21  C   UNL     1      21.052  48.109  35.261  1.00  0.00     0.053 C 
BRANCH  21  22
ATOM     22  C   UNL     1      20.862  46.742  34.682  1.00  0.00     0.041 C 
ATOM     23  O   UNL     1      21.752  45.862  34.826  1.00  0.00    -0.550 OA
ATOM     24  O   UNL     1      19.716  46.447  33.956  1.00  0.00    -0.550 OA
ENDBRANCH  21  22
ENDBRANCH  20  21
ENDBRANCH  19  20
ENDBRANCH  18  19
ENDBRANCH  17  18
ENDBRANCH  16  17
ENDBRANCH  15  16
ENDBRANCH  14  15
ENDBRANCH  13  14
ENDBRANCH   1  13
TORSDOF 20
ENDMDL
MODEL 8
REMARK VINA RESULT:    -4.112      6.371      8.128
REMARK INTER + INTRA:         -12.189
REMARK INTER:                  -9.879
REMARK INTRA:                  -2.310
REMARK UNBOUND:                -3.269
REMARK SMILES CCCCCCCCCCCCCCCCCCCCCC(=O)[O-]
REMARK SMILES IDX 12 1 11 2 10 3 9 4 8 5 7 6 6 7 5 8 4 9 3 10 2 11 1 12 13 13
REMARK SMILES IDX 14 14 15 15 16 16 17 17 18 18 19 19 20 20 21 21 22 22 23 23
REMARK SMILES IDX 24 24
REMARK H PARENT
REMARK Flexibility Score: inf
ROOT
ATOM      1  C   UNL     1      17.583  50.701  27.351  1.00  0.00     0.000 C 
ENDROOT
BRANCH   1   2
ATOM      2  C   UNL     1      16.151  50.662  26.795  1.00  0.00     0.000 C 
BRANCH   2   3
ATOM      3  C   UNL     1      16.116  50.625  25.257  1.00  0.00     0.000 C 
BRANCH   3   4
ATOM      4  C   UNL     1      15.327  51.799  24.655  1.00  0.00    -0.000 C 
BRANCH   4   5
ATOM      5  C   UNL     1      14.993  52.885  25.689  1.00  0.00    -0.000 C 
BRANCH   5   6
ATOM      6  C   UNL     1      13.476  53.070  25.815  1.00  0.00    -0.000 C 
BRANCH   6   7
ATOM      7  C   UNL     1      13.045  53.108  27.288  1.00  0.00    -0.000 C 
BRANCH   7   8
ATOM      8  C   UNL     1      14.204  53.446  28.241  1.00  0.00    -0.000 C 
BRANCH   8   9
ATOM      9  C   UNL     1      13.939  53.035  29.705  1.00  0.00    -0.000 C 
BRANCH   9  10
ATOM     10  C   UNL     1      15.037  52.107  30.255  1.00  0.00    -0.000 C 
BRANCH  10  11
ATOM     11  C   UNL     1      16.260  52.881  30.770  1.00  0.00    -0.003 C 
ATOM     12  C   UNL     1      17.403  51.963  31.200  1.00  0.00     0.004 C 
ENDBRANCH  10  11
ENDBRANCH   9  10
ENDBRANCH   8   9
ENDBRANCH   7   8
ENDBRANCH   6   7
ENDBRANCH   5   6
ENDBRANCH   4   5
ENDBRANCH   3   4
ENDBRANCH   2   3
ENDBRANCH   1   2
BRANCH   1  13
ATOM     13  C   UNL     1      18.089  52.135  27.586  1.00  0.00     0.000 C 
BRANCH  13  14
ATOM     14  C   UNL     1      19.306  52.484  26.717  1.00  0.00     0.000 C 
BRANCH  14  15
ATOM     15  C   UNL     1      18.923  52.818  25.267  1.00  0.00     0.000 C 
BRANCH  15  16
ATOM     16  C   UNL     1      20.027  53.630  24.582  1.00  0.00     0.000 C 
BRANCH  16  17
ATOM     17  C   UNL     1      21.078  54.102  25.598  1.00  0.00     0.000 C 
BRANCH  17  18
ATOM     18  C   UNL     1      21.899  55.295  25.084  1.00  0.00     0.000 C 
BRANCH  18  19
ATOM     19  C   UNL     1      22.837  55.872  26.159  1.00  0.00     0.000 C 
BRANCH  19  20
ATOM     20  C   UNL     1      24.308  55.911  25.707  1.00  0.00     0.006 C 
BRANCH  20  21
ATOM     21  C   UNL     1      24.631  57.031  24.706  1.00  0.00     0.053 C 
BRANCH  21  22
ATOM     22  C   UNL     1      26.010  57.583  24.901  1.00  0.00     0.041 C 
ATOM     23  O   UNL     1      26.355  58.648  24.325  1.00  0.00    -0.550 OA
ATOM     24  O   UNL     1      26.924  56.902  25.694  1.00  0.00    -0.550 OA
ENDBRANCH  21  22
ENDBRANCH  20  21
ENDBRANCH  19  20
ENDBRANCH  18  19
ENDBRANCH  17  18
ENDBRANCH  16  17
ENDBRANCH  15  16
ENDBRANCH  14  15
ENDBRANCH  13  14
ENDBRANCH   1  13
TORSDOF 20
ENDMDL
MODEL 9
REMARK VINA RESULT:    -4.093      6.781     11.040
REMARK INTER + INTRA:         -12.147
REMARK INTER:                  -8.244
REMARK INTRA:                  -3.903
REMARK UNBOUND:                -3.269
REMARK SMILES CCCCCCCCCCCCCCCCCCCCCC(=O)[O-]
REMARK SMILES IDX 12 1 11 2 10 3 9 4 8 5 7 6 6 7 5 8 4 9 3 10 2 11 1 12 13 13
REMARK SMILES IDX 14 14 15 15 16 16 17 17 18 18 19 19 20 20 21 21 22 22 23 23
REMARK SMILES IDX 24 24
REMARK H PARENT
REMARK Flexibility Score: inf
ROOT
ATOM      1  C   UNL     1      20.252  51.641  37.107  1.00  0.00     0.000 C 
ENDROOT
BRANCH   1   2
ATOM      2  C   UNL     1      20.931  52.603  38.095  1.00  0.00     0.000 C 
BRANCH   2   3
ATOM      3  C   UNL     1      22.462  52.446  38.115  1.00  0.00     0.000 C 
BRANCH   3   4
ATOM      4  C   UNL     1      23.001  52.078  39.507  1.00  0.00    -0.000 C 
BRANCH   4   5
ATOM      5  C   UNL     1      22.469  50.729  40.014  1.00  0.00    -0.000 C 
BRANCH   5   6
ATOM      6  C   UNL     1      21.565  50.924  41.237  1.00  0.00    -0.000 C 
BRANCH   6   7
ATOM      7  C   UNL     1      20.239  50.168  41.070  1.00  0.00    -0.000 C 
BRANCH   7   8
ATOM      8  C   UNL     1      19.033  51.107  40.899  1.00  0.00    -0.000 C 
BRANCH   8   9
ATOM      9  C   UNL     1      17.974  50.576  39.909  1.00  0.00    -0.000 C 
BRANCH   9  10
ATOM     10  C   UNL     1      17.063  51.698  39.378  1.00  0.00    -0.000 C 
BRANCH  10  11
ATOM     11  C   UNL     1      16.514  51.396  37.975  1.00  0.00    -0.003 C 
ATOM     12  C   UNL     1      16.086  49.939  37.808  1.00  0.00     0.004 C 
ENDBRANCH  10  11
ENDBRANCH   9  10
ENDBRANCH   8   9
ENDBRANCH   7   8
ENDBRANCH   6   7
ENDBRANCH   5   6
ENDBRANCH   4   5
ENDBRANCH   3   4
ENDBRANCH   2   3
ENDBRANCH   1   2
BRANCH   1  13
ATOM     13  C   UNL     1      21.216  50.572  36.564  1.00  0.00     0.000 C 
BRANCH  13  14
ATOM     14  C   UNL     1      20.926  49.172  37.125  1.00  0.00     0.000 C 
BRANCH  14  15
ATOM     15  C   UNL     1      19.423  48.859  37.186  1.00  0.00     0.000 C 
BRANCH  15  16
ATOM     16  C   UNL     1      19.051  47.760  36.185  1.00  0.00     0.000 C 
BRANCH  16  17
ATOM     17  C   UNL     1      20.307  47.079  35.620  1.00  0.00     0.000 C 
BRANCH  17  18
ATOM     18  C   UNL     1      20.342  47.091  34.083  1.00  0.00     0.000 C 
BRANCH  18  19
ATOM     19  C   UNL     1      21.035  48.342  33.518  1.00  0.00     0.000 C 
BRANCH  19  20
ATOM     20  C   UNL     1      20.102  49.194  32.639  1.00  0.00     0.006 C 
BRANCH  20  21
ATOM     21  C   UNL     1      19.520  50.428  33.348  1.00  0.00     0.053 C 
BRANCH  21  22
ATOM     22  C   UNL     1      18.065  50.265  33.660  1.00  0.00     0.041 C 
ATOM     23  O   UNL     1      17.569  50.815  34.678  1.00  0.00    -0.550 OA
ATOM     24  O   UNL     1      17.263  49.480  32.843  1.00  0.00    -0.550 OA
ENDBRANCH  21  22
ENDBRANCH  20  21
ENDBRANCH  19  20
ENDBRANCH  18  19
ENDBRANCH  17  18
ENDBRANCH  16  17
ENDBRANCH  15  16
ENDBRANCH  14  15
ENDBRANCH  13  14
ENDBRANCH   1  13
TORSDOF 20
ENDMDL
