MODEL 1
REMARK VINA RESULT:    -0.905      0.000      0.000
REMARK INTER + INTRA:          -2.490
REMARK INTER:                  -1.381
REMARK INTRA:                  -1.109
REMARK UNBOUND:                -1.109
REMARK SMILES O=C([O-])CCCCCCCCC(=O)[O-]
REMARK SMILES IDX 7 1 6 2 5 3 4 4 2 5 1 6 3 7 8 8 9 9 10 10 11 11 12 12 13 13
REMARK SMILES IDX 14 14
REMARK H PARENT
REMARK Flexibility Score: inf
ROOT
ATOM      1  C   UNL     1      36.342   4.172  38.924  1.00  0.00     0.000 C 
ENDROOT
BRANCH   1   2
ATOM      2  C   UNL     1      37.195   4.758  40.060  1.00  0.00     0.000 C 
BRANCH   2   3
ATOM      3  C   UNL     1      36.818   4.184  41.437  1.00  0.00     0.006 C 
BRANCH   3   4
ATOM      4  C   UNL     1      37.954   3.350  42.046  1.00  0.00     0.053 C 
BRANCH   4   5
ATOM      5  C   UNL     1      37.647   1.884  42.010  1.00  0.00     0.041 C 
ATOM      6  O   UNL     1      38.573   1.039  42.125  1.00  0.00    -0.550 OA
ATOM      7  O   UNL     1      36.341   1.452  41.821  1.00  0.00    -0.550 OA
ENDBRANCH   4   5
ENDBRANCH   3   4
ENDBRANCH   2   3
ENDBRANCH   1   2
BRANCH   1   8
ATOM      8  C   UNL     1      36.868   2.817  38.425  1.00  0.00     0.000 C 
BRANCH   8   9
ATOM      9  C   UNL     1      38.333   2.924  37.985  1.00  0.00     0.000 C 
BRANCH   9  10
ATOM     10  C   UNL     1      39.202   1.880  38.701  1.00  0.00     0.006 C 
BRANCH  10  11
ATOM     11  C   UNL     1      40.678   2.294  38.760  1.00  0.00     0.053 C 
BRANCH  11  12
ATOM     12  C   UNL     1      41.026   2.927  40.072  1.00  0.00     0.041 C 
ATOM     13  O   UNL     1      40.891   4.170  40.231  1.00  0.00    -0.550 OA
ATOM     14  O   UNL     1      41.533   2.152  41.107  1.00  0.00    -0.550 OA
ENDBRANCH  11  12
ENDBRANCH  10  11
ENDBRANCH   9  10
ENDBRANCH   8   9
ENDBRANCH   1   8
TORSDOF 9
ENDMDL
MODEL 2
REMARK VINA RESULT:    -0.826      3.008      4.254
REMARK INTER + INTRA:          -2.370
REMARK INTER:                  -1.462
REMARK INTRA:                  -0.909
REMARK UNBOUND:                -1.109
REMARK SMILES O=C([O-])CCCCCCCCC(=O)[O-]
REMARK SMILES IDX 7 1 6 2 5 3 4 4 2 5 1 6 3 7 8 8 9 9 10 10 11 11 12 12 13 13
REMARK SMILES IDX 14 14
REMARK H PARENT
REMARK Flexibility Score: inf
ROOT
ATOM      1  C   UNL     1      35.366   4.372  39.852  1.00  0.00     0.000 C 
ENDROOT
BRANCH   1   2
ATOM      2  C   UNL     1      34.630   3.143  40.411  1.00  0.00     0.000 C 
BRANCH   2   3
ATOM      3  C   UNL     1      34.290   3.286  41.904  1.00  0.00     0.006 C 
BRANCH   3   4
ATOM      4  C   UNL     1      32.868   3.820  42.125  1.00  0.00     0.053 C 
BRANCH   4   5
ATOM      5  C   UNL     1      31.834   2.904  41.543  1.00  0.00     0.041 C 
ATOM      6  O   UNL     1      31.099   3.296  40.599  1.00  0.00    -0.550 OA
ATOM      7  O   UNL     1      31.666   1.628  42.063  1.00  0.00    -0.550 OA
ENDBRANCH   4   5
ENDBRANCH   3   4
ENDBRANCH   2   3
ENDBRANCH   1   2
BRANCH   1   8
ATOM      8  C   UNL     1      36.255   5.058  40.901  1.00  0.00     0.000 C 
BRANCH   8   9
ATOM      9  C   UNL     1      37.695   4.536  40.827  1.00  0.00     0.000 C 
BRANCH   9  10
ATOM     10  C   UNL     1      38.083   3.804  42.121  1.00  0.00     0.006 C 
BRANCH  10  11
ATOM     11  C   UNL     1      37.896   2.286  42.007  1.00  0.00     0.053 C 
BRANCH  11  12
ATOM     12  C   UNL     1      38.447   1.752  40.721  1.00  0.00     0.041 C 
ATOM     13  O   UNL     1      37.673   1.267  39.854  1.00  0.00    -0.550 OA
ATOM     14  O   UNL     1      39.817   1.758  40.494  1.00  0.00    -0.550 OA
ENDBRANCH  11  12
ENDBRANCH  10  11
ENDBRANCH   9  10
ENDBRANCH   8   9
ENDBRANCH   1   8
TORSDOF 9
ENDMDL
MODEL 3
REMARK VINA RESULT:    -0.778      2.440      5.302
REMARK INTER + INTRA:          -2.297
REMARK INTER:                  -1.438
REMARK INTRA:                  -0.859
REMARK UNBOUND:                -1.109
REMARK SMILES O=C([O-])CCCCCCCCC(=O)[O-]
REMARK SMILES IDX 7 1 6 2 5 3 4 4 2 5 1 6 3 7 8 8 9 9 10 10 11 11 12 12 13 13
REMARK SMILES IDX 14 14
REMARK H PARENT
REMARK Flexibility Score: inf
ROOT
ATOM      1  C   UNL     1      39.801   2.580  40.805  1.00  0.00     0.000 C 
ENDROOT
BRANCH   1   2
ATOM      2  C   UNL     1      39.661   2.833  39.296  1.00  0.00     0.000 C 
BRANCH   2   3
ATOM      3  C   UNL     1      38.911   4.139  38.983  1.00  0.00     0.006 C 
BRANCH   3   4
ATOM      4  C   UNL     1      38.713   5.007  40.233  1.00  0.00     0.053 C 
BRANCH   4   5
ATOM      5  C   UNL     1      39.564   6.240  40.195  1.00  0.00     0.041 C 
ATOM      6  O   UNL     1      39.290   7.223  40.931  1.00  0.00    -0.550 OA
ATOM      7  O   UNL     1      40.644   6.311  39.324  1.00  0.00    -0.550 OA
ENDBRANCH   4   5
ENDBRANCH   3   4
ENDBRANCH   2   3
ENDBRANCH   1   2
BRANCH   1   8
ATOM      8  C   UNL     1      39.253   1.209  41.230  1.00  0.00     0.000 C 
BRANCH   8   9
ATOM      9  C   UNL     1      38.011   1.363  42.115  1.00  0.00     0.000 C 
BRANCH   9  10
ATOM     10  C   UNL     1      36.724   1.215  41.290  1.00  0.00     0.006 C 
BRANCH  10  11
ATOM     11  C   UNL     1      36.020   2.560  41.065  1.00  0.00     0.053 C 
BRANCH  11  12
ATOM     12  C   UNL     1      34.713   2.633  41.793  1.00  0.00     0.041 C 
ATOM     13  O   UNL     1      34.092   1.577  42.086  1.00  0.00    -0.550 OA
ATOM     14  O   UNL     1      34.165   3.867  42.117  1.00  0.00    -0.550 OA
ENDBRANCH  11  12
ENDBRANCH  10  11
ENDBRANCH   9  10
ENDBRANCH   8   9
ENDBRANCH   1   8
TORSDOF 9
ENDMDL
MODEL 4
REMARK VINA RESULT:    -0.766      2.841      3.922
REMARK INTER + INTRA:          -2.278
REMARK INTER:                  -1.709
REMARK INTRA:                  -0.569
REMARK UNBOUND:                -1.109
REMARK SMILES O=C([O-])CCCCCCCCC(=O)[O-]
REMARK SMILES IDX 7 1 6 2 5 3 4 4 2 5 1 6 3 7 8 8 9 9 10 10 11 11 12 12 13 13
REMARK SMILES IDX 14 14
REMARK H PARENT
REMARK Flexibility Score: inf
ROOT
ATOM      1  C   UNL     1      35.918   2.538  40.741  1.00  0.00     0.000 C 
ENDROOT
BRANCH   1   2
ATOM      2  C   UNL     1      35.890   4.071  40.847  1.00  0.00     0.000 C 
BRANCH   2   3
ATOM      3  C   UNL     1      35.187   4.563  42.124  1.00  0.00     0.006 C 
BRANCH   3   4
ATOM      4  C   UNL     1      33.671   4.332  42.075  1.00  0.00     0.053 C 
BRANCH   4   5
ATOM      5  C   UNL     1      33.032   5.074  40.940  1.00  0.00     0.041 C 
ATOM      6  O   UNL     1      32.423   4.446  40.034  1.00  0.00    -0.550 OA
ATOM      7  O   UNL     1      33.135   6.457  40.869  1.00  0.00    -0.550 OA
ENDBRANCH   4   5
ENDBRANCH   3   4
ENDBRANCH   2   3
ENDBRANCH   1   2
BRANCH   1   8
ATOM      8  C   UNL     1      36.550   1.870  41.971  1.00  0.00     0.000 C 
BRANCH   8   9
ATOM      9  C   UNL     1      38.029   2.252  42.104  1.00  0.00     0.000 C 
BRANCH   9  10
ATOM     10  C   UNL     1      38.940   1.089  41.680  1.00  0.00     0.006 C 
BRANCH  10  11
ATOM     11  C   UNL     1      39.481   1.265  40.255  1.00  0.00     0.053 C 
BRANCH  11  12
ATOM     12  C   UNL     1      40.977   1.327  40.232  1.00  0.00     0.041 C 
ATOM     13  O   UNL     1      41.612   1.688  41.259  1.00  0.00    -0.550 OA
ATOM     14  O   UNL     1      41.670   1.021  39.067  1.00  0.00    -0.550 OA
ENDBRANCH  11  12
ENDBRANCH  10  11
ENDBRANCH   9  10
ENDBRANCH   8   9
ENDBRANCH   1   8
TORSDOF 9
ENDMDL
MODEL 5
REMARK VINA RESULT:    -0.758      2.379      3.338
REMARK INTER + INTRA:          -2.267
REMARK INTER:                  -1.388
REMARK INTRA:                  -0.878
REMARK UNBOUND:                -1.109
REMARK SMILES O=C([O-])CCCCCCCCC(=O)[O-]
REMARK SMILES IDX 7 1 6 2 5 3 4 4 2 5 1 6 3 7 8 8 9 9 10 10 11 11 12 12 13 13
REMARK SMILES IDX 14 14
REMARK H PARENT
REMARK Flexibility Score: inf
ROOT
ATOM      1  C   UNL     1      34.867   6.356  40.704  1.00  0.00     0.000 C 
ENDROOT
BRANCH   1   2
ATOM      2  C   UNL     1      34.392   5.228  41.633  1.00  0.00     0.000 C 
BRANCH   2   3
ATOM      3  C   UNL     1      35.538   4.300  42.072  1.00  0.00     0.006 C 
BRANCH   3   4
ATOM      4  C   UNL     1      35.721   3.115  41.115  1.00  0.00     0.053 C 
BRANCH   4   5
ATOM      5  C   UNL     1      35.579   1.802  41.824  1.00  0.00     0.041 C 
ATOM      6  O   UNL     1      36.599   1.129  42.125  1.00  0.00    -0.550 OA
ATOM      7  O   UNL     1      34.315   1.309  42.125  1.00  0.00    -0.550 OA
ENDBRANCH   4   5
ENDBRANCH   3   4
ENDBRANCH   2   3
ENDBRANCH   1   2
BRANCH   1   8
ATOM      8  C   UNL     1      36.021   7.173  41.306  1.00  0.00     0.000 C 
BRANCH   8   9
ATOM      9  C   UNL     1      37.172   7.319  40.303  1.00  0.00     0.000 C 
BRANCH   9  10
ATOM     10  C   UNL     1      38.444   6.627  40.817  1.00  0.00     0.006 C 
BRANCH  10  11
ATOM     11  C   UNL     1      38.646   5.243  40.186  1.00  0.00     0.053 C 
BRANCH  11  12
ATOM     12  C   UNL     1      39.538   4.376  41.021  1.00  0.00     0.041 C 
ATOM     13  O   UNL     1      39.198   3.193  41.291  1.00  0.00    -0.550 OA
ATOM     14  O   UNL     1      40.726   4.885  41.530  1.00  0.00    -0.550 OA
ENDBRANCH  11  12
ENDBRANCH  10  11
ENDBRANCH   9  10
ENDBRANCH   8   9
ENDBRANCH   1   8
TORSDOF 9
ENDMDL
MODEL 6
REMARK VINA RESULT:    -0.706      2.523      5.406
REMARK INTER + INTRA:          -2.186
REMARK INTER:                  -1.552
REMARK INTRA:                  -0.634
REMARK UNBOUND:                -1.109
REMARK SMILES O=C([O-])CCCCCCCCC(=O)[O-]
REMARK SMILES IDX 7 1 6 2 5 3 4 4 2 5 1 6 3 7 8 8 9 9 10 10 11 11 12 12 13 13
REMARK SMILES IDX 14 14
REMARK H PARENT
REMARK Flexibility Score: inf
ROOT
ATOM      1  C   UNL     1      37.881   4.996  40.770  1.00  0.00     0.000 C 
ENDROOT
BRANCH   1   2
ATOM      2  C   UNL     1      37.749   4.007  41.939  1.00  0.00     0.000 C 
BRANCH   2   3
ATOM      3  C   UNL     1      37.505   2.563  41.467  1.00  0.00     0.006 C 
BRANCH   3   4
ATOM      4  C   UNL     1      38.695   1.645  41.776  1.00  0.00     0.053 C 
BRANCH   4   5
ATOM      5  C   UNL     1      39.611   1.507  40.598  1.00  0.00     0.041 C 
ATOM      6  O   UNL     1      39.262   1.938  39.468  1.00  0.00    -0.550 OA
ATOM      7  O   UNL     1      40.840   0.875  40.744  1.00  0.00    -0.550 OA
ENDBRANCH   4   5
ENDBRANCH   3   4
ENDBRANCH   2   3
ENDBRANCH   1   2
BRANCH   1   8
ATOM      8  C   UNL     1      37.322   6.387  41.104  1.00  0.00     0.000 C 
BRANCH   8   9
ATOM      9  C   UNL     1      36.148   6.287  42.085  1.00  0.00     0.000 C 
BRANCH   9  10
ATOM     10  C   UNL     1      34.820   6.095  41.338  1.00  0.00     0.006 C 
BRANCH  10  11
ATOM     11  C   UNL     1      33.831   5.224  42.125  1.00  0.00     0.053 C 
BRANCH  11  12
ATOM     12  C   UNL     1      33.358   4.054  41.319  1.00  0.00     0.041 C 
ATOM     13  O   UNL     1      32.416   4.193  40.493  1.00  0.00    -0.550 OA
ATOM     14  O   UNL     1      33.931   2.802  41.505  1.00  0.00    -0.550 OA
ENDBRANCH  11  12
ENDBRANCH  10  11
ENDBRANCH   9  10
ENDBRANCH   8   9
ENDBRANCH   1   8
TORSDOF 9
ENDMDL
MODEL 7
REMARK VINA RESULT:    -0.691      2.378      4.059
REMARK INTER + INTRA:          -2.163
REMARK INTER:                  -1.104
REMARK INTRA:                  -1.059
REMARK UNBOUND:                -1.109
REMARK SMILES O=C([O-])CCCCCCCCC(=O)[O-]
REMARK SMILES IDX 7 1 6 2 5 3 4 4 2 5 1 6 3 7 8 8 9 9 10 10 11 11 12 12 13 13
REMARK SMILES IDX 14 14
REMARK H PARENT
REMARK Flexibility Score: inf
ROOT
ATOM      1  C   UNL     1      38.971   3.033  38.045  1.00  0.00     0.000 C 
ENDROOT
BRANCH   1   2
ATOM      2  C   UNL     1      38.879   4.404  38.734  1.00  0.00     0.000 C 
BRANCH   2   3
ATOM      3  C   UNL     1      37.433   4.919  38.835  1.00  0.00     0.006 C 
BRANCH   3   4
ATOM      4  C   UNL     1      37.317   6.138  39.760  1.00  0.00     0.053 C 
BRANCH   4   5
ATOM      5  C   UNL     1      36.498   5.835  40.978  1.00  0.00     0.041 C 
ATOM      6  O   UNL     1      37.025   5.865  42.121  1.00  0.00    -0.550 OA
ATOM      7  O   UNL     1      35.158   5.493  40.846  1.00  0.00    -0.550 OA
ENDBRANCH   4   5
ENDBRANCH   3   4
ENDBRANCH   2   3
ENDBRANCH   1   2
BRANCH   1   8
ATOM      8  C   UNL     1      39.705   1.988  38.899  1.00  0.00     0.000 C 
BRANCH   8   9
ATOM      9  C   UNL     1      39.749   2.413  40.371  1.00  0.00     0.000 C 
BRANCH   9  10
ATOM     10  C   UNL     1      38.808   1.549  41.224  1.00  0.00     0.006 C 
BRANCH  10  11
ATOM     11  C   UNL     1      37.751   2.388  41.954  1.00  0.00     0.053 C 
BRANCH  11  12
ATOM     12  C   UNL     1      36.384   2.188  41.374  1.00  0.00     0.041 C 
ATOM     13  O   UNL     1      35.373   2.180  42.125  1.00  0.00    -0.550 OA
ATOM     14  O   UNL     1      36.231   1.976  40.010  1.00  0.00    -0.550 OA
ENDBRANCH  11  12
ENDBRANCH  10  11
ENDBRANCH   9  10
ENDBRANCH   8   9
ENDBRANCH   1   8
TORSDOF 9
ENDMDL
MODEL 8
REMARK VINA RESULT:    -0.687      2.664      5.027
REMARK INTER + INTRA:          -2.157
REMARK INTER:                  -1.308
REMARK INTRA:                  -0.849
REMARK UNBOUND:                -1.109
REMARK SMILES O=C([O-])CCCCCCCCC(=O)[O-]
REMARK SMILES IDX 7 1 6 2 5 3 4 4 2 5 1 6 3 7 8 8 9 9 10 10 11 11 12 12 13 13
REMARK SMILES IDX 14 14
REMARK H PARENT
REMARK Flexibility Score: inf
ROOT
ATOM      1  C   UNL     1      37.793   1.385  40.819  1.00  0.00     0.000 C 
ENDROOT
BRANCH   1   2
ATOM      2  C   UNL     1      39.121   2.140  40.642  1.00  0.00     0.000 C 
BRANCH   2   3
ATOM      3  C   UNL     1      39.229   2.833  39.273  1.00  0.00     0.006 C 
BRANCH   3   4
ATOM      4  C   UNL     1      37.888   3.420  38.814  1.00  0.00     0.053 C 
BRANCH   4   5
ATOM      5  C   UNL     1      37.982   4.895  38.567  1.00  0.00     0.041 C 
ATOM      6  O   UNL     1      39.105   5.444  38.422  1.00  0.00    -0.550 OA
ATOM      7  O   UNL     1      36.828   5.667  38.527  1.00  0.00    -0.550 OA
ENDBRANCH   4   5
ENDBRANCH   3   4
ENDBRANCH   2   3
ENDBRANCH   1   2
BRANCH   1   8
ATOM      8  C   UNL     1      37.072   1.751  42.125  1.00  0.00     0.000 C 
BRANCH   8   9
ATOM      9  C   UNL     1      35.556   1.828  41.913  1.00  0.00     0.000 C 
BRANCH   9  10
ATOM     10  C   UNL     1      35.167   3.113  41.166  1.00  0.00     0.006 C 
BRANCH  10  11
ATOM     11  C   UNL     1      34.747   4.236  42.123  1.00  0.00     0.053 C 
BRANCH  11  12
ATOM     12  C   UNL     1      35.676   5.409  42.045  1.00  0.00     0.041 C 
ATOM     13  O   UNL     1      35.215   6.581  42.013  1.00  0.00    -0.550 OA
ATOM     14  O   UNL     1      37.049   5.207  41.972  1.00  0.00    -0.550 OA
ENDBRANCH  11  12
ENDBRANCH  10  11
ENDBRANCH   9  10
ENDBRANCH   8   9
ENDBRANCH   1   8
TORSDOF 9
ENDMDL
MODEL 9
REMARK VINA RESULT:     2.066      2.804      3.953
REMARK INTER + INTRA:           2.044
REMARK INTER:                   2.877
REMARK INTRA:                  -0.833
REMARK UNBOUND:                -1.109
REMARK SMILES O=C([O-])CCCCCCCCC(=O)[O-]
REMARK SMILES IDX 7 1 6 2 5 3 4 4 2 5 1 6 3 7 8 8 9 9 10 10 11 11 12 12 13 13
REMARK SMILES IDX 14 14
REMARK H PARENT
REMARK Flexibility Score: inf
ROOT
ATOM      1  C   UNL     1      39.982   1.810  40.472  1.00  0.00     0.000 C 
ENDROOT
BRANCH   1   2
ATOM      2  C   UNL     1      39.061   0.937  41.341  1.00  0.00     0.000 C 
BRANCH   2   3
ATOM      3  C   UNL     1      37.997   1.760  42.086  1.00  0.00     0.006 C 
BRANCH   3   4
ATOM      4  C   UNL     1      36.570   1.352  41.694  1.00  0.00     0.053 C 
BRANCH   4   5
ATOM      5  C   UNL     1      35.858   2.451  40.965  1.00  0.00     0.041 C 
ATOM      6  O   UNL     1      34.915   3.073  41.519  1.00  0.00    -0.550 OA
ATOM      7  O   UNL     1      36.220   2.768  39.662  1.00  0.00    -0.550 OA
ENDBRANCH   4   5
ENDBRANCH   3   4
ENDBRANCH   2   3
ENDBRANCH   1   2
BRANCH   1   8
ATOM      8  C   UNL     1      39.778   3.313  40.718  1.00  0.00     0.000 C 
BRANCH   8   9
ATOM      9  C   UNL     1      39.507   4.052  39.402  1.00  0.00     0.000 C 
BRANCH   9  10
ATOM     10  C   UNL     1      38.893   5.436  39.663  1.00  0.00     0.006 C 
BRANCH  10  11
ATOM     11  C   UNL     1      39.231   5.967  41.063  1.00  0.00     0.053 C 
BRANCH  11  12
ATOM     12  C   UNL     1      38.010   6.442  41.788  1.00  0.00     0.041 C 
ATOM     13  O   UNL     1      37.902   7.652  42.122  1.00  0.00    -0.550 OA
ATOM     14  O   UNL     1      37.006   5.542  42.125  1.00  0.00    -0.550 OA
ENDBRANCH  11  12
ENDBRANCH  10  11
ENDBRANCH   9  10
ENDBRANCH   8   9
ENDBRANCH   1   8
TORSDOF 9
ENDMDL
