MODEL 1
REMARK VINA RESULT:    -5.419      0.000      0.000
REMARK INTER + INTRA:          -5.894
REMARK INTER:                  -5.894
REMARK INTRA:                   0.000
REMARK UNBOUND:                 0.000
REMARK SMILES Cc1cc(O)c2c(c1)C(=O)c1cc(O)cc(O)c1C2=O
REMARK SMILES IDX 1 1 2 2 8 3 7 4 6 5 4 6 3 7 19 8 20 9 18 10 11 11 9 12 10 13
REMARK SMILES IDX 12 14 13 15 15 16 16 17 5 18 17 20 14 22
REMARK H PARENT 5 19 17 21 14 23
REMARK Flexibility Score: inf
ROOT
ATOM      1  C   UNL     1     -62.090  25.214  -9.143  1.00  0.00     0.044 C 
ATOM      2  C   UNL     1     -61.005  25.191 -10.179  1.00  0.00    -0.047 A 
ATOM      3  C   UNL     1     -61.035  26.092 -11.249  1.00  0.00     0.016 A 
ATOM      4  C   UNL     1     -60.038  26.060 -12.239  1.00  0.00     0.038 A 
ATOM      5  C   UNL     1     -58.996  25.110 -12.158  1.00  0.00     0.076 A 
ATOM      6  C   UNL     1     -59.018  24.146 -11.118  1.00  0.00     0.127 A 
ATOM      7  C   UNL     1     -60.009  24.210 -10.132  1.00  0.00     0.050 A 
ATOM      8  C   UNL     1     -57.883  25.202 -13.137  1.00  0.00     0.201 C 
ATOM      9  O   UNL     1     -56.727  24.823 -12.811  1.00  0.00    -0.288 OA
ATOM     10  C   UNL     1     -58.092  25.911 -14.427  1.00  0.00     0.076 A 
ATOM     11  C   UNL     1     -59.137  26.859 -14.506  1.00  0.00     0.041 A 
ATOM     12  C   UNL     1     -60.080  27.014 -13.374  1.00  0.00     0.194 C 
ATOM     13  O   UNL     1     -60.936  27.942 -13.387  1.00  0.00    -0.289 OA
ATOM     14  C   UNL     1     -59.281  27.647 -15.660  1.00  0.00     0.059 A 
ATOM     15  C   UNL     1     -58.406  27.490 -16.739  1.00  0.00     0.120 A 
ATOM     16  C   UNL     1     -57.398  26.529 -16.681  1.00  0.00     0.093 A 
ATOM     17  C   UNL     1     -57.247  25.717 -15.552  1.00  0.00     0.131 A 
ENDROOT
BRANCH   6  18
ATOM     18  O   UNL     1     -58.106  23.091 -11.046  1.00  0.00    -0.507 OA
ATOM     19  H   UNL     1     -57.892  22.596 -10.191  1.00  0.00     0.293 HD
ENDBRANCH   6  18
BRANCH  17  20
ATOM     20  O   UNL     1     -56.275  24.716 -15.602  1.00  0.00    -0.507 OA
ATOM     21  H   UNL     1     -55.650  24.504 -14.837  1.00  0.00     0.293 HD
ENDBRANCH  17  20
BRANCH  15  22
ATOM     22  O   UNL     1     -58.538  28.279 -17.880  1.00  0.00    -0.508 OA
ATOM     23  H   UNL     1     -59.418  28.352 -18.376  1.00  0.00     0.293 HD
ENDBRANCH  15  22
TORSDOF 3
ENDMDL
MODEL 2
REMARK VINA RESULT:    -5.302      8.783     10.288
REMARK INTER + INTRA:          -5.767
REMARK INTER:                  -5.767
REMARK INTRA:                   0.000
REMARK UNBOUND:                 0.000
REMARK SMILES Cc1cc(O)c2c(c1)C(=O)c1cc(O)cc(O)c1C2=O
REMARK SMILES IDX 1 1 2 2 8 3 7 4 6 5 4 6 3 7 19 8 20 9 18 10 11 11 9 12 10 13
REMARK SMILES IDX 12 14 13 15 15 16 16 17 5 18 17 20 14 22
REMARK H PARENT 5 19 17 21 14 23
REMARK Flexibility Score: inf
ROOT
ATOM      1  C   UNL     1     -54.961  20.798 -14.905  1.00  0.00     0.044 C 
ATOM      2  C   UNL     1     -55.547  19.832 -15.892  1.00  0.00    -0.047 A 
ATOM      3  C   UNL     1     -56.935  19.703 -16.010  1.00  0.00     0.016 A 
ATOM      4  C   UNL     1     -57.494  18.781 -16.913  1.00  0.00     0.038 A 
ATOM      5  C   UNL     1     -56.649  17.975 -17.708  1.00  0.00     0.076 A 
ATOM      6  C   UNL     1     -55.245  18.052 -17.522  1.00  0.00     0.127 A 
ATOM      7  C   UNL     1     -54.712  18.991 -16.633  1.00  0.00     0.050 A 
ATOM      8  C   UNL     1     -57.271  17.122 -18.753  1.00  0.00     0.201 C 
ATOM      9  O   UNL     1     -56.634  16.854 -19.806  1.00  0.00    -0.288 OA
ATOM     10  C   UNL     1     -58.704  16.744 -18.640  1.00  0.00     0.076 A 
ATOM     11  C   UNL     1     -59.546  17.551 -17.841  1.00  0.00     0.041 A 
ATOM     12  C   UNL     1     -58.966  18.645 -17.028  1.00  0.00     0.194 C 
ATOM     13  O   UNL     1     -59.724  19.446 -16.413  1.00  0.00    -0.289 OA
ATOM     14  C   UNL     1     -60.930  17.309 -17.818  1.00  0.00     0.059 A 
ATOM     15  C   UNL     1     -61.480  16.265 -18.568  1.00  0.00     0.120 A 
ATOM     16  C   UNL     1     -60.648  15.442 -19.325  1.00  0.00     0.093 A 
ATOM     17  C   UNL     1     -59.265  15.649 -19.349  1.00  0.00     0.131 A 
ENDROOT
BRANCH   6  18
ATOM     18  O   UNL     1     -54.350  17.194 -18.166  1.00  0.00    -0.507 OA
ATOM     19  H   UNL     1     -53.399  17.449 -18.394  1.00  0.00     0.293 HD
ENDBRANCH   6  18
BRANCH  17  20
ATOM     20  O   UNL     1     -58.487  14.730 -20.056  1.00  0.00    -0.507 OA
ATOM     21  H   UNL     1     -58.871  14.048 -20.696  1.00  0.00     0.293 HD
ENDBRANCH  17  20
BRANCH  15  22
ATOM     22  O   UNL     1     -62.853  16.030 -18.557  1.00  0.00    -0.508 OA
ATOM     23  H   UNL     1     -63.271  15.298 -19.118  1.00  0.00     0.293 HD
ENDBRANCH  15  22
TORSDOF 3
ENDMDL
MODEL 3
REMARK VINA RESULT:    -5.236      1.644      6.087
REMARK INTER + INTRA:          -5.695
REMARK INTER:                  -5.695
REMARK INTRA:                   0.000
REMARK UNBOUND:                 0.000
REMARK SMILES Cc1cc(O)c2c(c1)C(=O)c1cc(O)cc(O)c1C2=O
REMARK SMILES IDX 1 1 2 2 8 3 7 4 6 5 4 6 3 7 19 8 20 9 18 10 11 11 9 12 10 13
REMARK SMILES IDX 12 14 13 15 15 16 16 17 5 18 17 20 14 22
REMARK H PARENT 5 19 17 21 14 23
REMARK Flexibility Score: inf
ROOT
ATOM      1  C   UNL     1     -54.880  25.001 -16.362  1.00  0.00     0.044 C 
ATOM      2  C   UNL     1     -56.106  25.757 -15.941  1.00  0.00    -0.047 A 
ATOM      3  C   UNL     1     -56.712  25.485 -14.710  1.00  0.00     0.016 A 
ATOM      4  C   UNL     1     -57.876  26.170 -14.319  1.00  0.00     0.038 A 
ATOM      5  C   UNL     1     -58.443  27.140 -15.175  1.00  0.00     0.076 A 
ATOM      6  C   UNL     1     -57.871  27.351 -16.456  1.00  0.00     0.127 A 
ATOM      7  C   UNL     1     -56.701  26.672 -16.815  1.00  0.00     0.050 A 
ATOM      8  C   UNL     1     -59.582  27.946 -14.667  1.00  0.00     0.201 C 
ATOM      9  O   UNL     1     -59.750  29.125 -15.079  1.00  0.00    -0.288 OA
ATOM     10  C   UNL     1     -60.406  27.431 -13.542  1.00  0.00     0.076 A 
ATOM     11  C   UNL     1     -59.838  26.458 -12.690  1.00  0.00     0.041 A 
ATOM     12  C   UNL     1     -58.518  25.870 -13.017  1.00  0.00     0.194 C 
ATOM     13  O   UNL     1     -57.950  25.096 -12.196  1.00  0.00    -0.289 OA
ATOM     14  C   UNL     1     -60.531  26.047 -11.538  1.00  0.00     0.059 A 
ATOM     15  C   UNL     1     -61.785  26.583 -11.237  1.00  0.00     0.120 A 
ATOM     16  C   UNL     1     -62.367  27.514 -12.096  1.00  0.00     0.093 A 
ATOM     17  C   UNL     1     -61.707  27.924 -13.260  1.00  0.00     0.131 A 
ENDROOT
BRANCH   6  18
ATOM     18  O   UNL     1     -58.448  28.189 -17.413  1.00  0.00    -0.507 OA
ATOM     19  H   UNL     1     -57.912  28.759 -18.052  1.00  0.00     0.293 HD
ENDBRANCH   6  18
BRANCH  17  20
ATOM     20  O   UNL     1     -62.391  28.789 -14.118  1.00  0.00    -0.507 OA
ATOM     21  H   UNL     1     -62.774  29.677 -13.827  1.00  0.00     0.293 HD
ENDBRANCH  17  20
BRANCH  15  22
ATOM     22  O   UNL     1     -62.469  26.187 -10.089  1.00  0.00    -0.508 OA
ATOM     23  H   UNL     1     -63.411  26.506  -9.895  1.00  0.00     0.293 HD
ENDBRANCH  15  22
TORSDOF 3
ENDMDL
MODEL 4
REMARK VINA RESULT:    -5.158      0.943      1.067
REMARK INTER + INTRA:          -5.610
REMARK INTER:                  -5.610
REMARK INTRA:                   0.000
REMARK UNBOUND:                 0.000
REMARK SMILES Cc1cc(O)c2c(c1)C(=O)c1cc(O)cc(O)c1C2=O
REMARK SMILES IDX 1 1 2 2 8 3 7 4 6 5 4 6 3 7 19 8 20 9 18 10 11 11 9 12 10 13
REMARK SMILES IDX 12 14 13 15 15 16 16 17 5 18 17 20 14 22
REMARK H PARENT 5 19 17 21 14 23
REMARK Flexibility Score: inf
ROOT
ATOM      1  C   UNL     1     -60.706  24.055  -9.140  1.00  0.00     0.044 C 
ATOM      2  C   UNL     1     -59.750  24.284 -10.274  1.00  0.00    -0.047 A 
ATOM      3  C   UNL     1     -60.027  25.255 -11.242  1.00  0.00     0.016 A 
ATOM      4  C   UNL     1     -59.150  25.459 -12.322  1.00  0.00     0.038 A 
ATOM      5  C   UNL     1     -57.980  24.676 -12.436  1.00  0.00     0.076 A 
ATOM      6  C   UNL     1     -57.749  23.637 -11.498  1.00  0.00     0.127 A 
ATOM      7  C   UNL     1     -58.625  23.467 -10.420  1.00  0.00     0.050 A 
ATOM      8  C   UNL     1     -57.007  25.018 -13.504  1.00  0.00     0.201 C 
ATOM      9  O   UNL     1     -55.779  24.795 -13.329  1.00  0.00    -0.288 OA
ATOM     10  C   UNL     1     -57.456  25.791 -14.691  1.00  0.00     0.076 A 
ATOM     11  C   UNL     1     -58.629  26.570 -14.576  1.00  0.00     0.041 A 
ATOM     12  C   UNL     1     -59.454  26.485 -13.348  1.00  0.00     0.194 C 
ATOM     13  O   UNL     1     -60.431  27.269 -13.187  1.00  0.00    -0.289 OA
ATOM     14  C   UNL     1     -59.011  27.420 -15.628  1.00  0.00     0.059 A 
ATOM     15  C   UNL     1     -58.246  27.489 -16.796  1.00  0.00     0.120 A 
ATOM     16  C   UNL     1     -57.111  26.692 -16.930  1.00  0.00     0.093 A 
ATOM     17  C   UNL     1     -56.721  25.822 -15.906  1.00  0.00     0.131 A 
ENDROOT
BRANCH   6  18
ATOM     18  O   UNL     1     -56.693  22.732 -11.618  1.00  0.00    -0.507 OA
ATOM     19  H   UNL     1     -56.335  22.187 -10.846  1.00  0.00     0.293 HD
ENDBRANCH   6  18
BRANCH  17  20
ATOM     20  O   UNL     1     -55.627  24.989 -16.148  1.00  0.00    -0.507 OA
ATOM     21  H   UNL     1     -55.637  23.992 -15.986  1.00  0.00     0.293 HD
ENDBRANCH  17  20
BRANCH  15  22
ATOM     22  O   UNL     1     -58.615  28.340 -17.836  1.00  0.00    -0.508 OA
ATOM     23  H   UNL     1     -59.558  28.347 -18.207  1.00  0.00     0.293 HD
ENDBRANCH  15  22
TORSDOF 3
ENDMDL
MODEL 5
REMARK VINA RESULT:    -5.153      2.722      5.040
REMARK INTER + INTRA:          -5.605
REMARK INTER:                  -5.605
REMARK INTRA:                   0.000
REMARK UNBOUND:                 0.000
REMARK SMILES Cc1cc(O)c2c(c1)C(=O)c1cc(O)cc(O)c1C2=O
REMARK SMILES IDX 1 1 2 2 8 3 7 4 6 5 4 6 3 7 19 8 20 9 18 10 11 11 9 12 10 13
REMARK SMILES IDX 12 14 13 15 15 16 16 17 5 18 17 20 14 22
REMARK H PARENT 5 19 17 21 14 23
REMARK Flexibility Score: inf
ROOT
ATOM      1  C   UNL     1     -51.890  22.692 -13.281  1.00  0.00     0.044 C 
ATOM      2  C   UNL     1     -53.299  23.200 -13.374  1.00  0.00    -0.047 A 
ATOM      3  C   UNL     1     -53.710  23.933 -14.492  1.00  0.00     0.016 A 
ATOM      4  C   UNL     1     -55.020  24.437 -14.576  1.00  0.00     0.038 A 
ATOM      5  C   UNL     1     -55.931  24.205 -13.521  1.00  0.00     0.076 A 
ATOM      6  C   UNL     1     -55.483  23.534 -12.355  1.00  0.00     0.127 A 
ATOM      7  C   UNL     1     -54.181  23.024 -12.303  1.00  0.00     0.050 A 
ATOM      8  C   UNL     1     -57.344  24.623 -13.710  1.00  0.00     0.201 C 
ATOM      9  O   UNL     1     -58.268  23.984 -13.139  1.00  0.00    -0.288 OA
ATOM     10  C   UNL     1     -57.677  25.668 -14.712  1.00  0.00     0.076 A 
ATOM     11  C   UNL     1     -56.762  25.900 -15.764  1.00  0.00     0.041 A 
ATOM     12  C   UNL     1     -55.446  25.219 -15.761  1.00  0.00     0.194 C 
ATOM     13  O   UNL     1     -54.678  25.324 -16.758  1.00  0.00    -0.289 OA
ATOM     14  C   UNL     1     -57.101  26.781 -16.804  1.00  0.00     0.059 A 
ATOM     15  C   UNL     1     -58.333  27.441 -16.801  1.00  0.00     0.120 A 
ATOM     16  C   UNL     1     -59.222  27.246 -15.745  1.00  0.00     0.093 A 
ATOM     17  C   UNL     1     -58.899  26.391 -14.686  1.00  0.00     0.131 A 
ENDROOT
BRANCH   6  18
ATOM     18  O   UNL     1     -56.278  23.386 -11.216  1.00  0.00    -0.507 OA
ATOM     19  H   UNL     1     -56.809  22.552 -11.011  1.00  0.00     0.293 HD
ENDBRANCH   6  18
BRANCH  17  20
ATOM     20  O   UNL     1     -59.799  26.315 -13.620  1.00  0.00    -0.507 OA
ATOM     21  H   UNL     1     -60.660  25.788 -13.652  1.00  0.00     0.293 HD
ENDBRANCH  17  20
BRANCH  15  22
ATOM     22  O   UNL     1     -58.678  28.305 -17.838  1.00  0.00    -0.508 OA
ATOM     23  H   UNL     1     -58.107  28.391 -18.670  1.00  0.00     0.293 HD
ENDBRANCH  15  22
TORSDOF 3
ENDMDL
MODEL 6
REMARK VINA RESULT:    -5.118      1.931      2.931
REMARK INTER + INTRA:          -5.567
REMARK INTER:                  -5.567
REMARK INTRA:                   0.000
REMARK UNBOUND:                 0.000
REMARK SMILES Cc1cc(O)c2c(c1)C(=O)c1cc(O)cc(O)c1C2=O
REMARK SMILES IDX 1 1 2 2 8 3 7 4 6 5 4 6 3 7 19 8 20 9 18 10 11 11 9 12 10 13
REMARK SMILES IDX 12 14 13 15 15 16 16 17 5 18 17 20 14 22
REMARK H PARENT 5 19 17 21 14 23
REMARK Flexibility Score: inf
ROOT
ATOM      1  C   UNL     1     -63.125  29.120 -12.914  1.00  0.00     0.044 C 
ATOM      2  C   UNL     1     -61.890  28.273 -13.013  1.00  0.00    -0.047 A 
ATOM      3  C   UNL     1     -60.998  28.453 -14.076  1.00  0.00     0.016 A 
ATOM      4  C   UNL     1     -59.852  27.647 -14.192  1.00  0.00     0.038 A 
ATOM      5  C   UNL     1     -59.597  26.644 -13.230  1.00  0.00     0.076 A 
ATOM      6  C   UNL     1     -60.548  26.412 -12.204  1.00  0.00     0.127 A 
ATOM      7  C   UNL     1     -61.671  27.240 -12.097  1.00  0.00     0.050 A 
ATOM      8  C   UNL     1     -58.306  25.914 -13.303  1.00  0.00     0.201 C 
ATOM      9  O   UNL     1     -57.775  25.472 -12.249  1.00  0.00    -0.288 OA
ATOM     10  C   UNL     1     -57.554  25.870 -14.584  1.00  0.00     0.076 A 
ATOM     11  C   UNL     1     -57.813  26.872 -15.545  1.00  0.00     0.041 A 
ATOM     12  C   UNL     1     -58.915  27.838 -15.325  1.00  0.00     0.194 C 
ATOM     13  O   UNL     1     -59.071  28.810 -16.116  1.00  0.00    -0.289 OA
ATOM     14  C   UNL     1     -57.029  26.946 -16.708  1.00  0.00     0.059 A 
ATOM     15  C   UNL     1     -56.001  26.025 -16.930  1.00  0.00     0.120 A 
ATOM     16  C   UNL     1     -55.768  25.010 -16.003  1.00  0.00     0.093 A 
ATOM     17  C   UNL     1     -56.549  24.902 -14.847  1.00  0.00     0.131 A 
ENDROOT
BRANCH   6  18
ATOM     18  O   UNL     1     -60.440  25.353 -11.299  1.00  0.00    -0.507 OA
ATOM     19  H   UNL     1     -60.451  24.381 -11.574  1.00  0.00     0.293 HD
ENDBRANCH   6  18
BRANCH  17  20
ATOM     20  O   UNL     1     -56.316  23.807 -14.012  1.00  0.00    -0.507 OA
ATOM     21  H   UNL     1     -55.626  23.094 -14.204  1.00  0.00     0.293 HD
ENDBRANCH  17  20
BRANCH  15  22
ATOM     22  O   UNL     1     -55.213  26.102 -18.076  1.00  0.00    -0.508 OA
ATOM     23  H   UNL     1     -54.660  26.925 -18.286  1.00  0.00     0.293 HD
ENDBRANCH  15  22
TORSDOF 3
ENDMDL
MODEL 7
REMARK VINA RESULT:    -5.084      9.180     11.168
REMARK INTER + INTRA:          -5.530
REMARK INTER:                  -5.530
REMARK INTRA:                   0.000
REMARK UNBOUND:                 0.000
REMARK SMILES Cc1cc(O)c2c(c1)C(=O)c1cc(O)cc(O)c1C2=O
REMARK SMILES IDX 1 1 2 2 8 3 7 4 6 5 4 6 3 7 19 8 20 9 18 10 11 11 9 12 10 13
REMARK SMILES IDX 12 14 13 15 15 16 16 17 5 18 17 20 14 22
REMARK H PARENT 5 19 17 21 14 23
REMARK Flexibility Score: inf
ROOT
ATOM      1  C   UNL     1     -51.872  17.830 -17.878  1.00  0.00     0.044 C 
ATOM      2  C   UNL     1     -53.291  17.401 -18.108  1.00  0.00    -0.047 A 
ATOM      3  C   UNL     1     -54.348  18.190 -17.644  1.00  0.00     0.016 A 
ATOM      4  C   UNL     1     -55.681  17.783 -17.831  1.00  0.00     0.038 A 
ATOM      5  C   UNL     1     -55.958  16.565 -18.490  1.00  0.00     0.076 A 
ATOM      6  C   UNL     1     -54.881  15.730 -18.883  1.00  0.00     0.127 A 
ATOM      7  C   UNL     1     -53.564  16.166 -18.705  1.00  0.00     0.050 A 
ATOM      8  C   UNL     1     -57.374  16.240 -18.800  1.00  0.00     0.201 C 
ATOM      9  O   UNL     1     -57.652  15.546 -19.814  1.00  0.00    -0.288 OA
ATOM     10  C   UNL     1     -58.466  16.888 -18.026  1.00  0.00     0.076 A 
ATOM     11  C   UNL     1     -58.184  18.104 -17.364  1.00  0.00     0.041 A 
ATOM     12  C   UNL     1     -56.796  18.622 -17.330  1.00  0.00     0.194 C 
ATOM     13  O   UNL     1     -56.560  19.766 -16.851  1.00  0.00    -0.289 OA
ATOM     14  C   UNL     1     -59.221  18.816 -16.738  1.00  0.00     0.059 A 
ATOM     15  C   UNL     1     -60.529  18.322 -16.751  1.00  0.00     0.120 A 
ATOM     16  C   UNL     1     -60.803  17.102 -17.368  1.00  0.00     0.093 A 
ATOM     17  C   UNL     1     -59.785  16.364 -17.980  1.00  0.00     0.131 A 
ENDROOT
BRANCH   6  18
ATOM     18  O   UNL     1     -55.070  14.452 -19.413  1.00  0.00    -0.507 OA
ATOM     19  H   UNL     1     -54.354  13.739 -19.419  1.00  0.00     0.293 HD
ENDBRANCH   6  18
BRANCH  17  20
ATOM     20  O   UNL     1     -60.118  15.110 -18.497  1.00  0.00    -0.507 OA
ATOM     21  H   UNL     1     -61.063  14.834 -18.727  1.00  0.00     0.293 HD
ENDBRANCH  17  20
BRANCH  15  22
ATOM     22  O   UNL     1     -61.562  19.031 -16.142  1.00  0.00    -0.508 OA
ATOM     23  H   UNL     1     -62.526  18.921 -16.433  1.00  0.00     0.293 HD
ENDBRANCH  15  22
TORSDOF 3
ENDMDL
MODEL 8
REMARK VINA RESULT:    -5.029      1.303      3.184
REMARK INTER + INTRA:          -5.470
REMARK INTER:                  -5.470
REMARK INTRA:                   0.000
REMARK UNBOUND:                 0.000
REMARK SMILES Cc1cc(O)c2c(c1)C(=O)c1cc(O)cc(O)c1C2=O
REMARK SMILES IDX 1 1 2 2 8 3 7 4 6 5 4 6 3 7 19 8 20 9 18 10 11 11 9 12 10 13
REMARK SMILES IDX 12 14 13 15 15 16 16 17 5 18 17 20 14 22
REMARK H PARENT 5 19 17 21 14 23
REMARK Flexibility Score: inf
ROOT
ATOM      1  C   UNL     1     -59.155  22.863  -8.996  1.00  0.00     0.044 C 
ATOM      2  C   UNL     1     -59.353  23.833 -10.123  1.00  0.00    -0.047 A 
ATOM      3  C   UNL     1     -58.525  23.782 -11.249  1.00  0.00     0.016 A 
ATOM      4  C   UNL     1     -58.685  24.704 -12.298  1.00  0.00     0.038 A 
ATOM      5  C   UNL     1     -59.690  25.694 -12.217  1.00  0.00     0.076 A 
ATOM      6  C   UNL     1     -60.470  25.792 -11.037  1.00  0.00     0.127 A 
ATOM      7  C   UNL     1     -60.306  24.851 -10.015  1.00  0.00     0.050 A 
ATOM      8  C   UNL     1     -59.927  26.553 -13.405  1.00  0.00     0.201 C 
ATOM      9  O   UNL     1     -61.080  27.009 -13.630  1.00  0.00    -0.288 OA
ATOM     10  C   UNL     1     -58.855  26.718 -14.422  1.00  0.00     0.076 A 
ATOM     11  C   UNL     1     -57.849  25.728 -14.498  1.00  0.00     0.041 A 
ATOM     12  C   UNL     1     -57.798  24.648 -13.484  1.00  0.00     0.194 C 
ATOM     13  O   UNL     1     -56.983  23.694 -13.619  1.00  0.00    -0.289 OA
ATOM     14  C   UNL     1     -56.899  25.775 -15.532  1.00  0.00     0.059 A 
ATOM     15  C   UNL     1     -56.931  26.803 -16.478  1.00  0.00     0.120 A 
ATOM     16  C   UNL     1     -57.898  27.803 -16.383  1.00  0.00     0.093 A 
ATOM     17  C   UNL     1     -58.842  27.791 -15.351  1.00  0.00     0.131 A 
ENDROOT
BRANCH   6  18
ATOM     18  O   UNL     1     -61.387  26.824 -10.821  1.00  0.00    -0.507 OA
ATOM     19  H   UNL     1     -61.221  27.783 -11.091  1.00  0.00     0.293 HD
ENDBRANCH   6  18
BRANCH  17  20
ATOM     20  O   UNL     1     -59.720  28.874 -15.267  1.00  0.00    -0.507 OA
ATOM     21  H   UNL     1     -60.701  28.817 -15.501  1.00  0.00     0.293 HD
ENDBRANCH  17  20
BRANCH  15  22
ATOM     22  O   UNL     1     -55.998  26.845 -17.512  1.00  0.00    -0.508 OA
ATOM     23  H   UNL     1     -55.888  26.075 -18.160  1.00  0.00     0.293 HD
ENDBRANCH  15  22
TORSDOF 3
ENDMDL
MODEL 9
REMARK VINA RESULT:    -4.942      2.319      4.744
REMARK INTER + INTRA:          -5.376
REMARK INTER:                  -5.376
REMARK INTRA:                   0.000
REMARK UNBOUND:                 0.000
REMARK SMILES Cc1cc(O)c2c(c1)C(=O)c1cc(O)cc(O)c1C2=O
REMARK SMILES IDX 1 1 2 2 8 3 7 4 6 5 4 6 3 7 19 8 20 9 18 10 11 11 9 12 10 13
REMARK SMILES IDX 12 14 13 15 15 16 16 17 5 18 17 20 14 22
REMARK H PARENT 5 19 17 21 14 23
REMARK Flexibility Score: inf
ROOT
ATOM      1  C   UNL     1     -61.816  29.125 -13.031  1.00  0.00     0.044 C 
ATOM      2  C   UNL     1     -60.688  28.431 -13.737  1.00  0.00    -0.047 A 
ATOM      3  C   UNL     1     -60.143  27.257 -13.206  1.00  0.00     0.016 A 
ATOM      4  C   UNL     1     -59.069  26.614 -13.846  1.00  0.00     0.038 A 
ATOM      5  C   UNL     1     -58.530  27.157 -15.033  1.00  0.00     0.076 A 
ATOM      6  C   UNL     1     -59.031  28.392 -15.518  1.00  0.00     0.127 A 
ATOM      7  C   UNL     1     -60.114  29.003 -14.876  1.00  0.00     0.050 A 
ATOM      8  C   UNL     1     -57.497  26.374 -15.758  1.00  0.00     0.201 C 
ATOM      9  O   UNL     1     -57.401  26.471 -17.011  1.00  0.00    -0.288 OA
ATOM     10  C   UNL     1     -56.709  25.343 -15.034  1.00  0.00     0.076 A 
ATOM     11  C   UNL     1     -57.249  24.804 -13.844  1.00  0.00     0.041 A 
ATOM     12  C   UNL     1     -58.492  25.374 -13.273  1.00  0.00     0.194 C 
ATOM     13  O   UNL     1     -59.047  24.817 -12.285  1.00  0.00    -0.289 OA
ATOM     14  C   UNL     1     -56.603  23.732 -13.206  1.00  0.00     0.059 A 
ATOM     15  C   UNL     1     -55.419  23.204 -13.729  1.00  0.00     0.120 A 
ATOM     16  C   UNL     1     -54.862  23.760 -14.880  1.00  0.00     0.093 A 
ATOM     17  C   UNL     1     -55.475  24.840 -15.523  1.00  0.00     0.131 A 
ENDROOT
BRANCH   6  18
ATOM     18  O   UNL     1     -58.463  29.064 -16.603  1.00  0.00    -0.507 OA
ATOM     19  H   UNL     1     -58.568  28.764 -17.562  1.00  0.00     0.293 HD
ENDBRANCH   6  18
BRANCH  17  20
ATOM     20  O   UNL     1     -54.811  25.402 -16.616  1.00  0.00    -0.507 OA
ATOM     21  H   UNL     1     -55.284  25.852 -17.387  1.00  0.00     0.293 HD
ENDBRANCH  17  20
BRANCH  15  22
ATOM     22  O   UNL     1     -54.782  22.134 -13.105  1.00  0.00    -0.508 OA
ATOM     23  H   UNL     1     -55.223  21.225 -13.029  1.00  0.00     0.293 HD
ENDBRANCH  15  22
TORSDOF 3
ENDMDL
