MODEL 1
REMARK VINA RESULT:    -3.572      0.000      0.000
REMARK INTER + INTRA:          -4.500
REMARK INTER:                  -4.407
REMARK INTRA:                  -0.093
REMARK UNBOUND:                -0.093
REMARK SMILES CCCCCC(=O)[O-]
REMARK SMILES IDX 4 1 5 2 6 3 7 4 8 5 3 6 2 7 1 8
REMARK H PARENT
REMARK Flexibility Score: inf
ROOT
ATOM      1  C   UNL     1     -25.724 -29.550   6.202  1.00  0.00     0.006 C 
ENDROOT
BRANCH   1   2
ATOM      2  C   UNL     1     -27.104 -29.577   6.865  1.00  0.00     0.053 C 
BRANCH   2   3
ATOM      3  C   UNL     1     -27.077 -28.835   8.163  1.00  0.00     0.041 C 
ATOM      4  O   UNL     1     -28.004 -28.036   8.456  1.00  0.00    -0.550 OA
ATOM      5  O   UNL     1     -26.052 -29.062   9.072  1.00  0.00    -0.550 OA
ENDBRANCH   2   3
ENDBRANCH   1   2
BRANCH   1   6
ATOM      6  C   UNL     1     -25.614 -28.382   5.210  1.00  0.00     0.000 C 
BRANCH   6   7
ATOM      7  C   UNL     1     -24.223 -28.286   4.563  1.00  0.00    -0.003 C 
ATOM      8  C   UNL     1     -24.002 -29.339   3.478  1.00  0.00     0.004 C 
ENDBRANCH   6   7
ENDBRANCH   1   6
TORSDOF 4
ENDMDL
MODEL 2
REMARK VINA RESULT:    -3.541      9.658     10.432
REMARK INTER + INTRA:          -4.462
REMARK INTER:                  -4.303
REMARK INTRA:                  -0.159
REMARK UNBOUND:                -0.093
REMARK SMILES CCCCCC(=O)[O-]
REMARK SMILES IDX 4 1 5 2 6 3 7 4 8 5 3 6 2 7 1 8
REMARK H PARENT
REMARK Flexibility Score: inf
ROOT
ATOM      1  C   UNL     1     -19.626 -20.641  10.124  1.00  0.00     0.006 C 
ENDROOT
BRANCH   1   2
ATOM      2  C   UNL     1     -19.975 -21.907   9.336  1.00  0.00     0.053 C 
BRANCH   2   3
ATOM      3  C   UNL     1     -21.395 -21.860   8.870  1.00  0.00     0.041 C 
ATOM      4  O   UNL     1     -22.171 -22.823   9.103  1.00  0.00    -0.550 OA
ATOM      5  O   UNL     1     -21.876 -20.730   8.220  1.00  0.00    -0.550 OA
ENDBRANCH   2   3
ENDBRANCH   1   2
BRANCH   1   6
ATOM      6  C   UNL     1     -19.363 -20.970  11.602  1.00  0.00     0.000 C 
BRANCH   6   7
ATOM      7  C   UNL     1     -19.172 -22.475  11.846  1.00  0.00    -0.003 C 
ATOM      8  C   UNL     1     -20.081 -23.015  12.949  1.00  0.00     0.004 C 
ENDBRANCH   6   7
ENDBRANCH   1   6
TORSDOF 4
ENDMDL
MODEL 3
REMARK VINA RESULT:    -3.537     12.808     14.187
REMARK INTER + INTRA:          -4.457
REMARK INTER:                  -4.313
REMARK INTRA:                  -0.144
REMARK UNBOUND:                -0.093
REMARK SMILES CCCCCC(=O)[O-]
REMARK SMILES IDX 4 1 5 2 6 3 7 4 8 5 3 6 2 7 1 8
REMARK H PARENT
REMARK Flexibility Score: inf
ROOT
ATOM      1  C   UNL     1     -29.243 -22.258  17.621  1.00  0.00     0.006 C 
ENDROOT
BRANCH   1   2
ATOM      2  C   UNL     1     -29.924 -21.357  18.656  1.00  0.00     0.053 C 
BRANCH   2   3
ATOM      3  C   UNL     1     -29.688 -19.916  18.333  1.00  0.00     0.041 C 
ATOM      4  O   UNL     1     -29.008 -19.195  19.110  1.00  0.00    -0.550 OA
ATOM      5  O   UNL     1     -30.179 -19.380  17.150  1.00  0.00    -0.550 OA
ENDBRANCH   2   3
ENDBRANCH   1   2
BRANCH   1   6
ATOM      6  C   UNL     1     -29.955 -23.615  17.521  1.00  0.00     0.000 C 
BRANCH   6   7
ATOM      7  C   UNL     1     -31.184 -23.570  16.599  1.00  0.00    -0.003 C 
ATOM      8  C   UNL     1     -30.946 -22.742  15.337  1.00  0.00     0.004 C 
ENDBRANCH   6   7
ENDBRANCH   1   6
TORSDOF 4
ENDMDL
MODEL 4
REMARK VINA RESULT:    -3.526      9.958     10.576
REMARK INTER + INTRA:          -4.443
REMARK INTER:                  -4.290
REMARK INTRA:                  -0.153
REMARK UNBOUND:                -0.093
REMARK SMILES CCCCCC(=O)[O-]
REMARK SMILES IDX 4 1 5 2 6 3 7 4 8 5 3 6 2 7 1 8
REMARK H PARENT
REMARK Flexibility Score: inf
ROOT
ATOM      1  C   UNL     1     -18.949 -21.224  11.285  1.00  0.00     0.006 C 
ENDROOT
BRANCH   1   2
ATOM      2  C   UNL     1     -19.820 -21.978  12.295  1.00  0.00     0.053 C 
BRANCH   2   3
ATOM      3  C   UNL     1     -19.188 -23.284  12.659  1.00  0.00     0.041 C 
ATOM      4  O   UNL     1     -18.392 -23.847  11.863  1.00  0.00    -0.550 OA
ATOM      5  O   UNL     1     -19.441 -23.856  13.899  1.00  0.00    -0.550 OA
ENDBRANCH   2   3
ENDBRANCH   1   2
BRANCH   1   6
ATOM      6  C   UNL     1     -19.784 -20.751  10.085  1.00  0.00     0.000 C 
BRANCH   6   7
ATOM      7  C   UNL     1     -20.077 -21.884   9.088  1.00  0.00    -0.003 C 
ATOM      8  C   UNL     1     -21.242 -21.562   8.153  1.00  0.00     0.004 C 
ENDBRANCH   6   7
ENDBRANCH   1   6
TORSDOF 4
ENDMDL
MODEL 5
REMARK VINA RESULT:    -3.515      1.659      2.625
REMARK INTER + INTRA:          -4.429
REMARK INTER:                  -4.245
REMARK INTRA:                  -0.184
REMARK UNBOUND:                -0.093
REMARK SMILES CCCCCC(=O)[O-]
REMARK SMILES IDX 4 1 5 2 6 3 7 4 8 5 3 6 2 7 1 8
REMARK H PARENT
REMARK Flexibility Score: inf
ROOT
ATOM      1  C   UNL     1     -27.748 -28.737   7.876  1.00  0.00     0.006 C 
ENDROOT
BRANCH   1   2
ATOM      2  C   UNL     1     -26.551 -28.496   8.801  1.00  0.00     0.053 C 
BRANCH   2   3
ATOM      3  C   UNL     1     -26.423 -27.041   9.123  1.00  0.00     0.041 C 
ATOM      4  O   UNL     1     -25.501 -26.356   8.608  1.00  0.00    -0.550 OA
ATOM      5  O   UNL     1     -27.351 -26.430   9.957  1.00  0.00    -0.550 OA
ENDBRANCH   2   3
ENDBRANCH   1   2
BRANCH   1   6
ATOM      6  C   UNL     1     -27.323 -29.510   6.618  1.00  0.00     0.000 C 
BRANCH   6   7
ATOM      7  C   UNL     1     -25.814 -29.405   6.343  1.00  0.00    -0.003 C 
ATOM      8  C   UNL     1     -25.484 -28.406   5.234  1.00  0.00     0.004 C 
ENDBRANCH   6   7
ENDBRANCH   1   6
TORSDOF 4
ENDMDL
MODEL 6
REMARK VINA RESULT:    -3.512     11.667     13.500
REMARK INTER + INTRA:          -4.426
REMARK INTER:                  -4.277
REMARK INTRA:                  -0.150
REMARK UNBOUND:                -0.093
REMARK SMILES CCCCCC(=O)[O-]
REMARK SMILES IDX 4 1 5 2 6 3 7 4 8 5 3 6 2 7 1 8
REMARK H PARENT
REMARK Flexibility Score: inf
ROOT
ATOM      1  C   UNL     1     -30.249 -22.830  18.180  1.00  0.00     0.006 C 
ENDROOT
BRANCH   1   2
ATOM      2  C   UNL     1     -29.235 -21.694  18.018  1.00  0.00     0.053 C 
BRANCH   2   3
ATOM      3  C   UNL     1     -29.924 -20.431  17.609  1.00  0.00     0.041 C 
ATOM      4  O   UNL     1     -29.676 -19.352  18.208  1.00  0.00    -0.550 OA
ATOM      5  O   UNL     1     -30.803 -20.436  16.534  1.00  0.00    -0.550 OA
ENDBRANCH   2   3
ENDBRANCH   1   2
BRANCH   1   6
ATOM      6  C   UNL     1     -29.707 -24.139  17.585  1.00  0.00     0.000 C 
BRANCH   6   7
ATOM      7  C   UNL     1     -28.691 -23.898  16.458  1.00  0.00    -0.003 C 
ATOM      8  C   UNL     1     -27.748 -25.082  16.249  1.00  0.00     0.004 C 
ENDBRANCH   6   7
ENDBRANCH   1   6
TORSDOF 4
ENDMDL
MODEL 7
REMARK VINA RESULT:    -3.491     10.538     11.426
REMARK INTER + INTRA:          -4.400
REMARK INTER:                  -4.300
REMARK INTRA:                  -0.100
REMARK UNBOUND:                -0.093
REMARK SMILES CCCCCC(=O)[O-]
REMARK SMILES IDX 4 1 5 2 6 3 7 4 8 5 3 6 2 7 1 8
REMARK H PARENT
REMARK Flexibility Score: inf
ROOT
ATOM      1  C   UNL     1     -23.082 -28.132  17.925  1.00  0.00     0.006 C 
ENDROOT
BRANCH   1   2
ATOM      2  C   UNL     1     -22.440 -28.638  16.630  1.00  0.00     0.053 C 
BRANCH   2   3
ATOM      3  C   UNL     1     -21.895 -30.019  16.819  1.00  0.00     0.041 C 
ATOM      4  O   UNL     1     -22.253 -30.951  16.053  1.00  0.00    -0.550 OA
ATOM      5  O   UNL     1     -20.956 -30.265  17.812  1.00  0.00    -0.550 OA
ENDBRANCH   2   3
ENDBRANCH   1   2
BRANCH   1   6
ATOM      6  C   UNL     1     -24.027 -26.953  17.645  1.00  0.00     0.000 C 
BRANCH   6   7
ATOM      7  C   UNL     1     -23.622 -26.157  16.395  1.00  0.00    -0.003 C 
ATOM      8  C   UNL     1     -24.763 -25.304  15.842  1.00  0.00     0.004 C 
ENDBRANCH   6   7
ENDBRANCH   1   6
TORSDOF 4
ENDMDL
MODEL 8
REMARK VINA RESULT:    -3.476     10.534     11.305
REMARK INTER + INTRA:          -4.382
REMARK INTER:                  -4.265
REMARK INTRA:                  -0.117
REMARK UNBOUND:                -0.093
REMARK SMILES CCCCCC(=O)[O-]
REMARK SMILES IDX 4 1 5 2 6 3 7 4 8 5 3 6 2 7 1 8
REMARK H PARENT
REMARK Flexibility Score: inf
ROOT
ATOM      1  C   UNL     1     -19.607 -22.840  12.078  1.00  0.00     0.006 C 
ENDROOT
BRANCH   1   2
ATOM      2  C   UNL     1     -19.075 -21.527  11.496  1.00  0.00     0.053 C 
BRANCH   2   3
ATOM      3  C   UNL     1     -19.519 -21.364  10.077  1.00  0.00     0.041 C 
ATOM      4  O   UNL     1     -19.402 -22.318   9.263  1.00  0.00    -0.550 OA
ATOM      5  O   UNL     1     -20.106 -20.176   9.665  1.00  0.00    -0.550 OA
ENDBRANCH   2   3
ENDBRANCH   1   2
BRANCH   1   6
ATOM      6  C   UNL     1     -18.464 -23.840  12.312  1.00  0.00     0.000 C 
BRANCH   6   7
ATOM      7  C   UNL     1     -18.755 -24.808  13.469  1.00  0.00    -0.003 C 
ATOM      8  C   UNL     1     -19.455 -24.130  14.646  1.00  0.00     0.004 C 
ENDBRANCH   6   7
ENDBRANCH   1   6
TORSDOF 4
ENDMDL
MODEL 9
REMARK VINA RESULT:    -3.453      8.565      9.492
REMARK INTER + INTRA:          -4.353
REMARK INTER:                  -4.244
REMARK INTRA:                  -0.109
REMARK UNBOUND:                -0.093
REMARK SMILES CCCCCC(=O)[O-]
REMARK SMILES IDX 4 1 5 2 6 3 7 4 8 5 3 6 2 7 1 8
REMARK H PARENT
REMARK Flexibility Score: inf
ROOT
ATOM      1  C   UNL     1     -19.619 -26.126   0.134  1.00  0.00     0.006 C 
ENDROOT
BRANCH   1   2
ATOM      2  C   UNL     1     -19.319 -26.747   1.501  1.00  0.00     0.053 C 
BRANCH   2   3
ATOM      3  C   UNL     1     -17.969 -27.391   1.499  1.00  0.00     0.041 C 
ATOM      4  O   UNL     1     -17.737 -28.375   0.749  1.00  0.00    -0.550 OA
ATOM      5  O   UNL     1     -16.951 -26.874   2.290  1.00  0.00    -0.550 OA
ENDBRANCH   2   3
ENDBRANCH   1   2
BRANCH   1   6
ATOM      6  C   UNL     1     -20.937 -25.336   0.167  1.00  0.00     0.000 C 
BRANCH   6   7
ATOM      7  C   UNL     1     -21.721 -25.552   1.471  1.00  0.00    -0.003 C 
ATOM      8  C   UNL     1     -22.552 -24.334   1.871  1.00  0.00     0.004 C 
ENDBRANCH   6   7
ENDBRANCH   1   6
TORSDOF 4
ENDMDL
