MODEL 1
REMARK VINA RESULT:    -3.594      0.000      0.000
REMARK INTER + INTRA:          -5.134
REMARK INTER:                  -5.485
REMARK INTRA:                   0.351
REMARK UNBOUND:                 0.351
REMARK SMILES CC1=CCC[C@@H](C)C(=O)C[C@@H](C(C)C)C(=O)C1
REMARK SMILES IDX 8 1 9 2 6 3 7 4 5 5 4 6 3 7 2 8 1 9 10 11 11 12 15 13 16 14
REMARK SMILES IDX 17 15 12 17 13 18 14 19
REMARK H PARENT
REMARK Flexibility Score: 70.00
ROOT
ATOM      1  C   UNL     1     166.574 199.340 303.118  1.00  0.00     0.136 C 
ATOM      2  O   UNL     1     167.272 198.386 303.431  1.00  0.00    -0.299 OA
ENDROOT
BRANCH   1   3
ATOM      3  C   UNL     1     166.133 200.293 304.214  1.00  0.00     0.053 C 
ATOM      4  C   UNL     1     166.493 199.828 305.635  1.00  0.00     0.016 C 
BRANCH   3   5
ATOM      5  C   UNL     1     164.637 200.655 304.085  1.00  0.00     0.015 C 
BRANCH   5   6
ATOM      6  C   UNL     1     164.346 202.172 304.018  1.00  0.00     0.028 C 
BRANCH   6   7
ATOM      7  C   UNL     1     163.646 202.546 302.731  1.00  0.00    -0.028 C 
ATOM      8  C   UNL     1     164.220 202.794 301.529  1.00  0.00    -0.070 CG0
ATOM      9  C   UNL     1     163.301 203.119 300.375  1.00  0.00     0.039 C 
ATOM     10  G   UNL     1     165.716 202.797 301.268  1.00  0.00     0.000 G0
ENDBRANCH   6   7
ENDBRANCH   5   6
ENDBRANCH   3   5
ENDBRANCH   1   3
BRANCH   1  11
ATOM     11  C   UNL     1     166.120 199.494 301.679  1.00  0.00     0.087 C 
BRANCH  11  12
ATOM     12  C   UNL     1     166.973 200.498 300.866  1.00  0.00     0.066 C 
BRANCH  12  13
ATOM     13  C   UNL     1     166.181 201.703 300.374  1.00  0.00     0.140 C 
ATOM     14  O   UNL     1     165.847 201.733 299.198  1.00  0.00    -0.299 OA
BRANCH  13  15
ATOM     15  C   UNL     1     165.729 202.826 301.281  1.00  0.00     0.106 CG0
ATOM     16  G   UNL     1     164.232 202.761 301.531  1.00  0.00     0.000 G0
ENDBRANCH  13  15
ENDBRANCH  12  13
BRANCH  12  17
ATOM     17  C   UNL     1     167.793 199.802 299.737  1.00  0.00    -0.006 C 
ATOM     18  C   UNL     1     168.666 200.759 298.908  1.00  0.00     0.008 C 
ATOM     19  C   UNL     1     168.659 198.662 300.297  1.00  0.00     0.008 C 
ENDBRANCH  12  17
ENDBRANCH  11  12
ENDBRANCH   1  11
TORSDOF 1
ENDMDL
MODEL 2
REMARK VINA RESULT:    -2.870      3.025      4.471
REMARK INTER + INTRA:          -4.029
REMARK INTER:                  -3.901
REMARK INTRA:                  -0.128
REMARK UNBOUND:                 0.351
REMARK SMILES CC1=CCC[C@@H](C)C(=O)C[C@@H](C(C)C)C(=O)C1
REMARK SMILES IDX 8 1 9 2 6 3 7 4 5 5 4 6 3 7 2 8 1 9 10 11 11 12 15 13 16 14
REMARK SMILES IDX 17 15 12 17 13 18 14 19
REMARK H PARENT
REMARK Flexibility Score: 70.00
ROOT
ATOM      1  C   UNL     1     165.854 199.509 305.309  1.00  0.00     0.136 C 
ATOM      2  O   UNL     1     166.862 199.204 304.688  1.00  0.00    -0.299 OA
ENDROOT
BRANCH   1   3
ATOM      3  C   UNL     1     165.831 199.255 306.805  1.00  0.00     0.053 C 
ATOM      4  C   UNL     1     166.378 197.878 307.218  1.00  0.00     0.016 C 
BRANCH   3   5
ATOM      5  C   UNL     1     164.436 199.529 307.407  1.00  0.00     0.015 C 
BRANCH   5   6
ATOM      6  C   UNL     1     164.265 200.937 308.021  1.00  0.00     0.028 C 
BRANCH   6   7
ATOM      7  C   UNL     1     162.882 201.491 307.762  1.00  0.00    -0.028 C 
ATOM      8  C   UNL     1     162.528 202.408 306.829  1.00  0.00    -0.070 CG0
ATOM      9  C   UNL     1     161.068 202.781 306.742  1.00  0.00     0.039 C 
ATOM     10  G   UNL     1     163.497 203.104 305.889  1.00  0.00     0.000 G0
ENDBRANCH   6   7
ENDBRANCH   5   6
ENDBRANCH   3   5
ENDBRANCH   1   3
BRANCH   1  11
ATOM     11  C   UNL     1     164.652 200.054 304.560  1.00  0.00     0.087 C 
BRANCH  11  12
ATOM     12  C   UNL     1     164.797 201.543 304.160  1.00  0.00     0.066 C 
BRANCH  12  13
ATOM     13  C   UNL     1     163.601 202.396 304.565  1.00  0.00     0.140 C 
ATOM     14  O   UNL     1     162.652 202.463 303.795  1.00  0.00    -0.299 OA
BRANCH  13  15
ATOM     15  C   UNL     1     163.500 203.105 305.897  1.00  0.00     0.106 CG0
ATOM     16  G   UNL     1     162.499 202.417 306.810  1.00  0.00     0.000 G0
ENDBRANCH  13  15
ENDBRANCH  12  13
BRANCH  12  17
ATOM     17  C   UNL     1     165.195 201.719 302.663  1.00  0.00    -0.006 C 
ATOM     18  C   UNL     1     166.574 202.365 302.447  1.00  0.00     0.008 C 
ATOM     19  C   UNL     1     165.123 200.383 301.905  1.00  0.00     0.008 C 
ENDBRANCH  12  17
ENDBRANCH  11  12
ENDBRANCH   1  11
TORSDOF 1
ENDMDL
MODEL 3
REMARK VINA RESULT:    -2.766      1.779      4.743
REMARK INTER + INTRA:          -3.870
REMARK INTER:                  -4.859
REMARK INTRA:                   0.989
REMARK UNBOUND:                 0.351
REMARK SMILES CC1=CCC[C@@H](C)C(=O)C[C@@H](C(C)C)C(=O)C1
REMARK SMILES IDX 8 1 9 2 6 3 7 4 5 5 4 6 3 7 2 8 1 9 10 11 11 12 15 13 16 14
REMARK SMILES IDX 17 15 12 17 13 18 14 19
REMARK H PARENT
REMARK Flexibility Score: 70.00
ROOT
ATOM      1  C   UNL     1     164.547 202.421 303.553  1.00  0.00     0.136 C 
ATOM      2  O   UNL     1     164.989 203.125 304.450  1.00  0.00    -0.299 OA
ENDROOT
BRANCH   1   3
ATOM      3  C   UNL     1     164.085 203.096 302.275  1.00  0.00     0.053 C 
ATOM      4  C   UNL     1     162.636 202.764 301.876  1.00  0.00     0.016 C 
BRANCH   3   5
ATOM      5  C   UNL     1     165.075 202.856 301.115  1.00  0.00     0.015 C 
BRANCH   5   6
ATOM      6  C   UNL     1     166.559 202.783 301.540  1.00  0.00     0.028 C 
BRANCH   6   7
ATOM      7  C   UNL     1     167.307 201.723 300.764  1.00  0.00    -0.028 C 
ATOM      8  C   UNL     1     167.036 200.397 300.717  1.00  0.00    -0.070 CG0
ATOM      9  C   UNL     1     167.913 199.540 299.837  1.00  0.00     0.039 C 
ATOM     10  G   UNL     1     165.933 199.711 301.506  1.00  0.00     0.000 G0
ENDBRANCH   6   7
ENDBRANCH   5   6
ENDBRANCH   3   5
ENDBRANCH   1   3
BRANCH   1  11
ATOM     11  C   UNL     1     164.412 200.926 303.774  1.00  0.00     0.087 C 
BRANCH  11  12
ATOM     12  C   UNL     1     165.750 200.230 304.125  1.00  0.00     0.066 C 
BRANCH  12  13
ATOM     13  C   UNL     1     166.363 199.476 302.951  1.00  0.00     0.140 C 
ATOM     14  O   UNL     1     167.200 198.616 303.190  1.00  0.00    -0.299 OA
BRANCH  13  15
ATOM     15  C   UNL     1     165.940 199.690 301.515  1.00  0.00     0.106 CG0
ATOM     16  G   UNL     1     167.028 200.393 300.721  1.00  0.00     0.000 G0
ENDBRANCH  13  15
ENDBRANCH  12  13
BRANCH  12  17
ATOM     17  C   UNL     1     165.650 199.368 305.420  1.00  0.00    -0.006 C 
ATOM     18  C   UNL     1     166.884 198.494 305.695  1.00  0.00     0.008 C 
ATOM     19  C   UNL     1     165.347 200.242 306.649  1.00  0.00     0.008 C 
ENDBRANCH  12  17
ENDBRANCH  11  12
ENDBRANCH   1  11
TORSDOF 1
ENDMDL
MODEL 4
REMARK VINA RESULT:    -2.684      1.896      4.496
REMARK INTER + INTRA:          -3.745
REMARK INTER:                  -4.959
REMARK INTRA:                   1.213
REMARK UNBOUND:                 0.351
REMARK SMILES CC1=CCC[C@@H](C)C(=O)C[C@@H](C(C)C)C(=O)C1
REMARK SMILES IDX 8 1 9 2 6 3 7 4 5 5 4 6 3 7 2 8 1 9 10 11 11 12 15 13 16 14
REMARK SMILES IDX 17 15 12 17 13 18 14 19
REMARK H PARENT
REMARK Flexibility Score: 70.00
ROOT
ATOM      1  C   UNL     1     165.969 199.741 302.746  1.00  0.00     0.136 C 
ATOM      2  O   UNL     1     165.378 198.671 302.715  1.00  0.00    -0.299 OA
ENDROOT
BRANCH   1   3
ATOM      3  C   UNL     1     166.384 200.367 301.427  1.00  0.00     0.053 C 
ATOM      4  C   UNL     1     167.273 199.465 300.554  1.00  0.00     0.016 C 
BRANCH   3   5
ATOM      5  C   UNL     1     167.004 201.766 301.632  1.00  0.00     0.015 C 
BRANCH   5   6
ATOM      6  C   UNL     1     166.173 202.931 301.047  1.00  0.00     0.028 C 
BRANCH   6   7
ATOM      7  C   UNL     1     164.702 202.776 301.363  1.00  0.00    -0.028 C 
ATOM      8  C   UNL     1     164.118 202.815 302.585  1.00  0.00    -0.070 CG0
ATOM      9  C   UNL     1     162.616 202.667 302.641  1.00  0.00     0.039 C 
ATOM     10  G   UNL     1     164.867 202.968 303.897  1.00  0.00     0.000 G0
ENDBRANCH   6   7
ENDBRANCH   5   6
ENDBRANCH   3   5
ENDBRANCH   1   3
BRANCH   1  11
ATOM     11  C   UNL     1     166.325 200.360 304.085  1.00  0.00     0.087 C 
BRANCH  11  12
ATOM     12  C   UNL     1     165.109 200.536 305.027  1.00  0.00     0.066 C 
BRANCH  12  13
ATOM     13  C   UNL     1     164.441 201.900 304.901  1.00  0.00     0.140 C 
ATOM     14  O   UNL     1     163.539 202.175 305.680  1.00  0.00    -0.299 OA
BRANCH  13  15
ATOM     15  C   UNL     1     164.884 202.953 303.910  1.00  0.00     0.106 CG0
ATOM     16  G   UNL     1     164.121 202.829 302.602  1.00  0.00     0.000 G0
ENDBRANCH  13  15
ENDBRANCH  12  13
BRANCH  12  17
ATOM     17  C   UNL     1     165.440 200.149 306.501  1.00  0.00    -0.006 C 
ATOM     18  C   UNL     1     164.504 200.781 307.545  1.00  0.00     0.008 C 
ATOM     19  C   UNL     1     165.469 198.623 306.685  1.00  0.00     0.008 C 
ENDBRANCH  12  17
ENDBRANCH  11  12
ENDBRANCH   1  11
TORSDOF 1
ENDMDL
MODEL 5
REMARK VINA RESULT:    -2.476      1.952      4.063
REMARK INTER + INTRA:          -3.427
REMARK INTER:                  -3.704
REMARK INTRA:                   0.277
REMARK UNBOUND:                 0.351
REMARK SMILES CC1=CCC[C@@H](C)C(=O)C[C@@H](C(C)C)C(=O)C1
REMARK SMILES IDX 8 1 9 2 6 3 7 4 5 5 4 6 3 7 2 8 1 9 10 11 11 12 15 13 16 14
REMARK SMILES IDX 17 15 12 17 13 18 14 19
REMARK H PARENT
REMARK Flexibility Score: 70.00
ROOT
ATOM      1  C   UNL     1     164.557 201.565 304.315  1.00  0.00     0.136 C 
ATOM      2  O   UNL     1     163.400 201.734 304.671  1.00  0.00    -0.299 OA
ENDROOT
BRANCH   1   3
ATOM      3  C   UNL     1     165.343 200.431 304.949  1.00  0.00     0.053 C 
ATOM      4  C   UNL     1     166.865 200.649 304.958  1.00  0.00     0.016 C 
BRANCH   3   5
ATOM      5  C   UNL     1     164.956 199.064 304.344  1.00  0.00     0.015 C 
BRANCH   5   6
ATOM      6  C   UNL     1     165.049 198.993 302.803  1.00  0.00     0.028 C 
BRANCH   6   7
ATOM      7  C   UNL     1     166.470 198.757 302.343  1.00  0.00    -0.028 C 
ATOM      8  C   UNL     1     167.121 199.388 301.336  1.00  0.00    -0.070 CG0
ATOM      9  C   UNL     1     168.558 198.997 301.087  1.00  0.00     0.039 C 
ATOM     10  G   UNL     1     166.500 200.436 300.428  1.00  0.00     0.000 G0
ENDBRANCH   6   7
ENDBRANCH   5   6
ENDBRANCH   3   5
ENDBRANCH   1   3
BRANCH   1  11
ATOM     11  C   UNL     1     165.180 202.524 303.318  1.00  0.00     0.087 C 
BRANCH  11  12
ATOM     12  C   UNL     1     164.972 202.105 301.842  1.00  0.00     0.066 C 
BRANCH  12  13
ATOM     13  C   UNL     1     166.270 201.752 301.127  1.00  0.00     0.140 C 
ATOM     14  O   UNL     1     167.188 202.560 301.163  1.00  0.00    -0.299 OA
BRANCH  13  15
ATOM     15  C   UNL     1     166.503 200.428 300.435  1.00  0.00     0.106 CG0
ATOM     16  G   UNL     1     167.144 199.422 301.376  1.00  0.00     0.000 G0
ENDBRANCH  13  15
ENDBRANCH  12  13
BRANCH  12  17
ATOM     17  C   UNL     1     164.095 203.125 301.054  1.00  0.00    -0.006 C 
ATOM     18  C   UNL     1     164.130 202.940 299.527  1.00  0.00     0.008 C 
ATOM     19  C   UNL     1     162.639 203.109 301.547  1.00  0.00     0.008 C 
ENDBRANCH  12  17
ENDBRANCH  11  12
ENDBRANCH   1  11
TORSDOF 1
ENDMDL
MODEL 6
REMARK VINA RESULT:    -2.382      2.162      5.111
REMARK INTER + INTRA:          -3.285
REMARK INTER:                  -3.466
REMARK INTRA:                   0.181
REMARK UNBOUND:                 0.351
REMARK SMILES CC1=CCC[C@@H](C)C(=O)C[C@@H](C(C)C)C(=O)C1
REMARK SMILES IDX 8 1 9 2 6 3 7 4 5 5 4 6 3 7 2 8 1 9 10 11 11 12 15 13 16 14
REMARK SMILES IDX 17 15 12 17 13 18 14 19
REMARK H PARENT
REMARK Flexibility Score: 70.00
ROOT
ATOM      1  C   UNL     1     166.956 202.800 301.170  1.00  0.00     0.136 C 
ATOM      2  O   UNL     1     167.929 203.125 301.837  1.00  0.00    -0.299 OA
ENDROOT
BRANCH   1   3
ATOM      3  C   UNL     1     167.196 202.252 299.776  1.00  0.00     0.053 C 
ATOM      4  C   UNL     1     165.921 202.120 298.924  1.00  0.00     0.016 C 
BRANCH   3   5
ATOM      5  C   UNL     1     168.006 200.938 299.813  1.00  0.00     0.015 C 
BRANCH   5   6
ATOM      6  C   UNL     1     167.195 199.693 300.236  1.00  0.00     0.028 C 
BRANCH   6   7
ATOM      7  C   UNL     1     167.391 199.374 301.701  1.00  0.00    -0.028 C 
ATOM      8  C   UNL     1     166.428 199.173 302.632  1.00  0.00    -0.070 CG0
ATOM      9  C   UNL     1     166.877 198.832 304.032  1.00  0.00     0.039 C 
ATOM     10  G   UNL     1     164.936 199.295 302.373  1.00  0.00     0.000 G0
ENDBRANCH   6   7
ENDBRANCH   5   6
ENDBRANCH   3   5
ENDBRANCH   1   3
BRANCH   1  11
ATOM     11  C   UNL     1     165.563 203.021 301.727  1.00  0.00     0.087 C 
BRANCH  11  12
ATOM     12  C   UNL     1     165.116 201.927 302.728  1.00  0.00     0.066 C 
BRANCH  12  13
ATOM     13  C   UNL     1     164.521 200.698 302.052  1.00  0.00     0.140 C 
ATOM     14  O   UNL     1     163.713 200.869 301.149  1.00  0.00    -0.299 OA
BRANCH  13  15
ATOM     15  C   UNL     1     164.931 199.282 302.393  1.00  0.00     0.106 CG0
ATOM     16  G   UNL     1     166.427 199.189 302.641  1.00  0.00     0.000 G0
ENDBRANCH  13  15
ENDBRANCH  12  13
BRANCH  12  17
ATOM     17  C   UNL     1     164.215 202.496 303.866  1.00  0.00    -0.006 C 
ATOM     18  C   UNL     1     162.760 202.765 303.445  1.00  0.00     0.008 C 
ATOM     19  C   UNL     1     164.238 201.586 305.105  1.00  0.00     0.008 C 
ENDBRANCH  12  17
ENDBRANCH  11  12
ENDBRANCH   1  11
TORSDOF 1
ENDMDL
MODEL 7
REMARK VINA RESULT:    -2.195      1.764      4.275
REMARK INTER + INTRA:          -2.999
REMARK INTER:                  -3.996
REMARK INTRA:                   0.998
REMARK UNBOUND:                 0.351
REMARK SMILES CC1=CCC[C@@H](C)C(=O)C[C@@H](C(C)C)C(=O)C1
REMARK SMILES IDX 8 1 9 2 6 3 7 4 5 5 4 6 3 7 2 8 1 9 10 11 11 12 15 13 16 14
REMARK SMILES IDX 17 15 12 17 13 18 14 19
REMARK H PARENT
REMARK Flexibility Score: 70.00
ROOT
ATOM      1  C   UNL     1     165.457 199.813 304.746  1.00  0.00     0.136 C 
ATOM      2  O   UNL     1     165.153 199.314 305.820  1.00  0.00    -0.299 OA
ENDROOT
BRANCH   1   3
ATOM      3  C   UNL     1     165.894 198.886 303.626  1.00  0.00     0.053 C 
ATOM      4  C   UNL     1     167.359 198.425 303.728  1.00  0.00     0.016 C 
BRANCH   3   5
ATOM      5  C   UNL     1     165.568 199.478 302.238  1.00  0.00     0.015 C 
BRANCH   5   6
ATOM      6  C   UNL     1     166.804 199.776 301.359  1.00  0.00     0.028 C 
BRANCH   6   7
ATOM      7  C   UNL     1     166.521 200.873 300.357  1.00  0.00    -0.028 C 
ATOM      8  C   UNL     1     166.163 202.152 300.622  1.00  0.00    -0.070 CG0
ATOM      9  C   UNL     1     165.966 203.076 299.444  1.00  0.00     0.039 C 
ATOM     10  G   UNL     1     165.918 202.712 302.013  1.00  0.00     0.000 G0
ENDBRANCH   6   7
ENDBRANCH   5   6
ENDBRANCH   3   5
ENDBRANCH   1   3
BRANCH   1  11
ATOM     11  C   UNL     1     165.454 201.322 304.595  1.00  0.00     0.087 C 
BRANCH  11  12
ATOM     12  C   UNL     1     164.203 201.868 303.864  1.00  0.00     0.066 C 
BRANCH  12  13
ATOM     13  C   UNL     1     164.517 202.475 302.502  1.00  0.00     0.140 C 
ATOM     14  O   UNL     1     163.580 202.812 301.791  1.00  0.00    -0.299 OA
BRANCH  13  15
ATOM     15  C   UNL     1     165.924 202.743 302.017  1.00  0.00     0.106 CG0
ATOM     16  G   UNL     1     166.147 202.160 300.632  1.00  0.00     0.000 G0
ENDBRANCH  13  15
ENDBRANCH  12  13
BRANCH  12  17
ATOM     17  C   UNL     1     163.349 202.806 304.770  1.00  0.00    -0.006 C 
ATOM     18  C   UNL     1     161.859 202.865 304.393  1.00  0.00     0.008 C 
ATOM     19  C   UNL     1     163.495 202.434 306.255  1.00  0.00     0.008 C 
ENDBRANCH  12  17
ENDBRANCH  11  12
ENDBRANCH   1  11
TORSDOF 1
ENDMDL
MODEL 8
REMARK VINA RESULT:    -2.144      1.999      4.110
REMARK INTER + INTRA:          -2.921
REMARK INTER:                  -4.134
REMARK INTRA:                   1.213
REMARK UNBOUND:                 0.351
REMARK SMILES CC1=CCC[C@@H](C)C(=O)C[C@@H](C(C)C)C(=O)C1
REMARK SMILES IDX 8 1 9 2 6 3 7 4 5 5 4 6 3 7 2 8 1 9 10 11 11 12 15 13 16 14
REMARK SMILES IDX 17 15 12 17 13 18 14 19
REMARK H PARENT
REMARK Flexibility Score: 70.00
ROOT
ATOM      1  C   UNL     1     166.016 200.361 301.687  1.00  0.00     0.136 C 
ATOM      2  O   UNL     1     167.235 200.254 301.701  1.00  0.00    -0.299 OA
ENDROOT
BRANCH   1   3
ATOM      3  C   UNL     1     165.393 201.303 300.673  1.00  0.00     0.053 C 
ATOM      4  C   UNL     1     166.015 202.710 300.655  1.00  0.00     0.016 C 
BRANCH   3   5
ATOM      5  C   UNL     1     163.856 201.350 300.811  1.00  0.00     0.015 C 
BRANCH   5   6
ATOM      6  C   UNL     1     163.294 202.711 301.281  1.00  0.00     0.028 C 
BRANCH   6   7
ATOM      7  C   UNL     1     162.734 202.626 302.683  1.00  0.00    -0.028 C 
ATOM      8  C   UNL     1     163.409 202.787 303.846  1.00  0.00    -0.070 CG0
ATOM      9  C   UNL     1     162.617 202.687 305.128  1.00  0.00     0.039 C 
ATOM     10  G   UNL     1     164.905 203.032 303.952  1.00  0.00     0.000 G0
ENDBRANCH   6   7
ENDBRANCH   5   6
ENDBRANCH   3   5
ENDBRANCH   1   3
BRANCH   1  11
ATOM     11  C   UNL     1     165.189 199.614 302.715  1.00  0.00     0.087 C 
BRANCH  11  12
ATOM     12  C   UNL     1     165.044 200.369 304.059  1.00  0.00     0.066 C 
BRANCH  12  13
ATOM     13  C   UNL     1     165.700 201.745 304.052  1.00  0.00     0.140 C 
ATOM     14  O   UNL     1     166.922 201.801 304.062  1.00  0.00    -0.299 OA
BRANCH  13  15
ATOM     15  C   UNL     1     164.920 203.037 303.964  1.00  0.00     0.106 CG0
ATOM     16  G   UNL     1     163.429 202.770 303.847  1.00  0.00     0.000 G0
ENDBRANCH  13  15
ENDBRANCH  12  13
BRANCH  12  17
ATOM     17  C   UNL     1     165.466 199.495 305.280  1.00  0.00    -0.006 C 
ATOM     18  C   UNL     1     166.924 199.008 305.234  1.00  0.00     0.008 C 
ATOM     19  C   UNL     1     165.203 200.225 306.607  1.00  0.00     0.008 C 
ENDBRANCH  12  17
ENDBRANCH  11  12
ENDBRANCH   1  11
TORSDOF 1
ENDMDL
MODEL 9
REMARK VINA RESULT:    -1.914      1.836      3.964
REMARK INTER + INTRA:          -2.571
REMARK INTER:                  -3.688
REMARK INTRA:                   1.117
REMARK UNBOUND:                 0.351
REMARK SMILES CC1=CCC[C@@H](C)C(=O)C[C@@H](C(C)C)C(=O)C1
REMARK SMILES IDX 8 1 9 2 6 3 7 4 5 5 4 6 3 7 2 8 1 9 10 11 11 12 15 13 16 14
REMARK SMILES IDX 17 15 12 17 13 18 14 19
REMARK H PARENT
REMARK Flexibility Score: 70.00
ROOT
ATOM      1  C   UNL     1     164.692 202.808 303.627  1.00  0.00     0.136 C 
ATOM      2  O   UNL     1     164.505 202.713 304.832  1.00  0.00    -0.299 OA
ENDROOT
BRANCH   1   3
ATOM      3  C   UNL     1     163.498 203.109 302.740  1.00  0.00     0.053 C 
ATOM      4  C   UNL     1     162.147 203.087 303.475  1.00  0.00     0.016 C 
BRANCH   3   5
ATOM      5  C   UNL     1     163.486 202.216 301.480  1.00  0.00     0.015 C 
BRANCH   5   6
ATOM      6  C   UNL     1     163.662 202.980 300.148  1.00  0.00     0.028 C 
BRANCH   6   7
ATOM      7  C   UNL     1     165.113 203.038 299.729  1.00  0.00    -0.028 C 
ATOM      8  C   UNL     1     166.042 202.060 299.855  1.00  0.00    -0.070 CG0
ATOM      9  C   UNL     1     167.427 202.346 299.327  1.00  0.00     0.039 C 
ATOM     10  G   UNL     1     165.797 200.713 300.513  1.00  0.00     0.000 G0
ENDBRANCH   6   7
ENDBRANCH   5   6
ENDBRANCH   3   5
ENDBRANCH   1   3
BRANCH   1  11
ATOM     11  C   UNL     1     166.077 202.555 303.063  1.00  0.00     0.087 C 
BRANCH  11  12
ATOM     12  C   UNL     1     166.492 201.064 303.089  1.00  0.00     0.066 C 
BRANCH  12  13
ATOM     13  C   UNL     1     166.721 200.478 301.701  1.00  0.00     0.140 C 
ATOM     14  O   UNL     1     167.685 199.743 301.536  1.00  0.00    -0.299 OA
BRANCH  13  15
ATOM     15  C   UNL     1     165.780 200.704 300.538  1.00  0.00     0.106 CG0
ATOM     16  G   UNL     1     166.055 202.036 299.862  1.00  0.00     0.000 G0
ENDBRANCH  13  15
ENDBRANCH  12  13
BRANCH  12  17
ATOM     17  C   UNL     1     165.541 200.198 303.970  1.00  0.00    -0.006 C 
ATOM     18  C   UNL     1     164.868 199.037 303.220  1.00  0.00     0.008 C 
ATOM     19  C   UNL     1     166.267 199.661 305.214  1.00  0.00     0.008 C 
ENDBRANCH  12  17
ENDBRANCH  11  12
ENDBRANCH   1  11
TORSDOF 1
ENDMDL
