MODEL 1
REMARK VINA RESULT:    -3.041      0.000      0.000
REMARK INTER + INTRA:          -3.611
REMARK INTER:                  -3.574
REMARK INTRA:                  -0.036
REMARK UNBOUND:                -0.036
REMARK SMILES CCCCC(=O)[O-]
REMARK SMILES IDX 4 1 5 2 6 3 7 4 3 5 2 6 1 7
REMARK H PARENT
REMARK Flexibility Score: inf
ROOT
ATOM      1  C   UNL     1      35.194   3.415  11.104  1.00  0.00     0.053 C 
ENDROOT
BRANCH   1   2
ATOM      2  C   UNL     1      35.972   2.161  11.363  1.00  0.00     0.041 C 
ATOM      3  O   UNL     1      37.227   2.162  11.260  1.00  0.00    -0.550 OA
ATOM      4  O   UNL     1      35.310   0.983  11.684  1.00  0.00    -0.550 OA
ENDBRANCH   1   2
BRANCH   1   5
ATOM      5  C   UNL     1      35.838   4.634  11.778  1.00  0.00     0.006 C 
BRANCH   5   6
ATOM      6  C   UNL     1      35.915   5.845  10.838  1.00  0.00    -0.003 C 
ATOM      7  C   UNL     1      36.832   6.924  11.404  1.00  0.00     0.004 C 
ENDBRANCH   5   6
ENDBRANCH   1   5
TORSDOF 3
ENDMDL
MODEL 2
REMARK VINA RESULT:    -3.003     10.960     11.246
REMARK INTER + INTRA:          -3.566
REMARK INTER:                  -3.527
REMARK INTRA:                  -0.038
REMARK UNBOUND:                -0.036
REMARK SMILES CCCCC(=O)[O-]
REMARK SMILES IDX 4 1 5 2 6 3 7 4 3 5 2 6 1 7
REMARK H PARENT
REMARK Flexibility Score: inf
ROOT
ATOM      1  C   UNL     1      38.227  -7.465  11.791  1.00  0.00     0.053 C 
ENDROOT
BRANCH   1   2
ATOM      2  C   UNL     1      37.074  -7.023  12.639  1.00  0.00     0.041 C 
ATOM      3  O   UNL     1      37.282  -6.456  13.744  1.00  0.00    -0.550 OA
ATOM      4  O   UNL     1      35.771  -7.268  12.227  1.00  0.00    -0.550 OA
ENDBRANCH   1   2
BRANCH   1   5
ATOM      5  C   UNL     1      37.868  -7.465  10.298  1.00  0.00     0.006 C 
BRANCH   5   6
ATOM      6  C   UNL     1      38.839  -6.615   9.467  1.00  0.00    -0.003 C 
ATOM      7  C   UNL     1      40.278  -6.813   9.932  1.00  0.00     0.004 C 
ENDBRANCH   5   6
ENDBRANCH   1   5
TORSDOF 3
ENDMDL
MODEL 3
REMARK VINA RESULT:    -2.982     10.866     11.321
REMARK INTER + INTRA:          -3.541
REMARK INTER:                  -3.503
REMARK INTRA:                  -0.039
REMARK UNBOUND:                -0.036
REMARK SMILES CCCCC(=O)[O-]
REMARK SMILES IDX 4 1 5 2 6 3 7 4 3 5 2 6 1 7
REMARK H PARENT
REMARK Flexibility Score: inf
ROOT
ATOM      1  C   UNL     1      37.513  -7.511  10.990  1.00  0.00     0.053 C 
ENDROOT
BRANCH   1   2
ATOM      2  C   UNL     1      38.620  -7.022  10.107  1.00  0.00     0.041 C 
ATOM      3  O   UNL     1      38.362  -6.559   8.965  1.00  0.00    -0.550 OA
ATOM      4  O   UNL     1      39.940  -7.109  10.531  1.00  0.00    -0.550 OA
ENDBRANCH   1   2
BRANCH   1   5
ATOM      5  C   UNL     1      37.873  -7.383  12.477  1.00  0.00     0.006 C 
BRANCH   5   6
ATOM      6  C   UNL     1      36.792  -6.639  13.274  1.00  0.00    -0.003 C 
ATOM      7  C   UNL     1      35.398  -6.976  12.757  1.00  0.00     0.004 C 
ENDBRANCH   5   6
ENDBRANCH   1   5
TORSDOF 3
ENDMDL
MODEL 4
REMARK VINA RESULT:    -2.978      3.279      3.748
REMARK INTER + INTRA:          -3.536
REMARK INTER:                  -3.504
REMARK INTRA:                  -0.033
REMARK UNBOUND:                -0.036
REMARK SMILES CCCCC(=O)[O-]
REMARK SMILES IDX 4 1 5 2 6 3 7 4 3 5 2 6 1 7
REMARK H PARENT
REMARK Flexibility Score: inf
ROOT
ATOM      1  C   UNL     1      40.257   3.452  11.594  1.00  0.00     0.053 C 
ENDROOT
BRANCH   1   2
ATOM      2  C   UNL     1      39.554   2.158  11.321  1.00  0.00     0.041 C 
ATOM      3  O   UNL     1      38.301   2.085  11.417  1.00  0.00    -0.550 OA
ATOM      4  O   UNL     1      40.286   1.023  10.994  1.00  0.00    -0.550 OA
ENDBRANCH   1   2
BRANCH   1   5
ATOM      5  C   UNL     1      39.522   4.643  10.965  1.00  0.00     0.006 C 
BRANCH   5   6
ATOM      6  C   UNL     1      39.503   5.869  11.889  1.00  0.00    -0.003 C 
ATOM      7  C   UNL     1      39.044   7.116  11.140  1.00  0.00     0.004 C 
ENDBRANCH   5   6
ENDBRANCH   1   5
TORSDOF 3
ENDMDL
MODEL 5
REMARK VINA RESULT:    -2.946     11.775     12.460
REMARK INTER + INTRA:          -3.499
REMARK INTER:                  -3.377
REMARK INTRA:                  -0.122
REMARK UNBOUND:                -0.036
REMARK SMILES CCCCC(=O)[O-]
REMARK SMILES IDX 4 1 5 2 6 3 7 4 3 5 2 6 1 7
REMARK H PARENT
REMARK Flexibility Score: inf
ROOT
ATOM      1  C   UNL     1      40.273  -3.941   3.048  1.00  0.00     0.053 C 
ENDROOT
BRANCH   1   2
ATOM      2  C   UNL     1      39.100  -3.293   2.379  1.00  0.00     0.041 C 
ATOM      3  O   UNL     1      38.745  -2.131   2.708  1.00  0.00    -0.550 OA
ATOM      4  O   UNL     1      38.378  -3.986   1.416  1.00  0.00    -0.550 OA
ENDBRANCH   1   2
BRANCH   1   5
ATOM      5  C   UNL     1      41.549  -3.101   2.897  1.00  0.00     0.006 C 
BRANCH   5   6
ATOM      6  C   UNL     1      42.060  -3.076   1.450  1.00  0.00    -0.003 C 
ATOM      7  C   UNL     1      42.015  -1.664   0.875  1.00  0.00     0.004 C 
ENDBRANCH   5   6
ENDBRANCH   1   5
TORSDOF 3
ENDMDL
MODEL 6
REMARK VINA RESULT:    -2.931     10.791     11.281
REMARK INTER + INTRA:          -3.481
REMARK INTER:                  -3.443
REMARK INTRA:                  -0.038
REMARK UNBOUND:                -0.036
REMARK SMILES CCCCC(=O)[O-]
REMARK SMILES IDX 4 1 5 2 6 3 7 4 3 5 2 6 1 7
REMARK H PARENT
REMARK Flexibility Score: inf
ROOT
ATOM      1  C   UNL     1      37.358  -7.025  12.719  1.00  0.00     0.053 C 
ENDROOT
BRANCH   1   2
ATOM      2  C   UNL     1      36.094  -6.651  13.429  1.00  0.00     0.041 C 
ATOM      3  O   UNL     1      35.001  -6.622  12.805  1.00  0.00    -0.550 OA
ATOM      4  O   UNL     1      36.127  -6.300  14.773  1.00  0.00    -0.550 OA
ENDBRANCH   1   2
BRANCH   1   5
ATOM      5  C   UNL     1      37.075  -7.722  11.381  1.00  0.00     0.006 C 
BRANCH   5   6
ATOM      6  C   UNL     1      38.068  -7.305  10.287  1.00  0.00    -0.003 C 
ATOM      7  C   UNL     1      39.506  -7.398  10.787  1.00  0.00     0.004 C 
ENDBRANCH   5   6
ENDBRANCH   1   5
TORSDOF 3
ENDMDL
MODEL 7
REMARK VINA RESULT:    -2.856     11.487     12.221
REMARK INTER + INTRA:          -3.393
REMARK INTER:                  -3.342
REMARK INTRA:                  -0.051
REMARK UNBOUND:                -0.036
REMARK SMILES CCCCC(=O)[O-]
REMARK SMILES IDX 4 1 5 2 6 3 7 4 3 5 2 6 1 7
REMARK H PARENT
REMARK Flexibility Score: inf
ROOT
ATOM      1  C   UNL     1      40.256  -6.910   9.659  1.00  0.00     0.053 C 
ENDROOT
BRANCH   1   2
ATOM      2  C   UNL     1      40.893  -7.325   8.369  1.00  0.00     0.041 C 
ATOM      3  O   UNL     1      40.326  -7.075   7.273  1.00  0.00    -0.550 OA
ATOM      4  O   UNL     1      42.097  -8.018   8.377  1.00  0.00    -0.550 OA
ENDBRANCH   1   2
BRANCH   1   5
ATOM      5  C   UNL     1      38.754  -6.643   9.492  1.00  0.00     0.006 C 
BRANCH   5   6
ATOM      6  C   UNL     1      37.909  -7.420  10.512  1.00  0.00    -0.003 C 
ATOM      7  C   UNL     1      38.710  -7.721  11.774  1.00  0.00     0.004 C 
ENDBRANCH   5   6
ENDBRANCH   1   5
TORSDOF 3
ENDMDL
MODEL 8
REMARK VINA RESULT:    -2.851     10.912     12.001
REMARK INTER + INTRA:          -3.388
REMARK INTER:                  -3.347
REMARK INTRA:                  -0.041
REMARK UNBOUND:                -0.036
REMARK SMILES CCCCC(=O)[O-]
REMARK SMILES IDX 4 1 5 2 6 3 7 4 3 5 2 6 1 7
REMARK H PARENT
REMARK Flexibility Score: inf
ROOT
ATOM      1  C   UNL     1      35.376  -3.255  19.261  1.00  0.00     0.053 C 
ENDROOT
BRANCH   1   2
ATOM      2  C   UNL     1      36.464  -2.900  20.227  1.00  0.00     0.041 C 
ATOM      3  O   UNL     1      37.207  -3.798  20.703  1.00  0.00    -0.550 OA
ATOM      4  O   UNL     1      36.637  -1.581  20.628  1.00  0.00    -0.550 OA
ENDBRANCH   1   2
BRANCH   1   5
ATOM      5  C   UNL     1      34.243  -4.035  19.942  1.00  0.00     0.006 C 
BRANCH   5   6
ATOM      6  C   UNL     1      34.474  -5.552  19.896  1.00  0.00    -0.003 C 
ATOM      7  C   UNL     1      34.876  -6.005  18.496  1.00  0.00     0.004 C 
ENDBRANCH   5   6
ENDBRANCH   1   5
TORSDOF 3
ENDMDL
