MODEL 1
REMARK VINA RESULT:    -8.072      0.000      0.000
REMARK INTER + INTRA:         -18.286
REMARK INTER:                 -15.387
REMARK INTRA:                  -2.900
REMARK UNBOUND:                -2.900
REMARK SMILES C[C@H]1O[C@H](O[C@@H]2[C@@H](O)[C@H](OCCc3ccc(O)c(O)c3)O[C@H](CO)[C@@H]2OC(=O)C=Cc2ccc(O)c(O)c2)[C@@H](O)[C@H](O)[C@@H]1O
REMARK SMILES IDX 6 1 7 2 9 3 21 4 22 5 25 6 5 7 4 8 1 9 2 10 43 11 3 12 41 13
REMARK SMILES IDX 39 14 44 15 42 17 40 19 8 21 26 23 27 24 28 25 29 26 30 27
REMARK SMILES IDX 31 28 38 29 32 30 36 31 33 32 34 33 37 34 35 36 10 38 11 39
REMARK SMILES IDX 12 40 13 41 20 42 14 43 18 44 15 45 16 46 19 47 17 49 23 51
REMARK SMILES IDX 24 52
REMARK H PARENT 44 16 42 18 40 20 8 22 37 35 35 37 19 48 17 50 24 53
REMARK Flexibility Score: inf
ROOT
ATOM      1  C   UNL     1      32.870  35.174   3.598  1.00  0.00     0.199 C 
ATOM      2  C   UNL     1      31.788  34.567   2.677  1.00  0.00     0.203 C 
ATOM      3  C   UNL     1      32.193  34.749   1.196  1.00  0.00     0.282 C 
ATOM      4  O   UNL     1      33.457  34.149   0.953  1.00  0.00    -0.340 OA
ATOM      5  C   UNL     1      34.473  34.800   1.696  1.00  0.00     0.190 C 
ATOM      6  C   UNL     1      34.243  34.600   3.210  1.00  0.00     0.240 C 
ENDROOT
BRANCH   1   7
ATOM      7  O   UNL     1      32.618  34.841   4.955  1.00  0.00    -0.340 OA
BRANCH   7   8
ATOM      8  C   UNL     1      33.089  35.825   5.871  1.00  0.00     0.282 C 
ATOM      9  C   UNL     1      29.896  37.523   6.545  1.00  0.00     0.041 C 
ATOM     10  C   UNL     1      30.899  36.368   6.535  1.00  0.00     0.150 C 
ATOM     11  C   UNL     1      31.085  35.785   7.953  1.00  0.00     0.174 C 
ATOM     12  O   UNL     1      32.131  36.861   6.031  1.00  0.00    -0.344 OA
ATOM     13  C   UNL     1      32.149  34.668   7.928  1.00  0.00     0.179 C 
ATOM     14  C   UNL     1      33.424  35.167   7.223  1.00  0.00     0.202 C 
BRANCH  11  15
ATOM     15  O   UNL     1      29.861  35.282   8.425  1.00  0.00    -0.388 OA
ATOM     16  H   UNL     1      29.545  35.901   9.135  1.00  0.00     0.211 HD
ENDBRANCH  11  15
BRANCH  13  17
ATOM     17  O   UNL     1      31.652  33.541   7.254  1.00  0.00    -0.387 OA
ATOM     18  H   UNL     1      31.059  33.865   6.525  1.00  0.00     0.211 HD
ENDBRANCH  13  17
BRANCH  14  19
ATOM     19  O   UNL     1      34.084  36.104   8.037  1.00  0.00    -0.385 OA
ATOM     20  H   UNL     1      33.728  36.999   7.792  1.00  0.00     0.211 HD
ENDBRANCH  14  19
ENDBRANCH   7   8
ENDBRANCH   1   7
BRANCH   2  21
ATOM     21  O   UNL     1      30.553  35.193   2.916  1.00  0.00    -0.385 OA
ATOM     22  H   UNL     1      29.846  34.505   2.790  1.00  0.00     0.211 HD
ENDBRANCH   2  21
BRANCH   6  23
ATOM     23  O   UNL     1      34.269  33.213   3.551  1.00  0.00    -0.453 OA
BRANCH  23  24
ATOM     24  C   UNL     1      35.251  32.634   4.353  1.00  0.00     0.331 C 
ATOM     25  O   UNL     1      36.156  33.348   4.871  1.00  0.00    -0.247 OA
BRANCH  24  26
ATOM     26  C   UNL     1      35.223  31.172   4.554  1.00  0.00     0.094 C 
ATOM     27  C   UNL     1      35.413  30.245   3.600  1.00  0.00     0.016 C 
BRANCH  27  28
ATOM     28  C   UNL     1      35.826  30.509   2.200  1.00  0.00    -0.021 A 
ATOM     29  C   UNL     1      37.183  30.697   1.914  1.00  0.00     0.058 A 
ATOM     30  C   UNL     1      34.881  30.659   1.167  1.00  0.00     0.012 A 
ATOM     31  C   UNL     1      37.603  30.995   0.612  1.00  0.00     0.157 A 
ATOM     32  C   UNL     1      35.297  30.949  -0.135  1.00  0.00     0.051 A 
ATOM     33  C   UNL     1      36.657  31.117  -0.422  1.00  0.00     0.157 A 
BRANCH  31  34
ATOM     34  O   UNL     1      38.964  31.173   0.364  1.00  0.00    -0.504 OA
ATOM     35  H   UNL     1      39.514  31.856   0.873  1.00  0.00     0.293 HD
ENDBRANCH  31  34
BRANCH  33  36
ATOM     36  O   UNL     1      37.069  31.414  -1.722  1.00  0.00    -0.504 OA
ATOM     37  H   UNL     1      38.017  31.234  -2.032  1.00  0.00     0.293 HD
ENDBRANCH  33  36
ENDBRANCH  27  28
ENDBRANCH  24  26
ENDBRANCH  23  24
ENDBRANCH   6  23
BRANCH   3  38
ATOM     38  O   UNL     1      31.243  34.093   0.371  1.00  0.00    -0.350 OA
BRANCH  38  39
ATOM     39  C   UNL     1      31.856  33.525  -0.766  1.00  0.00     0.168 C 
BRANCH  39  40
ATOM     40  C   UNL     1      31.394  34.277  -2.007  1.00  0.00     0.064 C 
BRANCH  40  41
ATOM     41  C   UNL     1      31.384  33.364  -3.203  1.00  0.00    -0.042 A 
ATOM     42  C   UNL     1      31.608  31.986  -3.047  1.00  0.00     0.054 A 
ATOM     43  C   UNL     1      31.221  33.896  -4.491  1.00  0.00     0.008 A 
ATOM     44  C   UNL     1      31.652  31.143  -4.171  1.00  0.00     0.157 A 
ATOM     45  C   UNL     1      31.270  33.059  -5.610  1.00  0.00     0.050 A 
ATOM     46  C   UNL     1      31.485  31.682  -5.454  1.00  0.00     0.157 A 
BRANCH  44  47
ATOM     47  O   UNL     1      31.870  29.774  -4.020  1.00  0.00    -0.504 OA
ATOM     48  H   UNL     1      32.220  29.387  -3.153  1.00  0.00     0.293 HD
ENDBRANCH  44  47
BRANCH  46  49
ATOM     49  O   UNL     1      31.548  30.846  -6.566  1.00  0.00    -0.504 OA
ATOM     50  H   UNL     1      31.800  31.201  -7.481  1.00  0.00     0.293 HD
ENDBRANCH  46  49
ENDBRANCH  40  41
ENDBRANCH  39  40
ENDBRANCH  38  39
ENDBRANCH   3  38
BRANCH   5  51
ATOM     51  C   UNL     1      35.835  34.254   1.254  1.00  0.00     0.192 C 
BRANCH  51  52
ATOM     52  O   UNL     1      36.795  34.548   2.230  1.00  0.00    -0.394 OA
ATOM     53  H   UNL     1      37.533  33.900   2.093  1.00  0.00     0.210 HD
ENDBRANCH  51  52
ENDBRANCH   5  51
TORSDOF 20
ENDMDL
MODEL 2
REMARK VINA RESULT:    -7.987      1.945      5.655
REMARK INTER + INTRA:         -18.125
REMARK INTER:                 -15.397
REMARK INTRA:                  -2.727
REMARK UNBOUND:                -2.900
REMARK SMILES C[C@H]1O[C@H](O[C@@H]2[C@@H](O)[C@H](OCCc3ccc(O)c(O)c3)O[C@H](CO)[C@@H]2OC(=O)C=Cc2ccc(O)c(O)c2)[C@@H](O)[C@H](O)[C@@H]1O
REMARK SMILES IDX 6 1 7 2 9 3 21 4 22 5 25 6 5 7 4 8 1 9 2 10 43 11 3 12 41 13
REMARK SMILES IDX 39 14 44 15 42 17 40 19 8 21 26 23 27 24 28 25 29 26 30 27
REMARK SMILES IDX 31 28 38 29 32 30 36 31 33 32 34 33 37 34 35 36 10 38 11 39
REMARK SMILES IDX 12 40 13 41 20 42 14 43 18 44 15 45 16 46 19 47 17 49 23 51
REMARK SMILES IDX 24 52
REMARK H PARENT 44 16 42 18 40 20 8 22 37 35 35 37 19 48 17 50 24 53
REMARK Flexibility Score: inf
ROOT
ATOM      1  C   UNL     1      32.632  34.056   4.601  1.00  0.00     0.199 C 
ATOM      2  C   UNL     1      34.177  34.037   4.608  1.00  0.00     0.203 C 
ATOM      3  C   UNL     1      34.685  32.600   4.867  1.00  0.00     0.282 C 
ATOM      4  O   UNL     1      34.174  31.711   3.885  1.00  0.00    -0.340 OA
ATOM      5  C   UNL     1      32.762  31.623   3.973  1.00  0.00     0.190 C 
ATOM      6  C   UNL     1      32.118  32.984   3.626  1.00  0.00     0.240 C 
ENDROOT
BRANCH   1   7
ATOM      7  O   UNL     1      32.148  35.318   4.167  1.00  0.00    -0.340 OA
BRANCH   7   8
ATOM      8  C   UNL     1      32.012  36.261   5.226  1.00  0.00     0.282 C 
ATOM      9  C   UNL     1      33.295  39.235   3.483  1.00  0.00     0.041 C 
ATOM     10  C   UNL     1      32.342  38.071   3.762  1.00  0.00     0.150 C 
ATOM     11  C   UNL     1      30.887  38.568   3.899  1.00  0.00     0.174 C 
ATOM     12  O   UNL     1      32.768  37.432   4.956  1.00  0.00    -0.344 OA
ATOM     13  C   UNL     1      29.957  37.388   4.245  1.00  0.00     0.179 C 
ATOM     14  C   UNL     1      30.524  36.599   5.441  1.00  0.00     0.202 C 
BRANCH  11  15
ATOM     15  O   UNL     1      30.477  39.177   2.701  1.00  0.00    -0.388 OA
ATOM     16  H   UNL     1      30.533  40.160   2.838  1.00  0.00     0.211 HD
ENDBRANCH  11  15
BRANCH  13  17
ATOM     17  O   UNL     1      29.829  36.532   3.140  1.00  0.00    -0.387 OA
ATOM     18  H   UNL     1      29.072  35.914   3.325  1.00  0.00     0.211 HD
ENDBRANCH  13  17
BRANCH  14  19
ATOM     19  O   UNL     1      30.392  37.357   6.618  1.00  0.00    -0.385 OA
ATOM     20  H   UNL     1      31.307  37.472   6.991  1.00  0.00     0.211 HD
ENDBRANCH  14  19
ENDBRANCH   7   8
ENDBRANCH   1   7
BRANCH   2  21
ATOM     21  O   UNL     1      34.659  34.903   5.603  1.00  0.00    -0.385 OA
ATOM     22  H   UNL     1      34.958  35.735   5.148  1.00  0.00     0.211 HD
ENDBRANCH   2  21
BRANCH   6  23
ATOM     23  O   UNL     1      32.452  33.382   2.295  1.00  0.00    -0.453 OA
BRANCH  23  24
ATOM     24  C   UNL     1      31.659  34.227   1.521  1.00  0.00     0.331 C 
ATOM     25  O   UNL     1      30.399  34.150   1.577  1.00  0.00    -0.247 OA
BRANCH  24  26
ATOM     26  C   UNL     1      32.327  35.186   0.619  1.00  0.00     0.094 C 
ATOM     27  C   UNL     1      32.718  34.935  -0.642  1.00  0.00     0.016 C 
BRANCH  27  28
ATOM     28  C   UNL     1      32.429  33.702  -1.414  1.00  0.00    -0.021 A 
ATOM     29  C   UNL     1      32.984  32.487  -0.991  1.00  0.00     0.058 A 
ATOM     30  C   UNL     1      31.683  33.734  -2.607  1.00  0.00     0.012 A 
ATOM     31  C   UNL     1      32.771  31.313  -1.722  1.00  0.00     0.157 A 
ATOM     32  C   UNL     1      31.462  32.564  -3.336  1.00  0.00     0.051 A 
ATOM     33  C   UNL     1      32.001  31.347  -2.899  1.00  0.00     0.157 A 
BRANCH  31  34
ATOM     34  O   UNL     1      33.336  30.121  -1.268  1.00  0.00    -0.504 OA
ATOM     35  H   UNL     1      33.298  29.270  -1.818  1.00  0.00     0.293 HD
ENDBRANCH  31  34
BRANCH  33  36
ATOM     36  O   UNL     1      31.784  30.179  -3.632  1.00  0.00    -0.504 OA
ATOM     37  H   UNL     1      31.774  29.268  -3.188  1.00  0.00     0.293 HD
ENDBRANCH  33  36
ENDBRANCH  27  28
ENDBRANCH  24  26
ENDBRANCH  23  24
ENDBRANCH   6  23
BRANCH   3  38
ATOM     38  O   UNL     1      36.101  32.583   4.764  1.00  0.00    -0.350 OA
BRANCH  38  39
ATOM     39  C   UNL     1      36.522  31.885   3.612  1.00  0.00     0.168 C 
BRANCH  39  40
ATOM     40  C   UNL     1      37.219  32.857   2.669  1.00  0.00     0.064 C 
BRANCH  40  41
ATOM     41  C   UNL     1      37.442  32.219   1.325  1.00  0.00    -0.042 A 
ATOM     42  C   UNL     1      38.259  31.083   1.204  1.00  0.00     0.054 A 
ATOM     43  C   UNL     1      36.891  32.799   0.172  1.00  0.00     0.008 A 
ATOM     44  C   UNL     1      38.509  30.519  -0.059  1.00  0.00     0.157 A 
ATOM     45  C   UNL     1      37.144  32.244  -1.085  1.00  0.00     0.050 A 
ATOM     46  C   UNL     1      37.951  31.104  -1.205  1.00  0.00     0.157 A 
BRANCH  44  47
ATOM     47  O   UNL     1      39.316  29.389  -0.183  1.00  0.00    -0.504 OA
ATOM     48  H   UNL     1      40.323  29.464  -0.254  1.00  0.00     0.293 HD
ENDBRANCH  44  47
BRANCH  46  49
ATOM     49  O   UNL     1      38.218  30.554  -2.457  1.00  0.00    -0.504 OA
ATOM     50  H   UNL     1      38.936  29.852  -2.585  1.00  0.00     0.293 HD
ENDBRANCH  46  49
ENDBRANCH  40  41
ENDBRANCH  39  40
ENDBRANCH  38  39
ENDBRANCH   3  38
BRANCH   5  51
ATOM     51  C   UNL     1      32.277  30.512   3.037  1.00  0.00     0.192 C 
BRANCH  51  52
ATOM     52  O   UNL     1      33.024  30.539   1.852  1.00  0.00    -0.394 OA
ATOM     53  H   UNL     1      32.858  29.671   1.403  1.00  0.00     0.210 HD
ENDBRANCH  51  52
ENDBRANCH   5  51
TORSDOF 20
ENDMDL
MODEL 3
REMARK VINA RESULT:    -7.979      2.666      7.754
REMARK INTER + INTRA:         -18.109
REMARK INTER:                 -15.477
REMARK INTRA:                  -2.632
REMARK UNBOUND:                -2.900
REMARK SMILES C[C@H]1O[C@H](O[C@@H]2[C@@H](O)[C@H](OCCc3ccc(O)c(O)c3)O[C@H](CO)[C@@H]2OC(=O)C=Cc2ccc(O)c(O)c2)[C@@H](O)[C@H](O)[C@@H]1O
REMARK SMILES IDX 6 1 7 2 9 3 21 4 22 5 25 6 5 7 4 8 1 9 2 10 43 11 3 12 41 13
REMARK SMILES IDX 39 14 44 15 42 17 40 19 8 21 26 23 27 24 28 25 29 26 30 27
REMARK SMILES IDX 31 28 38 29 32 30 36 31 33 32 34 33 37 34 35 36 10 38 11 39
REMARK SMILES IDX 12 40 13 41 20 42 14 43 18 44 15 45 16 46 19 47 17 49 23 51
REMARK SMILES IDX 24 52
REMARK H PARENT 44 16 42 18 40 20 8 22 37 35 35 37 19 48 17 50 24 53
REMARK Flexibility Score: inf
ROOT
ATOM      1  C   UNL     1      35.258  33.345   2.735  1.00  0.00     0.199 C 
ATOM      2  C   UNL     1      33.978  33.258   3.596  1.00  0.00     0.203 C 
ATOM      3  C   UNL     1      33.283  34.638   3.648  1.00  0.00     0.282 C 
ATOM      4  O   UNL     1      32.978  35.086   2.336  1.00  0.00    -0.340 OA
ATOM      5  C   UNL     1      34.164  35.300   1.590  1.00  0.00     0.190 C 
ATOM      6  C   UNL     1      34.908  33.963   1.371  1.00  0.00     0.240 C 
ENDROOT
BRANCH   1   7
ATOM      7  O   UNL     1      35.799  32.052   2.509  1.00  0.00    -0.340 OA
BRANCH   7   8
ATOM      8  C   UNL     1      37.216  32.054   2.363  1.00  0.00     0.282 C 
ATOM      9  C   UNL     1      38.086  30.206   5.422  1.00  0.00     0.041 C 
ATOM     10  C   UNL     1      37.469  30.425   4.039  1.00  0.00     0.150 C 
ATOM     11  C   UNL     1      37.942  29.342   3.045  1.00  0.00     0.174 C 
ATOM     12  O   UNL     1      37.847  31.717   3.590  1.00  0.00    -0.344 OA
ATOM     13  C   UNL     1      37.360  29.622   1.645  1.00  0.00     0.179 C 
ATOM     14  C   UNL     1      37.631  31.084   1.241  1.00  0.00     0.202 C 
BRANCH  11  15
ATOM     15  O   UNL     1      37.540  28.073   3.496  1.00  0.00    -0.388 OA
ATOM     16  H   UNL     1      36.622  27.916   3.149  1.00  0.00     0.211 HD
ENDBRANCH  11  15
BRANCH  13  17
ATOM     17  O   UNL     1      35.977  29.384   1.638  1.00  0.00    -0.387 OA
ATOM     18  H   UNL     1      35.715  29.163   0.705  1.00  0.00     0.211 HD
ENDBRANCH  13  17
BRANCH  14  19
ATOM     19  O   UNL     1      39.000  31.258   0.968  1.00  0.00    -0.385 OA
ATOM     20  H   UNL     1      39.451  31.406   1.841  1.00  0.00     0.211 HD
ENDBRANCH  14  19
ENDBRANCH   7   8
ENDBRANCH   1   7
BRANCH   2  21
ATOM     21  O   UNL     1      34.307  32.837   4.895  1.00  0.00    -0.385 OA
ATOM     22  H   UNL     1      35.284  32.979   5.011  1.00  0.00     0.211 HD
ENDBRANCH   2  21
BRANCH   6  23
ATOM     23  O   UNL     1      34.093  33.039   0.648  1.00  0.00    -0.453 OA
BRANCH  23  24
ATOM     24  C   UNL     1      34.538  32.325  -0.463  1.00  0.00     0.331 C 
ATOM     25  O   UNL     1      35.359  32.845  -1.271  1.00  0.00    -0.247 OA
BRANCH  24  26
ATOM     26  C   UNL     1      34.005  30.966  -0.684  1.00  0.00     0.094 C 
ATOM     27  C   UNL     1      32.926  30.657  -1.424  1.00  0.00     0.016 C 
BRANCH  27  28
ATOM     28  C   UNL     1      32.153  31.598  -2.270  1.00  0.00    -0.021 A 
ATOM     29  C   UNL     1      31.499  32.679  -1.666  1.00  0.00     0.058 A 
ATOM     30  C   UNL     1      31.989  31.385  -3.652  1.00  0.00     0.012 A 
ATOM     31  C   UNL     1      30.723  33.559  -2.428  1.00  0.00     0.157 A 
ATOM     32  C   UNL     1      31.221  32.265  -4.417  1.00  0.00     0.051 A 
ATOM     33  C   UNL     1      30.585  33.357  -3.814  1.00  0.00     0.157 A 
BRANCH  31  34
ATOM     34  O   UNL     1      30.089  34.626  -1.793  1.00  0.00    -0.504 OA
ATOM     35  H   UNL     1      29.754  35.432  -2.309  1.00  0.00     0.293 HD
ENDBRANCH  31  34
BRANCH  33  36
ATOM     36  O   UNL     1      29.812  34.231  -4.580  1.00  0.00    -0.504 OA
ATOM     37  H   UNL     1      28.803  34.147  -4.622  1.00  0.00     0.293 HD
ENDBRANCH  33  36
ENDBRANCH  27  28
ENDBRANCH  24  26
ENDBRANCH  23  24
ENDBRANCH   6  23
BRANCH   3  38
ATOM     38  O   UNL     1      32.057  34.513   4.353  1.00  0.00    -0.350 OA
BRANCH  38  39
ATOM     39  C   UNL     1      31.231  35.639   4.147  1.00  0.00     0.168 C 
BRANCH  39  40
ATOM     40  C   UNL     1      31.727  36.785   5.020  1.00  0.00     0.064 C 
BRANCH  40  41
ATOM     41  C   UNL     1      32.040  37.991   4.178  1.00  0.00    -0.042 A 
ATOM     42  C   UNL     1      31.010  38.841   3.742  1.00  0.00     0.054 A 
ATOM     43  C   UNL     1      33.358  38.234   3.762  1.00  0.00     0.008 A 
ATOM     44  C   UNL     1      31.299  39.938   2.911  1.00  0.00     0.157 A 
ATOM     45  C   UNL     1      33.645  39.321   2.931  1.00  0.00     0.050 A 
ATOM     46  C   UNL     1      32.618  40.175   2.504  1.00  0.00     0.157 A 
BRANCH  44  47
ATOM     47  O   UNL     1      30.279  40.786   2.480  1.00  0.00    -0.504 OA
ATOM     48  H   UNL     1      29.304  40.542   2.597  1.00  0.00     0.293 HD
ENDBRANCH  44  47
BRANCH  46  49
ATOM     49  O   UNL     1      32.897  41.251   1.664  1.00  0.00    -0.504 OA
ATOM     50  H   UNL     1      32.248  41.541   0.944  1.00  0.00     0.293 HD
ENDBRANCH  46  49
ENDBRANCH  40  41
ENDBRANCH  39  40
ENDBRANCH  38  39
ENDBRANCH   3  38
BRANCH   5  51
ATOM     51  C   UNL     1      33.798  35.968   0.261  1.00  0.00     0.192 C 
BRANCH  51  52
ATOM     52  O   UNL     1      34.773  35.665  -0.698  1.00  0.00    -0.394 OA
ATOM     53  H   UNL     1      35.616  36.072  -0.371  1.00  0.00     0.210 HD
ENDBRANCH  51  52
ENDBRANCH   5  51
TORSDOF 20
ENDMDL
MODEL 4
REMARK VINA RESULT:    -7.872      2.941      7.187
REMARK INTER + INTRA:         -17.904
REMARK INTER:                 -14.086
REMARK INTRA:                  -3.818
REMARK UNBOUND:                -2.900
REMARK SMILES C[C@H]1O[C@H](O[C@@H]2[C@@H](O)[C@H](OCCc3ccc(O)c(O)c3)O[C@H](CO)[C@@H]2OC(=O)C=Cc2ccc(O)c(O)c2)[C@@H](O)[C@H](O)[C@@H]1O
REMARK SMILES IDX 6 1 7 2 9 3 21 4 22 5 25 6 5 7 4 8 1 9 2 10 43 11 3 12 41 13
REMARK SMILES IDX 39 14 44 15 42 17 40 19 8 21 26 23 27 24 28 25 29 26 30 27
REMARK SMILES IDX 31 28 38 29 32 30 36 31 33 32 34 33 37 34 35 36 10 38 11 39
REMARK SMILES IDX 12 40 13 41 20 42 14 43 18 44 15 45 16 46 19 47 17 49 23 51
REMARK SMILES IDX 24 52
REMARK H PARENT 44 16 42 18 40 20 8 22 37 35 35 37 19 48 17 50 24 53
REMARK Flexibility Score: inf
ROOT
ATOM      1  C   UNL     1      32.840  32.447   3.201  1.00  0.00     0.199 C 
ATOM      2  C   UNL     1      34.049  31.857   3.960  1.00  0.00     0.203 C 
ATOM      3  C   UNL     1      33.969  30.313   3.963  1.00  0.00     0.282 C 
ATOM      4  O   UNL     1      33.919  29.820   2.633  1.00  0.00    -0.340 OA
ATOM      5  C   UNL     1      32.736  30.249   1.981  1.00  0.00     0.190 C 
ATOM      6  C   UNL     1      32.742  31.785   1.816  1.00  0.00     0.240 C 
ENDROOT
BRANCH   1   7
ATOM      7  O   UNL     1      32.998  33.845   3.013  1.00  0.00    -0.340 OA
BRANCH   7   8
ATOM      8  C   UNL     1      31.947  34.612   3.592  1.00  0.00     0.282 C 
ATOM      9  C   UNL     1      33.684  35.715   6.642  1.00  0.00     0.041 C 
ATOM     10  C   UNL     1      33.415  35.602   5.139  1.00  0.00     0.150 C 
ATOM     11  C   UNL     1      33.304  36.999   4.491  1.00  0.00     0.174 C 
ATOM     12  O   UNL     1      32.211  34.871   4.963  1.00  0.00    -0.344 OA
ATOM     13  C   UNL     1      32.967  36.859   2.993  1.00  0.00     0.179 C 
ATOM     14  C   UNL     1      31.758  35.923   2.806  1.00  0.00     0.202 C 
BRANCH  11  15
ATOM     15  O   UNL     1      34.512  37.698   4.657  1.00  0.00    -0.388 OA
ATOM     16  H   UNL     1      34.863  37.896   3.748  1.00  0.00     0.211 HD
ENDBRANCH  11  15
BRANCH  13  17
ATOM     17  O   UNL     1      34.071  36.343   2.294  1.00  0.00    -0.387 OA
ATOM     18  H   UNL     1      34.460  35.613   2.845  1.00  0.00     0.211 HD
ENDBRANCH  13  17
BRANCH  14  19
ATOM     19  O   UNL     1      30.587  36.561   3.253  1.00  0.00    -0.385 OA
ATOM     20  H   UNL     1      29.821  36.074   2.847  1.00  0.00     0.211 HD
ENDBRANCH  14  19
ENDBRANCH   7   8
ENDBRANCH   1   7
BRANCH   2  21
ATOM     21  O   UNL     1      34.063  32.338   5.280  1.00  0.00    -0.385 OA
ATOM     22  H   UNL     1      33.304  32.974   5.368  1.00  0.00     0.211 HD
ENDBRANCH   2  21
BRANCH   6  23
ATOM     23  O   UNL     1      33.856  32.209   1.029  1.00  0.00    -0.453 OA
BRANCH  23  24
ATOM     24  C   UNL     1      33.732  32.916  -0.165  1.00  0.00     0.331 C 
ATOM     25  O   UNL     1      32.948  32.511  -1.070  1.00  0.00    -0.247 OA
BRANCH  24  26
ATOM     26  C   UNL     1      34.557  34.126  -0.355  1.00  0.00     0.094 C 
ATOM     27  C   UNL     1      35.899  34.175  -0.316  1.00  0.00     0.016 C 
BRANCH  27  28
ATOM     28  C   UNL     1      36.810  33.007  -0.219  1.00  0.00    -0.021 A 
ATOM     29  C   UNL     1      37.120  32.287  -1.378  1.00  0.00     0.058 A 
ATOM     30  C   UNL     1      37.301  32.555   1.021  1.00  0.00     0.012 A 
ATOM     31  C   UNL     1      37.938  31.152  -1.315  1.00  0.00     0.157 A 
ATOM     32  C   UNL     1      38.122  31.428   1.087  1.00  0.00     0.051 A 
ATOM     33  C   UNL     1      38.448  30.721  -0.077  1.00  0.00     0.157 A 
BRANCH  31  34
ATOM     34  O   UNL     1      38.229  30.462  -2.491  1.00  0.00    -0.504 OA
ATOM     35  H   UNL     1      38.008  29.478  -2.601  1.00  0.00     0.293 HD
ENDBRANCH  31  34
BRANCH  33  36
ATOM     36  O   UNL     1      39.264  29.591  -0.007  1.00  0.00    -0.504 OA
ATOM     37  H   UNL     1      39.267  28.893  -0.743  1.00  0.00     0.293 HD
ENDBRANCH  33  36
ENDBRANCH  27  28
ENDBRANCH  24  26
ENDBRANCH  23  24
ENDBRANCH   6  23
BRANCH   3  38
ATOM     38  O   UNL     1      35.139  29.788   4.570  1.00  0.00    -0.350 OA
BRANCH  38  39
ATOM     39  C   UNL     1      36.275  29.996   3.759  1.00  0.00     0.168 C 
BRANCH  39  40
ATOM     40  C   UNL     1      37.529  29.767   4.593  1.00  0.00     0.064 C 
BRANCH  40  41
ATOM     41  C   UNL     1      37.960  31.045   5.259  1.00  0.00    -0.042 A 
ATOM     42  C   UNL     1      38.679  31.012   6.465  1.00  0.00     0.054 A 
ATOM     43  C   UNL     1      37.583  32.282   4.714  1.00  0.00     0.008 A 
ATOM     44  C   UNL     1      39.035  32.208   7.113  1.00  0.00     0.157 A 
ATOM     45  C   UNL     1      37.931  33.472   5.360  1.00  0.00     0.050 A 
ATOM     46  C   UNL     1      38.657  33.439   6.559  1.00  0.00     0.157 A 
BRANCH  44  47
ATOM     47  O   UNL     1      39.751  32.179   8.309  1.00  0.00    -0.504 OA
ATOM     48  H   UNL     1      40.603  32.712   8.428  1.00  0.00     0.293 HD
ENDBRANCH  44  47
BRANCH  46  49
ATOM     49  O   UNL     1      38.994  34.621   7.215  1.00  0.00    -0.504 OA
ATOM     50  H   UNL     1      39.514  34.615   8.083  1.00  0.00     0.293 HD
ENDBRANCH  46  49
ENDBRANCH  40  41
ENDBRANCH  39  40
ENDBRANCH  38  39
ENDBRANCH   3  38
BRANCH   5  51
ATOM     51  C   UNL     1      32.630  29.535   0.629  1.00  0.00     0.192 C 
BRANCH  51  52
ATOM     52  O   UNL     1      33.858  29.613  -0.039  1.00  0.00    -0.394 OA
ATOM     53  H   UNL     1      34.554  29.429   0.644  1.00  0.00     0.210 HD
ENDBRANCH  51  52
ENDBRANCH   5  51
TORSDOF 20
ENDMDL
MODEL 5
REMARK VINA RESULT:    -7.831      0.984      1.431
REMARK INTER + INTRA:         -17.826
REMARK INTER:                 -15.137
REMARK INTRA:                  -2.689
REMARK UNBOUND:                -2.900
REMARK SMILES C[C@H]1O[C@H](O[C@@H]2[C@@H](O)[C@H](OCCc3ccc(O)c(O)c3)O[C@H](CO)[C@@H]2OC(=O)C=Cc2ccc(O)c(O)c2)[C@@H](O)[C@H](O)[C@@H]1O
REMARK SMILES IDX 6 1 7 2 9 3 21 4 22 5 25 6 5 7 4 8 1 9 2 10 43 11 3 12 41 13
REMARK SMILES IDX 39 14 44 15 42 17 40 19 8 21 26 23 27 24 28 25 29 26 30 27
REMARK SMILES IDX 31 28 38 29 32 30 36 31 33 32 34 33 37 34 35 36 10 38 11 39
REMARK SMILES IDX 12 40 13 41 20 42 14 43 18 44 15 45 16 46 19 47 17 49 23 51
REMARK SMILES IDX 24 52
REMARK H PARENT 44 16 42 18 40 20 8 22 37 35 35 37 19 48 17 50 24 53
REMARK Flexibility Score: inf
ROOT
ATOM      1  C   UNL     1      32.707  35.119   4.231  1.00  0.00     0.199 C 
ATOM      2  C   UNL     1      31.725  34.365   3.306  1.00  0.00     0.203 C 
ATOM      3  C   UNL     1      32.242  34.399   1.849  1.00  0.00     0.282 C 
ATOM      4  O   UNL     1      33.542  33.833   1.774  1.00  0.00    -0.340 OA
ATOM      5  C   UNL     1      34.471  34.608   2.512  1.00  0.00     0.190 C 
ATOM      6  C   UNL     1      34.126  34.567   4.018  1.00  0.00     0.240 C 
ENDROOT
BRANCH   1   7
ATOM      7  O   UNL     1      32.358  34.928   5.594  1.00  0.00    -0.340 OA
BRANCH   7   8
ATOM      8  C   UNL     1      32.789  35.992   6.438  1.00  0.00     0.282 C 
ATOM      9  C   UNL     1      29.599  37.803   6.713  1.00  0.00     0.041 C 
ATOM     10  C   UNL     1      30.573  36.636   6.889  1.00  0.00     0.150 C 
ATOM     11  C   UNL     1      30.648  36.196   8.368  1.00  0.00     0.174 C 
ATOM     12  O   UNL     1      31.848  37.055   6.426  1.00  0.00    -0.344 OA
ATOM     13  C   UNL     1      31.684  35.066   8.529  1.00  0.00     0.179 C 
ATOM     14  C   UNL     1      33.016  35.468   7.868  1.00  0.00     0.202 C 
BRANCH  11  15
ATOM     15  O   UNL     1      29.383  35.765   8.801  1.00  0.00    -0.388 OA
ATOM     16  H   UNL     1      29.489  34.835   9.134  1.00  0.00     0.211 HD
ENDBRANCH  11  15
BRANCH  13  17
ATOM     17  O   UNL     1      31.207  33.884   7.938  1.00  0.00    -0.387 OA
ATOM     18  H   UNL     1      31.704  33.754   7.087  1.00  0.00     0.211 HD
ENDBRANCH  13  17
BRANCH  14  19
ATOM     19  O   UNL     1      33.642  36.472   8.630  1.00  0.00    -0.385 OA
ATOM     20  H   UNL     1      33.937  36.047   9.479  1.00  0.00     0.211 HD
ENDBRANCH  14  19
ENDBRANCH   7   8
ENDBRANCH   1   7
BRANCH   2  21
ATOM     21  O   UNL     1      30.454  34.958   3.377  1.00  0.00    -0.385 OA
ATOM     22  H   UNL     1      29.983  34.745   2.527  1.00  0.00     0.211 HD
ENDBRANCH   2  21
BRANCH   6  23
ATOM     23  O   UNL     1      34.175  33.230   4.516  1.00  0.00    -0.453 OA
BRANCH  23  24
ATOM     24  C   UNL     1      35.096  32.794   5.466  1.00  0.00     0.331 C 
ATOM     25  O   UNL     1      35.850  33.622   6.053  1.00  0.00    -0.247 OA
BRANCH  24  26
ATOM     26  C   UNL     1      35.189  31.347   5.744  1.00  0.00     0.094 C 
ATOM     27  C   UNL     1      35.779  30.432   4.955  1.00  0.00     0.016 C 
BRANCH  27  28
ATOM     28  C   UNL     1      36.570  30.718   3.733  1.00  0.00    -0.021 A 
ATOM     29  C   UNL     1      36.035  30.387   2.482  1.00  0.00     0.058 A 
ATOM     30  C   UNL     1      37.878  31.234   3.803  1.00  0.00     0.012 A 
ATOM     31  C   UNL     1      36.773  30.599   1.312  1.00  0.00     0.157 A 
ATOM     32  C   UNL     1      38.616  31.453   2.638  1.00  0.00     0.051 A 
ATOM     33  C   UNL     1      38.070  31.141   1.387  1.00  0.00     0.157 A 
BRANCH  31  34
ATOM     34  O   UNL     1      36.207  30.261   0.083  1.00  0.00    -0.504 OA
ATOM     35  H   UNL     1      36.748  29.815  -0.648  1.00  0.00     0.293 HD
ENDBRANCH  31  34
BRANCH  33  36
ATOM     36  O   UNL     1      38.812  31.355   0.224  1.00  0.00    -0.504 OA
ATOM     37  H   UNL     1      38.369  31.641  -0.642  1.00  0.00     0.293 HD
ENDBRANCH  33  36
ENDBRANCH  27  28
ENDBRANCH  24  26
ENDBRANCH  23  24
ENDBRANCH   6  23
BRANCH   3  38
ATOM     38  O   UNL     1      31.386  33.614   1.034  1.00  0.00    -0.350 OA
BRANCH  38  39
ATOM     39  C   UNL     1      31.093  34.267  -0.181  1.00  0.00     0.168 C 
BRANCH  39  40
ATOM     40  C   UNL     1      32.288  34.134  -1.117  1.00  0.00     0.064 C 
BRANCH  40  41
ATOM     41  C   UNL     1      31.893  33.411  -2.376  1.00  0.00    -0.042 A 
ATOM     42  C   UNL     1      32.024  32.016  -2.465  1.00  0.00     0.054 A 
ATOM     43  C   UNL     1      31.458  34.137  -3.495  1.00  0.00     0.008 A 
ATOM     44  C   UNL     1      31.704  31.348  -3.661  1.00  0.00     0.157 A 
ATOM     45  C   UNL     1      31.145  33.475  -4.686  1.00  0.00     0.050 A 
ATOM     46  C   UNL     1      31.267  32.081  -4.772  1.00  0.00     0.157 A 
BRANCH  44  47
ATOM     47  O   UNL     1      31.829  29.962  -3.752  1.00  0.00    -0.504 OA
ATOM     48  H   UNL     1      31.719  29.478  -4.633  1.00  0.00     0.293 HD
ENDBRANCH  44  47
BRANCH  46  49
ATOM     49  O   UNL     1      30.971  31.418  -5.961  1.00  0.00    -0.504 OA
ATOM     50  H   UNL     1      30.467  30.539  -5.965  1.00  0.00     0.293 HD
ENDBRANCH  46  49
ENDBRANCH  40  41
ENDBRANCH  39  40
ENDBRANCH  38  39
ENDBRANCH   3  38
BRANCH   5  51
ATOM     51  C   UNL     1      35.883  34.078   2.241  1.00  0.00     0.192 C 
BRANCH  51  52
ATOM     52  O   UNL     1      36.764  34.579   3.208  1.00  0.00    -0.394 OA
ATOM     53  H   UNL     1      36.280  35.313   3.666  1.00  0.00     0.210 HD
ENDBRANCH  51  52
ENDBRANCH   5  51
TORSDOF 20
ENDMDL
MODEL 6
REMARK VINA RESULT:    -7.783      2.053      6.217
REMARK INTER + INTRA:         -17.736
REMARK INTER:                 -14.719
REMARK INTRA:                  -3.017
REMARK UNBOUND:                -2.900
REMARK SMILES C[C@H]1O[C@H](O[C@@H]2[C@@H](O)[C@H](OCCc3ccc(O)c(O)c3)O[C@H](CO)[C@@H]2OC(=O)C=Cc2ccc(O)c(O)c2)[C@@H](O)[C@H](O)[C@@H]1O
REMARK SMILES IDX 6 1 7 2 9 3 21 4 22 5 25 6 5 7 4 8 1 9 2 10 43 11 3 12 41 13
REMARK SMILES IDX 39 14 44 15 42 17 40 19 8 21 26 23 27 24 28 25 29 26 30 27
REMARK SMILES IDX 31 28 38 29 32 30 36 31 33 32 34 33 37 34 35 36 10 38 11 39
REMARK SMILES IDX 12 40 13 41 20 42 14 43 18 44 15 45 16 46 19 47 17 49 23 51
REMARK SMILES IDX 24 52
REMARK H PARENT 44 16 42 18 40 20 8 22 37 35 35 37 19 48 17 50 24 53
REMARK Flexibility Score: inf
ROOT
ATOM      1  C   UNL     1      33.082  32.469   2.812  1.00  0.00     0.199 C 
ATOM      2  C   UNL     1      34.405  31.977   3.441  1.00  0.00     0.203 C 
ATOM      3  C   UNL     1      34.508  30.439   3.319  1.00  0.00     0.282 C 
ATOM      4  O   UNL     1      34.419  30.046   1.957  1.00  0.00    -0.340 OA
ATOM      5  C   UNL     1      33.149  30.374   1.421  1.00  0.00     0.190 C 
ATOM      6  C   UNL     1      32.962  31.908   1.386  1.00  0.00     0.240 C 
ENDROOT
BRANCH   1   7
ATOM      7  O   UNL     1      33.061  33.886   2.734  1.00  0.00    -0.340 OA
BRANCH   7   8
ATOM      8  C   UNL     1      31.987  34.473   3.462  1.00  0.00     0.282 C 
ATOM      9  C   UNL     1      33.884  35.657   6.383  1.00  0.00     0.041 C 
ATOM     10  C   UNL     1      33.471  35.580   4.911  1.00  0.00     0.150 C 
ATOM     11  C   UNL     1      33.108  36.979   4.365  1.00  0.00     0.174 C 
ATOM     12  O   UNL     1      32.362  34.701   4.812  1.00  0.00    -0.344 OA
ATOM     13  C   UNL     1      32.632  36.865   2.903  1.00  0.00     0.179 C 
ATOM     14  C   UNL     1      31.544  35.782   2.782  1.00  0.00     0.202 C 
BRANCH  11  15
ATOM     15  O   UNL     1      34.224  37.828   4.451  1.00  0.00    -0.388 OA
ATOM     16  H   UNL     1      34.089  38.410   5.244  1.00  0.00     0.211 HD
ENDBRANCH  11  15
BRANCH  13  17
ATOM     17  O   UNL     1      33.711  36.540   2.066  1.00  0.00    -0.387 OA
ATOM     18  H   UNL     1      33.342  36.333   1.167  1.00  0.00     0.211 HD
ENDBRANCH  13  17
BRANCH  14  19
ATOM     19  O   UNL     1      30.354  36.231   3.383  1.00  0.00    -0.385 OA
ATOM     20  H   UNL     1      30.192  35.646   4.171  1.00  0.00     0.211 HD
ENDBRANCH  14  19
ENDBRANCH   7   8
ENDBRANCH   1   7
BRANCH   2  21
ATOM     21  O   UNL     1      34.460  32.355   4.793  1.00  0.00    -0.385 OA
ATOM     22  H   UNL     1      33.530  32.323   5.144  1.00  0.00     0.211 HD
ENDBRANCH   2  21
BRANCH   6  23
ATOM     23  O   UNL     1      33.957  32.524   0.568  1.00  0.00    -0.453 OA
BRANCH  23  24
ATOM     24  C   UNL     1      33.666  33.430  -0.451  1.00  0.00     0.331 C 
ATOM     25  O   UNL     1      34.493  33.630  -1.384  1.00  0.00    -0.247 OA
BRANCH  24  26
ATOM     26  C   UNL     1      32.387  34.165  -0.392  1.00  0.00     0.094 C 
ATOM     27  C   UNL     1      31.462  34.208  -1.366  1.00  0.00     0.016 C 
BRANCH  27  28
ATOM     28  C   UNL     1      31.480  33.416  -2.620  1.00  0.00    -0.021 A 
ATOM     29  C   UNL     1      31.642  32.027  -2.547  1.00  0.00     0.058 A 
ATOM     30  C   UNL     1      31.425  34.033  -3.885  1.00  0.00     0.012 A 
ATOM     31  C   UNL     1      31.712  31.255  -3.712  1.00  0.00     0.157 A 
ATOM     32  C   UNL     1      31.487  33.265  -5.049  1.00  0.00     0.051 A 
ATOM     33  C   UNL     1      31.628  31.873  -4.972  1.00  0.00     0.157 A 
BRANCH  31  34
ATOM     34  O   UNL     1      31.870  29.874  -3.599  1.00  0.00    -0.504 OA
ATOM     35  H   UNL     1      31.591  29.371  -2.764  1.00  0.00     0.293 HD
ENDBRANCH  31  34
BRANCH  33  36
ATOM     36  O   UNL     1      31.697  31.109  -6.138  1.00  0.00    -0.504 OA
ATOM     37  H   UNL     1      32.084  31.484  -6.996  1.00  0.00     0.293 HD
ENDBRANCH  33  36
ENDBRANCH  27  28
ENDBRANCH  24  26
ENDBRANCH  23  24
ENDBRANCH   6  23
BRANCH   3  38
ATOM     38  O   UNL     1      35.773  30.018   3.804  1.00  0.00    -0.350 OA
BRANCH  38  39
ATOM     39  C   UNL     1      36.539  29.416   2.783  1.00  0.00     0.168 C 
BRANCH  39  40
ATOM     40  C   UNL     1      37.810  30.230   2.570  1.00  0.00     0.064 C 
BRANCH  40  41
ATOM     41  C   UNL     1      37.856  30.777   1.169  1.00  0.00    -0.042 A 
ATOM     42  C   UNL     1      38.491  30.055   0.145  1.00  0.00     0.054 A 
ATOM     43  C   UNL     1      37.326  32.046   0.894  1.00  0.00     0.008 A 
ATOM     44  C   UNL     1      38.579  30.592  -1.152  1.00  0.00     0.157 A 
ATOM     45  C   UNL     1      37.418  32.584  -0.394  1.00  0.00     0.050 A 
ATOM     46  C   UNL     1      38.044  31.860  -1.419  1.00  0.00     0.157 A 
BRANCH  44  47
ATOM     47  O   UNL     1      39.205  29.877  -2.172  1.00  0.00    -0.504 OA
ATOM     48  H   UNL     1      40.170  29.581  -2.095  1.00  0.00     0.293 HD
ENDBRANCH  44  47
BRANCH  46  49
ATOM     49  O   UNL     1      38.151  32.397  -2.699  1.00  0.00    -0.504 OA
ATOM     50  H   UNL     1      37.344  32.763  -3.189  1.00  0.00     0.293 HD
ENDBRANCH  46  49
ENDBRANCH  40  41
ENDBRANCH  39  40
ENDBRANCH  38  39
ENDBRANCH   3  38
BRANCH   5  51
ATOM     51  C   UNL     1      33.028  29.758   0.024  1.00  0.00     0.192 C 
BRANCH  51  52
ATOM     52  O   UNL     1      34.248  29.886  -0.651  1.00  0.00    -0.394 OA
ATOM     53  H   UNL     1      34.938  29.512  -0.045  1.00  0.00     0.210 HD
ENDBRANCH  51  52
ENDBRANCH   5  51
TORSDOF 20
ENDMDL
MODEL 7
REMARK VINA RESULT:    -7.775      2.894      6.107
REMARK INTER + INTRA:         -17.720
REMARK INTER:                 -16.093
REMARK INTRA:                  -1.627
REMARK UNBOUND:                -2.900
REMARK SMILES C[C@H]1O[C@H](O[C@@H]2[C@@H](O)[C@H](OCCc3ccc(O)c(O)c3)O[C@H](CO)[C@@H]2OC(=O)C=Cc2ccc(O)c(O)c2)[C@@H](O)[C@H](O)[C@@H]1O
REMARK SMILES IDX 6 1 7 2 9 3 21 4 22 5 25 6 5 7 4 8 1 9 2 10 43 11 3 12 41 13
REMARK SMILES IDX 39 14 44 15 42 17 40 19 8 21 26 23 27 24 28 25 29 26 30 27
REMARK SMILES IDX 31 28 38 29 32 30 36 31 33 32 34 33 37 34 35 36 10 38 11 39
REMARK SMILES IDX 12 40 13 41 20 42 14 43 18 44 15 45 16 46 19 47 17 49 23 51
REMARK SMILES IDX 24 52
REMARK H PARENT 44 16 42 18 40 20 8 22 37 35 35 37 19 48 17 50 24 53
REMARK Flexibility Score: inf
ROOT
ATOM      1  C   UNL     1      33.103  34.139   3.983  1.00  0.00     0.199 C 
ATOM      2  C   UNL     1      33.916  34.553   2.736  1.00  0.00     0.203 C 
ATOM      3  C   UNL     1      33.096  34.274   1.456  1.00  0.00     0.282 C 
ATOM      4  O   UNL     1      31.857  34.965   1.503  1.00  0.00    -0.340 OA
ATOM      5  C   UNL     1      31.053  34.485   2.567  1.00  0.00     0.190 C 
ATOM      6  C   UNL     1      31.717  34.802   3.926  1.00  0.00     0.240 C 
ENDROOT
BRANCH   1   7
ATOM      7  O   UNL     1      33.752  34.571   5.170  1.00  0.00    -0.340 OA
BRANCH   7   8
ATOM      8  C   UNL     1      34.305  33.500   5.929  1.00  0.00     0.282 C 
ATOM      9  C   UNL     1      37.870  34.256   5.431  1.00  0.00     0.041 C 
ATOM     10  C   UNL     1      36.438  34.489   5.916  1.00  0.00     0.150 C 
ATOM     11  C   UNL     1      36.410  34.789   7.431  1.00  0.00     0.174 C 
ATOM     12  O   UNL     1      35.680  33.326   5.622  1.00  0.00    -0.344 OA
ATOM     13  C   UNL     1      34.953  34.954   7.908  1.00  0.00     0.179 C 
ATOM     14  C   UNL     1      34.101  33.761   7.433  1.00  0.00     0.202 C 
BRANCH  11  15
ATOM     15  O   UNL     1      37.146  35.956   7.699  1.00  0.00    -0.388 OA
ATOM     16  H   UNL     1      37.835  36.037   6.988  1.00  0.00     0.211 HD
ENDBRANCH  11  15
BRANCH  13  17
ATOM     17  O   UNL     1      34.410  36.147   7.405  1.00  0.00    -0.387 OA
ATOM     18  H   UNL     1      33.526  35.928   7.005  1.00  0.00     0.211 HD
ENDBRANCH  13  17
BRANCH  14  19
ATOM     19  O   UNL     1      34.456  32.605   8.152  1.00  0.00    -0.385 OA
ATOM     20  H   UNL     1      34.968  32.908   8.949  1.00  0.00     0.211 HD
ENDBRANCH  14  19
ENDBRANCH   7   8
ENDBRANCH   1   7
BRANCH   2  21
ATOM     21  O   UNL     1      35.125  33.839   2.696  1.00  0.00    -0.385 OA
ATOM     22  H   UNL     1      35.787  34.409   2.223  1.00  0.00     0.211 HD
ENDBRANCH   2  21
BRANCH   6  23
ATOM     23  O   UNL     1      31.878  36.211   4.098  1.00  0.00    -0.453 OA
BRANCH  23  24
ATOM     24  C   UNL     1      31.250  36.941   5.105  1.00  0.00     0.331 C 
ATOM     25  O   UNL     1      31.575  36.773   6.315  1.00  0.00    -0.247 OA
BRANCH  24  26
ATOM     26  C   UNL     1      30.181  37.887   4.726  1.00  0.00     0.094 C 
ATOM     27  C   UNL     1      30.362  39.069   4.113  1.00  0.00     0.016 C 
BRANCH  27  28
ATOM     28  C   UNL     1      31.645  39.585   3.576  1.00  0.00    -0.021 A 
ATOM     29  C   UNL     1      31.628  40.680   2.703  1.00  0.00     0.058 A 
ATOM     30  C   UNL     1      32.870  38.949   3.852  1.00  0.00     0.012 A 
ATOM     31  C   UNL     1      32.815  41.162   2.140  1.00  0.00     0.157 A 
ATOM     32  C   UNL     1      34.058  39.431   3.297  1.00  0.00     0.051 A 
ATOM     33  C   UNL     1      34.040  40.539   2.442  1.00  0.00     0.157 A 
BRANCH  31  34
ATOM     34  O   UNL     1      32.759  42.257   1.279  1.00  0.00    -0.504 OA
ATOM     35  H   UNL     1      31.881  42.702   1.038  1.00  0.00     0.293 HD
ENDBRANCH  31  34
BRANCH  33  36
ATOM     36  O   UNL     1      35.228  41.015   1.884  1.00  0.00    -0.504 OA
ATOM     37  H   UNL     1      35.827  41.661   2.385  1.00  0.00     0.293 HD
ENDBRANCH  33  36
ENDBRANCH  27  28
ENDBRANCH  24  26
ENDBRANCH  23  24
ENDBRANCH   6  23
BRANCH   3  38
ATOM     38  O   UNL     1      33.813  34.758   0.331  1.00  0.00    -0.350 OA
BRANCH  38  39
ATOM     39  C   UNL     1      33.967  33.754  -0.649  1.00  0.00     0.168 C 
BRANCH  39  40
ATOM     40  C   UNL     1      32.761  32.826  -0.604  1.00  0.00     0.064 C 
BRANCH  40  41
ATOM     41  C   UNL     1      31.878  33.050  -1.801  1.00  0.00    -0.042 A 
ATOM     42  C   UNL     1      31.870  32.128  -2.861  1.00  0.00     0.054 A 
ATOM     43  C   UNL     1      31.109  34.219  -1.897  1.00  0.00     0.008 A 
ATOM     44  C   UNL     1      31.085  32.366  -4.003  1.00  0.00     0.157 A 
ATOM     45  C   UNL     1      30.332  34.460  -3.034  1.00  0.00     0.050 A 
ATOM     46  C   UNL     1      30.317  33.536  -4.089  1.00  0.00     0.157 A 
BRANCH  44  47
ATOM     47  O   UNL     1      31.072  31.452  -5.055  1.00  0.00    -0.504 OA
ATOM     48  H   UNL     1      31.879  31.320  -5.652  1.00  0.00     0.293 HD
ENDBRANCH  44  47
BRANCH  46  49
ATOM     49  O   UNL     1      29.556  33.778  -5.230  1.00  0.00    -0.504 OA
ATOM     50  H   UNL     1      28.647  34.221  -5.176  1.00  0.00     0.293 HD
ENDBRANCH  46  49
ENDBRANCH  40  41
ENDBRANCH  39  40
ENDBRANCH  38  39
ENDBRANCH   3  38
BRANCH   5  51
ATOM     51  C   UNL     1      29.660  35.113   2.458  1.00  0.00     0.192 C 
BRANCH  51  52
ATOM     52  O   UNL     1      29.171  34.941   1.157  1.00  0.00    -0.394 OA
ATOM     53  H   UNL     1      28.627  35.747   0.959  1.00  0.00     0.210 HD
ENDBRANCH  51  52
ENDBRANCH   5  51
TORSDOF 20
ENDMDL
MODEL 8
REMARK VINA RESULT:    -7.754      2.001      4.231
REMARK INTER + INTRA:         -17.681
REMARK INTER:                 -14.202
REMARK INTRA:                  -3.479
REMARK UNBOUND:                -2.900
REMARK SMILES C[C@H]1O[C@H](O[C@@H]2[C@@H](O)[C@H](OCCc3ccc(O)c(O)c3)O[C@H](CO)[C@@H]2OC(=O)C=Cc2ccc(O)c(O)c2)[C@@H](O)[C@H](O)[C@@H]1O
REMARK SMILES IDX 6 1 7 2 9 3 21 4 22 5 25 6 5 7 4 8 1 9 2 10 43 11 3 12 41 13
REMARK SMILES IDX 39 14 44 15 42 17 40 19 8 21 26 23 27 24 28 25 29 26 30 27
REMARK SMILES IDX 31 28 38 29 32 30 36 31 33 32 34 33 37 34 35 36 10 38 11 39
REMARK SMILES IDX 12 40 13 41 20 42 14 43 18 44 15 45 16 46 19 47 17 49 23 51
REMARK SMILES IDX 24 52
REMARK H PARENT 44 16 42 18 40 20 8 22 37 35 35 37 19 48 17 50 24 53
REMARK Flexibility Score: inf
ROOT
ATOM      1  C   UNL     1      35.911  34.159   3.307  1.00  0.00     0.199 C 
ATOM      2  C   UNL     1      34.891  34.405   2.172  1.00  0.00     0.203 C 
ATOM      3  C   UNL     1      35.528  34.061   0.806  1.00  0.00     0.282 C 
ATOM      4  O   UNL     1      35.979  32.715   0.797  1.00  0.00    -0.340 OA
ATOM      5  C   UNL     1      37.015  32.525   1.745  1.00  0.00     0.190 C 
ATOM      6  C   UNL     1      36.476  32.735   3.178  1.00  0.00     0.240 C 
ENDROOT
BRANCH   1   7
ATOM      7  O   UNL     1      35.286  34.274   4.576  1.00  0.00    -0.340 OA
BRANCH   7   8
ATOM      8  C   UNL     1      35.735  35.402   5.322  1.00  0.00     0.282 C 
ATOM      9  C   UNL     1      32.468  36.949   6.003  1.00  0.00     0.041 C 
ATOM     10  C   UNL     1      33.556  35.875   6.068  1.00  0.00     0.150 C 
ATOM     11  C   UNL     1      33.876  35.499   7.532  1.00  0.00     0.174 C 
ATOM     12  O   UNL     1      34.712  36.381   5.417  1.00  0.00    -0.344 OA
ATOM     13  C   UNL     1      35.020  34.466   7.573  1.00  0.00     0.179 C 
ATOM     14  C   UNL     1      36.206  34.954   6.719  1.00  0.00     0.202 C 
BRANCH  11  15
ATOM     15  O   UNL     1      32.727  34.980   8.152  1.00  0.00    -0.388 OA
ATOM     16  H   UNL     1      32.321  34.330   7.520  1.00  0.00     0.211 HD
ENDBRANCH  11  15
BRANCH  13  17
ATOM     17  O   UNL     1      34.572  33.228   7.086  1.00  0.00    -0.387 OA
ATOM     18  H   UNL     1      35.374  32.693   6.843  1.00  0.00     0.211 HD
ENDBRANCH  13  17
BRANCH  14  19
ATOM     19  O   UNL     1      36.840  36.035   7.357  1.00  0.00    -0.385 OA
ATOM     20  H   UNL     1      36.907  35.800   8.321  1.00  0.00     0.211 HD
ENDBRANCH  14  19
ENDBRANCH   7   8
ENDBRANCH   1   7
BRANCH   2  21
ATOM     21  O   UNL     1      34.479  35.748   2.185  1.00  0.00    -0.385 OA
ATOM     22  H   UNL     1      34.995  36.219   1.477  1.00  0.00     0.211 HD
ENDBRANCH   2  21
BRANCH   6  23
ATOM     23  O   UNL     1      35.434  31.803   3.472  1.00  0.00    -0.453 OA
BRANCH  23  24
ATOM     24  C   UNL     1      35.380  31.053   4.646  1.00  0.00     0.331 C 
ATOM     25  O   UNL     1      36.176  31.296   5.597  1.00  0.00    -0.247 OA
BRANCH  24  26
ATOM     26  C   UNL     1      34.396  29.956   4.734  1.00  0.00     0.094 C 
ATOM     27  C   UNL     1      33.066  30.104   4.863  1.00  0.00     0.016 C 
BRANCH  27  28
ATOM     28  C   UNL     1      32.322  31.386   4.799  1.00  0.00    -0.021 A 
ATOM     29  C   UNL     1      31.704  31.874   5.956  1.00  0.00     0.058 A 
ATOM     30  C   UNL     1      32.150  32.080   3.586  1.00  0.00     0.012 A 
ATOM     31  C   UNL     1      30.955  33.055   5.921  1.00  0.00     0.157 A 
ATOM     32  C   UNL     1      31.409  33.263   3.548  1.00  0.00     0.051 A 
ATOM     33  C   UNL     1      30.809  33.760   4.712  1.00  0.00     0.157 A 
BRANCH  31  34
ATOM     34  O   UNL     1      30.356  33.513   7.094  1.00  0.00    -0.504 OA
ATOM     35  H   UNL     1      30.899  33.714   7.927  1.00  0.00     0.293 HD
ENDBRANCH  31  34
BRANCH  33  36
ATOM     36  O   UNL     1      30.063  34.939   4.669  1.00  0.00    -0.504 OA
ATOM     37  H   UNL     1      29.186  34.993   4.164  1.00  0.00     0.293 HD
ENDBRANCH  33  36
ENDBRANCH  27  28
ENDBRANCH  24  26
ENDBRANCH  23  24
ENDBRANCH   6  23
BRANCH   3  38
ATOM     38  O   UNL     1      34.546  34.191  -0.210  1.00  0.00    -0.350 OA
BRANCH  38  39
ATOM     39  C   UNL     1      33.487  33.278  -0.018  1.00  0.00     0.168 C 
BRANCH  39  40
ATOM     40  C   UNL     1      32.174  33.957  -0.387  1.00  0.00     0.064 C 
BRANCH  40  41
ATOM     41  C   UNL     1      31.701  33.491  -1.737  1.00  0.00    -0.042 A 
ATOM     42  C   UNL     1      30.702  34.199  -2.424  1.00  0.00     0.054 A 
ATOM     43  C   UNL     1      32.207  32.303  -2.286  1.00  0.00     0.008 A 
ATOM     44  C   UNL     1      30.224  33.732  -3.661  1.00  0.00     0.157 A 
ATOM     45  C   UNL     1      31.729  31.834  -3.513  1.00  0.00     0.050 A 
ATOM     46  C   UNL     1      30.738  32.546  -4.204  1.00  0.00     0.157 A 
BRANCH  44  47
ATOM     47  O   UNL     1      29.234  34.434  -4.348  1.00  0.00    -0.504 OA
ATOM     48  H   UNL     1      29.357  34.715  -5.312  1.00  0.00     0.293 HD
ENDBRANCH  44  47
BRANCH  46  49
ATOM     49  O   UNL     1      30.247  32.076  -5.420  1.00  0.00    -0.504 OA
ATOM     50  H   UNL     1      30.184  31.085  -5.617  1.00  0.00     0.293 HD
ENDBRANCH  46  49
ENDBRANCH  40  41
ENDBRANCH  39  40
ENDBRANCH  38  39
ENDBRANCH   3  38
BRANCH   5  51
ATOM     51  C   UNL     1      37.602  31.122   1.561  1.00  0.00     0.192 C 
BRANCH  51  52
ATOM     52  O   UNL     1      38.872  31.219   0.978  1.00  0.00    -0.394 OA
ATOM     53  H   UNL     1      38.891  32.090   0.506  1.00  0.00     0.210 HD
ENDBRANCH  51  52
ENDBRANCH   5  51
TORSDOF 20
ENDMDL
MODEL 9
REMARK VINA RESULT:    -7.677      1.903      3.206
REMARK INTER + INTRA:         -17.533
REMARK INTER:                 -14.418
REMARK INTRA:                  -3.115
REMARK UNBOUND:                -2.900
REMARK SMILES C[C@H]1O[C@H](O[C@@H]2[C@@H](O)[C@H](OCCc3ccc(O)c(O)c3)O[C@H](CO)[C@@H]2OC(=O)C=Cc2ccc(O)c(O)c2)[C@@H](O)[C@H](O)[C@@H]1O
REMARK SMILES IDX 6 1 7 2 9 3 21 4 22 5 25 6 5 7 4 8 1 9 2 10 43 11 3 12 41 13
REMARK SMILES IDX 39 14 44 15 42 17 40 19 8 21 26 23 27 24 28 25 29 26 30 27
REMARK SMILES IDX 31 28 38 29 32 30 36 31 33 32 34 33 37 34 35 36 10 38 11 39
REMARK SMILES IDX 12 40 13 41 20 42 14 43 18 44 15 45 16 46 19 47 17 49 23 51
REMARK SMILES IDX 24 52
REMARK H PARENT 44 16 42 18 40 20 8 22 37 35 35 37 19 48 17 50 24 53
REMARK Flexibility Score: inf
ROOT
ATOM      1  C   UNL     1      34.446  34.701   2.312  1.00  0.00     0.199 C 
ATOM      2  C   UNL     1      33.128  34.803   1.511  1.00  0.00     0.203 C 
ATOM      3  C   UNL     1      33.438  35.012   0.011  1.00  0.00     0.282 C 
ATOM      4  O   UNL     1      34.244  33.951  -0.479  1.00  0.00    -0.340 OA
ATOM      5  C   UNL     1      35.509  33.945   0.161  1.00  0.00     0.190 C 
ATOM      6  C   UNL     1      35.348  33.636   1.666  1.00  0.00     0.240 C 
ENDROOT
BRANCH   1   7
ATOM      7  O   UNL     1      34.189  34.310   3.652  1.00  0.00    -0.340 OA
BRANCH   7   8
ATOM      8  C   UNL     1      34.513  35.320   4.603  1.00  0.00     0.282 C 
ATOM      9  C   UNL     1      31.103  36.459   5.381  1.00  0.00     0.041 C 
ATOM     10  C   UNL     1      32.277  35.480   5.312  1.00  0.00     0.150 C 
ATOM     11  C   UNL     1      32.578  34.878   6.703  1.00  0.00     0.174 C 
ATOM     12  O   UNL     1      33.406  36.183   4.816  1.00  0.00    -0.344 OA
ATOM     13  C   UNL     1      33.805  33.948   6.620  1.00  0.00     0.179 C 
ATOM     14  C   UNL     1      34.973  34.671   5.922  1.00  0.00     0.202 C 
BRANCH  11  15
ATOM     15  O   UNL     1      31.458  34.169   7.167  1.00  0.00    -0.388 OA
ATOM     16  H   UNL     1      30.918  34.799   7.713  1.00  0.00     0.211 HD
ENDBRANCH  11  15
BRANCH  13  17
ATOM     17  O   UNL     1      33.483  32.783   5.905  1.00  0.00    -0.387 OA
ATOM     18  H   UNL     1      32.564  32.898   5.543  1.00  0.00     0.211 HD
ENDBRANCH  13  17
BRANCH  14  19
ATOM     19  O   UNL     1      35.489  35.669   6.768  1.00  0.00    -0.385 OA
ATOM     20  H   UNL     1      36.344  35.975   6.363  1.00  0.00     0.211 HD
ENDBRANCH  14  19
ENDBRANCH   7   8
ENDBRANCH   1   7
BRANCH   2  21
ATOM     21  O   UNL     1      32.359  35.875   1.995  1.00  0.00    -0.385 OA
ATOM     22  H   UNL     1      32.043  35.622   2.903  1.00  0.00     0.211 HD
ENDBRANCH   2  21
BRANCH   6  23
ATOM     23  O   UNL     1      34.750  32.354   1.862  1.00  0.00    -0.453 OA
BRANCH  23  24
ATOM     24  C   UNL     1      35.282  31.375   2.699  1.00  0.00     0.331 C 
ATOM     25  O   UNL     1      34.682  31.049   3.763  1.00  0.00    -0.247 OA
BRANCH  24  26
ATOM     26  C   UNL     1      36.570  30.757   2.328  1.00  0.00     0.094 C 
ATOM     27  C   UNL     1      37.774  31.097   2.821  1.00  0.00     0.016 C 
BRANCH  27  28
ATOM     28  C   UNL     1      38.023  32.053   3.928  1.00  0.00    -0.021 A 
ATOM     29  C   UNL     1      38.099  31.571   5.240  1.00  0.00     0.058 A 
ATOM     30  C   UNL     1      38.101  33.440   3.703  1.00  0.00     0.012 A 
ATOM     31  C   UNL     1      38.286  32.450   6.313  1.00  0.00     0.157 A 
ATOM     32  C   UNL     1      38.294  34.320   4.770  1.00  0.00     0.051 A 
ATOM     33  C   UNL     1      38.390  33.833   6.079  1.00  0.00     0.157 A 
BRANCH  31  34
ATOM     34  O   UNL     1      38.359  31.933   7.606  1.00  0.00    -0.504 OA
ATOM     35  H   UNL     1      38.532  30.949   7.778  1.00  0.00     0.293 HD
ENDBRANCH  31  34
BRANCH  33  36
ATOM     36  O   UNL     1      38.577  34.715   7.145  1.00  0.00    -0.504 OA
ATOM     37  H   UNL     1      37.824  34.940   7.785  1.00  0.00     0.293 HD
ENDBRANCH  33  36
ENDBRANCH  27  28
ENDBRANCH  24  26
ENDBRANCH  23  24
ENDBRANCH   6  23
BRANCH   3  38
ATOM     38  O   UNL     1      32.221  34.997  -0.721  1.00  0.00    -0.350 OA
BRANCH  38  39
ATOM     39  C   UNL     1      32.161  33.889  -1.593  1.00  0.00     0.168 C 
BRANCH  39  40
ATOM     40  C   UNL     1      31.291  34.247  -2.791  1.00  0.00     0.064 C 
BRANCH  40  41
ATOM     41  C   UNL     1      31.378  33.177  -3.844  1.00  0.00    -0.042 A 
ATOM     42  C   UNL     1      31.549  31.831  -3.478  1.00  0.00     0.054 A 
ATOM     43  C   UNL     1      31.361  33.526  -5.203  1.00  0.00     0.008 A 
ATOM     44  C   UNL     1      31.683  30.839  -4.465  1.00  0.00     0.157 A 
ATOM     45  C   UNL     1      31.501  32.541  -6.185  1.00  0.00     0.050 A 
ATOM     46  C   UNL     1      31.662  31.196  -5.820  1.00  0.00     0.157 A 
BRANCH  44  47
ATOM     47  O   UNL     1      31.850  29.502  -4.105  1.00  0.00    -0.504 OA
ATOM     48  H   UNL     1      32.442  29.232  -3.331  1.00  0.00     0.293 HD
ENDBRANCH  44  47
BRANCH  46  49
ATOM     49  O   UNL     1      31.816  30.213  -6.794  1.00  0.00    -0.504 OA
ATOM     50  H   UNL     1      32.718  29.797  -6.987  1.00  0.00     0.293 HD
ENDBRANCH  46  49
ENDBRANCH  40  41
ENDBRANCH  39  40
ENDBRANCH  38  39
ENDBRANCH   3  38
BRANCH   5  51
ATOM     51  C   UNL     1      36.409  32.919  -0.534  1.00  0.00     0.192 C 
BRANCH  51  52
ATOM     52  O   UNL     1      37.721  33.052  -0.061  1.00  0.00    -0.394 OA
ATOM     53  H   UNL     1      37.661  33.018   0.928  1.00  0.00     0.210 HD
ENDBRANCH  51  52
ENDBRANCH   5  51
TORSDOF 20
ENDMDL
