MODEL 1
REMARK VINA RESULT:    -6.536      0.000      0.000
REMARK INTER + INTRA:          -8.840
REMARK INTER:                  -8.256
REMARK INTRA:                  -0.584
REMARK UNBOUND:                -0.584
REMARK SMILES O=C(C=Cc1ccc(O)cc1)c1ccc(O)cc1O
REMARK SMILES IDX 4 1 3 2 5 3 6 4 7 5 8 6 11 7 10 8 9 9 2 11 1 12 12 13 18 14
REMARK SMILES IDX 13 15 17 16 14 17 15 18 19 19 16 21
REMARK H PARENT 9 10 19 20 16 22
REMARK Flexibility Score: inf
ROOT
ATOM      1  C   UNL     1      44.505   9.187  19.516  1.00  0.00     0.012 C 
ATOM      2  C   UNL     1      44.767   9.045  20.823  1.00  0.00     0.053 C 
ENDROOT
BRANCH   1   3
ATOM      3  C   UNL     1      45.028   8.274  18.469  1.00  0.00    -0.025 A 
ATOM      4  C   UNL     1      46.248   7.582  18.607  1.00  0.00     0.012 A 
ATOM      5  C   UNL     1      46.704   6.743  17.586  1.00  0.00     0.047 A 
ATOM      6  C   UNL     1      45.960   6.589  16.414  1.00  0.00     0.115 A 
ATOM      7  C   UNL     1      44.294   8.126  17.279  1.00  0.00     0.012 A 
ATOM      8  C   UNL     1      44.754   7.285  16.261  1.00  0.00     0.047 A 
BRANCH   6   9
ATOM      9  O   UNL     1      46.428   5.748  15.406  1.00  0.00    -0.508 OA
ATOM     10  H   UNL     1      45.927   5.641  14.532  1.00  0.00     0.293 HD
ENDBRANCH   6   9
ENDBRANCH   1   3
BRANCH   2  11
ATOM     11  C   UNL     1      44.216   9.965  21.842  1.00  0.00     0.189 C 
ATOM     12  O   UNL     1      43.726  11.074  21.488  1.00  0.00    -0.289 OA
BRANCH  11  13
ATOM     13  C   UNL     1      44.179   9.588  23.274  1.00  0.00     0.064 A 
ATOM     14  C   UNL     1      43.131  10.001  24.126  1.00  0.00     0.130 A 
ATOM     15  C   UNL     1      45.201   8.775  23.793  1.00  0.00     0.020 A 
ATOM     16  C   UNL     1      43.145   9.632  25.480  1.00  0.00     0.093 A 
ATOM     17  C   UNL     1      45.203   8.408  25.142  1.00  0.00     0.047 A 
ATOM     18  C   UNL     1      44.179   8.838  25.988  1.00  0.00     0.119 A 
BRANCH  14  19
ATOM     19  O   UNL     1      42.065  10.752  23.629  1.00  0.00    -0.507 OA
ATOM     20  H   UNL     1      41.107  10.565  23.904  1.00  0.00     0.293 HD
ENDBRANCH  14  19
BRANCH  18  21
ATOM     21  O   UNL     1      44.197   8.468  27.331  1.00  0.00    -0.508 OA
ATOM     22  H   UNL     1      43.341   8.350  27.860  1.00  0.00     0.293 HD
ENDBRANCH  18  21
ENDBRANCH  11  13
ENDBRANCH   2  11
TORSDOF 6
ENDMDL
MODEL 2
REMARK VINA RESULT:    -6.457      1.265      7.668
REMARK INTER + INTRA:          -8.740
REMARK INTER:                  -8.131
REMARK INTRA:                  -0.608
REMARK UNBOUND:                -0.584
REMARK SMILES O=C(C=Cc1ccc(O)cc1)c1ccc(O)cc1O
REMARK SMILES IDX 4 1 3 2 5 3 6 4 7 5 8 6 11 7 10 8 9 9 2 11 1 12 12 13 18 14
REMARK SMILES IDX 13 15 17 16 14 17 15 18 19 19 16 21
REMARK H PARENT 9 10 19 20 16 22
REMARK Flexibility Score: inf
ROOT
ATOM      1  C   UNL     1      44.112   9.806  21.814  1.00  0.00     0.012 C 
ATOM      2  C   UNL     1      44.482   8.937  20.863  1.00  0.00     0.053 C 
ENDROOT
BRANCH   1   3
ATOM      3  C   UNL     1      44.101   9.484  23.263  1.00  0.00    -0.025 A 
ATOM      4  C   UNL     1      43.064   9.899  24.124  1.00  0.00     0.012 A 
ATOM      5  C   UNL     1      43.105   9.580  25.484  1.00  0.00     0.047 A 
ATOM      6  C   UNL     1      44.180   8.855  26.007  1.00  0.00     0.115 A 
ATOM      7  C   UNL     1      45.184   8.769  23.801  1.00  0.00     0.012 A 
ATOM      8  C   UNL     1      45.221   8.452  25.163  1.00  0.00     0.047 A 
BRANCH   6   9
ATOM      9  O   UNL     1      44.205   8.545  27.366  1.00  0.00    -0.508 OA
ATOM     10  H   UNL     1      44.761   7.777  27.722  1.00  0.00     0.293 HD
ENDBRANCH   6   9
ENDBRANCH   1   3
BRANCH   2  11
ATOM     11  C   UNL     1      44.496   9.299  19.428  1.00  0.00     0.189 C 
ATOM     12  O   UNL     1      44.072  10.430  19.061  1.00  0.00    -0.289 OA
BRANCH  11  13
ATOM     13  C   UNL     1      45.048   8.374  18.412  1.00  0.00     0.064 A 
ATOM     14  C   UNL     1      44.462   8.236  17.133  1.00  0.00     0.130 A 
ATOM     15  C   UNL     1      46.202   7.632  18.717  1.00  0.00     0.020 A 
ATOM     16  C   UNL     1      45.011   7.336  16.207  1.00  0.00     0.093 A 
ATOM     17  C   UNL     1      46.745   6.743  17.785  1.00  0.00     0.047 A 
ATOM     18  C   UNL     1      46.150   6.590  16.531  1.00  0.00     0.119 A 
BRANCH  14  19
ATOM     19  O   UNL     1      43.356   9.006  16.773  1.00  0.00    -0.507 OA
ATOM     20  H   UNL     1      42.872   8.864  15.893  1.00  0.00     0.293 HD
ENDBRANCH  14  19
BRANCH  18  21
ATOM     21  O   UNL     1      46.700   5.696  15.614  1.00  0.00    -0.508 OA
ATOM     22  H   UNL     1      47.179   4.856  15.916  1.00  0.00     0.293 HD
ENDBRANCH  18  21
ENDBRANCH  11  13
ENDBRANCH   2  11
TORSDOF 6
ENDMDL
MODEL 3
REMARK VINA RESULT:    -6.325      2.071      8.052
REMARK INTER + INTRA:          -8.573
REMARK INTER:                  -7.920
REMARK INTRA:                  -0.653
REMARK UNBOUND:                -0.584
REMARK SMILES O=C(C=Cc1ccc(O)cc1)c1ccc(O)cc1O
REMARK SMILES IDX 4 1 3 2 5 3 6 4 7 5 8 6 11 7 10 8 9 9 2 11 1 12 12 13 18 14
REMARK SMILES IDX 13 15 17 16 14 17 15 18 19 19 16 21
REMARK H PARENT 9 10 19 20 16 22
REMARK Flexibility Score: inf
ROOT
ATOM      1  C   UNL     1      45.422   8.786  19.229  1.00  0.00     0.012 C 
ATOM      2  C   UNL     1      44.544   8.142  18.446  1.00  0.00     0.053 C 
ENDROOT
BRANCH   1   3
ATOM      3  C   UNL     1      45.414   8.708  20.711  1.00  0.00    -0.025 A 
ATOM      4  C   UNL     1      46.552   8.337  21.456  1.00  0.00     0.012 A 
ATOM      5  C   UNL     1      46.490   8.266  22.852  1.00  0.00     0.047 A 
ATOM      6  C   UNL     1      45.298   8.552  23.521  1.00  0.00     0.115 A 
ATOM      7  C   UNL     1      44.215   8.979  21.392  1.00  0.00     0.012 A 
ATOM      8  C   UNL     1      44.159   8.906  22.788  1.00  0.00     0.047 A 
BRANCH   6   9
ATOM      9  O   UNL     1      45.253   8.477  24.912  1.00  0.00    -0.508 OA
ATOM     10  H   UNL     1      45.320   7.590  25.396  1.00  0.00     0.293 HD
ENDBRANCH   6   9
ENDBRANCH   1   3
BRANCH   2  11
ATOM     11  C   UNL     1      44.591   8.232  16.971  1.00  0.00     0.189 C 
ATOM     12  O   UNL     1      44.126   9.250  16.387  1.00  0.00    -0.289 OA
BRANCH  11  13
ATOM     13  C   UNL     1      45.224   7.165  16.160  1.00  0.00     0.064 A 
ATOM     14  C   UNL     1      44.545   6.543  15.088  1.00  0.00     0.130 A 
ATOM     15  C   UNL     1      46.544   6.780  16.448  1.00  0.00     0.020 A 
ATOM     16  C   UNL     1      45.179   5.527  14.356  1.00  0.00     0.093 A 
ATOM     17  C   UNL     1      47.168   5.771  15.709  1.00  0.00     0.047 A 
ATOM     18  C   UNL     1      46.488   5.140  14.666  1.00  0.00     0.119 A 
BRANCH  14  19
ATOM     19  O   UNL     1      43.259   6.948  14.732  1.00  0.00    -0.507 OA
ATOM     20  H   UNL     1      42.708   7.557  15.327  1.00  0.00     0.293 HD
ENDBRANCH  14  19
BRANCH  18  21
ATOM     21  O   UNL     1      47.122   4.132  13.942  1.00  0.00    -0.508 OA
ATOM     22  H   UNL     1      48.087   3.881  14.118  1.00  0.00     0.293 HD
ENDBRANCH  18  21
ENDBRANCH  11  13
ENDBRANCH   2  11
TORSDOF 6
ENDMDL
MODEL 4
REMARK VINA RESULT:    -6.302      2.337      3.328
REMARK INTER + INTRA:          -8.544
REMARK INTER:                  -7.917
REMARK INTRA:                  -0.627
REMARK UNBOUND:                -0.584
REMARK SMILES O=C(C=Cc1ccc(O)cc1)c1ccc(O)cc1O
REMARK SMILES IDX 4 1 3 2 5 3 6 4 7 5 8 6 11 7 10 8 9 9 2 11 1 12 12 13 18 14
REMARK SMILES IDX 13 15 17 16 14 17 15 18 19 19 16 21
REMARK H PARENT 9 10 19 20 16 22
REMARK Flexibility Score: inf
ROOT
ATOM      1  C   UNL     1      46.568   7.736  19.170  1.00  0.00     0.012 C 
ATOM      2  C   UNL     1      46.675   6.885  20.201  1.00  0.00     0.053 C 
ENDROOT
BRANCH   1   3
ATOM      3  C   UNL     1      46.134   7.331  17.810  1.00  0.00    -0.025 A 
ATOM      4  C   UNL     1      44.876   7.683  17.280  1.00  0.00     0.012 A 
ATOM      5  C   UNL     1      44.509   7.266  15.997  1.00  0.00     0.047 A 
ATOM      6  C   UNL     1      45.380   6.488  15.231  1.00  0.00     0.115 A 
ATOM      7  C   UNL     1      46.997   6.535  17.039  1.00  0.00     0.012 A 
ATOM      8  C   UNL     1      46.625   6.121  15.756  1.00  0.00     0.047 A 
BRANCH   6   9
ATOM      9  O   UNL     1      44.999   6.081  13.954  1.00  0.00    -0.508 OA
ATOM     10  H   UNL     1      45.448   6.452  13.125  1.00  0.00     0.293 HD
ENDBRANCH   6   9
ENDBRANCH   1   3
BRANCH   2  11
ATOM     11  C   UNL     1      47.096   7.328  21.548  1.00  0.00     0.189 C 
ATOM     12  O   UNL     1      48.172   6.893  22.045  1.00  0.00    -0.289 OA
BRANCH  11  13
ATOM     13  C   UNL     1      46.300   8.317  22.311  1.00  0.00     0.064 A 
ATOM     14  C   UNL     1      46.912   9.281  23.145  1.00  0.00     0.130 A 
ATOM     15  C   UNL     1      44.901   8.314  22.183  1.00  0.00     0.020 A 
ATOM     16  C   UNL     1      46.117  10.189  23.861  1.00  0.00     0.093 A 
ATOM     17  C   UNL     1      44.119   9.228  22.896  1.00  0.00     0.047 A 
ATOM     18  C   UNL     1      44.723  10.163  23.738  1.00  0.00     0.119 A 
BRANCH  14  19
ATOM     19  O   UNL     1      48.301   9.355  23.243  1.00  0.00    -0.507 OA
ATOM     20  H   UNL     1      48.881   9.569  22.439  1.00  0.00     0.293 HD
ENDBRANCH  14  19
BRANCH  18  21
ATOM     21  O   UNL     1      43.930  11.064  24.446  1.00  0.00    -0.508 OA
ATOM     22  H   UNL     1      44.300  11.598  25.223  1.00  0.00     0.293 HD
ENDBRANCH  18  21
ENDBRANCH  11  13
ENDBRANCH   2  11
TORSDOF 6
ENDMDL
MODEL 5
REMARK VINA RESULT:    -6.202      2.173      8.148
REMARK INTER + INTRA:          -8.417
REMARK INTER:                  -7.749
REMARK INTRA:                  -0.669
REMARK UNBOUND:                -0.584
REMARK SMILES O=C(C=Cc1ccc(O)cc1)c1ccc(O)cc1O
REMARK SMILES IDX 4 1 3 2 5 3 6 4 7 5 8 6 11 7 10 8 9 9 2 11 1 12 12 13 18 14
REMARK SMILES IDX 13 15 17 16 14 17 15 18 19 19 16 21
REMARK H PARENT 9 10 19 20 16 22
REMARK Flexibility Score: inf
ROOT
ATOM      1  C   UNL     1      46.032   8.080  18.993  1.00  0.00     0.012 C 
ATOM      2  C   UNL     1      46.011   9.094  18.116  1.00  0.00     0.053 C 
ENDROOT
BRANCH   1   3
ATOM      3  C   UNL     1      45.768   8.243  20.445  1.00  0.00    -0.025 A 
ATOM      4  C   UNL     1      44.525   8.684  20.944  1.00  0.00     0.012 A 
ATOM      5  C   UNL     1      44.330   8.833  22.320  1.00  0.00     0.047 A 
ATOM      6  C   UNL     1      45.367   8.557  23.214  1.00  0.00     0.115 A 
ATOM      7  C   UNL     1      46.810   7.982  21.351  1.00  0.00     0.012 A 
ATOM      8  C   UNL     1      46.609   8.133  22.727  1.00  0.00     0.047 A 
BRANCH   6   9
ATOM      9  O   UNL     1      45.156   8.710  24.584  1.00  0.00    -0.508 OA
ATOM     10  H   UNL     1      44.296   8.403  25.023  1.00  0.00     0.293 HD
ENDBRANCH   6   9
ENDBRANCH   1   3
BRANCH   2  11
ATOM     11  C   UNL     1      46.264   8.891  16.673  1.00  0.00     0.189 C 
ATOM     12  O   UNL     1      47.011   9.694  16.047  1.00  0.00    -0.289 OA
BRANCH  11  13
ATOM     13  C   UNL     1      45.696   7.728  15.952  1.00  0.00     0.064 A 
ATOM     14  C   UNL     1      46.458   6.567  15.695  1.00  0.00     0.130 A 
ATOM     15  C   UNL     1      44.355   7.771  15.536  1.00  0.00     0.020 A 
ATOM     16  C   UNL     1      45.883   5.495  14.995  1.00  0.00     0.093 A 
ATOM     17  C   UNL     1      43.789   6.695  14.846  1.00  0.00     0.047 A 
ATOM     18  C   UNL     1      44.551   5.558  14.570  1.00  0.00     0.119 A 
BRANCH  14  19
ATOM     19  O   UNL     1      47.772   6.464  16.152  1.00  0.00    -0.507 OA
ATOM     20  H   UNL     1      48.368   5.687  15.889  1.00  0.00     0.293 HD
ENDBRANCH  14  19
BRANCH  18  21
ATOM     21  O   UNL     1      43.974   4.496  13.877  1.00  0.00    -0.508 OA
ATOM     22  H   UNL     1      43.460   3.767  14.357  1.00  0.00     0.293 HD
ENDBRANCH  18  21
ENDBRANCH  11  13
ENDBRANCH   2  11
TORSDOF 6
ENDMDL
MODEL 6
REMARK VINA RESULT:    -5.996      1.736      2.984
REMARK INTER + INTRA:          -8.157
REMARK INTER:                  -7.582
REMARK INTRA:                  -0.575
REMARK UNBOUND:                -0.584
REMARK SMILES O=C(C=Cc1ccc(O)cc1)c1ccc(O)cc1O
REMARK SMILES IDX 4 1 3 2 5 3 6 4 7 5 8 6 11 7 10 8 9 9 2 11 1 12 12 13 18 14
REMARK SMILES IDX 13 15 17 16 14 17 15 18 19 19 16 21
REMARK H PARENT 9 10 19 20 16 22
REMARK Flexibility Score: inf
ROOT
ATOM      1  C   UNL     1      45.524   7.900  17.341  1.00  0.00     0.012 C 
ATOM      2  C   UNL     1      46.122   8.534  18.360  1.00  0.00     0.053 C 
ENDROOT
BRANCH   1   3
ATOM      3  C   UNL     1      46.231   6.977  16.418  1.00  0.00    -0.025 A 
ATOM      4  C   UNL     1      45.981   6.952  15.031  1.00  0.00     0.012 A 
ATOM      5  C   UNL     1      46.665   6.055  14.205  1.00  0.00     0.047 A 
ATOM      6  C   UNL     1      47.597   5.166  14.748  1.00  0.00     0.115 A 
ATOM      7  C   UNL     1      47.159   6.069  16.957  1.00  0.00     0.012 A 
ATOM      8  C   UNL     1      47.841   5.173  16.126  1.00  0.00     0.047 A 
BRANCH   6   9
ATOM      9  O   UNL     1      48.271   4.279  13.911  1.00  0.00    -0.508 OA
ATOM     10  H   UNL     1      49.059   4.577  13.350  1.00  0.00     0.293 HD
ENDBRANCH   6   9
ENDBRANCH   1   3
BRANCH   2  11
ATOM     11  C   UNL     1      45.382   9.436  19.269  1.00  0.00     0.189 C 
ATOM     12  O   UNL     1      44.748  10.421  18.799  1.00  0.00    -0.289 OA
BRANCH  11  13
ATOM     13  C   UNL     1      45.326   9.175  20.726  1.00  0.00     0.064 A 
ATOM     14  C   UNL     1      44.260   9.643  21.526  1.00  0.00     0.130 A 
ATOM     15  C   UNL     1      46.348   8.420  21.325  1.00  0.00     0.020 A 
ATOM     16  C   UNL     1      44.256   9.385  22.906  1.00  0.00     0.093 A 
ATOM     17  C   UNL     1      46.332   8.163  22.699  1.00  0.00     0.047 A 
ATOM     18  C   UNL     1      45.291   8.647  23.492  1.00  0.00     0.119 A 
BRANCH  14  19
ATOM     19  O   UNL     1      43.194  10.339  20.953  1.00  0.00    -0.507 OA
ATOM     20  H   UNL     1      43.077  10.399  19.948  1.00  0.00     0.293 HD
ENDBRANCH  14  19
BRANCH  18  21
ATOM     21  O   UNL     1      45.291   8.386  24.861  1.00  0.00    -0.508 OA
ATOM     22  H   UNL     1      45.372   7.443  25.221  1.00  0.00     0.293 HD
ENDBRANCH  18  21
ENDBRANCH  11  13
ENDBRANCH   2  11
TORSDOF 6
ENDMDL
MODEL 7
REMARK VINA RESULT:    -5.856      1.522      2.506
REMARK INTER + INTRA:          -7.981
REMARK INTER:                  -7.309
REMARK INTRA:                  -0.672
REMARK UNBOUND:                -0.584
REMARK SMILES O=C(C=Cc1ccc(O)cc1)c1ccc(O)cc1O
REMARK SMILES IDX 4 1 3 2 5 3 6 4 7 5 8 6 11 7 10 8 9 9 2 11 1 12 12 13 18 14
REMARK SMILES IDX 13 15 17 16 14 17 15 18 19 19 16 21
REMARK H PARENT 9 10 19 20 16 22
REMARK Flexibility Score: inf
ROOT
ATOM      1  C   UNL     1      45.624   8.620  20.969  1.00  0.00     0.012 C 
ATOM      2  C   UNL     1      45.673   9.918  21.304  1.00  0.00     0.053 C 
ENDROOT
BRANCH   1   3
ATOM      3  C   UNL     1      45.651   8.131  19.568  1.00  0.00    -0.025 A 
ATOM      4  C   UNL     1      44.674   8.496  18.619  1.00  0.00     0.012 A 
ATOM      5  C   UNL     1      44.737   7.998  17.314  1.00  0.00     0.047 A 
ATOM      6  C   UNL     1      45.763   7.128  16.939  1.00  0.00     0.115 A 
ATOM      7  C   UNL     1      46.671   7.243  19.185  1.00  0.00     0.012 A 
ATOM      8  C   UNL     1      46.729   6.749  17.878  1.00  0.00     0.047 A 
BRANCH   6   9
ATOM      9  O   UNL     1      45.812   6.642  15.634  1.00  0.00    -0.508 OA
ATOM     10  H   UNL     1      45.088   6.035  15.268  1.00  0.00     0.293 HD
ENDBRANCH   6   9
ENDBRANCH   1   3
BRANCH   2  11
ATOM     11  C   UNL     1      45.660  10.368  22.713  1.00  0.00     0.189 C 
ATOM     12  O   UNL     1      46.692  10.893  23.215  1.00  0.00    -0.289 OA
BRANCH  11  13
ATOM     13  C   UNL     1      44.434  10.261  23.539  1.00  0.00     0.064 A 
ATOM     14  C   UNL     1      44.329   9.333  24.598  1.00  0.00     0.130 A 
ATOM     15  C   UNL     1      43.357  11.125  23.278  1.00  0.00     0.020 A 
ATOM     16  C   UNL     1      43.143   9.257  25.345  1.00  0.00     0.093 A 
ATOM     17  C   UNL     1      42.182  11.046  24.031  1.00  0.00     0.047 A 
ATOM     18  C   UNL     1      42.070  10.111  25.062  1.00  0.00     0.119 A 
BRANCH  14  19
ATOM     19  O   UNL     1      45.403   8.506  24.928  1.00  0.00    -0.507 OA
ATOM     20  H   UNL     1      45.282   7.512  25.084  1.00  0.00     0.293 HD
ENDBRANCH  14  19
BRANCH  18  21
ATOM     21  O   UNL     1      40.891  10.041  25.801  1.00  0.00    -0.508 OA
ATOM     22  H   UNL     1      40.000   9.851  25.359  1.00  0.00     0.293 HD
ENDBRANCH  18  21
ENDBRANCH  11  13
ENDBRANCH   2  11
TORSDOF 6
ENDMDL
MODEL 8
REMARK VINA RESULT:    -5.513      2.028      8.071
REMARK INTER + INTRA:          -7.547
REMARK INTER:                  -7.740
REMARK INTRA:                   0.193
REMARK UNBOUND:                -0.584
REMARK SMILES O=C(C=Cc1ccc(O)cc1)c1ccc(O)cc1O
REMARK SMILES IDX 4 1 3 2 5 3 6 4 7 5 8 6 11 7 10 8 9 9 2 11 1 12 12 13 18 14
REMARK SMILES IDX 13 15 17 16 14 17 15 18 19 19 16 21
REMARK H PARENT 9 10 19 20 16 22
REMARK Flexibility Score: inf
ROOT
ATOM      1  C   UNL     1      44.510   8.668  19.573  1.00  0.00     0.012 C 
ATOM      2  C   UNL     1      45.424   8.653  18.592  1.00  0.00     0.053 C 
ENDROOT
BRANCH   1   3
ATOM      3  C   UNL     1      44.794   9.128  20.955  1.00  0.00    -0.025 A 
ATOM      4  C   UNL     1      44.213   8.526  22.089  1.00  0.00     0.012 A 
ATOM      5  C   UNL     1      44.503   9.005  23.371  1.00  0.00     0.047 A 
ATOM      6  C   UNL     1      45.365  10.092  23.539  1.00  0.00     0.115 A 
ATOM      7  C   UNL     1      45.647  10.231  21.134  1.00  0.00     0.012 A 
ATOM      8  C   UNL     1      45.935  10.706  22.418  1.00  0.00     0.047 A 
BRANCH   6   9
ATOM      9  O   UNL     1      45.645  10.557  24.823  1.00  0.00    -0.508 OA
ATOM     10  H   UNL     1      44.920  10.635  25.526  1.00  0.00     0.293 HD
ENDBRANCH   6   9
ENDBRANCH   1   3
BRANCH   2  11
ATOM     11  C   UNL     1      45.101   8.202  17.221  1.00  0.00     0.189 C 
ATOM     12  O   UNL     1      44.084   8.661  16.631  1.00  0.00    -0.289 OA
BRANCH  11  13
ATOM     13  C   UNL     1      45.981   7.252  16.501  1.00  0.00     0.064 A 
ATOM     14  C   UNL     1      46.817   6.344  17.188  1.00  0.00     0.130 A 
ATOM     15  C   UNL     1      45.964   7.236  15.096  1.00  0.00     0.020 A 
ATOM     16  C   UNL     1      47.645   5.472  16.464  1.00  0.00     0.093 A 
ATOM     17  C   UNL     1      46.788   6.360  14.384  1.00  0.00     0.047 A 
ATOM     18  C   UNL     1      47.632   5.480  15.064  1.00  0.00     0.119 A 
BRANCH  14  19
ATOM     19  O   UNL     1      46.808   6.286  18.582  1.00  0.00    -0.507 OA
ATOM     20  H   UNL     1      47.641   6.049  19.110  1.00  0.00     0.293 HD
ENDBRANCH  14  19
BRANCH  18  21
ATOM     21  O   UNL     1      48.451   4.615  14.341  1.00  0.00    -0.508 OA
ATOM     22  H   UNL     1      48.185   4.277  13.424  1.00  0.00     0.293 HD
ENDBRANCH  18  21
ENDBRANCH  11  13
ENDBRANCH   2  11
TORSDOF 6
ENDMDL
MODEL 9
REMARK VINA RESULT:    -5.510      1.690      7.729
REMARK INTER + INTRA:          -7.543
REMARK INTER:                  -6.906
REMARK INTRA:                  -0.637
REMARK UNBOUND:                -0.584
REMARK SMILES O=C(C=Cc1ccc(O)cc1)c1ccc(O)cc1O
REMARK SMILES IDX 4 1 3 2 5 3 6 4 7 5 8 6 11 7 10 8 9 9 2 11 1 12 12 13 18 14
REMARK SMILES IDX 13 15 17 16 14 17 15 18 19 19 16 21
REMARK H PARENT 9 10 19 20 16 22
REMARK Flexibility Score: inf
ROOT
ATOM      1  C   UNL     1      45.848   9.818  21.121  1.00  0.00     0.012 C 
ATOM      2  C   UNL     1      45.340   9.288  19.998  1.00  0.00     0.053 C 
ENDROOT
BRANCH   1   3
ATOM      3  C   UNL     1      45.292   9.565  22.473  1.00  0.00    -0.025 A 
ATOM      4  C   UNL     1      45.948   8.757  23.424  1.00  0.00     0.012 A 
ATOM      5  C   UNL     1      45.377   8.540  24.682  1.00  0.00     0.047 A 
ATOM      6  C   UNL     1      44.145   9.114  25.006  1.00  0.00     0.115 A 
ATOM      7  C   UNL     1      44.046  10.125  22.803  1.00  0.00     0.012 A 
ATOM      8  C   UNL     1      43.479   9.905  24.063  1.00  0.00     0.047 A 
BRANCH   6   9
ATOM      9  O   UNL     1      43.589   8.888  26.264  1.00  0.00    -0.508 OA
ATOM     10  H   UNL     1      42.588   8.919  26.413  1.00  0.00     0.293 HD
ENDBRANCH   6   9
ENDBRANCH   1   3
BRANCH   2  11
ATOM     11  C   UNL     1      45.930   9.549  18.667  1.00  0.00     0.189 C 
ATOM     12  O   UNL     1      46.342  10.707  18.379  1.00  0.00    -0.289 OA
BRANCH  11  13
ATOM     13  C   UNL     1      46.095   8.460  17.677  1.00  0.00     0.064 A 
ATOM     14  C   UNL     1      45.622   8.582  16.351  1.00  0.00     0.130 A 
ATOM     15  C   UNL     1      46.763   7.284  18.058  1.00  0.00     0.020 A 
ATOM     16  C   UNL     1      45.788   7.518  15.450  1.00  0.00     0.093 A 
ATOM     17  C   UNL     1      46.928   6.233  17.152  1.00  0.00     0.047 A 
ATOM     18  C   UNL     1      46.439   6.345  15.849  1.00  0.00     0.119 A 
BRANCH  14  19
ATOM     19  O   UNL     1      45.014   9.761  15.919  1.00  0.00    -0.507 OA
ATOM     20  H   UNL     1      45.491  10.412  15.305  1.00  0.00     0.293 HD
ENDBRANCH  14  19
BRANCH  18  21
ATOM     21  O   UNL     1      46.607   5.287  14.959  1.00  0.00    -0.508 OA
ATOM     22  H   UNL     1      46.503   4.324  15.255  1.00  0.00     0.293 HD
ENDBRANCH  18  21
ENDBRANCH  11  13
ENDBRANCH   2  11
TORSDOF 6
ENDMDL
