MODEL 1
REMARK VINA RESULT:    -2.807      0.000      0.000
REMARK INTER + INTRA:          -3.331
REMARK INTER:                  -3.299
REMARK INTRA:                  -0.032
REMARK UNBOUND:                -0.032
REMARK SMILES CCCCC(=O)[O-]
REMARK SMILES IDX 4 1 5 2 6 3 7 4 3 5 2 6 1 7
REMARK H PARENT
REMARK Flexibility Score: inf
ROOT
ATOM      1  C   UNL     1      53.998  18.033  85.342  1.00  0.00     0.053 C 
ENDROOT
BRANCH   1   2
ATOM      2  C   UNL     1      52.786  18.625  84.695  1.00  0.00     0.041 C 
ATOM      3  O   UNL     1      51.690  18.004  84.710  1.00  0.00    -0.550 OA
ATOM      4  O   UNL     1      52.878  19.843  84.032  1.00  0.00    -0.550 OA
ENDBRANCH   1   2
BRANCH   1   5
ATOM      5  C   UNL     1      55.228  18.225  84.451  1.00  0.00     0.006 C 
BRANCH   5   6
ATOM      6  C   UNL     1      56.124  16.980  84.476  1.00  0.00    -0.003 C 
ATOM      7  C   UNL     1      56.124  16.328  85.855  1.00  0.00     0.004 C 
ENDBRANCH   5   6
ENDBRANCH   1   5
TORSDOF 3
ENDMDL
MODEL 2
REMARK VINA RESULT:    -2.804      0.144      1.233
REMARK INTER + INTRA:          -3.328
REMARK INTER:                  -3.291
REMARK INTRA:                  -0.036
REMARK UNBOUND:                -0.032
REMARK SMILES CCCCC(=O)[O-]
REMARK SMILES IDX 4 1 5 2 6 3 7 4 3 5 2 6 1 7
REMARK H PARENT
REMARK Flexibility Score: inf
ROOT
ATOM      1  C   UNL     1      54.070  18.117  85.422  1.00  0.00     0.053 C 
ENDROOT
BRANCH   1   2
ATOM      2  C   UNL     1      52.819  18.646  84.793  1.00  0.00     0.041 C 
ATOM      3  O   UNL     1      52.817  19.777  84.238  1.00  0.00    -0.550 OA
ATOM      4  O   UNL     1      51.643  17.910  84.862  1.00  0.00    -0.550 OA
ENDBRANCH   1   2
BRANCH   1   5
ATOM      5  C   UNL     1      55.265  18.314  84.485  1.00  0.00     0.006 C 
BRANCH   5   6
ATOM      6  C   UNL     1      56.124  17.046  84.416  1.00  0.00    -0.003 C 
ATOM      7  C   UNL     1      56.125  16.306  85.750  1.00  0.00     0.004 C 
ENDBRANCH   5   6
ENDBRANCH   1   5
TORSDOF 3
ENDMDL
MODEL 3
REMARK VINA RESULT:    -2.691     17.137     18.040
REMARK INTER + INTRA:          -3.195
REMARK INTER:                  -3.174
REMARK INTRA:                  -0.021
REMARK UNBOUND:                -0.032
REMARK SMILES CCCCC(=O)[O-]
REMARK SMILES IDX 4 1 5 2 6 3 7 4 3 5 2 6 1 7
REMARK H PARENT
REMARK Flexibility Score: inf
ROOT
ATOM      1  C   UNL     1      43.622  31.220  88.662  1.00  0.00     0.053 C 
ENDROOT
BRANCH   1   2
ATOM      2  C   UNL     1      44.480  31.150  89.886  1.00  0.00     0.041 C 
ATOM      3  O   UNL     1      45.666  31.572  89.854  1.00  0.00    -0.550 OA
ATOM      4  O   UNL     1      43.984  30.575  91.049  1.00  0.00    -0.550 OA
ENDBRANCH   1   2
BRANCH   1   5
ATOM      5  C   UNL     1      42.292  30.500  88.899  1.00  0.00     0.006 C 
BRANCH   5   6
ATOM      6  C   UNL     1      41.256  30.899  87.842  1.00  0.00    -0.003 C 
ATOM      7  C   UNL     1      39.834  30.712  88.364  1.00  0.00     0.004 C 
ENDBRANCH   5   6
ENDBRANCH   1   5
TORSDOF 3
ENDMDL
MODEL 4
REMARK VINA RESULT:    -2.680     17.072     17.959
REMARK INTER + INTRA:          -3.183
REMARK INTER:                  -3.159
REMARK INTRA:                  -0.024
REMARK UNBOUND:                -0.032
REMARK SMILES CCCCC(=O)[O-]
REMARK SMILES IDX 4 1 5 2 6 3 7 4 3 5 2 6 1 7
REMARK H PARENT
REMARK Flexibility Score: inf
ROOT
ATOM      1  C   UNL     1      43.751  31.271  88.625  1.00  0.00     0.053 C 
ENDROOT
BRANCH   1   2
ATOM      2  C   UNL     1      44.606  31.195  89.851  1.00  0.00     0.041 C 
ATOM      3  O   UNL     1      44.115  30.809  90.944  1.00  0.00    -0.550 OA
ATOM      4  O   UNL     1      45.935  31.598  89.796  1.00  0.00    -0.550 OA
ENDBRANCH   1   2
BRANCH   1   5
ATOM      5  C   UNL     1      42.421  30.546  88.854  1.00  0.00     0.006 C 
BRANCH   5   6
ATOM      6  C   UNL     1      41.380  30.966  87.810  1.00  0.00    -0.003 C 
ATOM      7  C   UNL     1      39.961  30.772  88.337  1.00  0.00     0.004 C 
ENDBRANCH   5   6
ENDBRANCH   1   5
TORSDOF 3
ENDMDL
MODEL 5
REMARK VINA RESULT:    -2.597     14.589     15.831
REMARK INTER + INTRA:          -3.085
REMARK INTER:                  -3.055
REMARK INTRA:                  -0.029
REMARK UNBOUND:                -0.032
REMARK SMILES CCCCC(=O)[O-]
REMARK SMILES IDX 4 1 5 2 6 3 7 4 3 5 2 6 1 7
REMARK H PARENT
REMARK Flexibility Score: inf
ROOT
ATOM      1  C   UNL     1      39.681  19.423  80.071  1.00  0.00     0.053 C 
ENDROOT
BRANCH   1   2
ATOM      2  C   UNL     1      38.284  18.893  79.992  1.00  0.00     0.041 C 
ATOM      3  O   UNL     1      37.308  19.630  80.289  1.00  0.00    -0.550 OA
ATOM      4  O   UNL     1      38.064  17.568  79.635  1.00  0.00    -0.550 OA
ENDBRANCH   1   2
BRANCH   1   5
ATOM      5  C   UNL     1      39.817  20.703  79.241  1.00  0.00     0.006 C 
BRANCH   5   6
ATOM      6  C   UNL     1      40.881  20.539  78.149  1.00  0.00    -0.003 C 
ATOM      7  C   UNL     1      42.252  20.252  78.754  1.00  0.00     0.004 C 
ENDBRANCH   5   6
ENDBRANCH   1   5
TORSDOF 3
ENDMDL
MODEL 6
REMARK VINA RESULT:    -2.592     11.606     12.107
REMARK INTER + INTRA:          -3.079
REMARK INTER:                  -3.058
REMARK INTRA:                  -0.020
REMARK UNBOUND:                -0.032
REMARK SMILES CCCCC(=O)[O-]
REMARK SMILES IDX 4 1 5 2 6 3 7 4 3 5 2 6 1 7
REMARK H PARENT
REMARK Flexibility Score: inf
ROOT
ATOM      1  C   UNL     1      46.303  18.745  75.120  1.00  0.00     0.053 C 
ENDROOT
BRANCH   1   2
ATOM      2  C   UNL     1      46.056  18.031  76.411  1.00  0.00     0.041 C 
ATOM      3  O   UNL     1      45.950  18.679  77.485  1.00  0.00    -0.550 OA
ATOM      4  O   UNL     1      45.990  16.643  76.435  1.00  0.00    -0.550 OA
ENDBRANCH   1   2
BRANCH   1   5
ATOM      5  C   UNL     1      46.995  20.087  75.374  1.00  0.00     0.006 C 
BRANCH   5   6
ATOM      6  C   UNL     1      47.805  20.529  74.149  1.00  0.00    -0.003 C 
ATOM      7  C   UNL     1      48.985  21.406  74.555  1.00  0.00     0.004 C 
ENDBRANCH   5   6
ENDBRANCH   1   5
TORSDOF 3
ENDMDL
MODEL 7
REMARK VINA RESULT:    -2.570      2.533      3.762
REMARK INTER + INTRA:          -3.053
REMARK INTER:                  -2.969
REMARK INTRA:                  -0.084
REMARK UNBOUND:                -0.032
REMARK SMILES CCCCC(=O)[O-]
REMARK SMILES IDX 4 1 5 2 6 3 7 4 3 5 2 6 1 7
REMARK H PARENT
REMARK Flexibility Score: inf
ROOT
ATOM      1  C   UNL     1      55.217  18.129  84.559  1.00  0.00     0.053 C 
ENDROOT
BRANCH   1   2
ATOM      2  C   UNL     1      55.399  17.435  85.872  1.00  0.00     0.041 C 
ATOM      3  O   UNL     1      55.153  18.040  86.949  1.00  0.00    -0.550 OA
ATOM      4  O   UNL     1      55.886  16.135  85.909  1.00  0.00    -0.550 OA
ENDBRANCH   1   2
BRANCH   1   5
ATOM      5  C   UNL     1      54.035  19.099  84.624  1.00  0.00     0.006 C 
BRANCH   5   6
ATOM      6  C   UNL     1      52.711  18.371  84.361  1.00  0.00    -0.003 C 
ATOM      7  C   UNL     1      51.574  18.980  85.176  1.00  0.00     0.004 C 
ENDBRANCH   5   6
ENDBRANCH   1   5
TORSDOF 3
ENDMDL
MODEL 8
REMARK VINA RESULT:    -2.529     17.361     18.190
REMARK INTER + INTRA:          -3.004
REMARK INTER:                  -2.934
REMARK INTRA:                  -0.070
REMARK UNBOUND:                -0.032
REMARK SMILES CCCCC(=O)[O-]
REMARK SMILES IDX 4 1 5 2 6 3 7 4 3 5 2 6 1 7
REMARK H PARENT
REMARK Flexibility Score: inf
ROOT
ATOM      1  C   UNL     1      42.039  29.389  89.359  1.00  0.00     0.053 C 
ENDROOT
BRANCH   1   2
ATOM      2  C   UNL     1      42.883  29.758  90.538  1.00  0.00     0.041 C 
ATOM      3  O   UNL     1      43.785  30.629  90.424  1.00  0.00    -0.550 OA
ATOM      4  O   UNL     1      42.707  29.103  91.751  1.00  0.00    -0.550 OA
ENDBRANCH   1   2
BRANCH   1   5
ATOM      5  C   UNL     1      40.652  30.028  89.473  1.00  0.00     0.006 C 
BRANCH   5   6
ATOM      6  C   UNL     1      40.303  30.812  88.203  1.00  0.00    -0.003 C 
ATOM      7  C   UNL     1      41.560  31.211  87.437  1.00  0.00     0.004 C 
ENDBRANCH   5   6
ENDBRANCH   1   5
TORSDOF 3
ENDMDL
MODEL 9
REMARK VINA RESULT:    -2.522     17.476     17.887
REMARK INTER + INTRA:          -2.996
REMARK INTER:                  -2.952
REMARK INTRA:                  -0.044
REMARK UNBOUND:                -0.032
REMARK SMILES CCCCC(=O)[O-]
REMARK SMILES IDX 4 1 5 2 6 3 7 4 3 5 2 6 1 7
REMARK H PARENT
REMARK Flexibility Score: inf
ROOT
ATOM      1  C   UNL     1      42.495  30.447  88.999  1.00  0.00     0.053 C 
ENDROOT
BRANCH   1   2
ATOM      2  C   UNL     1      41.417  30.933  88.083  1.00  0.00     0.041 C 
ATOM      3  O   UNL     1      41.711  31.589  87.048  1.00  0.00    -0.550 OA
ATOM      4  O   UNL     1      40.083  30.703  88.397  1.00  0.00    -0.550 OA
ENDBRANCH   1   2
BRANCH   1   5
ATOM      5  C   UNL     1      43.770  31.273  88.811  1.00  0.00     0.006 C 
BRANCH   5   6
ATOM      6  C   UNL     1      44.676  31.174  90.045  1.00  0.00    -0.003 C 
ATOM      7  C   UNL     1      43.995  30.398  91.168  1.00  0.00     0.004 C 
ENDBRANCH   5   6
ENDBRANCH   1   5
TORSDOF 3
ENDMDL
