MODEL 1
REMARK VINA RESULT:    -4.405      0.000      0.000
REMARK INTER + INTRA:          -8.854
REMARK INTER:                  -6.980
REMARK INTRA:                  -1.874
REMARK UNBOUND:                -1.874
REMARK SMILES C=CCCCCCCCCCCC
REMARK SMILES IDX 7 1 8 2 9 3 10 4 11 5 12 6 13 7 6 8 5 9 4 10 3 11 2 12 1 13
REMARK H PARENT
REMARK Flexibility Score: inf
ROOT
ATOM      1  C   UNL     1     110.891 111.965 112.093  1.00  0.00     0.000 C 
ENDROOT
BRANCH   1   2
ATOM      2  C   UNL     1     112.379 111.724 112.370  1.00  0.00     0.000 C 
BRANCH   2   3
ATOM      3  C   UNL     1     113.241 112.164 111.180  1.00  0.00    -0.000 C 
BRANCH   3   4
ATOM      4  C   UNL     1     112.364 112.572 109.987  1.00  0.00    -0.000 C 
BRANCH   4   5
ATOM      5  C   UNL     1     112.835 111.947 108.664  1.00  0.00    -0.000 C 
BRANCH   5   6
ATOM      6  C   UNL     1     113.398 110.530 108.847  1.00  0.00    -0.003 C 
ATOM      7  C   UNL     1     112.964 109.616 107.705  1.00  0.00     0.004 C 
ENDBRANCH   5   6
ENDBRANCH   4   5
ENDBRANCH   3   4
ENDBRANCH   2   3
ENDBRANCH   1   2
BRANCH   1   8
ATOM      8  C   UNL     1     110.038 110.797 112.603  1.00  0.00     0.000 C 
BRANCH   8   9
ATOM      9  C   UNL     1     109.134 110.247 111.491  1.00  0.00     0.000 C 
BRANCH   9  10
ATOM     10  C   UNL     1     109.922 109.676 110.299  1.00  0.00     0.004 C 
BRANCH  10  11
ATOM     11  C   UNL     1     109.491 110.245 108.934  1.00  0.00     0.027 C 
BRANCH  11  12
ATOM     12  C   UNL     1     108.953 111.648 109.027  1.00  0.00    -0.035 C 
ATOM     13  C   UNL     1     109.093 112.525 108.029  1.00  0.00     0.004 C 
ENDBRANCH  11  12
ENDBRANCH  10  11
ENDBRANCH   9  10
ENDBRANCH   8   9
ENDBRANCH   1   8
TORSDOF 10
ENDMDL
MODEL 2
REMARK VINA RESULT:    -4.350      2.344      4.779
REMARK INTER + INTRA:          -8.767
REMARK INTER:                  -6.782
REMARK INTRA:                  -1.985
REMARK UNBOUND:                -1.874
REMARK SMILES C=CCCCCCCCCCCC
REMARK SMILES IDX 7 1 8 2 9 3 10 4 11 5 12 6 13 7 6 8 5 9 4 10 3 11 2 12 1 13
REMARK H PARENT
REMARK Flexibility Score: inf
ROOT
ATOM      1  C   UNL     1     109.310 110.222 107.805  1.00  0.00     0.000 C 
ENDROOT
BRANCH   1   2
ATOM      2  C   UNL     1     109.164 110.135 106.281  1.00  0.00     0.000 C 
BRANCH   2   3
ATOM      3  C   UNL     1     110.386 109.458 105.648  1.00  0.00    -0.000 C 
BRANCH   3   4
ATOM      4  C   UNL     1     111.241 110.476 104.879  1.00  0.00    -0.000 C 
BRANCH   4   5
ATOM      5  C   UNL     1     110.677 111.904 104.961  1.00  0.00    -0.000 C 
BRANCH   5   6
ATOM      6  C   UNL     1     111.606 112.865 105.717  1.00  0.00    -0.003 C 
ATOM      7  C   UNL     1     113.071 112.546 105.437  1.00  0.00     0.004 C 
ENDBRANCH   5   6
ENDBRANCH   4   5
ENDBRANCH   3   4
ENDBRANCH   2   3
ENDBRANCH   1   2
BRANCH   1   8
ATOM      8  C   UNL     1     108.936 111.619 108.316  1.00  0.00     0.000 C 
BRANCH   8   9
ATOM      9  C   UNL     1     110.112 112.267 109.061  1.00  0.00     0.000 C 
BRANCH   9  10
ATOM     10  C   UNL     1     111.216 111.262 109.434  1.00  0.00     0.004 C 
BRANCH  10  11
ATOM     11  C   UNL     1     112.643 111.759 109.130  1.00  0.00     0.027 C 
BRANCH  11  12
ATOM     12  C   UNL     1     113.509 110.703 108.497  1.00  0.00    -0.035 C 
ATOM     13  C   UNL     1     113.009 109.537 108.080  1.00  0.00     0.004 C 
ENDBRANCH  11  12
ENDBRANCH  10  11
ENDBRANCH   9  10
ENDBRANCH   8   9
ENDBRANCH   1   8
TORSDOF 10
ENDMDL
MODEL 3
REMARK VINA RESULT:    -4.349      2.020      4.485
REMARK INTER + INTRA:          -8.765
REMARK INTER:                  -6.827
REMARK INTRA:                  -1.938
REMARK UNBOUND:                -1.874
REMARK SMILES C=CCCCCCCCCCCC
REMARK SMILES IDX 7 1 8 2 9 3 10 4 11 5 12 6 13 7 6 8 5 9 4 10 3 11 2 12 1 13
REMARK H PARENT
REMARK Flexibility Score: inf
ROOT
ATOM      1  C   UNL     1     111.620 112.585 110.737  1.00  0.00     0.000 C 
ENDROOT
BRANCH   1   2
ATOM      2  C   UNL     1     112.981 112.131 111.279  1.00  0.00     0.000 C 
BRANCH   2   3
ATOM      3  C   UNL     1     112.892 111.775 112.768  1.00  0.00    -0.000 C 
BRANCH   3   4
ATOM      4  C   UNL     1     113.242 110.298 113.002  1.00  0.00    -0.000 C 
BRANCH   4   5
ATOM      5  C   UNL     1     112.489 109.695 114.199  1.00  0.00    -0.000 C 
BRANCH   5   6
ATOM      6  C   UNL     1     112.393 110.663 115.387  1.00  0.00    -0.003 C 
ATOM      7  C   UNL     1     111.320 110.215 116.375  1.00  0.00     0.004 C 
ENDBRANCH   5   6
ENDBRANCH   4   5
ENDBRANCH   3   4
ENDBRANCH   2   3
ENDBRANCH   1   2
BRANCH   1   8
ATOM      8  C   UNL     1     110.940 111.461 109.944  1.00  0.00     0.000 C 
BRANCH   8   9
ATOM      9  C   UNL     1     109.576 111.105 110.553  1.00  0.00     0.000 C 
BRANCH   9  10
ATOM     10  C   UNL     1     109.650 109.944 111.561  1.00  0.00     0.004 C 
BRANCH  10  11
ATOM     11  C   UNL     1     109.250 110.335 112.996  1.00  0.00     0.027 C 
BRANCH  11  12
ATOM     12  C   UNL     1     108.928 111.799 113.137  1.00  0.00    -0.035 C 
ATOM     13  C   UNL     1     109.572 112.583 114.005  1.00  0.00     0.004 C 
ENDBRANCH  11  12
ENDBRANCH  10  11
ENDBRANCH   9  10
ENDBRANCH   8   9
ENDBRANCH   1   8
TORSDOF 10
ENDMDL
MODEL 4
REMARK VINA RESULT:    -4.303      1.097      3.759
REMARK INTER + INTRA:          -8.692
REMARK INTER:                  -6.879
REMARK INTRA:                  -1.813
REMARK UNBOUND:                -1.874
REMARK SMILES C=CCCCCCCCCCCC
REMARK SMILES IDX 7 1 8 2 9 3 10 4 11 5 12 6 13 7 6 8 5 9 4 10 3 11 2 12 1 13
REMARK H PARENT
REMARK Flexibility Score: inf
ROOT
ATOM      1  C   UNL     1     112.051 110.820 112.051  1.00  0.00     0.000 C 
ENDROOT
BRANCH   1   2
ATOM      2  C   UNL     1     110.778 111.105 112.855  1.00  0.00     0.000 C 
BRANCH   2   3
ATOM      3  C   UNL     1     109.580 111.342 111.926  1.00  0.00    -0.000 C 
BRANCH   3   4
ATOM      4  C   UNL     1     109.423 110.186 110.927  1.00  0.00    -0.000 C 
BRANCH   4   5
ATOM      5  C   UNL     1     109.356 110.669 109.469  1.00  0.00    -0.000 C 
BRANCH   5   6
ATOM      6  C   UNL     1     109.513 112.191 109.343  1.00  0.00    -0.003 C 
ATOM      7  C   UNL     1     109.256 112.652 107.911  1.00  0.00     0.004 C 
ENDBRANCH   5   6
ENDBRANCH   4   5
ENDBRANCH   3   4
ENDBRANCH   2   3
ENDBRANCH   1   2
BRANCH   1   8
ATOM      8  C   UNL     1     112.761 112.124 111.662  1.00  0.00     0.000 C 
BRANCH   8   9
ATOM      9  C   UNL     1     113.126 112.128 110.170  1.00  0.00     0.000 C 
BRANCH   9  10
ATOM     10  C   UNL     1     113.039 110.735 109.523  1.00  0.00     0.004 C 
BRANCH  10  11
ATOM     11  C   UNL     1     112.868 110.765 107.993  1.00  0.00     0.027 C 
BRANCH  11  12
ATOM     12  C   UNL     1     112.925 112.158 107.423  1.00  0.00    -0.035 C 
ATOM     13  C   UNL     1     112.945 112.381 106.107  1.00  0.00     0.004 C 
ENDBRANCH  11  12
ENDBRANCH  10  11
ENDBRANCH   9  10
ENDBRANCH   8   9
ENDBRANCH   1   8
TORSDOF 10
ENDMDL
MODEL 5
REMARK VINA RESULT:    -4.275      2.333      5.608
REMARK INTER + INTRA:          -8.649
REMARK INTER:                  -6.745
REMARK INTRA:                  -1.904
REMARK UNBOUND:                -1.874
REMARK SMILES C=CCCCCCCCCCCC
REMARK SMILES IDX 7 1 8 2 9 3 10 4 11 5 12 6 13 7 6 8 5 9 4 10 3 11 2 12 1 13
REMARK H PARENT
REMARK Flexibility Score: inf
ROOT
ATOM      1  C   UNL     1     112.781 110.623 111.657  1.00  0.00     0.000 C 
ENDROOT
BRANCH   1   2
ATOM      2  C   UNL     1     111.693 110.814 110.594  1.00  0.00     0.000 C 
BRANCH   2   3
ATOM      3  C   UNL     1     110.582 109.767 110.747  1.00  0.00    -0.000 C 
BRANCH   3   4
ATOM      4  C   UNL     1     109.318 110.392 111.354  1.00  0.00    -0.000 C 
BRANCH   4   5
ATOM      5  C   UNL     1     109.290 110.297 112.888  1.00  0.00    -0.000 C 
BRANCH   5   6
ATOM      6  C   UNL     1     108.817 111.598 113.553  1.00  0.00    -0.003 C 
ATOM      7  C   UNL     1     109.260 112.817 112.749  1.00  0.00     0.004 C 
ENDBRANCH   5   6
ENDBRANCH   4   5
ENDBRANCH   3   4
ENDBRANCH   2   3
ENDBRANCH   1   2
BRANCH   1   8
ATOM      8  C   UNL     1     112.861 111.838 112.589  1.00  0.00     0.000 C 
BRANCH   8   9
ATOM      9  C   UNL     1     112.634 111.427 114.051  1.00  0.00     0.000 C 
BRANCH   9  10
ATOM     10  C   UNL     1     112.673 109.903 114.262  1.00  0.00     0.004 C 
BRANCH  10  11
ATOM     11  C   UNL     1     111.933 109.427 115.527  1.00  0.00     0.027 C 
BRANCH  11  12
ATOM     12  C   UNL     1     111.199 110.538 116.230  1.00  0.00    -0.035 C 
ATOM     13  C   UNL     1     109.999 110.350 116.785  1.00  0.00     0.004 C 
ENDBRANCH  11  12
ENDBRANCH  10  11
ENDBRANCH   9  10
ENDBRANCH   8   9
ENDBRANCH   1   8
TORSDOF 10
ENDMDL
MODEL 6
REMARK VINA RESULT:    -4.218      1.212      5.172
REMARK INTER + INTRA:          -8.558
REMARK INTER:                  -6.773
REMARK INTRA:                  -1.785
REMARK UNBOUND:                -1.874
REMARK SMILES C=CCCCCCCCCCCC
REMARK SMILES IDX 7 1 8 2 9 3 10 4 11 5 12 6 13 7 6 8 5 9 4 10 3 11 2 12 1 13
REMARK H PARENT
REMARK Flexibility Score: inf
ROOT
ATOM      1  C   UNL     1     111.017 111.420 108.111  1.00  0.00     0.000 C 
ENDROOT
BRANCH   1   2
ATOM      2  C   UNL     1     109.639 110.841 108.454  1.00  0.00     0.000 C 
BRANCH   2   3
ATOM      3  C   UNL     1     109.228 111.206 109.886  1.00  0.00    -0.000 C 
BRANCH   3   4
ATOM      4  C   UNL     1     109.254 109.970 110.797  1.00  0.00    -0.000 C 
BRANCH   4   5
ATOM      5  C   UNL     1     109.260 110.336 112.290  1.00  0.00    -0.000 C 
BRANCH   5   6
ATOM      6  C   UNL     1     109.340 111.851 112.528  1.00  0.00    -0.003 C 
ATOM      7  C   UNL     1     109.820 112.160 113.943  1.00  0.00     0.004 C 
ENDBRANCH   5   6
ENDBRANCH   4   5
ENDBRANCH   3   4
ENDBRANCH   2   3
ENDBRANCH   1   2
BRANCH   1   8
ATOM      8  C   UNL     1     112.125 110.386 108.351  1.00  0.00     0.000 C 
BRANCH   8   9
ATOM      9  C   UNL     1     113.230 110.961 109.249  1.00  0.00     0.000 C 
BRANCH   9  10
ATOM     10  C   UNL     1     112.811 112.256 109.967  1.00  0.00     0.004 C 
BRANCH  10  11
ATOM     11  C   UNL     1     112.920 112.185 111.502  1.00  0.00     0.027 C 
BRANCH  11  12
ATOM     12  C   UNL     1     112.883 110.774 112.027  1.00  0.00    -0.035 C 
ATOM     13  C   UNL     1     113.284 110.472 113.265  1.00  0.00     0.004 C 
ENDBRANCH  11  12
ENDBRANCH  10  11
ENDBRANCH   9  10
ENDBRANCH   8   9
ENDBRANCH   1   8
TORSDOF 10
ENDMDL
MODEL 7
REMARK VINA RESULT:    -4.208      1.448      4.042
REMARK INTER + INTRA:          -8.542
REMARK INTER:                  -6.665
REMARK INTRA:                  -1.877
REMARK UNBOUND:                -1.874
REMARK SMILES C=CCCCCCCCCCCC
REMARK SMILES IDX 7 1 8 2 9 3 10 4 11 5 12 6 13 7 6 8 5 9 4 10 3 11 2 12 1 13
REMARK H PARENT
REMARK Flexibility Score: inf
ROOT
ATOM      1  C   UNL     1     113.209 111.016 107.882  1.00  0.00     0.000 C 
ENDROOT
BRANCH   1   2
ATOM      2  C   UNL     1     112.963 111.137 109.390  1.00  0.00     0.000 C 
BRANCH   2   3
ATOM      3  C   UNL     1     112.293 109.873 109.943  1.00  0.00    -0.000 C 
BRANCH   3   4
ATOM      4  C   UNL     1     111.722 110.123 111.347  1.00  0.00    -0.000 C 
BRANCH   4   5
ATOM      5  C   UNL     1     111.267 111.577 111.550  1.00  0.00    -0.000 C 
BRANCH   5   6
ATOM      6  C   UNL     1     109.800 111.681 111.990  1.00  0.00    -0.003 C 
ATOM      7  C   UNL     1     109.113 110.319 111.941  1.00  0.00     0.004 C 
ENDBRANCH   5   6
ENDBRANCH   4   5
ENDBRANCH   3   4
ENDBRANCH   2   3
ENDBRANCH   1   2
BRANCH   1   8
ATOM      8  C   UNL     1     112.778 109.640 107.361  1.00  0.00     0.000 C 
BRANCH   8   9
ATOM      9  C   UNL     1     111.877 109.775 106.125  1.00  0.00     0.000 C 
BRANCH   9  10
ATOM     10  C   UNL     1     110.711 110.758 106.333  1.00  0.00     0.004 C 
BRANCH  10  11
ATOM     11  C   UNL     1     109.557 110.189 107.182  1.00  0.00     0.027 C 
BRANCH  11  12
ATOM     12  C   UNL     1     109.137 111.112 108.294  1.00  0.00    -0.035 C 
ATOM     13  C   UNL     1     109.489 112.400 108.313  1.00  0.00     0.004 C 
ENDBRANCH  11  12
ENDBRANCH  10  11
ENDBRANCH   9  10
ENDBRANCH   8   9
ENDBRANCH   1   8
TORSDOF 10
ENDMDL
MODEL 8
REMARK VINA RESULT:    -4.200      2.596      5.675
REMARK INTER + INTRA:          -8.530
REMARK INTER:                  -6.753
REMARK INTRA:                  -1.777
REMARK UNBOUND:                -1.874
REMARK SMILES C=CCCCCCCCCCCC
REMARK SMILES IDX 7 1 8 2 9 3 10 4 11 5 12 6 13 7 6 8 5 9 4 10 3 11 2 12 1 13
REMARK H PARENT
REMARK Flexibility Score: inf
ROOT
ATOM      1  C   UNL     1     109.171 110.588 112.867  1.00  0.00     0.000 C 
ENDROOT
BRANCH   1   2
ATOM      2  C   UNL     1     109.144 112.103 113.100  1.00  0.00     0.000 C 
BRANCH   2   3
ATOM      3  C   UNL     1     109.955 112.485 114.345  1.00  0.00    -0.000 C 
BRANCH   3   4
ATOM      4  C   UNL     1     109.866 111.388 115.416  1.00  0.00    -0.000 C 
BRANCH   4   5
ATOM      5  C   UNL     1     110.548 111.791 116.733  1.00  0.00    -0.000 C 
BRANCH   5   6
ATOM      6  C   UNL     1     111.939 111.160 116.896  1.00  0.00    -0.003 C 
ATOM      7  C   UNL     1     113.039 112.165 116.569  1.00  0.00     0.004 C 
ENDBRANCH   5   6
ENDBRANCH   4   5
ENDBRANCH   3   4
ENDBRANCH   2   3
ENDBRANCH   1   2
BRANCH   1   8
ATOM      8  C   UNL     1     109.610 110.259 111.434  1.00  0.00     0.000 C 
BRANCH   8   9
ATOM      9  C   UNL     1     110.521 111.358 110.870  1.00  0.00     0.000 C 
BRANCH   9  10
ATOM     10  C   UNL     1     112.017 111.007 110.959  1.00  0.00     0.004 C 
BRANCH  10  11
ATOM     11  C   UNL     1     112.789 111.821 112.014  1.00  0.00     0.027 C 
BRANCH  11  12
ATOM     12  C   UNL     1     113.278 110.979 113.162  1.00  0.00    -0.035 C 
ATOM     13  C   UNL     1     112.770 109.770 113.417  1.00  0.00     0.004 C 
ENDBRANCH  11  12
ENDBRANCH  10  11
ENDBRANCH   9  10
ENDBRANCH   8   9
ENDBRANCH   1   8
TORSDOF 10
ENDMDL
MODEL 9
REMARK VINA RESULT:    -4.192      2.326      4.927
REMARK INTER + INTRA:          -8.516
REMARK INTER:                  -6.691
REMARK INTRA:                  -1.825
REMARK UNBOUND:                -1.874
REMARK SMILES C=CCCCCCCCCCCC
REMARK SMILES IDX 7 1 8 2 9 3 10 4 11 5 12 6 13 7 6 8 5 9 4 10 3 11 2 12 1 13
REMARK H PARENT
REMARK Flexibility Score: inf
ROOT
ATOM      1  C   UNL     1     112.611 111.687 111.401  1.00  0.00     0.000 C 
ENDROOT
BRANCH   1   2
ATOM      2  C   UNL     1     112.885 111.742 112.908  1.00  0.00     0.000 C 
BRANCH   2   3
ATOM      3  C   UNL     1     113.253 110.356 113.453  1.00  0.00    -0.000 C 
BRANCH   3   4
ATOM      4  C   UNL     1     112.462 110.041 114.731  1.00  0.00    -0.000 C 
BRANCH   4   5
ATOM      5  C   UNL     1     112.018 111.308 115.480  1.00  0.00    -0.000 C 
BRANCH   5   6
ATOM      6  C   UNL     1     110.817 111.059 116.403  1.00  0.00    -0.003 C 
ATOM      7  C   UNL     1     110.030 112.345 116.639  1.00  0.00     0.004 C 
ENDBRANCH   5   6
ENDBRANCH   4   5
ENDBRANCH   3   4
ENDBRANCH   2   3
ENDBRANCH   1   2
BRANCH   1   8
ATOM      8  C   UNL     1     112.500 110.237 110.913  1.00  0.00     0.000 C 
BRANCH   8   9
ATOM      9  C   UNL     1     111.153 109.991 110.219  1.00  0.00     0.000 C 
BRANCH   9  10
ATOM     10  C   UNL     1     110.016 110.863 110.780  1.00  0.00     0.004 C 
BRANCH  10  11
ATOM     11  C   UNL     1     109.318 110.263 112.015  1.00  0.00     0.027 C 
BRANCH  11  12
ATOM     12  C   UNL     1     109.094 111.271 113.110  1.00  0.00    -0.035 C 
ATOM     13  C   UNL     1     109.225 112.583 112.899  1.00  0.00     0.004 C 
ENDBRANCH  11  12
ENDBRANCH  10  11
ENDBRANCH   9  10
ENDBRANCH   8   9
ENDBRANCH   1   8
TORSDOF 10
ENDMDL
