MODEL 1
REMARK VINA RESULT:     3.147      0.000      0.000
REMARK INTER + INTRA:           5.398
REMARK INTER:                   5.906
REMARK INTRA:                  -0.508
REMARK UNBOUND:                -0.508
REMARK SMILES CCCCCCCCC=CCCCCCCCC(=O)[O-]
REMARK SMILES IDX 10 1 9 2 11 3 12 4 13 5 14 6 15 7 16 8 17 9 18 10 19 11
REMARK SMILES IDX 20 12 8 13 7 14 6 15 5 16 4 17 3 18 2 19 1 20
REMARK H PARENT
REMARK Flexibility Score: inf
ROOT
ATOM      1  C   UNL     1      12.126  22.049  35.011  1.00  0.00    -0.031 C 
ATOM      2  C   UNL     1      12.148  22.429  33.719  1.00  0.00    -0.031 C 
ENDROOT
BRANCH   1   3
ATOM      3  C   UNL     1      11.649  20.707  35.514  1.00  0.00     0.027 C 
BRANCH   3   4
ATOM      4  C   UNL     1      12.549  19.574  35.009  1.00  0.00     0.004 C 
BRANCH   4   5
ATOM      5  C   UNL     1      11.828  18.671  33.993  1.00  0.00     0.000 C 
BRANCH   5   6
ATOM      6  C   UNL     1      12.781  18.156  32.894  1.00  0.00     0.000 C 
BRANCH   6   7
ATOM      7  C   UNL     1      13.606  19.270  32.226  1.00  0.00     0.000 C 
BRANCH   7   8
ATOM      8  C   UNL     1      15.005  19.427  32.841  1.00  0.00     0.006 C 
BRANCH   8   9
ATOM      9  C   UNL     1      16.052  19.693  31.758  1.00  0.00     0.053 C 
BRANCH   9  10
ATOM     10  C   UNL     1      17.431  19.631  32.336  1.00  0.00     0.041 C 
ATOM     11  O   UNL     1      17.743  20.364  33.311  1.00  0.00    -0.550 OA
ATOM     12  O   UNL     1      18.387  18.800  31.765  1.00  0.00    -0.550 OA
ENDBRANCH   9  10
ENDBRANCH   8   9
ENDBRANCH   7   8
ENDBRANCH   6   7
ENDBRANCH   5   6
ENDBRANCH   4   5
ENDBRANCH   3   4
ENDBRANCH   1   3
BRANCH   2  13
ATOM     13  C   UNL     1      11.761  21.553  32.553  1.00  0.00     0.027 C 
BRANCH  13  14
ATOM     14  C   UNL     1      11.056  22.348  31.443  1.00  0.00     0.004 C 
BRANCH  14  15
ATOM     15  C   UNL     1      11.037  21.582  30.110  1.00  0.00     0.000 C 
BRANCH  15  16
ATOM     16  C   UNL     1      10.504  20.146  30.253  1.00  0.00     0.000 C 
BRANCH  16  17
ATOM     17  C   UNL     1       9.322  19.794  29.326  1.00  0.00    -0.000 C 
BRANCH  17  18
ATOM     18  C   UNL     1       8.577  21.002  28.724  1.00  0.00    -0.000 C 
BRANCH  18  19
ATOM     19  C   UNL     1       7.072  20.781  28.492  1.00  0.00    -0.003 C 
ATOM     20  C   UNL     1       6.261  20.803  29.787  1.00  0.00     0.004 C 
ENDBRANCH  18  19
ENDBRANCH  17  18
ENDBRANCH  16  17
ENDBRANCH  15  16
ENDBRANCH  14  15
ENDBRANCH  13  14
ENDBRANCH   2  13
TORSDOF 15
ENDMDL
MODEL 2
REMARK VINA RESULT:     3.436      3.925      7.361
REMARK INTER + INTRA:           5.941
REMARK INTER:                   6.818
REMARK INTRA:                  -0.877
REMARK UNBOUND:                -0.508
REMARK SMILES CCCCCCCCC=CCCCCCCCC(=O)[O-]
REMARK SMILES IDX 10 1 9 2 11 3 12 4 13 5 14 6 15 7 16 8 17 9 18 10 19 11
REMARK SMILES IDX 20 12 8 13 7 14 6 15 5 16 4 17 3 18 2 19 1 20
REMARK H PARENT
REMARK Flexibility Score: inf
ROOT
ATOM      1  C   UNL     1      11.762  22.151  35.036  1.00  0.00    -0.031 C 
ATOM      2  C   UNL     1      11.808  20.997  35.728  1.00  0.00    -0.031 C 
ENDROOT
BRANCH   1   3
ATOM      3  C   UNL     1      12.453  22.402  33.717  1.00  0.00     0.027 C 
BRANCH   3   4
ATOM      4  C   UNL     1      11.453  22.381  32.555  1.00  0.00     0.004 C 
BRANCH   4   5
ATOM      5  C   UNL     1      11.815  21.323  31.499  1.00  0.00     0.000 C 
BRANCH   5   6
ATOM      6  C   UNL     1      10.751  21.225  30.386  1.00  0.00     0.000 C 
BRANCH   6   7
ATOM      7  C   UNL     1      10.402  19.778  29.996  1.00  0.00     0.000 C 
BRANCH   7   8
ATOM      8  C   UNL     1       9.237  19.692  28.999  1.00  0.00     0.006 C 
BRANCH   8   9
ATOM      9  C   UNL     1       8.533  21.044  28.861  1.00  0.00     0.053 C 
BRANCH   9  10
ATOM     10  C   UNL     1       7.055  20.854  28.738  1.00  0.00     0.041 C 
ATOM     11  O   UNL     1       6.497  20.936  27.612  1.00  0.00    -0.550 OA
ATOM     12  O   UNL     1       6.284  20.637  29.873  1.00  0.00    -0.550 OA
ENDBRANCH   9  10
ENDBRANCH   8   9
ENDBRANCH   7   8
ENDBRANCH   6   7
ENDBRANCH   5   6
ENDBRANCH   4   5
ENDBRANCH   3   4
ENDBRANCH   1   3
BRANCH   2  13
ATOM     13  C   UNL     1      12.505  19.740  35.269  1.00  0.00     0.027 C 
BRANCH  13  14
ATOM     14  C   UNL     1      11.694  18.987  34.203  1.00  0.00     0.004 C 
BRANCH  14  15
ATOM     15  C   UNL     1      12.600  18.220  33.225  1.00  0.00     0.000 C 
BRANCH  15  16
ATOM     16  C   UNL     1      13.444  19.150  32.337  1.00  0.00     0.000 C 
BRANCH  16  17
ATOM     17  C   UNL     1      14.808  19.559  32.932  1.00  0.00    -0.000 C 
BRANCH  17  18
ATOM     18  C   UNL     1      15.973  19.617  31.924  1.00  0.00    -0.000 C 
BRANCH  18  19
ATOM     19  C   UNL     1      17.374  19.652  32.559  1.00  0.00    -0.003 C 
ATOM     20  C   UNL     1      18.383  18.772  31.822  1.00  0.00     0.004 C 
ENDBRANCH  18  19
ENDBRANCH  17  18
ENDBRANCH  16  17
ENDBRANCH  15  16
ENDBRANCH  14  15
ENDBRANCH  13  14
ENDBRANCH   2  13
TORSDOF 15
ENDMDL
MODEL 3
REMARK VINA RESULT:     3.706      0.571      1.048
REMARK INTER + INTRA:           6.448
REMARK INTER:                   7.941
REMARK INTRA:                  -1.493
REMARK UNBOUND:                -0.508
REMARK SMILES CCCCCCCCC=CCCCCCCCC(=O)[O-]
REMARK SMILES IDX 10 1 9 2 11 3 12 4 13 5 14 6 15 7 16 8 17 9 18 10 19 11
REMARK SMILES IDX 20 12 8 13 7 14 6 15 5 16 4 17 3 18 2 19 1 20
REMARK H PARENT
REMARK Flexibility Score: inf
ROOT
ATOM      1  C   UNL     1      12.416  22.347  34.253  1.00  0.00    -0.031 C 
ATOM      2  C   UNL     1      12.090  22.542  32.961  1.00  0.00    -0.031 C 
ENDROOT
BRANCH   1   3
ATOM      3  C   UNL     1      11.674  21.445  35.210  1.00  0.00     0.027 C 
BRANCH   3   4
ATOM      4  C   UNL     1      12.275  20.035  35.219  1.00  0.00     0.004 C 
BRANCH   4   5
ATOM      5  C   UNL     1      11.646  19.131  34.144  1.00  0.00     0.000 C 
BRANCH   5   6
ATOM      6  C   UNL     1      12.712  18.353  33.344  1.00  0.00     0.000 C 
BRANCH   6   7
ATOM      7  C   UNL     1      13.599  19.253  32.466  1.00  0.00     0.000 C 
BRANCH   7   8
ATOM      8  C   UNL     1      15.048  19.335  32.967  1.00  0.00     0.006 C 
BRANCH   8   9
ATOM      9  C   UNL     1      16.017  19.563  31.805  1.00  0.00     0.053 C 
BRANCH   9  10
ATOM     10  C   UNL     1      17.421  19.681  32.309  1.00  0.00     0.041 C 
ATOM     11  O   UNL     1      18.328  18.947  31.838  1.00  0.00    -0.550 OA
ATOM     12  O   UNL     1      17.718  20.569  33.336  1.00  0.00    -0.550 OA
ENDBRANCH   9  10
ENDBRANCH   8   9
ENDBRANCH   7   8
ENDBRANCH   6   7
ENDBRANCH   5   6
ENDBRANCH   4   5
ENDBRANCH   3   4
ENDBRANCH   1   3
BRANCH   2  13
ATOM     13  C   UNL     1      10.968  21.840  32.236  1.00  0.00     0.027 C 
BRANCH  13  14
ATOM     14  C   UNL     1      11.359  21.457  30.800  1.00  0.00     0.004 C 
BRANCH  14  15
ATOM     15  C   UNL     1      11.044  19.984  30.491  1.00  0.00     0.000 C 
BRANCH  15  16
ATOM     16  C   UNL     1       9.973  19.818  29.398  1.00  0.00     0.000 C 
BRANCH  16  17
ATOM     17  C   UNL     1       8.951  20.970  29.307  1.00  0.00    -0.000 C 
BRANCH  17  18
ATOM     18  C   UNL     1       8.109  20.999  28.016  1.00  0.00    -0.000 C 
BRANCH  18  19
ATOM     19  C   UNL     1       6.605  20.741  28.220  1.00  0.00    -0.003 C 
ATOM     20  C   UNL     1       6.183  20.820  29.687  1.00  0.00     0.004 C 
ENDBRANCH  18  19
ENDBRANCH  17  18
ENDBRANCH  16  17
ENDBRANCH  15  16
ENDBRANCH  14  15
ENDBRANCH  13  14
ENDBRANCH   2  13
TORSDOF 15
ENDMDL
MODEL 4
REMARK VINA RESULT:     4.040      3.422      5.518
REMARK INTER + INTRA:           7.074
REMARK INTER:                   7.860
REMARK INTRA:                  -0.786
REMARK UNBOUND:                -0.508
REMARK SMILES CCCCCCCCC=CCCCCCCCC(=O)[O-]
REMARK SMILES IDX 10 1 9 2 11 3 12 4 13 5 14 6 15 7 16 8 17 9 18 10 19 11
REMARK SMILES IDX 20 12 8 13 7 14 6 15 5 16 4 17 3 18 2 19 1 20
REMARK H PARENT
REMARK Flexibility Score: inf
ROOT
ATOM      1  C   UNL     1       9.963  19.992  29.419  1.00  0.00    -0.031 C 
ATOM      2  C   UNL     1       8.780  20.005  28.776  1.00  0.00    -0.031 C 
ENDROOT
BRANCH   1   3
ATOM      3  C   UNL     1      10.491  21.104  30.293  1.00  0.00     0.027 C 
BRANCH   3   4
ATOM      4  C   UNL     1      11.755  20.668  31.042  1.00  0.00     0.004 C 
BRANCH   4   5
ATOM      5  C   UNL     1      11.634  19.238  31.598  1.00  0.00     0.000 C 
BRANCH   5   6
ATOM      6  C   UNL     1      12.967  18.729  32.186  1.00  0.00     0.000 C 
BRANCH   6   7
ATOM      7  C   UNL     1      13.241  19.235  33.613  1.00  0.00     0.000 C 
BRANCH   7   8
ATOM      8  C   UNL     1      11.956  19.506  34.408  1.00  0.00     0.006 C 
BRANCH   8   9
ATOM      9  C   UNL     1      12.242  20.382  35.630  1.00  0.00     0.053 C 
BRANCH   9  10
ATOM     10  C   UNL     1      11.905  21.811  35.341  1.00  0.00     0.041 C 
ATOM     11  O   UNL     1      11.365  22.527  36.225  1.00  0.00    -0.550 OA
ATOM     12  O   UNL     1      12.140  22.338  34.077  1.00  0.00    -0.550 OA
ENDBRANCH   9  10
ENDBRANCH   8   9
ENDBRANCH   7   8
ENDBRANCH   6   7
ENDBRANCH   5   6
ENDBRANCH   4   5
ENDBRANCH   3   4
ENDBRANCH   1   3
BRANCH   2  13
ATOM     13  C   UNL     1       7.755  21.108  28.875  1.00  0.00     0.027 C 
BRANCH  13  14
ATOM     14  C   UNL     1       6.907  21.224  27.598  1.00  0.00     0.004 C 
BRANCH  14  15
ATOM     15  C   UNL     1       7.558  22.150  26.558  1.00  0.00     0.000 C 
BRANCH  15  16
ATOM     16  C   UNL     1       6.527  22.886  25.684  1.00  0.00     0.000 C 
BRANCH  16  17
ATOM     17  C   UNL     1       6.207  24.329  26.129  1.00  0.00    -0.000 C 
BRANCH  17  18
ATOM     18  C   UNL     1       4.732  24.592  26.491  1.00  0.00    -0.000 C 
BRANCH  18  19
ATOM     19  C   UNL     1       4.485  25.883  27.291  1.00  0.00    -0.003 C 
ATOM     20  C   UNL     1       3.323  25.758  28.277  1.00  0.00     0.004 C 
ENDBRANCH  18  19
ENDBRANCH  17  18
ENDBRANCH  16  17
ENDBRANCH  15  16
ENDBRANCH  14  15
ENDBRANCH  13  14
ENDBRANCH   2  13
TORSDOF 15
ENDMDL
MODEL 5
REMARK VINA RESULT:     4.391      5.526      9.565
REMARK INTER + INTRA:           7.733
REMARK INTER:                   8.790
REMARK INTRA:                  -1.057
REMARK UNBOUND:                -0.508
REMARK SMILES CCCCCCCCC=CCCCCCCCC(=O)[O-]
REMARK SMILES IDX 10 1 9 2 11 3 12 4 13 5 14 6 15 7 16 8 17 9 18 10 19 11
REMARK SMILES IDX 20 12 8 13 7 14 6 15 5 16 4 17 3 18 2 19 1 20
REMARK H PARENT
REMARK Flexibility Score: inf
ROOT
ATOM      1  C   UNL     1       9.260  19.833  29.058  1.00  0.00    -0.031 C 
ATOM      2  C   UNL     1      10.347  19.724  29.846  1.00  0.00    -0.031 C 
ENDROOT
BRANCH   1   3
ATOM      3  C   UNL     1       8.469  21.101  28.839  1.00  0.00     0.027 C 
BRANCH   3   4
ATOM      4  C   UNL     1       6.969  20.803  28.723  1.00  0.00     0.004 C 
BRANCH   4   5
ATOM      5  C   UNL     1       6.417  21.155  27.330  1.00  0.00     0.000 C 
BRANCH   5   6
ATOM      6  C   UNL     1       7.246  22.257  26.637  1.00  0.00     0.000 C 
BRANCH   6   7
ATOM      7  C   UNL     1       6.439  23.085  25.622  1.00  0.00     0.000 C 
BRANCH   7   8
ATOM      8  C   UNL     1       6.041  24.467  26.159  1.00  0.00     0.006 C 
BRANCH   8   9
ATOM      9  C   UNL     1       4.568  24.490  26.575  1.00  0.00     0.053 C 
BRANCH   9  10
ATOM     10  C   UNL     1       4.275  25.704  27.398  1.00  0.00     0.041 C 
ATOM     11  O   UNL     1       5.049  26.697  27.360  1.00  0.00    -0.550 OA
ATOM     12  O   UNL     1       3.175  25.721  28.245  1.00  0.00    -0.550 OA
ENDBRANCH   9  10
ENDBRANCH   8   9
ENDBRANCH   7   8
ENDBRANCH   6   7
ENDBRANCH   5   6
ENDBRANCH   4   5
ENDBRANCH   3   4
ENDBRANCH   1   3
BRANCH   2  13
ATOM     13  C   UNL     1      10.995  20.867  30.588  1.00  0.00     0.027 C 
BRANCH  13  14
ATOM     14  C   UNL     1      12.157  20.394  31.475  1.00  0.00     0.004 C 
BRANCH  14  15
ATOM     15  C   UNL     1      12.057  18.895  31.804  1.00  0.00     0.000 C 
BRANCH  15  16
ATOM     16  C   UNL     1      12.895  18.494  33.030  1.00  0.00     0.000 C 
BRANCH  16  17
ATOM     17  C   UNL     1      13.130  19.622  34.056  1.00  0.00    -0.000 C 
BRANCH  17  18
ATOM     18  C   UNL     1      11.966  19.871  35.036  1.00  0.00    -0.000 C 
BRANCH  18  19
ATOM     19  C   UNL     1      11.807  21.332  35.492  1.00  0.00    -0.003 C 
ATOM     20  C   UNL     1      12.212  22.338  34.415  1.00  0.00     0.004 C 
ENDBRANCH  18  19
ENDBRANCH  17  18
ENDBRANCH  16  17
ENDBRANCH  15  16
ENDBRANCH  14  15
ENDBRANCH  13  14
ENDBRANCH   2  13
TORSDOF 15
ENDMDL
MODEL 6
REMARK VINA RESULT:     5.464      4.332      7.929
REMARK INTER + INTRA:           9.748
REMARK INTER:                  10.450
REMARK INTRA:                  -0.702
REMARK UNBOUND:                -0.508
REMARK SMILES CCCCCCCCC=CCCCCCCCC(=O)[O-]
REMARK SMILES IDX 10 1 9 2 11 3 12 4 13 5 14 6 15 7 16 8 17 9 18 10 19 11
REMARK SMILES IDX 20 12 8 13 7 14 6 15 5 16 4 17 3 18 2 19 1 20
REMARK H PARENT
REMARK Flexibility Score: inf
ROOT
ATOM      1  C   UNL     1      12.181  18.920  31.539  1.00  0.00    -0.031 C 
ATOM      2  C   UNL     1      12.824  18.321  32.560  1.00  0.00    -0.031 C 
ENDROOT
BRANCH   1   3
ATOM      3  C   UNL     1      12.032  20.412  31.361  1.00  0.00     0.027 C 
BRANCH   3   4
ATOM      4  C   UNL     1      10.894  20.742  30.388  1.00  0.00     0.004 C 
BRANCH   4   5
ATOM      5  C   UNL     1      10.203  19.475  29.856  1.00  0.00     0.000 C 
BRANCH   5   6
ATOM      6  C   UNL     1       9.221  19.788  28.706  1.00  0.00     0.000 C 
BRANCH   6   7
ATOM      7  C   UNL     1       8.490  21.131  28.873  1.00  0.00     0.000 C 
BRANCH   7   8
ATOM      8  C   UNL     1       7.412  21.361  27.803  1.00  0.00     0.006 C 
BRANCH   8   9
ATOM      9  C   UNL     1       6.150  20.553  28.114  1.00  0.00     0.053 C 
BRANCH   9  10
ATOM     10  C   UNL     1       5.756  20.729  29.546  1.00  0.00     0.041 C 
ATOM     11  O   UNL     1       5.406  19.734  30.234  1.00  0.00    -0.550 OA
ATOM     12  O   UNL     1       5.726  21.999  30.108  1.00  0.00    -0.550 OA
ENDBRANCH   9  10
ENDBRANCH   8   9
ENDBRANCH   7   8
ENDBRANCH   6   7
ENDBRANCH   5   6
ENDBRANCH   4   5
ENDBRANCH   3   4
ENDBRANCH   1   3
BRANCH   2  13
ATOM     13  C   UNL     1      13.559  19.043  33.661  1.00  0.00     0.027 C 
BRANCH  13  14
ATOM     14  C   UNL     1      12.777  19.029  34.984  1.00  0.00     0.004 C 
BRANCH  14  15
ATOM     15  C   UNL     1      11.733  20.157  35.047  1.00  0.00     0.000 C 
BRANCH  15  16
ATOM     16  C   UNL     1      12.174  21.423  34.293  1.00  0.00     0.000 C 
BRANCH  16  17
ATOM     17  C   UNL     1      12.044  22.737  35.092  1.00  0.00    -0.000 C 
BRANCH  17  18
ATOM     18  C   UNL     1      11.307  22.614  36.440  1.00  0.00    -0.000 C 
BRANCH  18  19
ATOM     19  C   UNL     1      11.314  23.892  37.298  1.00  0.00    -0.003 C 
ATOM     20  C   UNL     1       9.954  24.193  37.926  1.00  0.00     0.004 C 
ENDBRANCH  18  19
ENDBRANCH  17  18
ENDBRANCH  16  17
ENDBRANCH  15  16
ENDBRANCH  14  15
ENDBRANCH  13  14
ENDBRANCH   2  13
TORSDOF 15
ENDMDL
MODEL 7
REMARK VINA RESULT:     5.706      2.110      3.796
REMARK INTER + INTRA:          10.201
REMARK INTER:                  10.587
REMARK INTRA:                  -0.386
REMARK UNBOUND:                -0.508
REMARK SMILES CCCCCCCCC=CCCCCCCCC(=O)[O-]
REMARK SMILES IDX 10 1 9 2 11 3 12 4 13 5 14 6 15 7 16 8 17 9 18 10 19 11
REMARK SMILES IDX 20 12 8 13 7 14 6 15 5 16 4 17 3 18 2 19 1 20
REMARK H PARENT
REMARK Flexibility Score: inf
ROOT
ATOM      1  C   UNL     1      11.185  22.548  31.751  1.00  0.00    -0.031 C 
ATOM      2  C   UNL     1      10.819  21.899  30.630  1.00  0.00    -0.031 C 
ENDROOT
BRANCH   1   3
ATOM      3  C   UNL     1      11.800  21.901  32.969  1.00  0.00     0.027 C 
BRANCH   3   4
ATOM      4  C   UNL     1      12.311  22.956  33.958  1.00  0.00     0.004 C 
BRANCH   4   5
ATOM      5  C   UNL     1      11.925  22.623  35.409  1.00  0.00     0.000 C 
BRANCH   5   6
ATOM      6  C   UNL     1      11.348  21.198  35.545  1.00  0.00     0.000 C 
BRANCH   6   7
ATOM      7  C   UNL     1      12.400  20.145  35.935  1.00  0.00     0.000 C 
BRANCH   7   8
ATOM      8  C   UNL     1      12.313  18.870  35.083  1.00  0.00     0.006 C 
BRANCH   8   9
ATOM      9  C   UNL     1      11.961  19.205  33.631  1.00  0.00     0.053 C 
BRANCH   9  10
ATOM     10  C   UNL     1      13.009  18.676  32.704  1.00  0.00     0.041 C 
ATOM     11  O   UNL     1      14.122  19.256  32.607  1.00  0.00    -0.550 OA
ATOM     12  O   UNL     1      12.738  17.570  31.907  1.00  0.00    -0.550 OA
ENDBRANCH   9  10
ENDBRANCH   8   9
ENDBRANCH   7   8
ENDBRANCH   6   7
ENDBRANCH   5   6
ENDBRANCH   4   5
ENDBRANCH   3   4
ENDBRANCH   1   3
BRANCH   2  13
ATOM     13  C   UNL     1      11.024  20.426  30.377  1.00  0.00     0.027 C 
BRANCH  13  14
ATOM     14  C   UNL     1       9.849  19.803  29.608  1.00  0.00     0.004 C 
BRANCH  14  15
ATOM     15  C   UNL     1       9.014  20.865  28.873  1.00  0.00     0.000 C 
BRANCH  15  16
ATOM     16  C   UNL     1       7.499  20.670  29.061  1.00  0.00     0.000 C 
BRANCH  16  17
ATOM     17  C   UNL     1       6.635  21.069  27.847  1.00  0.00    -0.000 C 
BRANCH  17  18
ATOM     18  C   UNL     1       7.383  21.823  26.729  1.00  0.00    -0.000 C 
BRANCH  18  19
ATOM     19  C   UNL     1       6.476  22.438  25.648  1.00  0.00    -0.003 C 
ATOM     20  C   UNL     1       6.533  23.965  25.624  1.00  0.00     0.004 C 
ENDBRANCH  18  19
ENDBRANCH  17  18
ENDBRANCH  16  17
ENDBRANCH  15  16
ENDBRANCH  14  15
ENDBRANCH  13  14
ENDBRANCH   2  13
TORSDOF 15
ENDMDL
MODEL 8
REMARK VINA RESULT:     5.856      3.337      5.519
REMARK INTER + INTRA:          10.482
REMARK INTER:                  11.329
REMARK INTRA:                  -0.847
REMARK UNBOUND:                -0.508
REMARK SMILES CCCCCCCCC=CCCCCCCCC(=O)[O-]
REMARK SMILES IDX 10 1 9 2 11 3 12 4 13 5 14 6 15 7 16 8 17 9 18 10 19 11
REMARK SMILES IDX 20 12 8 13 7 14 6 15 5 16 4 17 3 18 2 19 1 20
REMARK H PARENT
REMARK Flexibility Score: inf
ROOT
ATOM      1  C   UNL     1      10.283  19.899  29.846  1.00  0.00    -0.031 C 
ATOM      2  C   UNL     1       9.163  19.884  29.098  1.00  0.00    -0.031 C 
ENDROOT
BRANCH   1   3
ATOM      3  C   UNL     1      10.919  21.136  30.434  1.00  0.00     0.027 C 
BRANCH   3   4
ATOM      4  C   UNL     1      12.133  20.775  31.299  1.00  0.00     0.004 C 
BRANCH   4   5
ATOM      5  C   UNL     1      12.086  19.315  31.782  1.00  0.00     0.000 C 
BRANCH   5   6
ATOM      6  C   UNL     1      13.314  18.947  32.640  1.00  0.00     0.000 C 
BRANCH   6   7
ATOM      7  C   UNL     1      12.964  18.612  34.101  1.00  0.00     0.000 C 
BRANCH   7   8
ATOM      8  C   UNL     1      11.728  19.369  34.607  1.00  0.00     0.006 C 
BRANCH   8   9
ATOM      9  C   UNL     1      12.099  20.330  35.739  1.00  0.00     0.053 C 
BRANCH   9  10
ATOM     10  C   UNL     1      11.917  21.749  35.301  1.00  0.00     0.041 C 
ATOM     11  O   UNL     1      12.355  22.128  34.183  1.00  0.00    -0.550 OA
ATOM     12  O   UNL     1      11.310  22.666  36.149  1.00  0.00    -0.550 OA
ENDBRANCH   9  10
ENDBRANCH   8   9
ENDBRANCH   7   8
ENDBRANCH   6   7
ENDBRANCH   5   6
ENDBRANCH   4   5
ENDBRANCH   3   4
ENDBRANCH   1   3
BRANCH   2  13
ATOM     13  C   UNL     1       8.321  21.095  28.777  1.00  0.00     0.027 C 
BRANCH  13  14
ATOM     14  C   UNL     1       6.832  20.741  28.637  1.00  0.00     0.004 C 
BRANCH  14  15
ATOM     15  C   UNL     1       6.328  20.935  27.196  1.00  0.00     0.000 C 
BRANCH  15  16
ATOM     16  C   UNL     1       6.860  22.223  26.545  1.00  0.00     0.000 C 
BRANCH  16  17
ATOM     17  C   UNL     1       6.145  22.638  25.242  1.00  0.00    -0.000 C 
BRANCH  17  18
ATOM     18  C   UNL     1       7.007  22.555  23.966  1.00  0.00    -0.000 C 
BRANCH  18  19
ATOM     19  C   UNL     1       6.287  21.970  22.738  1.00  0.00    -0.003 C 
ATOM     20  C   UNL     1       7.212  21.147  21.843  1.00  0.00     0.004 C 
ENDBRANCH  18  19
ENDBRANCH  17  18
ENDBRANCH  16  17
ENDBRANCH  15  16
ENDBRANCH  14  15
ENDBRANCH  13  14
ENDBRANCH   2  13
TORSDOF 15
ENDMDL
MODEL 9
REMARK VINA RESULT:     6.040      2.708      4.574
REMARK INTER + INTRA:          10.827
REMARK INTER:                  10.085
REMARK INTRA:                   0.742
REMARK UNBOUND:                -0.508
REMARK SMILES CCCCCCCCC=CCCCCCCCC(=O)[O-]
REMARK SMILES IDX 10 1 9 2 11 3 12 4 13 5 14 6 15 7 16 8 17 9 18 10 19 11
REMARK SMILES IDX 20 12 8 13 7 14 6 15 5 16 4 17 3 18 2 19 1 20
REMARK H PARENT
REMARK Flexibility Score: inf
ROOT
ATOM      1  C   UNL     1      11.319  21.737  30.978  1.00  0.00    -0.031 C 
ATOM      2  C   UNL     1      10.417  21.459  30.018  1.00  0.00    -0.031 C 
ENDROOT
BRANCH   1   3
ATOM      3  C   UNL     1      12.123  20.709  31.739  1.00  0.00     0.027 C 
BRANCH   3   4
ATOM      4  C   UNL     1      11.737  19.285  31.321  1.00  0.00     0.004 C 
BRANCH   4   5
ATOM      5  C   UNL     1      12.495  18.220  32.133  1.00  0.00     0.000 C 
BRANCH   5   6
ATOM      6  C   UNL     1      13.625  18.834  32.986  1.00  0.00     0.000 C 
BRANCH   6   7
ATOM      7  C   UNL     1      13.278  18.941  34.481  1.00  0.00     0.000 C 
BRANCH   7   8
ATOM      8  C   UNL     1      11.927  19.627  34.733  1.00  0.00     0.006 C 
BRANCH   8   9
ATOM      9  C   UNL     1      12.011  20.581  35.926  1.00  0.00     0.053 C 
BRANCH   9  10
ATOM     10  C   UNL     1      11.880  22.000  35.472  1.00  0.00     0.041 C 
ATOM     11  O   UNL     1      12.260  22.334  34.319  1.00  0.00    -0.550 OA
ATOM     12  O   UNL     1      11.386  22.965  36.340  1.00  0.00    -0.550 OA
ENDBRANCH   9  10
ENDBRANCH   8   9
ENDBRANCH   7   8
ENDBRANCH   6   7
ENDBRANCH   5   6
ENDBRANCH   4   5
ENDBRANCH   3   4
ENDBRANCH   1   3
BRANCH   2  13
ATOM     13  C   UNL     1      10.106  20.078  29.496  1.00  0.00     0.027 C 
BRANCH  13  14
ATOM     14  C   UNL     1       8.746  20.022  28.783  1.00  0.00     0.004 C 
BRANCH  14  15
ATOM     15  C   UNL     1       7.642  20.721  29.594  1.00  0.00     0.000 C 
BRANCH  15  16
ATOM     16  C   UNL     1       6.410  21.077  28.745  1.00  0.00     0.000 C 
BRANCH  16  17
ATOM     17  C   UNL     1       6.596  20.906  27.223  1.00  0.00    -0.000 C 
BRANCH  17  18
ATOM     18  C   UNL     1       7.297  22.081  26.512  1.00  0.00    -0.000 C 
BRANCH  18  19
ATOM     19  C   UNL     1       6.452  22.780  25.433  1.00  0.00    -0.003 C 
ATOM     20  C   UNL     1       6.321  24.285  25.662  1.00  0.00     0.004 C 
ENDBRANCH  18  19
ENDBRANCH  17  18
ENDBRANCH  16  17
ENDBRANCH  15  16
ENDBRANCH  14  15
ENDBRANCH  13  14
ENDBRANCH   2  13
TORSDOF 15
ENDMDL
