MODEL 1
REMARK VINA RESULT:    -4.156      0.000      0.000
REMARK INTER + INTRA:          -5.406
REMARK INTER:                  -5.006
REMARK INTRA:                  -0.401
REMARK UNBOUND:                -0.401
REMARK SMILES NC(=O)C[C@H]([NH3+])C(=O)[O-]
REMARK SMILES IDX 4 1 5 2 6 3 7 7 8 8 9 9 2 10 3 11 1 12
REMARK H PARENT 6 4 6 5 6 6 1 13 1 14
REMARK Flexibility Score: inf
ROOT
ATOM      1  C   UNL     1     -29.025 -30.296 -16.252  1.00  0.00     0.171 C 
ENDROOT
BRANCH   1   2
ATOM      2  C   UNL     1     -28.391 -31.485 -17.007  1.00  0.00     0.237 C 
BRANCH   2   3
ATOM      3  N   UNL     1     -27.228 -32.029 -16.292  1.00  0.00    -0.350 N 
ATOM      4  H   UNL     1     -26.557 -31.272 -16.028  1.00  0.00     0.345 HD
ATOM      5  H   UNL     1     -26.735 -32.722 -16.901  1.00  0.00     0.345 HD
ATOM      6  H   UNL     1     -27.545 -32.524 -15.425  1.00  0.00     0.345 HD
ENDBRANCH   2   3
BRANCH   2   7
ATOM      7  C   UNL     1     -28.040 -31.115 -18.426  1.00  0.00     0.100 C 
ATOM      8  O   UNL     1     -28.705 -31.570 -19.395  1.00  0.00    -0.544 OA
ATOM      9  O   UNL     1     -26.938 -30.307 -18.675  1.00  0.00    -0.544 OA
ENDBRANCH   2   7
ENDBRANCH   1   2
BRANCH   1  10
ATOM     10  C   UNL     1     -28.010 -29.368 -15.645  1.00  0.00     0.223 C 
ATOM     11  O   UNL     1     -27.396 -29.707 -14.598  1.00  0.00    -0.275 OA
ATOM     12  N   UNL     1     -27.720 -28.110 -16.257  1.00  0.00    -0.369 N 
ATOM     13  H   UNL     1     -28.216 -27.813 -17.126  1.00  0.00     0.159 HD
ATOM     14  H   UNL     1     -27.005 -27.474 -15.840  1.00  0.00     0.159 HD
ENDBRANCH   1  10
TORSDOF 4
ENDMDL
MODEL 2
REMARK VINA RESULT:    -4.136     17.265     18.371
REMARK INTER + INTRA:          -5.383
REMARK INTER:                  -4.946
REMARK INTRA:                  -0.437
REMARK UNBOUND:                -0.401
REMARK SMILES NC(=O)C[C@H]([NH3+])C(=O)[O-]
REMARK SMILES IDX 4 1 5 2 6 3 7 7 8 8 9 9 2 10 3 11 1 12
REMARK H PARENT 6 4 6 5 6 6 1 13 1 14
REMARK Flexibility Score: inf
ROOT
ATOM      1  C   UNL     1     -22.069 -14.826  -6.895  1.00  0.00     0.171 C 
ENDROOT
BRANCH   1   2
ATOM      2  C   UNL     1     -23.055 -15.306  -7.982  1.00  0.00     0.237 C 
BRANCH   2   3
ATOM      3  N   UNL     1     -23.835 -16.469  -7.537  1.00  0.00    -0.350 N 
ATOM      4  H   UNL     1     -23.986 -17.147  -8.319  1.00  0.00     0.345 HD
ATOM      5  H   UNL     1     -24.766 -16.151  -7.181  1.00  0.00     0.345 HD
ATOM      6  H   UNL     1     -23.335 -16.954  -6.756  1.00  0.00     0.345 HD
ENDBRANCH   2   3
BRANCH   2   7
ATOM      7  C   UNL     1     -22.349 -15.584  -9.285  1.00  0.00     0.100 C 
ATOM      8  O   UNL     1     -22.651 -16.589  -9.981  1.00  0.00    -0.544 OA
ATOM      9  O   UNL     1     -21.316 -14.753  -9.699  1.00  0.00    -0.544 OA
ENDBRANCH   2   7
ENDBRANCH   1   2
BRANCH   1  10
ATOM     10  C   UNL     1     -20.971 -15.813  -6.610  1.00  0.00     0.223 C 
ATOM     11  O   UNL     1     -21.236 -16.893  -6.019  1.00  0.00    -0.275 OA
ATOM     12  N   UNL     1     -19.630 -15.544  -7.023  1.00  0.00    -0.369 N 
ATOM     13  H   UNL     1     -19.392 -14.656  -7.516  1.00  0.00     0.159 HD
ATOM     14  H   UNL     1     -18.872 -16.238  -6.835  1.00  0.00     0.159 HD
ENDBRANCH   1  10
TORSDOF 4
ENDMDL
MODEL 3
REMARK VINA RESULT:    -4.075      1.610      3.701
REMARK INTER + INTRA:          -5.310
REMARK INTER:                  -5.223
REMARK INTRA:                  -0.087
REMARK UNBOUND:                -0.401
REMARK SMILES NC(=O)C[C@H]([NH3+])C(=O)[O-]
REMARK SMILES IDX 4 1 5 2 6 3 7 7 8 8 9 9 2 10 3 11 1 12
REMARK H PARENT 6 4 6 5 6 6 1 13 1 14
REMARK Flexibility Score: inf
ROOT
ATOM      1  C   UNL     1     -28.708 -31.004 -17.126  1.00  0.00     0.171 C 
ENDROOT
BRANCH   1   2
ATOM      2  C   UNL     1     -27.753 -30.892 -15.918  1.00  0.00     0.237 C 
BRANCH   2   3
ATOM      3  N   UNL     1     -27.184 -32.196 -15.548  1.00  0.00    -0.350 N 
ATOM      4  H   UNL     1     -26.229 -32.322 -15.954  1.00  0.00     0.345 HD
ATOM      5  H   UNL     1     -27.805 -32.961 -15.899  1.00  0.00     0.345 HD
ATOM      6  H   UNL     1     -27.127 -32.275 -14.506  1.00  0.00     0.345 HD
ENDBRANCH   2   3
BRANCH   2   7
ATOM      7  C   UNL     1     -28.426 -30.232 -14.741  1.00  0.00     0.100 C 
ATOM      8  O   UNL     1     -28.406 -30.770 -13.602  1.00  0.00    -0.544 OA
ATOM      9  O   UNL     1     -29.123 -29.045 -14.923  1.00  0.00    -0.544 OA
ENDBRANCH   2   7
ENDBRANCH   1   2
BRANCH   1  10
ATOM     10  C   UNL     1     -27.994 -31.015 -18.449  1.00  0.00     0.223 C 
ATOM     11  O   UNL     1     -28.496 -31.629 -19.428  1.00  0.00    -0.275 OA
ATOM     12  N   UNL     1     -26.759 -30.315 -18.613  1.00  0.00    -0.369 N 
ATOM     13  H   UNL     1     -26.329 -29.798 -17.814  1.00  0.00     0.159 HD
ATOM     14  H   UNL     1     -26.273 -30.315 -19.537  1.00  0.00     0.159 HD
ENDBRANCH   1  10
TORSDOF 4
ENDMDL
MODEL 4
REMARK VINA RESULT:    -3.981     17.886     18.756
REMARK INTER + INTRA:          -5.196
REMARK INTER:                  -4.698
REMARK INTRA:                  -0.498
REMARK UNBOUND:                -0.401
REMARK SMILES NC(=O)C[C@H]([NH3+])C(=O)[O-]
REMARK SMILES IDX 4 1 5 2 6 3 7 7 8 8 9 9 2 10 3 11 1 12
REMARK H PARENT 6 4 6 5 6 6 1 13 1 14
REMARK Flexibility Score: inf
ROOT
ATOM      1  C   UNL     1     -22.253 -14.729  -7.420  1.00  0.00     0.171 C 
ENDROOT
BRANCH   1   2
ATOM      2  C   UNL     1     -21.599 -15.561  -6.297  1.00  0.00     0.237 C 
BRANCH   2   3
ATOM      3  N   UNL     1     -20.197 -15.881  -6.599  1.00  0.00    -0.350 N 
ATOM      4  H   UNL     1     -20.102 -16.855  -6.969  1.00  0.00     0.345 HD
ATOM      5  H   UNL     1     -19.622 -15.792  -5.730  1.00  0.00     0.345 HD
ATOM      6  H   UNL     1     -19.824 -15.207  -7.308  1.00  0.00     0.345 HD
ENDBRANCH   2   3
BRANCH   2   7
ATOM      7  C   UNL     1     -22.395 -16.806  -5.995  1.00  0.00     0.100 C 
ATOM      8  O   UNL     1     -22.020 -17.611  -5.102  1.00  0.00    -0.544 OA
ATOM      9  O   UNL     1     -23.525 -17.099  -6.747  1.00  0.00    -0.544 OA
ENDBRANCH   2   7
ENDBRANCH   1   2
BRANCH   1  10
ATOM     10  C   UNL     1     -21.713 -15.046  -8.787  1.00  0.00     0.223 C 
ATOM     11  O   UNL     1     -20.759 -14.369  -9.257  1.00  0.00    -0.275 OA
ATOM     12  N   UNL     1     -22.258 -16.122  -9.551  1.00  0.00    -0.369 N 
ATOM     13  H   UNL     1     -23.047 -16.695  -9.177  1.00  0.00     0.159 HD
ATOM     14  H   UNL     1     -21.872 -16.347 -10.494  1.00  0.00     0.159 HD
ENDBRANCH   1  10
TORSDOF 4
ENDMDL
MODEL 5
REMARK VINA RESULT:    -3.853     15.007     16.031
REMARK INTER + INTRA:          -5.042
REMARK INTER:                  -4.601
REMARK INTRA:                  -0.441
REMARK UNBOUND:                -0.401
REMARK SMILES NC(=O)C[C@H]([NH3+])C(=O)[O-]
REMARK SMILES IDX 4 1 5 2 6 3 7 7 8 8 9 9 2 10 3 11 1 12
REMARK H PARENT 6 4 6 5 6 6 1 13 1 14
REMARK Flexibility Score: inf
ROOT
ATOM      1  C   UNL     1     -23.778 -14.599 -14.049  1.00  0.00     0.171 C 
ENDROOT
BRANCH   1   2
ATOM      2  C   UNL     1     -22.351 -15.153 -13.849  1.00  0.00     0.237 C 
BRANCH   2   3
ATOM      3  N   UNL     1     -21.587 -15.160 -15.105  1.00  0.00    -0.350 N 
ATOM      4  H   UNL     1     -21.068 -16.060 -15.228  1.00  0.00     0.345 HD
ATOM      5  H   UNL     1     -20.901 -14.371 -15.102  1.00  0.00     0.345 HD
ATOM      6  H   UNL     1     -22.235 -15.026 -15.915  1.00  0.00     0.345 HD
ENDBRANCH   2   3
BRANCH   2   7
ATOM      7  C   UNL     1     -22.374 -16.520 -13.211  1.00  0.00     0.100 C 
ATOM      8  O   UNL     1     -22.049 -16.673 -12.004  1.00  0.00    -0.544 OA
ATOM      9  O   UNL     1     -22.702 -17.631 -13.976  1.00  0.00    -0.544 OA
ENDBRANCH   2   7
ENDBRANCH   1   2
BRANCH   1  10
ATOM     10  C   UNL     1     -24.437 -15.089 -15.309  1.00  0.00     0.223 C 
ATOM     11  O   UNL     1     -24.145 -14.560 -16.415  1.00  0.00    -0.275 OA
ATOM     12  N   UNL     1     -25.376 -16.164 -15.265  1.00  0.00    -0.369 N 
ATOM     13  H   UNL     1     -25.628 -16.615 -14.358  1.00  0.00     0.159 HD
ATOM     14  H   UNL     1     -25.821 -16.510 -16.144  1.00  0.00     0.159 HD
ENDBRANCH   1  10
TORSDOF 4
ENDMDL
MODEL 6
REMARK VINA RESULT:    -3.815     14.220     15.537
REMARK INTER + INTRA:          -4.997
REMARK INTER:                  -4.749
REMARK INTRA:                  -0.248
REMARK UNBOUND:                -0.401
REMARK SMILES NC(=O)C[C@H]([NH3+])C(=O)[O-]
REMARK SMILES IDX 4 1 5 2 6 3 7 7 8 8 9 9 2 10 3 11 1 12
REMARK H PARENT 6 4 6 5 6 6 1 13 1 14
REMARK Flexibility Score: inf
ROOT
ATOM      1  C   UNL     1     -23.866 -17.260 -13.638  1.00  0.00     0.171 C 
ENDROOT
BRANCH   1   2
ATOM      2  C   UNL     1     -22.948 -16.038 -13.422  1.00  0.00     0.237 C 
BRANCH   2   3
ATOM      3  N   UNL     1     -21.985 -15.877 -14.521  1.00  0.00    -0.350 N 
ATOM      4  H   UNL     1     -22.163 -14.995 -15.054  1.00  0.00     0.345 HD
ATOM      5  H   UNL     1     -22.061 -16.689 -15.175  1.00  0.00     0.345 HD
ATOM      6  H   UNL     1     -21.011 -15.855 -14.139  1.00  0.00     0.345 HD
ENDBRANCH   2   3
BRANCH   2   7
ATOM      7  C   UNL     1     -22.251 -16.099 -12.086  1.00  0.00     0.100 C 
ATOM      8  O   UNL     1     -21.552 -15.134 -11.678  1.00  0.00    -0.544 OA
ATOM      9  O   UNL     1     -22.336 -17.253 -11.317  1.00  0.00    -0.544 OA
ENDBRANCH   2   7
ENDBRANCH   1   2
BRANCH   1  10
ATOM     10  C   UNL     1     -25.074 -16.956 -14.480  1.00  0.00     0.223 C 
ATOM     11  O   UNL     1     -25.078 -15.941 -15.227  1.00  0.00    -0.275 OA
ATOM     12  N   UNL     1     -26.212 -17.819 -14.455  1.00  0.00    -0.369 N 
ATOM     13  H   UNL     1     -26.226 -18.665 -13.844  1.00  0.00     0.159 HD
ATOM     14  H   UNL     1     -27.043 -17.611 -15.051  1.00  0.00     0.159 HD
ENDBRANCH   1  10
TORSDOF 4
ENDMDL
MODEL 7
REMARK VINA RESULT:    -3.813     14.025     15.439
REMARK INTER + INTRA:          -4.994
REMARK INTER:                  -4.740
REMARK INTRA:                  -0.254
REMARK UNBOUND:                -0.401
REMARK SMILES NC(=O)C[C@H]([NH3+])C(=O)[O-]
REMARK SMILES IDX 4 1 5 2 6 3 7 7 8 8 9 9 2 10 3 11 1 12
REMARK H PARENT 6 4 6 5 6 6 1 13 1 14
REMARK Flexibility Score: inf
ROOT
ATOM      1  C   UNL     1     -23.069 -15.335 -13.420  1.00  0.00     0.171 C 
ENDROOT
BRANCH   1   2
ATOM      2  C   UNL     1     -23.464 -16.822 -13.541  1.00  0.00     0.237 C 
BRANCH   2   3
ATOM      3  N   UNL     1     -22.350 -17.644 -14.036  1.00  0.00    -0.350 N 
ATOM      4  H   UNL     1     -21.588 -17.050 -14.434  1.00  0.00     0.345 HD
ATOM      5  H   UNL     1     -22.697 -18.294 -14.779  1.00  0.00     0.345 HD
ATOM      6  H   UNL     1     -21.962 -18.221 -13.254  1.00  0.00     0.345 HD
ENDBRANCH   2   3
BRANCH   2   7
ATOM      7  C   UNL     1     -24.698 -16.999 -14.391  1.00  0.00     0.100 C 
ATOM      8  O   UNL     1     -25.057 -16.105 -15.201  1.00  0.00    -0.544 OA
ATOM      9  O   UNL     1     -25.479 -18.137 -14.240  1.00  0.00    -0.544 OA
ENDBRANCH   2   7
ENDBRANCH   1   2
BRANCH   1  10
ATOM     10  C   UNL     1     -21.857 -14.972 -14.233  1.00  0.00     0.223 C 
ATOM     11  O   UNL     1     -20.760 -14.749 -13.656  1.00  0.00    -0.275 OA
ATOM     12  N   UNL     1     -21.935 -14.899 -15.657  1.00  0.00    -0.369 N 
ATOM     13  H   UNL     1     -22.835 -15.083 -16.153  1.00  0.00     0.159 HD
ATOM     14  H   UNL     1     -21.088 -14.659 -16.219  1.00  0.00     0.159 HD
ENDBRANCH   1  10
TORSDOF 4
ENDMDL
MODEL 8
REMARK VINA RESULT:    -3.722     14.882     16.210
REMARK INTER + INTRA:          -4.884
REMARK INTER:                  -4.393
REMARK INTRA:                  -0.492
REMARK UNBOUND:                -0.401
REMARK SMILES NC(=O)C[C@H]([NH3+])C(=O)[O-]
REMARK SMILES IDX 4 1 5 2 6 3 7 7 8 8 9 9 2 10 3 11 1 12
REMARK H PARENT 6 4 6 5 6 6 1 13 1 14
REMARK Flexibility Score: inf
ROOT
ATOM      1  C   UNL     1     -22.243 -16.232 -12.166  1.00  0.00     0.171 C 
ENDROOT
BRANCH   1   2
ATOM      2  C   UNL     1     -22.369 -16.578 -13.665  1.00  0.00     0.237 C 
BRANCH   2   3
ATOM      3  N   UNL     1     -21.494 -15.737 -14.495  1.00  0.00    -0.350 N 
ATOM      4  H   UNL     1     -21.793 -15.754 -15.497  1.00  0.00     0.345 HD
ATOM      5  H   UNL     1     -20.510 -16.084 -14.429  1.00  0.00     0.345 HD
ATOM      6  H   UNL     1     -21.517 -14.751 -14.147  1.00  0.00     0.345 HD
ENDBRANCH   2   3
BRANCH   2   7
ATOM      7  C   UNL     1     -23.801 -16.509 -14.131  1.00  0.00     0.100 C 
ATOM      8  O   UNL     1     -24.509 -17.549 -14.197  1.00  0.00    -0.544 OA
ATOM      9  O   UNL     1     -24.333 -15.295 -14.544  1.00  0.00    -0.544 OA
ENDBRANCH   2   7
ENDBRANCH   1   2
BRANCH   1  10
ATOM     10  C   UNL     1     -22.044 -14.764 -11.908  1.00  0.00     0.223 C 
ATOM     11  O   UNL     1     -20.880 -14.308 -11.751  1.00  0.00    -0.275 OA
ATOM     12  N   UNL     1     -23.163 -13.878 -11.860  1.00  0.00    -0.369 N 
ATOM     13  H   UNL     1     -24.134 -14.238 -11.991  1.00  0.00     0.159 HD
ATOM     14  H   UNL     1     -23.019 -12.857 -11.694  1.00  0.00     0.159 HD
ENDBRANCH   1  10
TORSDOF 4
ENDMDL
MODEL 9
REMARK VINA RESULT:    -3.692     15.658     16.477
REMARK INTER + INTRA:          -4.848
REMARK INTER:                  -4.363
REMARK INTRA:                  -0.486
REMARK UNBOUND:                -0.401
REMARK SMILES NC(=O)C[C@H]([NH3+])C(=O)[O-]
REMARK SMILES IDX 4 1 5 2 6 3 7 7 8 8 9 9 2 10 3 11 1 12
REMARK H PARENT 6 4 6 5 6 6 1 13 1 14
REMARK Flexibility Score: inf
ROOT
ATOM      1  C   UNL     1     -23.252 -15.021 -13.008  1.00  0.00     0.171 C 
ENDROOT
BRANCH   1   2
ATOM      2  C   UNL     1     -23.365 -15.684 -14.398  1.00  0.00     0.237 C 
BRANCH   2   3
ATOM      3  N   UNL     1     -22.692 -16.990 -14.436  1.00  0.00    -0.350 N 
ATOM      4  H   UNL     1     -21.776 -16.930 -14.936  1.00  0.00     0.345 HD
ATOM      5  H   UNL     1     -23.302 -17.684 -14.928  1.00  0.00     0.345 HD
ATOM      6  H   UNL     1     -22.529 -17.334 -13.461  1.00  0.00     0.345 HD
ENDBRANCH   2   3
BRANCH   2   7
ATOM      7  C   UNL     1     -22.860 -14.773 -15.488  1.00  0.00     0.100 C 
ATOM      8  O   UNL     1     -21.923 -13.961 -15.268  1.00  0.00    -0.544 OA
ATOM      9  O   UNL     1     -23.470 -14.789 -16.736  1.00  0.00    -0.544 OA
ENDBRANCH   2   7
ENDBRANCH   1   2
BRANCH   1  10
ATOM     10  C   UNL     1     -22.000 -15.402 -12.267  1.00  0.00     0.223 C 
ATOM     11  O   UNL     1     -21.980 -16.449 -11.568  1.00  0.00    -0.275 OA
ATOM     12  N   UNL     1     -20.825 -14.596 -12.366  1.00  0.00    -0.369 N 
ATOM     13  H   UNL     1     -20.822 -13.726 -12.943  1.00  0.00     0.159 HD
ATOM     14  H   UNL     1     -19.954 -14.871 -11.860  1.00  0.00     0.159 HD
ENDBRANCH   1  10
TORSDOF 4
ENDMDL
