MODEL 1
REMARK VINA RESULT:    -5.392      0.000      0.000
REMARK INTER + INTRA:          -9.417
REMARK INTER:                  -8.072
REMARK INTRA:                  -1.345
REMARK UNBOUND:                -1.345
REMARK SMILES COC(=O)C1=CO[C@@H](O[C@H]2O[C@@H](CO)[C@H](O)[C@@H](O)[C@H]2O)[C@@H]2C(CO)=CC[C@H]12
REMARK SMILES IDX 9 1 8 2 5 3 6 4 27 5 7 6 21 7 26 8 22 9 25 10 3 11 4 12 2 13
REMARK SMILES IDX 1 14 23 15 24 16 10 18 19 19 11 20 17 21 12 22 15 23 20 24
REMARK SMILES IDX 18 26 13 28 14 29 16 31
REMARK H PARENT 24 17 20 25 18 27 14 30 16 32
REMARK Flexibility Score: inf
ROOT
ATOM      1  O   UNL     1      46.465   5.958  21.636  1.00  0.00    -0.310 OA
ENDROOT
BRANCH   1   2
ATOM      2  C   UNL     1      46.968   7.155  21.071  1.00  0.00     0.316 C 
ATOM      3  C   UNL     1      44.367   8.272  20.736  1.00  0.00     0.076 C 
ATOM      4  C   UNL     1      45.140   8.633  21.770  1.00  0.00     0.202 C 
ATOM      5  C   UNL     1      44.981   7.644  19.487  1.00  0.00     0.047 C 
ATOM      6  O   UNL     1      46.486   8.274  21.810  1.00  0.00    -0.471 OA
ATOM      7  C   UNL     1      46.478   7.243  19.614  1.00  0.00     0.094 C 
ATOM      8  C   UNL     1      44.947   8.655  18.323  1.00  0.00     0.037 C 
ATOM      9  C   UNL     1      47.201   8.281  18.810  1.00  0.00    -0.039 C 
ATOM     10  C   UNL     1      46.367   9.037  18.114  1.00  0.00    -0.024 C 
BRANCH   3  11
ATOM     11  C   UNL     1      42.909   8.541  20.774  1.00  0.00     0.337 C 
ATOM     12  O   UNL     1      42.492   9.731  20.790  1.00  0.00    -0.246 OA
BRANCH  11  13
ATOM     13  O   UNL     1      41.997   7.479  20.781  1.00  0.00    -0.466 OA
ATOM     14  C   UNL     1      40.802   7.500  21.553  1.00  0.00     0.282 C 
ENDBRANCH  11  13
ENDBRANCH   3  11
BRANCH   9  15
ATOM     15  C   UNL     1      48.692   8.334  18.621  1.00  0.00     0.187 C 
BRANCH  15  16
ATOM     16  O   UNL     1      48.985   8.933  17.390  1.00  0.00    -0.392 OA
ATOM     17  H   UNL     1      49.423   8.233  16.842  1.00  0.00     0.211 HD
ENDBRANCH  15  16
ENDBRANCH   9  15
ENDBRANCH   1   2
BRANCH   1  18
ATOM     18  C   UNL     1      46.888   4.806  20.920  1.00  0.00     0.286 C 
ATOM     19  C   UNL     1      45.804   3.713  20.942  1.00  0.00     0.202 C 
ATOM     20  O   UNL     1      48.127   4.333  21.433  1.00  0.00    -0.341 OA
ATOM     21  C   UNL     1      45.607   3.167  22.365  1.00  0.00     0.179 C 
ATOM     22  C   UNL     1      48.060   3.790  22.750  1.00  0.00     0.178 C 
ATOM     23  C   UNL     1      46.956   2.713  22.931  1.00  0.00     0.177 C 
BRANCH  19  24
ATOM     24  O   UNL     1      44.597   4.222  20.435  1.00  0.00    -0.385 OA
ATOM     25  H   UNL     1      44.732   5.195  20.294  1.00  0.00     0.211 HD
ENDBRANCH  19  24
BRANCH  21  26
ATOM     26  O   UNL     1      45.035   4.138  23.205  1.00  0.00    -0.387 OA
ATOM     27  H   UNL     1      45.696   4.874  23.295  1.00  0.00     0.211 HD
ENDBRANCH  21  26
BRANCH  22  28
ATOM     28  C   UNL     1      48.055   4.871  23.851  1.00  0.00     0.191 C 
BRANCH  28  29
ATOM     29  O   UNL     1      47.436   4.383  25.011  1.00  0.00    -0.394 OA
ATOM     30  H   UNL     1      46.459   4.455  24.863  1.00  0.00     0.210 HD
ENDBRANCH  28  29
ENDBRANCH  22  28
BRANCH  23  31
ATOM     31  O   UNL     1      47.343   1.529  22.278  1.00  0.00    -0.387 OA
ATOM     32  H   UNL     1      48.166   1.737  21.763  1.00  0.00     0.211 HD
ENDBRANCH  23  31
ENDBRANCH   1  18
TORSDOF 11
ENDMDL
MODEL 2
REMARK VINA RESULT:    -5.270      2.653      6.099
REMARK INTER + INTRA:          -9.233
REMARK INTER:                  -7.851
REMARK INTRA:                  -1.382
REMARK UNBOUND:                -1.345
REMARK SMILES COC(=O)C1=CO[C@@H](O[C@H]2O[C@@H](CO)[C@H](O)[C@@H](O)[C@H]2O)[C@@H]2C(CO)=CC[C@H]12
REMARK SMILES IDX 9 1 8 2 5 3 6 4 27 5 7 6 21 7 26 8 22 9 25 10 3 11 4 12 2 13
REMARK SMILES IDX 1 14 23 15 24 16 10 18 19 19 11 20 17 21 12 22 15 23 20 24
REMARK SMILES IDX 18 26 13 28 14 29 16 31
REMARK H PARENT 24 17 20 25 18 27 14 30 16 32
REMARK Flexibility Score: inf
ROOT
ATOM      1  O   UNL     1      47.115   4.247  22.868  1.00  0.00    -0.310 OA
ENDROOT
BRANCH   1   2
ATOM      2  C   UNL     1      47.727   4.751  24.041  1.00  0.00     0.316 C 
ATOM      3  C   UNL     1      49.431   6.510  22.583  1.00  0.00     0.076 C 
ATOM      4  C   UNL     1      48.316   6.966  23.171  1.00  0.00     0.202 C 
ATOM      5  C   UNL     1      50.069   5.199  23.038  1.00  0.00     0.047 C 
ATOM      6  O   UNL     1      47.610   6.170  24.071  1.00  0.00    -0.471 OA
ATOM      7  C   UNL     1      49.213   4.350  24.020  1.00  0.00     0.094 C 
ATOM      8  C   UNL     1      51.371   5.491  23.811  1.00  0.00     0.037 C 
ATOM      9  C   UNL     1      49.892   4.532  25.343  1.00  0.00    -0.039 C 
ATOM     10  C   UNL     1      51.058   5.147  25.221  1.00  0.00    -0.024 C 
BRANCH   3  11
ATOM     11  C   UNL     1      50.091   7.313  21.526  1.00  0.00     0.337 C 
ATOM     12  O   UNL     1      50.765   8.331  21.842  1.00  0.00    -0.246 OA
BRANCH  11  13
ATOM     13  O   UNL     1      49.977   6.938  20.182  1.00  0.00    -0.466 OA
ATOM     14  C   UNL     1      48.721   6.750  19.541  1.00  0.00     0.282 C 
ENDBRANCH  11  13
ENDBRANCH   3  11
BRANCH   9  15
ATOM     15  C   UNL     1      49.439   3.905  26.633  1.00  0.00     0.187 C 
BRANCH  15  16
ATOM     16  O   UNL     1      48.939   2.623  26.378  1.00  0.00    -0.392 OA
ATOM     17  H   UNL     1      49.397   2.018  27.017  1.00  0.00     0.211 HD
ENDBRANCH  15  16
ENDBRANCH   9  15
ENDBRANCH   1   2
BRANCH   1  18
ATOM     18  C   UNL     1      46.031   3.376  23.158  1.00  0.00     0.286 C 
ATOM     19  C   UNL     1      46.018   2.172  22.197  1.00  0.00     0.202 C 
ATOM     20  O   UNL     1      44.802   4.089  23.129  1.00  0.00    -0.341 OA
ATOM     21  C   UNL     1      45.708   2.623  20.761  1.00  0.00     0.179 C 
ATOM     22  C   UNL     1      44.407   4.547  21.837  1.00  0.00     0.178 C 
ATOM     23  C   UNL     1      44.412   3.439  20.749  1.00  0.00     0.177 C 
BRANCH  19  24
ATOM     24  O   UNL     1      47.250   1.500  22.250  1.00  0.00    -0.385 OA
ATOM     25  H   UNL     1      47.502   1.437  23.208  1.00  0.00     0.211 HD
ENDBRANCH  19  24
BRANCH  21  26
ATOM     26  O   UNL     1      46.763   3.386  20.231  1.00  0.00    -0.387 OA
ATOM     27  H   UNL     1      46.474   4.336  20.248  1.00  0.00     0.211 HD
ENDBRANCH  21  26
BRANCH  22  28
ATOM     28  C   UNL     1      45.128   5.840  21.407  1.00  0.00     0.191 C 
BRANCH  28  29
ATOM     29  O   UNL     1      45.209   5.912  20.009  1.00  0.00    -0.394 OA
ATOM     30  H   UNL     1      44.543   6.587  19.720  1.00  0.00     0.210 HD
ENDBRANCH  28  29
ENDBRANCH  22  28
BRANCH  23  31
ATOM     31  O   UNL     1      43.328   2.568  20.960  1.00  0.00    -0.387 OA
ATOM     32  H   UNL     1      42.532   3.132  21.142  1.00  0.00     0.211 HD
ENDBRANCH  23  31
ENDBRANCH   1  18
TORSDOF 11
ENDMDL
MODEL 3
REMARK VINA RESULT:    -5.194     16.336     18.593
REMARK INTER + INTRA:          -9.120
REMARK INTER:                  -7.959
REMARK INTRA:                  -1.160
REMARK UNBOUND:                -1.345
REMARK SMILES COC(=O)C1=CO[C@@H](O[C@H]2O[C@@H](CO)[C@H](O)[C@@H](O)[C@H]2O)[C@@H]2C(CO)=CC[C@H]12
REMARK SMILES IDX 9 1 8 2 5 3 6 4 27 5 7 6 21 7 26 8 22 9 25 10 3 11 4 12 2 13
REMARK SMILES IDX 1 14 23 15 24 16 10 18 19 19 11 20 17 21 12 22 15 23 20 24
REMARK SMILES IDX 18 26 13 28 14 29 16 31
REMARK H PARENT 24 17 20 25 18 27 14 30 16 32
REMARK Flexibility Score: inf
ROOT
ATOM      1  O   UNL     1      43.179  -7.660   9.321  1.00  0.00    -0.310 OA
ENDROOT
BRANCH   1   2
ATOM      2  C   UNL     1      44.503  -7.850   9.786  1.00  0.00     0.316 C 
ATOM      3  C   UNL     1      45.194  -5.111   9.410  1.00  0.00     0.076 C 
ATOM      4  C   UNL     1      44.879  -5.578  10.626  1.00  0.00     0.202 C 
ATOM      5  C   UNL     1      45.644  -6.063   8.304  1.00  0.00     0.047 C 
ATOM      6  O   UNL     1      44.770  -6.948  10.855  1.00  0.00    -0.471 OA
ATOM      7  C   UNL     1      45.468  -7.576   8.619  1.00  0.00     0.094 C 
ATOM      8  C   UNL     1      47.156  -5.893   8.050  1.00  0.00     0.037 C 
ATOM      9  C   UNL     1      46.862  -8.058   8.881  1.00  0.00    -0.039 C 
ATOM     10  C   UNL     1      47.768  -7.143   8.568  1.00  0.00    -0.024 C 
BRANCH   3  11
ATOM     11  C   UNL     1      45.169  -3.652   9.148  1.00  0.00     0.337 C 
ATOM     12  O   UNL     1      44.973  -2.848  10.100  1.00  0.00    -0.246 OA
BRANCH  11  13
ATOM     13  O   UNL     1      45.373  -3.165   7.851  1.00  0.00    -0.466 OA
ATOM     14  C   UNL     1      45.376  -1.776   7.545  1.00  0.00     0.282 C 
ENDBRANCH  11  13
ENDBRANCH   3  11
BRANCH   9  15
ATOM     15  C   UNL     1      47.230  -9.471   9.236  1.00  0.00     0.187 C 
BRANCH  15  16
ATOM     16  O   UNL     1      47.349  -9.588  10.625  1.00  0.00    -0.392 OA
ATOM     17  H   UNL     1      46.517  -9.203  11.005  1.00  0.00     0.211 HD
ENDBRANCH  15  16
ENDBRANCH   9  15
ENDBRANCH   1   2
BRANCH   1  18
ATOM     18  C   UNL     1      42.449  -8.877   9.260  1.00  0.00     0.286 C 
ATOM     19  C   UNL     1      41.811  -9.070   7.872  1.00  0.00     0.202 C 
ATOM     20  O   UNL     1      41.482  -8.926  10.299  1.00  0.00    -0.341 OA
ATOM     21  C   UNL     1      40.721  -8.016   7.622  1.00  0.00     0.179 C 
ATOM     22  C   UNL     1      40.410  -7.994  10.163  1.00  0.00     0.178 C 
ATOM     23  C   UNL     1      39.713  -8.036   8.776  1.00  0.00     0.177 C 
BRANCH  19  24
ATOM     24  O   UNL     1      42.797  -9.008   6.875  1.00  0.00    -0.385 OA
ATOM     25  H   UNL     1      43.646  -9.312   7.291  1.00  0.00     0.211 HD
ENDBRANCH  19  24
BRANCH  21  26
ATOM     26  O   UNL     1      41.278  -6.731   7.493  1.00  0.00    -0.387 OA
ATOM     27  H   UNL     1      41.794  -6.720   6.644  1.00  0.00     0.211 HD
ENDBRANCH  21  26
BRANCH  22  28
ATOM     28  C   UNL     1      40.784  -6.571  10.624  1.00  0.00     0.191 C 
BRANCH  28  29
ATOM     29  O   UNL     1      39.945  -5.625  10.018  1.00  0.00    -0.394 OA
ATOM     30  H   UNL     1      39.593  -6.046   9.193  1.00  0.00     0.210 HD
ENDBRANCH  28  29
ENDBRANCH  22  28
BRANCH  23  31
ATOM     31  O   UNL     1      38.937  -9.205   8.676  1.00  0.00    -0.387 OA
ATOM     32  H   UNL     1      38.614  -9.419   9.590  1.00  0.00     0.211 HD
ENDBRANCH  23  31
ENDBRANCH   1  18
TORSDOF 11
ENDMDL
MODEL 4
REMARK VINA RESULT:    -5.107      2.645      6.246
REMARK INTER + INTRA:          -8.990
REMARK INTER:                  -7.643
REMARK INTRA:                  -1.347
REMARK UNBOUND:                -1.345
REMARK SMILES COC(=O)C1=CO[C@@H](O[C@H]2O[C@@H](CO)[C@H](O)[C@@H](O)[C@H]2O)[C@@H]2C(CO)=CC[C@H]12
REMARK SMILES IDX 9 1 8 2 5 3 6 4 27 5 7 6 21 7 26 8 22 9 25 10 3 11 4 12 2 13
REMARK SMILES IDX 1 14 23 15 24 16 10 18 19 19 11 20 17 21 12 22 15 23 20 24
REMARK SMILES IDX 18 26 13 28 14 29 16 31
REMARK H PARENT 24 17 20 25 18 27 14 30 16 32
REMARK Flexibility Score: inf
ROOT
ATOM      1  O   UNL     1      47.619   4.510  21.868  1.00  0.00    -0.310 OA
ENDROOT
BRANCH   1   2
ATOM      2  C   UNL     1      47.652   3.719  23.042  1.00  0.00     0.316 C 
ATOM      3  C   UNL     1      45.179   2.438  22.434  1.00  0.00     0.076 C 
ATOM      4  C   UNL     1      46.347   1.825  22.190  1.00  0.00     0.202 C 
ATOM      5  C   UNL     1      45.098   3.587  23.436  1.00  0.00     0.047 C 
ATOM      6  O   UNL     1      47.539   2.342  22.695  1.00  0.00    -0.471 OA
ATOM      7  C   UNL     1      46.468   4.131  23.934  1.00  0.00     0.094 C 
ATOM      8  C   UNL     1      44.378   3.116  24.716  1.00  0.00     0.037 C 
ATOM      9  C   UNL     1      46.576   3.610  25.336  1.00  0.00    -0.039 C 
ATOM     10  C   UNL     1      45.441   3.066  25.750  1.00  0.00    -0.024 C 
BRANCH   3  11
ATOM     11  C   UNL     1      43.941   1.957  21.776  1.00  0.00     0.337 C 
ATOM     12  O   UNL     1      43.455   2.603  20.808  1.00  0.00    -0.246 OA
BRANCH  11  13
ATOM     13  O   UNL     1      43.317   0.785  22.219  1.00  0.00    -0.466 OA
ATOM     14  C   UNL     1      43.482  -0.467  21.565  1.00  0.00     0.282 C 
ENDBRANCH  11  13
ENDBRANCH   3  11
BRANCH   9  15
ATOM     15  C   UNL     1      47.736   3.862  26.257  1.00  0.00     0.187 C 
BRANCH  15  16
ATOM     16  O   UNL     1      48.479   2.686  26.405  1.00  0.00    -0.392 OA
ATOM     17  H   UNL     1      47.982   2.128  27.057  1.00  0.00     0.211 HD
ENDBRANCH  15  16
ENDBRANCH   9  15
ENDBRANCH   1   2
BRANCH   1  18
ATOM     18  C   UNL     1      47.422   5.888  22.154  1.00  0.00     0.286 C 
ATOM     19  C   UNL     1      46.603   6.571  21.043  1.00  0.00     0.202 C 
ATOM     20  O   UNL     1      48.672   6.533  22.363  1.00  0.00    -0.341 OA
ATOM     21  C   UNL     1      47.397   6.613  19.727  1.00  0.00     0.179 C 
ATOM     22  C   UNL     1      49.491   6.640  21.200  1.00  0.00     0.178 C 
ATOM     23  C   UNL     1      48.765   7.258  19.975  1.00  0.00     0.177 C 
BRANCH  19  24
ATOM     24  O   UNL     1      45.383   5.901  20.863  1.00  0.00    -0.385 OA
ATOM     25  H   UNL     1      45.022   5.713  21.769  1.00  0.00     0.211 HD
ENDBRANCH  19  24
BRANCH  21  26
ATOM     26  O   UNL     1      47.562   5.324  19.194  1.00  0.00    -0.387 OA
ATOM     27  H   UNL     1      48.445   4.990  19.503  1.00  0.00     0.211 HD
ENDBRANCH  21  26
BRANCH  22  28
ATOM     28  C   UNL     1      50.254   5.340  20.876  1.00  0.00     0.191 C 
BRANCH  28  29
ATOM     29  O   UNL     1      50.768   4.769  22.050  1.00  0.00    -0.394 OA
ATOM     30  H   UNL     1      51.044   5.522  22.633  1.00  0.00     0.210 HD
ENDBRANCH  28  29
ENDBRANCH  22  28
BRANCH  23  31
ATOM     31  O   UNL     1      48.582   8.637  20.183  1.00  0.00    -0.387 OA
ATOM     32  H   UNL     1      49.388   8.968  20.659  1.00  0.00     0.211 HD
ENDBRANCH  23  31
ENDBRANCH   1  18
TORSDOF 11
ENDMDL
MODEL 5
REMARK VINA RESULT:    -5.090      2.001      2.657
REMARK INTER + INTRA:          -8.964
REMARK INTER:                  -7.422
REMARK INTRA:                  -1.542
REMARK UNBOUND:                -1.345
REMARK SMILES COC(=O)C1=CO[C@@H](O[C@H]2O[C@@H](CO)[C@H](O)[C@@H](O)[C@H]2O)[C@@H]2C(CO)=CC[C@H]12
REMARK SMILES IDX 9 1 8 2 5 3 6 4 27 5 7 6 21 7 26 8 22 9 25 10 3 11 4 12 2 13
REMARK SMILES IDX 1 14 23 15 24 16 10 18 19 19 11 20 17 21 12 22 15 23 20 24
REMARK SMILES IDX 18 26 13 28 14 29 16 31
REMARK H PARENT 24 17 20 25 18 27 14 30 16 32
REMARK Flexibility Score: inf
ROOT
ATOM      1  O   UNL     1      46.473   4.832  21.808  1.00  0.00    -0.310 OA
ENDROOT
BRANCH   1   2
ATOM      2  C   UNL     1      47.546   5.755  21.757  1.00  0.00     0.316 C 
ATOM      3  C   UNL     1      46.101   7.582  20.115  1.00  0.00     0.076 C 
ATOM      4  C   UNL     1      46.210   7.785  21.435  1.00  0.00     0.202 C 
ATOM      5  C   UNL     1      47.090   6.676  19.383  1.00  0.00     0.047 C 
ATOM      6  O   UNL     1      47.101   7.033  22.199  1.00  0.00    -0.471 OA
ATOM      7  C   UNL     1      48.033   5.847  20.300  1.00  0.00     0.094 C 
ATOM      8  C   UNL     1      48.040   7.530  18.519  1.00  0.00     0.037 C 
ATOM      9  C   UNL     1      49.362   6.527  20.164  1.00  0.00    -0.039 C 
ATOM     10  C   UNL     1      49.357   7.433  19.198  1.00  0.00    -0.024 C 
BRANCH   3  11
ATOM     11  C   UNL     1      45.053   8.289  19.341  1.00  0.00     0.337 C 
ATOM     12  O   UNL     1      45.156   9.530  19.137  1.00  0.00    -0.246 OA
BRANCH  11  13
ATOM     13  O   UNL     1      43.958   7.584  18.829  1.00  0.00    -0.466 OA
ATOM     14  C   UNL     1      43.334   6.517  19.534  1.00  0.00     0.282 C 
ENDBRANCH  11  13
ENDBRANCH   3  11
BRANCH   9  15
ATOM     15  C   UNL     1      50.621   6.099  20.866  1.00  0.00     0.187 C 
BRANCH  15  16
ATOM     16  O   UNL     1      51.350   5.242  20.034  1.00  0.00    -0.392 OA
ATOM     17  H   UNL     1      52.288   5.564  20.063  1.00  0.00     0.211 HD
ENDBRANCH  15  16
ENDBRANCH   9  15
ENDBRANCH   1   2
BRANCH   1  18
ATOM     18  C   UNL     1      46.902   3.527  22.171  1.00  0.00     0.286 C 
ATOM     19  C   UNL     1      46.065   2.452  21.454  1.00  0.00     0.202 C 
ATOM     20  O   UNL     1      46.867   3.370  23.583  1.00  0.00    -0.341 OA
ATOM     21  C   UNL     1      44.610   2.473  21.947  1.00  0.00     0.179 C 
ATOM     22  C   UNL     1      45.559   3.363  24.152  1.00  0.00     0.178 C 
ATOM     23  C   UNL     1      44.585   2.361  23.475  1.00  0.00     0.177 C 
BRANCH  19  24
ATOM     24  O   UNL     1      46.120   2.646  20.064  1.00  0.00    -0.385 OA
ATOM     25  H   UNL     1      46.798   2.012  19.711  1.00  0.00     0.211 HD
ENDBRANCH  19  24
BRANCH  21  26
ATOM     26  O   UNL     1      43.954   3.648  21.540  1.00  0.00    -0.387 OA
ATOM     27  H   UNL     1      44.460   4.413  21.922  1.00  0.00     0.211 HD
ENDBRANCH  21  26
BRANCH  22  28
ATOM     28  C   UNL     1      44.968   4.776  24.329  1.00  0.00     0.191 C 
BRANCH  28  29
ATOM     29  O   UNL     1      45.963   5.672  24.747  1.00  0.00    -0.394 OA
ATOM     30  H   UNL     1      45.507   6.374  25.279  1.00  0.00     0.210 HD
ENDBRANCH  28  29
ENDBRANCH  22  28
BRANCH  23  31
ATOM     31  O   UNL     1      44.936   1.048  23.836  1.00  0.00    -0.387 OA
ATOM     32  H   UNL     1      44.285   0.441  23.395  1.00  0.00     0.211 HD
ENDBRANCH  23  31
ENDBRANCH   1  18
TORSDOF 11
ENDMDL
MODEL 6
REMARK VINA RESULT:    -5.061      2.320      6.620
REMARK INTER + INTRA:          -8.921
REMARK INTER:                  -7.629
REMARK INTRA:                  -1.292
REMARK UNBOUND:                -1.345
REMARK SMILES COC(=O)C1=CO[C@@H](O[C@H]2O[C@@H](CO)[C@H](O)[C@@H](O)[C@H]2O)[C@@H]2C(CO)=CC[C@H]12
REMARK SMILES IDX 9 1 8 2 5 3 6 4 27 5 7 6 21 7 26 8 22 9 25 10 3 11 4 12 2 13
REMARK SMILES IDX 1 14 23 15 24 16 10 18 19 19 11 20 17 21 12 22 15 23 20 24
REMARK SMILES IDX 18 26 13 28 14 29 16 31
REMARK H PARENT 24 17 20 25 18 27 14 30 16 32
REMARK Flexibility Score: inf
ROOT
ATOM      1  O   UNL     1      45.953   4.801  22.472  1.00  0.00    -0.310 OA
ENDROOT
BRANCH   1   2
ATOM      2  C   UNL     1      46.404   3.940  23.502  1.00  0.00     0.316 C 
ATOM      3  C   UNL     1      44.863   1.740  22.551  1.00  0.00     0.076 C 
ATOM      4  C   UNL     1      46.173   1.827  22.280  1.00  0.00     0.202 C 
ATOM      5  C   UNL     1      44.256   2.514  23.719  1.00  0.00     0.047 C 
ATOM      6  O   UNL     1      46.971   2.765  22.931  1.00  0.00    -0.471 OA
ATOM      7  C   UNL     1      45.196   3.563  24.379  1.00  0.00     0.094 C 
ATOM      8  C   UNL     1      43.897   1.542  24.862  1.00  0.00     0.037 C 
ATOM      9  C   UNL     1      45.586   2.933  25.681  1.00  0.00    -0.039 C 
ATOM     10  C   UNL     1      44.878   1.843  25.935  1.00  0.00    -0.024 C 
BRANCH   3  11
ATOM     11  C   UNL     1      44.001   0.835  21.752  1.00  0.00     0.337 C 
ATOM     12  O   UNL     1      44.047  -0.410  21.951  1.00  0.00    -0.246 OA
BRANCH  11  13
ATOM     13  O   UNL     1      43.132   1.358  20.788  1.00  0.00    -0.466 OA
ATOM     14  C   UNL     1      43.408   2.559  20.078  1.00  0.00     0.282 C 
ENDBRANCH  11  13
ENDBRANCH   3  11
BRANCH   9  15
ATOM     15  C   UNL     1      46.500   3.559  26.698  1.00  0.00     0.187 C 
BRANCH  15  16
ATOM     16  O   UNL     1      47.681   2.814  26.786  1.00  0.00    -0.392 OA
ATOM     17  H   UNL     1      48.073   2.812  25.875  1.00  0.00     0.211 HD
ENDBRANCH  15  16
ENDBRANCH   9  15
ENDBRANCH   1   2
BRANCH   1  18
ATOM     18  C   UNL     1      46.150   6.171  22.791  1.00  0.00     0.286 C 
ATOM     19  C   UNL     1      45.118   7.060  22.071  1.00  0.00     0.202 C 
ATOM     20  O   UNL     1      47.484   6.561  22.493  1.00  0.00    -0.341 OA
ATOM     21  C   UNL     1      45.343   7.036  20.551  1.00  0.00     0.179 C 
ATOM     22  C   UNL     1      47.803   6.587  21.103  1.00  0.00     0.178 C 
ATOM     23  C   UNL     1      46.799   7.401  20.243  1.00  0.00     0.177 C 
BRANCH  19  24
ATOM     24  O   UNL     1      43.817   6.638  22.386  1.00  0.00    -0.385 OA
ATOM     25  H   UNL     1      43.748   6.632  23.376  1.00  0.00     0.211 HD
ENDBRANCH  19  24
BRANCH  21  26
ATOM     26  O   UNL     1      45.041   5.772  20.014  1.00  0.00    -0.387 OA
ATOM     27  H   UNL     1      45.127   5.112  20.751  1.00  0.00     0.211 HD
ENDBRANCH  21  26
BRANCH  22  28
ATOM     28  C   UNL     1      48.119   5.190  20.529  1.00  0.00     0.191 C 
BRANCH  28  29
ATOM     29  O   UNL     1      47.627   5.078  19.221  1.00  0.00    -0.394 OA
ATOM     30  H   UNL     1      47.795   4.144  18.933  1.00  0.00     0.210 HD
ENDBRANCH  28  29
ENDBRANCH  22  28
BRANCH  23  31
ATOM     31  O   UNL     1      46.980   8.775  20.485  1.00  0.00    -0.387 OA
ATOM     32  H   UNL     1      47.958   8.935  20.534  1.00  0.00     0.211 HD
ENDBRANCH  23  31
ENDBRANCH   1  18
TORSDOF 11
ENDMDL
MODEL 7
REMARK VINA RESULT:    -4.999      2.130      4.586
REMARK INTER + INTRA:          -8.827
REMARK INTER:                  -7.374
REMARK INTRA:                  -1.454
REMARK UNBOUND:                -1.345
REMARK SMILES COC(=O)C1=CO[C@@H](O[C@H]2O[C@@H](CO)[C@H](O)[C@@H](O)[C@H]2O)[C@@H]2C(CO)=CC[C@H]12
REMARK SMILES IDX 9 1 8 2 5 3 6 4 27 5 7 6 21 7 26 8 22 9 25 10 3 11 4 12 2 13
REMARK SMILES IDX 1 14 23 15 24 16 10 18 19 19 11 20 17 21 12 22 15 23 20 24
REMARK SMILES IDX 18 26 13 28 14 29 16 31
REMARK H PARENT 24 17 20 25 18 27 14 30 16 32
REMARK Flexibility Score: inf
ROOT
ATOM      1  O   UNL     1      47.504   5.404  22.108  1.00  0.00    -0.310 OA
ENDROOT
BRANCH   1   2
ATOM      2  C   UNL     1      46.600   5.113  21.057  1.00  0.00     0.316 C 
ATOM      3  C   UNL     1      47.164   7.549  19.690  1.00  0.00     0.076 C 
ATOM      4  C   UNL     1      47.727   6.397  19.299  1.00  0.00     0.202 C 
ATOM      5  C   UNL     1      45.892   7.546  20.535  1.00  0.00     0.047 C 
ATOM      6  O   UNL     1      47.280   5.180  19.807  1.00  0.00    -0.471 OA
ATOM      7  C   UNL     1      45.469   6.156  21.092  1.00  0.00     0.094 C 
ATOM      8  C   UNL     1      44.693   8.001  19.678  1.00  0.00     0.037 C 
ATOM      9  C   UNL     1      44.287   5.773  20.254  1.00  0.00    -0.039 C 
ATOM     10  C   UNL     1      43.873   6.777  19.495  1.00  0.00    -0.024 C 
BRANCH   3  11
ATOM     11  C   UNL     1      47.740   8.842  19.248  1.00  0.00     0.337 C 
ATOM     12  O   UNL     1      48.384   9.553  20.067  1.00  0.00    -0.246 OA
BRANCH  11  13
ATOM     13  O   UNL     1      47.580   9.269  17.925  1.00  0.00    -0.466 OA
ATOM     14  C   UNL     1      48.669   9.376  17.016  1.00  0.00     0.282 C 
ENDBRANCH  11  13
ENDBRANCH   3  11
BRANCH   9  15
ATOM     15  C   UNL     1      43.509   4.495  20.401  1.00  0.00     0.187 C 
BRANCH  15  16
ATOM     16  O   UNL     1      42.392   4.530  19.558  1.00  0.00    -0.392 OA
ATOM     17  H   UNL     1      41.940   5.394  19.737  1.00  0.00     0.211 HD
ENDBRANCH  15  16
ENDBRANCH   9  15
ENDBRANCH   1   2
BRANCH   1  18
ATOM     18  C   UNL     1      48.487   4.391  22.268  1.00  0.00     0.286 C 
ATOM     19  C   UNL     1      48.472   3.829  23.702  1.00  0.00     0.202 C 
ATOM     20  O   UNL     1      49.770   4.885  21.907  1.00  0.00    -0.341 OA
ATOM     21  C   UNL     1      48.925   4.895  24.711  1.00  0.00     0.179 C 
ATOM     22  C   UNL     1      50.297   5.877  22.785  1.00  0.00     0.178 C 
ATOM     23  C   UNL     1      50.282   5.464  24.282  1.00  0.00     0.177 C 
BRANCH  19  24
ATOM     24  O   UNL     1      47.189   3.358  24.021  1.00  0.00    -0.385 OA
ATOM     25  H   UNL     1      46.912   3.821  24.855  1.00  0.00     0.211 HD
ENDBRANCH  19  24
BRANCH  21  26
ATOM     26  O   UNL     1      47.980   5.931  24.812  1.00  0.00    -0.387 OA
ATOM     27  H   UNL     1      47.183   5.556  25.271  1.00  0.00     0.211 HD
ENDBRANCH  21  26
BRANCH  22  28
ATOM     28  C   UNL     1      49.719   7.284  22.527  1.00  0.00     0.191 C 
BRANCH  28  29
ATOM     29  O   UNL     1      50.357   7.879  21.428  1.00  0.00    -0.394 OA
ATOM     30  H   UNL     1      49.652   8.346  20.911  1.00  0.00     0.210 HD
ENDBRANCH  28  29
ENDBRANCH  22  28
BRANCH  23  31
ATOM     31  O   UNL     1      51.271   4.489  24.510  1.00  0.00    -0.387 OA
ATOM     32  H   UNL     1      50.983   3.964  25.302  1.00  0.00     0.211 HD
ENDBRANCH  23  31
ENDBRANCH   1  18
TORSDOF 11
ENDMDL
MODEL 8
REMARK VINA RESULT:    -4.956      2.232      4.665
REMARK INTER + INTRA:          -8.764
REMARK INTER:                  -7.473
REMARK INTRA:                  -1.291
REMARK UNBOUND:                -1.345
REMARK SMILES COC(=O)C1=CO[C@@H](O[C@H]2O[C@@H](CO)[C@H](O)[C@@H](O)[C@H]2O)[C@@H]2C(CO)=CC[C@H]12
REMARK SMILES IDX 9 1 8 2 5 3 6 4 27 5 7 6 21 7 26 8 22 9 25 10 3 11 4 12 2 13
REMARK SMILES IDX 1 14 23 15 24 16 10 18 19 19 11 20 17 21 12 22 15 23 20 24
REMARK SMILES IDX 18 26 13 28 14 29 16 31
REMARK H PARENT 24 17 20 25 18 27 14 30 16 32
REMARK Flexibility Score: inf
ROOT
ATOM      1  O   UNL     1      47.100   6.703  21.132  1.00  0.00    -0.310 OA
ENDROOT
BRANCH   1   2
ATOM      2  C   UNL     1      45.794   7.177  21.409  1.00  0.00     0.316 C 
ATOM      3  C   UNL     1      44.750   4.549  21.768  1.00  0.00     0.076 C 
ATOM      4  C   UNL     1      45.067   5.312  22.824  1.00  0.00     0.202 C 
ATOM      5  C   UNL     1      44.489   5.182  20.403  1.00  0.00     0.047 C 
ATOM      6  O   UNL     1      45.354   6.666  22.663  1.00  0.00    -0.471 OA
ATOM      7  C   UNL     1      44.858   6.689  20.288  1.00  0.00     0.094 C 
ATOM      8  C   UNL     1      42.982   5.126  20.078  1.00  0.00     0.037 C 
ATOM      9  C   UNL     1      43.532   7.387  20.281  1.00  0.00    -0.039 C 
ATOM     10  C   UNL     1      42.525   6.535  20.165  1.00  0.00    -0.024 C 
BRANCH   3  11
ATOM     11  C   UNL     1      44.585   3.086  21.935  1.00  0.00     0.337 C 
ATOM     12  O   UNL     1      44.470   2.596  23.092  1.00  0.00    -0.246 OA
BRANCH  11  13
ATOM     13  O   UNL     1      44.547   2.248  20.814  1.00  0.00    -0.466 OA
ATOM     14  C   UNL     1      43.411   1.458  20.485  1.00  0.00     0.282 C 
ENDBRANCH  11  13
ENDBRANCH   3  11
BRANCH   9  15
ATOM     15  C   UNL     1      43.348   8.876  20.187  1.00  0.00     0.187 C 
BRANCH  15  16
ATOM     16  O   UNL     1      43.491   9.281  18.855  1.00  0.00    -0.392 OA
ATOM     17  H   UNL     1      42.587   9.224  18.452  1.00  0.00     0.211 HD
ENDBRANCH  15  16
ENDBRANCH   9  15
ENDBRANCH   1   2
BRANCH   1  18
ATOM     18  C   UNL     1      48.048   7.758  21.049  1.00  0.00     0.286 C 
ATOM     19  C   UNL     1      48.966   7.579  19.825  1.00  0.00     0.202 C 
ATOM     20  O   UNL     1      48.790   7.852  22.258  1.00  0.00    -0.341 OA
ATOM     21  C   UNL     1      49.860   6.339  19.989  1.00  0.00     0.179 C 
ATOM     22  C   UNL     1      49.667   6.756  22.508  1.00  0.00     0.178 C 
ATOM     23  C   UNL     1      50.612   6.422  21.322  1.00  0.00     0.177 C 
BRANCH  19  24
ATOM     24  O   UNL     1      48.196   7.483  18.656  1.00  0.00    -0.385 OA
ATOM     25  H   UNL     1      48.045   6.516  18.489  1.00  0.00     0.211 HD
ENDBRANCH  19  24
BRANCH  21  26
ATOM     26  O   UNL     1      49.101   5.157  19.938  1.00  0.00    -0.387 OA
ATOM     27  H   UNL     1      49.120   4.837  18.998  1.00  0.00     0.211 HD
ENDBRANCH  21  26
BRANCH  22  28
ATOM     28  C   UNL     1      48.944   5.523  23.088  1.00  0.00     0.191 C 
BRANCH  28  29
ATOM     29  O   UNL     1      49.654   4.352  22.782  1.00  0.00    -0.394 OA
ATOM     30  H   UNL     1      50.600   4.522  23.025  1.00  0.00     0.210 HD
ENDBRANCH  28  29
ENDBRANCH  22  28
BRANCH  23  31
ATOM     31  O   UNL     1      51.604   7.414  21.218  1.00  0.00    -0.387 OA
ATOM     32  H   UNL     1      52.054   7.284  20.343  1.00  0.00     0.211 HD
ENDBRANCH  23  31
ENDBRANCH   1  18
TORSDOF 11
ENDMDL
MODEL 9
REMARK VINA RESULT:    -4.932      2.005      3.124
REMARK INTER + INTRA:          -8.727
REMARK INTER:                  -7.325
REMARK INTRA:                  -1.402
REMARK UNBOUND:                -1.345
REMARK SMILES COC(=O)C1=CO[C@@H](O[C@H]2O[C@@H](CO)[C@H](O)[C@@H](O)[C@H]2O)[C@@H]2C(CO)=CC[C@H]12
REMARK SMILES IDX 9 1 8 2 5 3 6 4 27 5 7 6 21 7 26 8 22 9 25 10 3 11 4 12 2 13
REMARK SMILES IDX 1 14 23 15 24 16 10 18 19 19 11 20 17 21 12 22 15 23 20 24
REMARK SMILES IDX 18 26 13 28 14 29 16 31
REMARK H PARENT 24 17 20 25 18 27 14 30 16 32
REMARK Flexibility Score: inf
ROOT
ATOM      1  O   UNL     1      48.573   6.527  21.280  1.00  0.00    -0.310 OA
ENDROOT
BRANCH   1   2
ATOM      2  C   UNL     1      49.218   7.607  20.630  1.00  0.00     0.316 C 
ATOM      3  C   UNL     1      46.759   8.751  19.753  1.00  0.00     0.076 C 
ATOM      4  C   UNL     1      47.397   9.237  20.827  1.00  0.00     0.202 C 
ATOM      5  C   UNL     1      47.509   7.920  18.713  1.00  0.00     0.047 C 
ATOM      6  O   UNL     1      48.700   8.841  21.119  1.00  0.00    -0.471 OA
ATOM      7  C   UNL     1      48.947   7.490  19.119  1.00  0.00     0.094 C 
ATOM      8  C   UNL     1      47.699   8.743  17.423  1.00  0.00     0.037 C 
ATOM      9  C   UNL     1      49.835   8.368  18.291  1.00  0.00    -0.039 C 
ATOM     10  C   UNL     1      49.153   9.039  17.375  1.00  0.00    -0.024 C 
BRANCH   3  11
ATOM     11  C   UNL     1      45.329   9.072  19.533  1.00  0.00     0.337 C 
ATOM     12  O   UNL     1      45.012  10.125  18.914  1.00  0.00    -0.246 OA
BRANCH  11  13
ATOM     13  O   UNL     1      44.332   8.208  20.000  1.00  0.00    -0.466 OA
ATOM     14  C   UNL     1      43.828   7.127  19.225  1.00  0.00     0.282 C 
ENDBRANCH  11  13
ENDBRANCH   3  11
BRANCH   9  15
ATOM     15  C   UNL     1      51.338   8.340  18.320  1.00  0.00     0.187 C 
BRANCH  15  16
ATOM     16  O   UNL     1      51.834   8.543  17.027  1.00  0.00    -0.392 OA
ATOM     17  H   UNL     1      52.693   8.049  16.983  1.00  0.00     0.211 HD
ENDBRANCH  15  16
ENDBRANCH   9  15
ENDBRANCH   1   2
BRANCH   1  18
ATOM     18  C   UNL     1      49.021   6.360  22.618  1.00  0.00     0.286 C 
ATOM     19  C   UNL     1      49.450   4.904  22.878  1.00  0.00     0.202 C 
ATOM     20  O   UNL     1      48.020   6.788  23.532  1.00  0.00    -0.341 OA
ATOM     21  C   UNL     1      48.241   3.958  22.811  1.00  0.00     0.179 C 
ATOM     22  C   UNL     1      46.851   5.972  23.563  1.00  0.00     0.178 C 
ATOM     23  C   UNL     1      47.145   4.459  23.757  1.00  0.00     0.177 C 
BRANCH  19  24
ATOM     24  O   UNL     1      50.432   4.519  21.952  1.00  0.00    -0.385 OA
ATOM     25  H   UNL     1      51.161   4.085  22.469  1.00  0.00     0.211 HD
ENDBRANCH  19  24
BRANCH  21  26
ATOM     26  O   UNL     1      47.741   3.867  21.501  1.00  0.00    -0.387 OA
ATOM     27  H   UNL     1      47.395   2.943  21.383  1.00  0.00     0.211 HD
ENDBRANCH  21  26
BRANCH  22  28
ATOM     28  C   UNL     1      45.874   6.269  22.407  1.00  0.00     0.191 C 
BRANCH  28  29
ATOM     29  O   UNL     1      45.036   5.167  22.181  1.00  0.00    -0.394 OA
ATOM     30  H   UNL     1      44.226   5.309  22.734  1.00  0.00     0.210 HD
ENDBRANCH  28  29
ENDBRANCH  22  28
BRANCH  23  31
ATOM     31  O   UNL     1      47.552   4.226  25.083  1.00  0.00    -0.387 OA
ATOM     32  H   UNL     1      47.889   3.293  25.123  1.00  0.00     0.211 HD
ENDBRANCH  23  31
ENDBRANCH   1  18
TORSDOF 11
ENDMDL
