MODEL 1
REMARK VINA RESULT:    -3.385      0.000      0.000
REMARK INTER + INTRA:          -4.258
REMARK INTER:                  -4.177
REMARK INTRA:                  -0.082
REMARK UNBOUND:                -0.082
REMARK SMILES CCCCCC(=O)[O-]
REMARK SMILES IDX 4 1 5 2 6 3 7 4 8 5 3 6 2 7 1 8
REMARK H PARENT
REMARK Flexibility Score: inf
ROOT
ATOM      1  C   UNL     1       6.578   8.148  34.032  1.00  0.00     0.006 C 
ENDROOT
BRANCH   1   2
ATOM      2  C   UNL     1       7.158   6.726  34.077  1.00  0.00     0.053 C 
BRANCH   2   3
ATOM      3  C   UNL     1       7.654   6.364  35.443  1.00  0.00     0.041 C 
ATOM      4  O   UNL     1       8.597   5.542  35.577  1.00  0.00    -0.550 OA
ATOM      5  O   UNL     1       7.095   6.961  36.566  1.00  0.00    -0.550 OA
ENDBRANCH   2   3
ENDBRANCH   1   2
BRANCH   1   6
ATOM      6  C   UNL     1       7.250   9.074  33.000  1.00  0.00     0.000 C 
BRANCH   6   7
ATOM      7  C   UNL     1       6.520  10.415  32.843  1.00  0.00    -0.003 C 
ATOM      8  C   UNL     1       5.876  10.847  34.157  1.00  0.00     0.004 C 
ENDBRANCH   6   7
ENDBRANCH   1   6
TORSDOF 4
ENDMDL
MODEL 2
REMARK VINA RESULT:    -3.274      1.296      1.713
REMARK INTER + INTRA:          -4.121
REMARK INTER:                  -4.060
REMARK INTRA:                  -0.061
REMARK UNBOUND:                -0.082
REMARK SMILES CCCCCC(=O)[O-]
REMARK SMILES IDX 4 1 5 2 6 3 7 4 8 5 3 6 2 7 1 8
REMARK H PARENT
REMARK Flexibility Score: inf
ROOT
ATOM      1  C   UNL     1       6.786   6.724  33.947  1.00  0.00     0.006 C 
ENDROOT
BRANCH   1   2
ATOM      2  C   UNL     1       7.448   6.637  35.330  1.00  0.00     0.053 C 
BRANCH   2   3
ATOM      3  C   UNL     1       8.070   5.295  35.572  1.00  0.00     0.041 C 
ATOM      4  O   UNL     1       7.345   4.273  35.689  1.00  0.00    -0.550 OA
ATOM      5  O   UNL     1       9.452   5.170  35.633  1.00  0.00    -0.550 OA
ENDBRANCH   2   3
ENDBRANCH   1   2
BRANCH   1   6
ATOM      6  C   UNL     1       7.097   8.022  33.177  1.00  0.00     0.000 C 
BRANCH   6   7
ATOM      7  C   UNL     1       6.563   9.274  33.886  1.00  0.00    -0.003 C 
ATOM      8  C   UNL     1       6.436  10.444  32.914  1.00  0.00     0.004 C 
ENDBRANCH   6   7
ENDBRANCH   1   6
TORSDOF 4
ENDMDL
MODEL 3
REMARK VINA RESULT:    -3.125      2.328      4.054
REMARK INTER + INTRA:          -3.938
REMARK INTER:                  -3.728
REMARK INTRA:                  -0.210
REMARK UNBOUND:                -0.082
REMARK SMILES CCCCCC(=O)[O-]
REMARK SMILES IDX 4 1 5 2 6 3 7 4 8 5 3 6 2 7 1 8
REMARK H PARENT
REMARK Flexibility Score: inf
ROOT
ATOM      1  C   UNL     1       6.195   6.952  33.314  1.00  0.00     0.006 C 
ENDROOT
BRANCH   1   2
ATOM      2  C   UNL     1       7.234   8.080  33.222  1.00  0.00     0.053 C 
BRANCH   2   3
ATOM      3  C   UNL     1       6.655   9.410  33.597  1.00  0.00     0.041 C 
ATOM      4  O   UNL     1       6.529  10.313  32.730  1.00  0.00    -0.550 OA
ATOM      5  O   UNL     1       6.224   9.639  34.898  1.00  0.00    -0.550 OA
ENDBRANCH   2   3
ENDBRANCH   1   2
BRANCH   1   6
ATOM      6  C   UNL     1       6.319   6.078  34.577  1.00  0.00     0.000 C 
BRANCH   6   7
ATOM      7  C   UNL     1       7.752   6.030  35.126  1.00  0.00    -0.003 C 
ATOM      8  C   UNL     1       7.791   6.445  36.594  1.00  0.00     0.004 C 
ENDBRANCH   6   7
ENDBRANCH   1   6
TORSDOF 4
ENDMDL
MODEL 4
REMARK VINA RESULT:    -2.977      2.524      3.658
REMARK INTER + INTRA:          -3.755
REMARK INTER:                  -3.691
REMARK INTRA:                  -0.064
REMARK UNBOUND:                -0.082
REMARK SMILES CCCCCC(=O)[O-]
REMARK SMILES IDX 4 1 5 2 6 3 7 4 8 5 3 6 2 7 1 8
REMARK H PARENT
REMARK Flexibility Score: inf
ROOT
ATOM      1  C   UNL     1       8.245   5.762  35.354  1.00  0.00     0.006 C 
ENDROOT
BRANCH   1   2
ATOM      2  C   UNL     1       8.622   4.414  35.988  1.00  0.00     0.053 C 
BRANCH   2   3
ATOM      3  C   UNL     1      10.091   4.135  35.887  1.00  0.00     0.041 C 
ATOM      4  O   UNL     1      10.748   4.555  34.899  1.00  0.00    -0.550 OA
ATOM      5  O   UNL     1      10.738   3.441  36.901  1.00  0.00    -0.550 OA
ENDBRANCH   2   3
ENDBRANCH   1   2
BRANCH   1   6
ATOM      6  C   UNL     1       6.729   5.999  35.224  1.00  0.00     0.000 C 
BRANCH   6   7
ATOM      7  C   UNL     1       6.316   6.433  33.811  1.00  0.00    -0.003 C 
ATOM      8  C   UNL     1       6.962   7.764  33.435  1.00  0.00     0.004 C 
ENDBRANCH   6   7
ENDBRANCH   1   6
TORSDOF 4
ENDMDL
MODEL 5
REMARK VINA RESULT:    -2.703     10.748     12.342
REMARK INTER + INTRA:          -3.417
REMARK INTER:                  -3.311
REMARK INTRA:                  -0.106
REMARK UNBOUND:                -0.082
REMARK SMILES CCCCCC(=O)[O-]
REMARK SMILES IDX 4 1 5 2 6 3 7 4 8 5 3 6 2 7 1 8
REMARK H PARENT
REMARK Flexibility Score: inf
ROOT
ATOM      1  C   UNL     1       7.074  20.259  32.588  1.00  0.00     0.006 C 
ENDROOT
BRANCH   1   2
ATOM      2  C   UNL     1       6.020  19.268  33.106  1.00  0.00     0.053 C 
BRANCH   2   3
ATOM      3  C   UNL     1       6.311  18.819  34.506  1.00  0.00     0.041 C 
ATOM      4  O   UNL     1       6.155  17.613  34.829  1.00  0.00    -0.550 OA
ATOM      5  O   UNL     1       6.785  19.729  35.443  1.00  0.00    -0.550 OA
ENDBRANCH   2   3
ENDBRANCH   1   2
BRANCH   1   6
ATOM      6  C   UNL     1       6.493  21.594  32.084  1.00  0.00     0.000 C 
BRANCH   6   7
ATOM      7  C   UNL     1       7.068  22.014  30.724  1.00  0.00    -0.003 C 
ATOM      8  C   UNL     1       6.102  21.678  29.591  1.00  0.00     0.004 C 
ENDBRANCH   6   7
ENDBRANCH   1   6
TORSDOF 4
ENDMDL
MODEL 6
REMARK VINA RESULT:    -2.681     21.699     22.558
REMARK INTER + INTRA:          -3.390
REMARK INTER:                  -3.276
REMARK INTRA:                  -0.115
REMARK UNBOUND:                -0.082
REMARK SMILES CCCCCC(=O)[O-]
REMARK SMILES IDX 4 1 5 2 6 3 7 4 8 5 3 6 2 7 1 8
REMARK H PARENT
REMARK Flexibility Score: inf
ROOT
ATOM      1  C   UNL     1      18.046  19.896  19.833  1.00  0.00     0.006 C 
ENDROOT
BRANCH   1   2
ATOM      2  C   UNL     1      19.509  20.208  19.479  1.00  0.00     0.053 C 
BRANCH   2   3
ATOM      3  C   UNL     1      20.274  20.728  20.658  1.00  0.00     0.041 C 
ATOM      4  O   UNL     1      21.532  20.706  20.656  1.00  0.00    -0.550 OA
ATOM      5  O   UNL     1      19.595  21.268  21.744  1.00  0.00    -0.550 OA
ENDBRANCH   2   3
ENDBRANCH   1   2
BRANCH   1   6
ATOM      6  C   UNL     1      17.471  18.662  19.112  1.00  0.00     0.000 C 
BRANCH   6   7
ATOM      7  C   UNL     1      18.350  18.193  17.945  1.00  0.00    -0.003 C 
ATOM      8  C   UNL     1      18.506  16.674  17.950  1.00  0.00     0.004 C 
ENDBRANCH   6   7
ENDBRANCH   1   6
TORSDOF 4
ENDMDL
MODEL 7
REMARK VINA RESULT:    -2.608     21.744     22.442
REMARK INTER + INTRA:          -3.300
REMARK INTER:                  -3.161
REMARK INTRA:                  -0.139
REMARK UNBOUND:                -0.082
REMARK SMILES CCCCCC(=O)[O-]
REMARK SMILES IDX 4 1 5 2 6 3 7 4 8 5 3 6 2 7 1 8
REMARK H PARENT
REMARK Flexibility Score: inf
ROOT
ATOM      1  C   UNL     1      16.946  18.928  18.105  1.00  0.00     0.006 C 
ENDROOT
BRANCH   1   2
ATOM      2  C   UNL     1      17.506  19.103  19.525  1.00  0.00     0.053 C 
BRANCH   2   3
ATOM      3  C   UNL     1      18.411  20.293  19.629  1.00  0.00     0.041 C 
ATOM      4  O   UNL     1      18.043  21.410  19.184  1.00  0.00    -0.550 OA
ATOM      5  O   UNL     1      19.649  20.172  20.249  1.00  0.00    -0.550 OA
ENDBRANCH   2   3
ENDBRANCH   1   2
BRANCH   1   6
ATOM      6  C   UNL     1      17.765  17.973  17.215  1.00  0.00     0.000 C 
BRANCH   6   7
ATOM      7  C   UNL     1      18.476  16.876  18.020  1.00  0.00    -0.003 C 
ATOM      8  C   UNL     1      18.526  15.566  17.237  1.00  0.00     0.004 C 
ENDBRANCH   6   7
ENDBRANCH   1   6
TORSDOF 4
ENDMDL
MODEL 8
REMARK VINA RESULT:    -2.580      1.943      2.541
REMARK INTER + INTRA:          -3.265
REMARK INTER:                  -3.246
REMARK INTRA:                  -0.019
REMARK UNBOUND:                -0.082
REMARK SMILES CCCCCC(=O)[O-]
REMARK SMILES IDX 4 1 5 2 6 3 7 4 8 5 3 6 2 7 1 8
REMARK H PARENT
REMARK Flexibility Score: inf
ROOT
ATOM      1  C   UNL     1       6.727   9.839  33.497  1.00  0.00     0.006 C 
ENDROOT
BRANCH   1   2
ATOM      2  C   UNL     1       7.612   8.690  32.991  1.00  0.00     0.053 C 
BRANCH   2   3
ATOM      3  C   UNL     1       7.039   7.347  33.329  1.00  0.00     0.041 C 
ATOM      4  O   UNL     1       7.556   6.649  34.239  1.00  0.00    -0.550 OA
ATOM      5  O   UNL     1       5.913   6.884  32.660  1.00  0.00    -0.550 OA
ENDBRANCH   2   3
ENDBRANCH   1   2
BRANCH   1   6
ATOM      6  C   UNL     1       5.875   9.485  34.731  1.00  0.00     0.000 C 
BRANCH   6   7
ATOM      7  C   UNL     1       5.924  10.570  35.816  1.00  0.00    -0.003 C 
ATOM      8  C   UNL     1       6.155  11.949  35.203  1.00  0.00     0.004 C 
ENDBRANCH   6   7
ENDBRANCH   1   6
TORSDOF 4
ENDMDL
MODEL 9
REMARK VINA RESULT:    -2.502     21.839     22.575
REMARK INTER + INTRA:          -3.169
REMARK INTER:                  -3.109
REMARK INTRA:                  -0.059
REMARK UNBOUND:                -0.082
REMARK SMILES CCCCCC(=O)[O-]
REMARK SMILES IDX 4 1 5 2 6 3 7 4 8 5 3 6 2 7 1 8
REMARK H PARENT
REMARK Flexibility Score: inf
ROOT
ATOM      1  C   UNL     1      18.182  19.887  19.856  1.00  0.00     0.006 C 
ENDROOT
BRANCH   1   2
ATOM      2  C   UNL     1      19.630  20.263  19.506  1.00  0.00     0.053 C 
BRANCH   2   3
ATOM      3  C   UNL     1      20.380  20.781  20.695  1.00  0.00     0.041 C 
ATOM      4  O   UNL     1      21.638  20.767  20.705  1.00  0.00    -0.550 OA
ATOM      5  O   UNL     1      19.688  21.311  21.777  1.00  0.00    -0.550 OA
ENDBRANCH   2   3
ENDBRANCH   1   2
BRANCH   1   6
ATOM      6  C   UNL     1      17.605  18.735  19.012  1.00  0.00     0.000 C 
BRANCH   6   7
ATOM      7  C   UNL     1      16.423  19.176  18.138  1.00  0.00    -0.003 C 
ATOM      8  C   UNL     1      16.430  20.687  17.925  1.00  0.00     0.004 C 
ENDBRANCH   6   7
ENDBRANCH   1   6
TORSDOF 4
ENDMDL
