MODEL 1
REMARK VINA RESULT:    -8.566      0.000      0.000
REMARK INTER + INTRA:         -16.531
REMARK INTER:                 -14.074
REMARK INTRA:                  -2.457
REMARK UNBOUND:                -2.457
REMARK SMILES C[C@H]1O[C@H](OC[C@@H]2O[C@@H](Oc3c(-c4ccc(O)c(O)c4)oc4cc(O)cc(O)c4c3=O)[C@H](O)[C@@H](O)[C@@H]2O)[C@@H](O)[C@@H](O)[C@H]1O
REMARK SMILES IDX 7 1 36 2 34 3 32 4 9 5 8 6 6 7 5 8 4 9 1 10 2 11 42 12 3 13
REMARK SMILES IDX 40 14 38 15 43 16 41 18 39 20 37 22 35 24 10 26 11 27 12 28
REMARK SMILES IDX 30 29 21 30 29 31 31 32 22 33 27 34 23 35 26 36 24 37 13 38
REMARK SMILES IDX 20 39 14 40 18 41 15 42 16 43 19 44 17 46 28 48 25 50 33 52
REMARK H PARENT 43 17 41 19 39 21 37 23 35 25 19 45 17 47 28 49 25 51 33 53
REMARK Flexibility Score: inf
ROOT
ATOM      1  C   UNL     1     -11.530  42.080  29.433  1.00  0.00     0.180 C 
ATOM      2  C   UNL     1     -10.724  43.262  30.155  1.00  0.00     0.177 C 
ATOM      3  C   UNL     1     -11.533  43.761  31.389  1.00  0.00     0.180 C 
ATOM      4  C   UNL     1     -13.044  43.919  31.055  1.00  0.00     0.214 C 
ATOM      5  C   UNL     1     -13.623  42.773  30.166  1.00  0.00     0.339 C 
ATOM      6  O   UNL     1     -12.814  42.568  29.013  1.00  0.00    -0.332 OA
ENDROOT
BRANCH   1   7
ATOM      7  C   UNL     1     -10.677  41.617  28.243  1.00  0.00     0.198 C 
BRANCH   7   8
ATOM      8  O   UNL     1     -11.512  41.490  27.116  1.00  0.00    -0.347 OA
BRANCH   8   9
ATOM      9  C   UNL     1     -11.567  40.228  26.443  1.00  0.00     0.281 C 
ATOM     10  C   UNL     1     -15.180  39.964  25.555  1.00  0.00     0.041 C 
ATOM     11  C   UNL     1     -13.710  40.401  25.464  1.00  0.00     0.150 C 
ATOM     12  C   UNL     1     -13.178  40.071  23.994  1.00  0.00     0.174 C 
ATOM     13  O   UNL     1     -12.907  39.744  26.441  1.00  0.00    -0.344 OA
ATOM     14  C   UNL     1     -11.654  40.505  23.908  1.00  0.00     0.179 C 
ATOM     15  C   UNL     1     -10.786  39.991  25.096  1.00  0.00     0.202 C 
BRANCH  12  16
ATOM     16  O   UNL     1     -13.326  38.653  23.808  1.00  0.00    -0.388 OA
ATOM     17  H   UNL     1     -13.361  38.476  22.806  1.00  0.00     0.211 HD
ENDBRANCH  12  16
BRANCH  14  18
ATOM     18  O   UNL     1     -11.124  40.126  22.645  1.00  0.00    -0.387 OA
ATOM     19  H   UNL     1     -11.098  39.120  22.696  1.00  0.00     0.211 HD
ENDBRANCH  14  18
BRANCH  15  20
ATOM     20  O   UNL     1     -10.531  38.614  24.933  1.00  0.00    -0.385 OA
ATOM     21  H   UNL     1     -11.438  38.228  24.609  1.00  0.00     0.211 HD
ENDBRANCH  15  20
ENDBRANCH   8   9
ENDBRANCH   7   8
ENDBRANCH   1   7
BRANCH   2  22
ATOM     22  O   UNL     1     -10.437  44.394  29.316  1.00  0.00    -0.387 OA
ATOM     23  H   UNL     1     -10.509  44.123  28.349  1.00  0.00     0.211 HD
ENDBRANCH   2  22
BRANCH   3  24
ATOM     24  O   UNL     1     -11.273  42.919  32.502  1.00  0.00    -0.387 OA
ATOM     25  H   UNL     1     -11.355  41.930  32.275  1.00  0.00     0.211 HD
ENDBRANCH   3  24
BRANCH   5  26
ATOM     26  O   UNL     1     -13.732  41.467  30.809  1.00  0.00    -0.454 OA
BRANCH  26  27
ATOM     27  C   UNL     1     -14.482  40.323  30.469  1.00  0.00     0.214 A 
ATOM     28  C   UNL     1     -15.904  40.384  30.390  1.00  0.00     0.180 A 
ATOM     29  C   UNL     1     -13.828  39.178  29.971  1.00  0.00     0.239 A 
ATOM     30  O   UNL     1     -16.529  39.439  29.677  1.00  0.00    -0.452 OA
ATOM     31  C   UNL     1     -14.509  38.330  29.070  1.00  0.00     0.111 A 
ATOM     32  O   UNL     1     -12.648  38.913  30.328  1.00  0.00    -0.285 OA
ATOM     33  C   UNL     1     -15.918  38.465  29.004  1.00  0.00     0.146 A 
ATOM     34  C   UNL     1     -13.881  37.381  28.224  1.00  0.00     0.134 A 
ATOM     35  C   UNL     1     -16.677  37.637  28.164  1.00  0.00     0.094 A 
ATOM     36  C   UNL     1     -14.642  36.587  27.355  1.00  0.00     0.093 A 
ATOM     37  C   UNL     1     -16.041  36.724  27.321  1.00  0.00     0.123 A 
BRANCH  28  38
ATOM     38  C   UNL     1     -16.782  41.462  30.995  1.00  0.00     0.025 A 
ATOM     39  C   UNL     1     -16.862  42.808  30.470  1.00  0.00     0.062 A 
ATOM     40  C   UNL     1     -17.637  41.124  32.055  1.00  0.00     0.016 A 
ATOM     41  C   UNL     1     -17.606  43.804  31.168  1.00  0.00     0.158 A 
ATOM     42  C   UNL     1     -18.393  42.108  32.726  1.00  0.00     0.051 A 
ATOM     43  C   UNL     1     -18.371  43.448  32.268  1.00  0.00     0.157 A 
BRANCH  41  44
ATOM     44  O   UNL     1     -17.644  45.123  30.689  1.00  0.00    -0.504 OA
ATOM     45  H   UNL     1     -16.824  45.620  30.294  1.00  0.00     0.293 HD
ENDBRANCH  41  44
BRANCH  43  46
ATOM     46  O   UNL     1     -19.169  44.416  32.926  1.00  0.00    -0.504 OA
ATOM     47  H   UNL     1     -19.145  45.403  32.707  1.00  0.00     0.293 HD
ENDBRANCH  43  46
ENDBRANCH  28  38
BRANCH  34  48
ATOM     48  O   UNL     1     -12.491  37.268  28.126  1.00  0.00    -0.507 OA
ATOM     49  H   UNL     1     -12.016  36.916  27.283  1.00  0.00     0.293 HD
ENDBRANCH  34  48
BRANCH  37  50
ATOM     50  O   UNL     1     -16.799  35.958  26.456  1.00  0.00    -0.508 OA
ATOM     51  H   UNL     1     -16.383  35.433  25.689  1.00  0.00     0.293 HD
ENDBRANCH  37  50
ENDBRANCH  26  27
ENDBRANCH   5  26
BRANCH   4  52
ATOM     52  O   UNL     1     -13.271  45.215  30.512  1.00  0.00    -0.384 OA
ATOM     53  H   UNL     1     -12.786  45.913  31.057  1.00  0.00     0.211 HD
ENDBRANCH   4  52
TORSDOF 16
ENDMDL
MODEL 2
REMARK VINA RESULT:    -8.265      2.471      8.622
REMARK INTER + INTRA:         -16.037
REMARK INTER:                 -13.054
REMARK INTRA:                  -2.983
REMARK UNBOUND:                -2.457
REMARK SMILES C[C@H]1O[C@H](OC[C@@H]2O[C@@H](Oc3c(-c4ccc(O)c(O)c4)oc4cc(O)cc(O)c4c3=O)[C@H](O)[C@@H](O)[C@@H]2O)[C@@H](O)[C@@H](O)[C@H]1O
REMARK SMILES IDX 7 1 36 2 34 3 32 4 9 5 8 6 6 7 5 8 4 9 1 10 2 11 42 12 3 13
REMARK SMILES IDX 40 14 38 15 43 16 41 18 39 20 37 22 35 24 10 26 11 27 12 28
REMARK SMILES IDX 30 29 21 30 29 31 31 32 22 33 27 34 23 35 26 36 24 37 13 38
REMARK SMILES IDX 20 39 14 40 18 41 15 42 16 43 19 44 17 46 28 48 25 50 33 52
REMARK H PARENT 43 17 41 19 39 21 37 23 35 25 19 45 17 47 28 49 25 51 33 53
REMARK Flexibility Score: inf
ROOT
ATOM      1  C   UNL     1     -13.622  39.801  29.358  1.00  0.00     0.180 C 
ATOM      2  C   UNL     1     -13.919  38.262  29.693  1.00  0.00     0.177 C 
ATOM      3  C   UNL     1     -12.676  37.402  29.314  1.00  0.00     0.180 C 
ATOM      4  C   UNL     1     -12.095  37.818  27.932  1.00  0.00     0.214 C 
ATOM      5  C   UNL     1     -12.068  39.360  27.689  1.00  0.00     0.339 C 
ATOM      6  O   UNL     1     -13.341  39.938  27.956  1.00  0.00    -0.332 OA
ENDROOT
BRANCH   1   7
ATOM      7  C   UNL     1     -14.869  40.598  29.771  1.00  0.00     0.198 C 
BRANCH   7   8
ATOM      8  O   UNL     1     -14.724  40.991  31.116  1.00  0.00    -0.347 OA
BRANCH   8   9
ATOM      9  C   UNL     1     -13.655  41.878  31.459  1.00  0.00     0.281 C 
ATOM     10  C   UNL     1     -14.916  45.156  30.201  1.00  0.00     0.041 C 
ATOM     11  C   UNL     1     -14.747  43.948  31.135  1.00  0.00     0.150 C 
ATOM     12  C   UNL     1     -14.374  44.489  32.593  1.00  0.00     0.174 C 
ATOM     13  O   UNL     1     -13.738  43.058  30.665  1.00  0.00    -0.344 OA
ATOM     14  C   UNL     1     -14.181  43.239  33.551  1.00  0.00     0.179 C 
ATOM     15  C   UNL     1     -13.258  42.131  32.962  1.00  0.00     0.202 C 
BRANCH  12  16
ATOM     16  O   UNL     1     -13.152  45.234  32.458  1.00  0.00    -0.388 OA
ATOM     17  H   UNL     1     -13.072  45.519  31.483  1.00  0.00     0.211 HD
ENDBRANCH  12  16
BRANCH  14  18
ATOM     18  O   UNL     1     -13.745  43.685  34.828  1.00  0.00    -0.387 OA
ATOM     19  H   UNL     1     -14.547  44.174  35.190  1.00  0.00     0.211 HD
ENDBRANCH  14  18
BRANCH  15  20
ATOM     20  O   UNL     1     -11.914  42.548  33.032  1.00  0.00    -0.385 OA
ATOM     21  H   UNL     1     -11.977  43.564  33.231  1.00  0.00     0.211 HD
ENDBRANCH  15  20
ENDBRANCH   8   9
ENDBRANCH   7   8
ENDBRANCH   1   7
BRANCH   2  22
ATOM     22  O   UNL     1     -15.068  37.712  29.025  1.00  0.00    -0.387 OA
ATOM     23  H   UNL     1     -14.818  36.840  28.590  1.00  0.00     0.211 HD
ENDBRANCH   2  22
BRANCH   3  24
ATOM     24  O   UNL     1     -11.730  37.439  30.372  1.00  0.00    -0.387 OA
ATOM     25  H   UNL     1     -11.312  38.359  30.495  1.00  0.00     0.211 HD
ENDBRANCH   3  24
BRANCH   5  26
ATOM     26  O   UNL     1     -11.116  40.112  28.501  1.00  0.00    -0.454 OA
BRANCH  26  27
ATOM     27  C   UNL     1     -10.478  41.349  28.278  1.00  0.00     0.214 A 
ATOM     28  C   UNL     1     -10.216  41.803  26.952  1.00  0.00     0.180 A 
ATOM     29  C   UNL     1     -10.311  42.254  29.346  1.00  0.00     0.239 A 
ATOM     30  O   UNL     1     -10.011  43.113  26.772  1.00  0.00    -0.452 OA
ATOM     31  C   UNL     1     -10.291  43.641  29.080  1.00  0.00     0.111 A 
ATOM     32  O   UNL     1     -10.178  41.829  30.526  1.00  0.00    -0.285 OA
ATOM     33  C   UNL     1     -10.068  44.032  27.736  1.00  0.00     0.146 A 
ATOM     34  C   UNL     1     -10.498  44.652  30.052  1.00  0.00     0.134 A 
ATOM     35  C   UNL     1      -9.996  45.388  27.389  1.00  0.00     0.094 A 
ATOM     36  C   UNL     1     -10.468  46.006  29.690  1.00  0.00     0.093 A 
ATOM     37  C   UNL     1     -10.225  46.371  28.354  1.00  0.00     0.123 A 
BRANCH  28  38
ATOM     38  C   UNL     1     -10.205  40.942  25.704  1.00  0.00     0.025 A 
ATOM     39  C   UNL     1     -11.173  41.079  24.638  1.00  0.00     0.062 A 
ATOM     40  C   UNL     1      -9.153  40.032  25.517  1.00  0.00     0.016 A 
ATOM     41  C   UNL     1     -11.182  40.149  23.557  1.00  0.00     0.158 A 
ATOM     42  C   UNL     1      -9.150  39.133  24.431  1.00  0.00     0.051 A 
ATOM     43  C   UNL     1     -10.172  39.204  23.453  1.00  0.00     0.157 A 
BRANCH  41  44
ATOM     44  O   UNL     1     -12.151  40.248  22.547  1.00  0.00    -0.504 OA
ATOM     45  H   UNL     1     -12.025  40.792  21.673  1.00  0.00     0.293 HD
ENDBRANCH  41  44
BRANCH  43  46
ATOM     46  O   UNL     1     -10.132  38.321  22.345  1.00  0.00    -0.504 OA
ATOM     47  H   UNL     1     -10.948  37.860  21.969  1.00  0.00     0.293 HD
ENDBRANCH  43  46
ENDBRANCH  28  38
BRANCH  34  48
ATOM     48  O   UNL     1     -10.851  44.361  31.373  1.00  0.00    -0.507 OA
ATOM     49  H   UNL     1     -11.195  45.075  32.031  1.00  0.00     0.293 HD
ENDBRANCH  34  48
BRANCH  37  50
ATOM     50  O   UNL     1     -10.209  47.703  27.983  1.00  0.00    -0.508 OA
ATOM     51  H   UNL     1      -9.493  48.348  28.311  1.00  0.00     0.293 HD
ENDBRANCH  37  50
ENDBRANCH  26  27
ENDBRANCH   5  26
BRANCH   4  52
ATOM     52  O   UNL     1     -12.773  37.103  26.904  1.00  0.00    -0.384 OA
ATOM     53  H   UNL     1     -12.163  36.967  26.112  1.00  0.00     0.211 HD
ENDBRANCH   4  52
TORSDOF 16
ENDMDL
MODEL 3
REMARK VINA RESULT:    -8.163      1.900      5.390
REMARK INTER + INTRA:         -15.869
REMARK INTER:                 -13.064
REMARK INTRA:                  -2.805
REMARK UNBOUND:                -2.457
REMARK SMILES C[C@H]1O[C@H](OC[C@@H]2O[C@@H](Oc3c(-c4ccc(O)c(O)c4)oc4cc(O)cc(O)c4c3=O)[C@H](O)[C@@H](O)[C@@H]2O)[C@@H](O)[C@@H](O)[C@H]1O
REMARK SMILES IDX 7 1 36 2 34 3 32 4 9 5 8 6 6 7 5 8 4 9 1 10 2 11 42 12 3 13
REMARK SMILES IDX 40 14 38 15 43 16 41 18 39 20 37 22 35 24 10 26 11 27 12 28
REMARK SMILES IDX 30 29 21 30 29 31 31 32 22 33 27 34 23 35 26 36 24 37 13 38
REMARK SMILES IDX 20 39 14 40 18 41 15 42 16 43 19 44 17 46 28 48 25 50 33 52
REMARK H PARENT 43 17 41 19 39 21 37 23 35 25 19 45 17 47 28 49 25 51 33 53
REMARK Flexibility Score: inf
ROOT
ATOM      1  C   UNL     1     -11.979  39.968  29.982  1.00  0.00     0.180 C 
ATOM      2  C   UNL     1     -10.506  39.944  30.611  1.00  0.00     0.177 C 
ATOM      3  C   UNL     1     -10.281  41.237  31.451  1.00  0.00     0.180 C 
ATOM      4  C   UNL     1     -10.806  42.498  30.707  1.00  0.00     0.214 C 
ATOM      5  C   UNL     1     -12.167  42.284  29.971  1.00  0.00     0.339 C 
ATOM      6  O   UNL     1     -12.119  41.127  29.144  1.00  0.00    -0.332 OA
ENDROOT
BRANCH   1   7
ATOM      7  C   UNL     1     -12.149  38.665  29.188  1.00  0.00     0.198 C 
BRANCH   7   8
ATOM      8  O   UNL     1     -11.409  38.768  27.993  1.00  0.00    -0.347 OA
BRANCH   8   9
ATOM      9  C   UNL     1     -12.114  39.001  26.769  1.00  0.00     0.281 C 
ATOM     10  C   UNL     1     -10.717  42.280  25.668  1.00  0.00     0.041 C 
ATOM     11  C   UNL     1     -10.805  40.764  25.896  1.00  0.00     0.150 C 
ATOM     12  C   UNL     1     -10.568  40.031  24.495  1.00  0.00     0.174 C 
ATOM     13  O   UNL     1     -12.064  40.387  26.445  1.00  0.00    -0.344 OA
ATOM     14  C   UNL     1     -10.679  38.465  24.729  1.00  0.00     0.179 C 
ATOM     15  C   UNL     1     -11.940  38.037  25.536  1.00  0.00     0.202 C 
BRANCH  12  16
ATOM     16  O   UNL     1     -11.596  40.497  23.605  1.00  0.00    -0.388 OA
ATOM     17  H   UNL     1     -11.677  41.505  23.731  1.00  0.00     0.211 HD
ENDBRANCH  12  16
BRANCH  14  18
ATOM     18  O   UNL     1     -10.578  37.792  23.482  1.00  0.00    -0.387 OA
ATOM     19  H   UNL     1      -9.598  37.858  23.260  1.00  0.00     0.211 HD
ENDBRANCH  14  18
BRANCH  15  20
ATOM     20  O   UNL     1     -13.079  38.118  24.710  1.00  0.00    -0.385 OA
ATOM     21  H   UNL     1     -13.863  37.853  25.337  1.00  0.00     0.211 HD
ENDBRANCH  15  20
ENDBRANCH   8   9
ENDBRANCH   7   8
ENDBRANCH   1   7
BRANCH   2  22
ATOM     22  O   UNL     1      -9.442  39.840  29.649  1.00  0.00    -0.387 OA
ATOM     23  H   UNL     1      -8.759  40.559  29.824  1.00  0.00     0.211 HD
ENDBRANCH   2  22
BRANCH   3  24
ATOM     24  O   UNL     1     -10.827  41.064  32.750  1.00  0.00    -0.387 OA
ATOM     25  H   UNL     1     -11.253  41.913  33.114  1.00  0.00     0.211 HD
ENDBRANCH   3  24
BRANCH   5  26
ATOM     26  O   UNL     1     -13.331  42.104  30.834  1.00  0.00    -0.454 OA
BRANCH  26  27
ATOM     27  C   UNL     1     -14.571  42.774  30.874  1.00  0.00     0.214 A 
ATOM     28  C   UNL     1     -15.687  42.280  30.136  1.00  0.00     0.180 A 
ATOM     29  C   UNL     1     -14.788  43.791  31.825  1.00  0.00     0.239 A 
ATOM     30  O   UNL     1     -16.908  42.673  30.518  1.00  0.00    -0.452 OA
ATOM     31  C   UNL     1     -16.095  44.014  32.313  1.00  0.00     0.111 A 
ATOM     32  O   UNL     1     -13.826  44.497  32.232  1.00  0.00    -0.285 OA
ATOM     33  C   UNL     1     -17.162  43.463  31.560  1.00  0.00     0.146 A 
ATOM     34  C   UNL     1     -16.402  44.722  33.502  1.00  0.00     0.134 A 
ATOM     35  C   UNL     1     -18.492  43.667  31.952  1.00  0.00     0.094 A 
ATOM     36  C   UNL     1     -17.732  44.885  33.912  1.00  0.00     0.093 A 
ATOM     37  C   UNL     1     -18.776  44.347  33.138  1.00  0.00     0.123 A 
BRANCH  28  38
ATOM     38  C   UNL     1     -15.625  41.298  28.983  1.00  0.00     0.025 A 
ATOM     39  C   UNL     1     -15.210  41.668  27.647  1.00  0.00     0.062 A 
ATOM     40  C   UNL     1     -15.886  39.942  29.232  1.00  0.00     0.016 A 
ATOM     41  C   UNL     1     -15.303  40.723  26.583  1.00  0.00     0.158 A 
ATOM     42  C   UNL     1     -15.950  39.005  28.181  1.00  0.00     0.051 A 
ATOM     43  C   UNL     1     -15.651  39.408  26.857  1.00  0.00     0.157 A 
BRANCH  41  44
ATOM     44  O   UNL     1     -14.950  41.093  25.276  1.00  0.00    -0.504 OA
ATOM     45  H   UNL     1     -14.107  41.649  25.038  1.00  0.00     0.293 HD
ENDBRANCH  41  44
BRANCH  43  46
ATOM     46  O   UNL     1     -15.678  38.446  25.818  1.00  0.00    -0.504 OA
ATOM     47  H   UNL     1     -15.422  37.476  25.947  1.00  0.00     0.293 HD
ENDBRANCH  43  46
ENDBRANCH  28  38
BRANCH  34  48
ATOM     48  O   UNL     1     -15.413  45.187  34.374  1.00  0.00    -0.507 OA
ATOM     49  H   UNL     1     -14.464  44.788  34.409  1.00  0.00     0.293 HD
ENDBRANCH  34  48
BRANCH  37  50
ATOM     50  O   UNL     1     -20.091  44.488  33.541  1.00  0.00    -0.508 OA
ATOM     51  H   UNL     1     -20.621  45.342  33.376  1.00  0.00     0.293 HD
ENDBRANCH  37  50
ENDBRANCH  26  27
ENDBRANCH   5  26
BRANCH   4  52
ATOM     52  O   UNL     1      -9.783  42.999  29.853  1.00  0.00    -0.384 OA
ATOM     53  H   UNL     1      -9.236  42.238  29.478  1.00  0.00     0.211 HD
ENDBRANCH   4  52
TORSDOF 16
ENDMDL
MODEL 4
REMARK VINA RESULT:    -8.136      2.005      5.332
REMARK INTER + INTRA:         -15.825
REMARK INTER:                 -13.347
REMARK INTRA:                  -2.478
REMARK UNBOUND:                -2.457
REMARK SMILES C[C@H]1O[C@H](OC[C@@H]2O[C@@H](Oc3c(-c4ccc(O)c(O)c4)oc4cc(O)cc(O)c4c3=O)[C@H](O)[C@@H](O)[C@@H]2O)[C@@H](O)[C@@H](O)[C@H]1O
REMARK SMILES IDX 7 1 36 2 34 3 32 4 9 5 8 6 6 7 5 8 4 9 1 10 2 11 42 12 3 13
REMARK SMILES IDX 40 14 38 15 43 16 41 18 39 20 37 22 35 24 10 26 11 27 12 28
REMARK SMILES IDX 30 29 21 30 29 31 31 32 22 33 27 34 23 35 26 36 24 37 13 38
REMARK SMILES IDX 20 39 14 40 18 41 15 42 16 43 19 44 17 46 28 48 25 50 33 52
REMARK H PARENT 43 17 41 19 39 21 37 23 35 25 19 45 17 47 28 49 25 51 33 53
REMARK Flexibility Score: inf
ROOT
ATOM      1  C   UNL     1     -11.769  40.134  30.071  1.00  0.00     0.180 C 
ATOM      2  C   UNL     1     -10.356  40.188  30.825  1.00  0.00     0.177 C 
ATOM      3  C   UNL     1     -10.291  41.470  31.708  1.00  0.00     0.180 C 
ATOM      4  C   UNL     1     -10.834  42.714  30.949  1.00  0.00     0.214 C 
ATOM      5  C   UNL     1     -12.110  42.432  30.093  1.00  0.00     0.339 C 
ATOM      6  O   UNL     1     -11.914  41.303  29.249  1.00  0.00    -0.332 OA
ENDROOT
BRANCH   1   7
ATOM      7  C   UNL     1     -11.782  38.844  29.237  1.00  0.00     0.198 C 
BRANCH   7   8
ATOM      8  O   UNL     1     -12.187  39.162  27.925  1.00  0.00    -0.347 OA
BRANCH   8   9
ATOM      9  C   UNL     1     -11.201  39.175  26.889  1.00  0.00     0.281 C 
ATOM     10  C   UNL     1     -12.262  36.305  24.756  1.00  0.00     0.041 C 
ATOM     11  C   UNL     1     -12.243  37.724  25.342  1.00  0.00     0.150 C 
ATOM     12  C   UNL     1     -12.130  38.765  24.134  1.00  0.00     0.174 C 
ATOM     13  O   UNL     1     -11.160  37.902  26.251  1.00  0.00    -0.344 OA
ATOM     14  C   UNL     1     -12.090  40.230  24.743  1.00  0.00     0.179 C 
ATOM     15  C   UNL     1     -11.069  40.400  25.907  1.00  0.00     0.202 C 
BRANCH  12  16
ATOM     16  O   UNL     1     -10.911  38.459  23.436  1.00  0.00    -0.388 OA
ATOM     17  H   UNL     1     -10.850  37.445  23.356  1.00  0.00     0.211 HD
ENDBRANCH  12  16
BRANCH  14  18
ATOM     18  O   UNL     1     -11.883  41.171  23.699  1.00  0.00    -0.387 OA
ATOM     19  H   UNL     1     -11.919  40.606  22.866  1.00  0.00     0.211 HD
ENDBRANCH  14  18
BRANCH  15  20
ATOM     20  O   UNL     1      -9.761  40.449  25.385  1.00  0.00    -0.385 OA
ATOM     21  H   UNL     1      -9.889  40.819  24.424  1.00  0.00     0.211 HD
ENDBRANCH  15  20
ENDBRANCH   8   9
ENDBRANCH   7   8
ENDBRANCH   1   7
BRANCH   2  22
ATOM     22  O   UNL     1      -9.210  40.180  29.957  1.00  0.00    -0.387 OA
ATOM     23  H   UNL     1      -9.341  40.853  29.220  1.00  0.00     0.211 HD
ENDBRANCH   2  22
BRANCH   3  24
ATOM     24  O   UNL     1     -10.933  41.226  32.951  1.00  0.00    -0.387 OA
ATOM     25  H   UNL     1     -11.303  40.281  33.024  1.00  0.00     0.211 HD
ENDBRANCH   3  24
BRANCH   5  26
ATOM     26  O   UNL     1     -13.328  42.153  30.848  1.00  0.00    -0.454 OA
BRANCH  26  27
ATOM     27  C   UNL     1     -14.574  42.813  30.879  1.00  0.00     0.214 A 
ATOM     28  C   UNL     1     -15.680  42.312  30.131  1.00  0.00     0.180 A 
ATOM     29  C   UNL     1     -14.806  43.828  31.829  1.00  0.00     0.239 A 
ATOM     30  O   UNL     1     -16.907  42.695  30.504  1.00  0.00    -0.452 OA
ATOM     31  C   UNL     1     -16.118  44.039  32.307  1.00  0.00     0.111 A 
ATOM     32  O   UNL     1     -13.853  44.541  32.245  1.00  0.00    -0.285 OA
ATOM     33  C   UNL     1     -17.175  43.482  31.545  1.00  0.00     0.146 A 
ATOM     34  C   UNL     1     -16.440  44.744  33.495  1.00  0.00     0.134 A 
ATOM     35  C   UNL     1     -18.510  43.675  31.928  1.00  0.00     0.094 A 
ATOM     36  C   UNL     1     -17.775  44.896  33.894  1.00  0.00     0.093 A 
ATOM     37  C   UNL     1     -18.809  44.351  33.112  1.00  0.00     0.123 A 
BRANCH  28  38
ATOM     38  C   UNL     1     -15.602  41.332  28.978  1.00  0.00     0.025 A 
ATOM     39  C   UNL     1     -15.334  41.732  27.613  1.00  0.00     0.062 A 
ATOM     40  C   UNL     1     -15.695  39.958  29.248  1.00  0.00     0.016 A 
ATOM     41  C   UNL     1     -15.406  40.774  26.561  1.00  0.00     0.158 A 
ATOM     42  C   UNL     1     -15.738  39.010  28.205  1.00  0.00     0.051 A 
ATOM     43  C   UNL     1     -15.588  39.432  26.861  1.00  0.00     0.157 A 
BRANCH  41  44
ATOM     44  O   UNL     1     -15.197  41.168  25.230  1.00  0.00    -0.504 OA
ATOM     45  H   UNL     1     -15.315  40.539  24.413  1.00  0.00     0.293 HD
ENDBRANCH  41  44
BRANCH  43  46
ATOM     46  O   UNL     1     -15.591  38.462  25.828  1.00  0.00    -0.504 OA
ATOM     47  H   UNL     1     -15.282  37.508  25.956  1.00  0.00     0.293 HD
ENDBRANCH  43  46
ENDBRANCH  28  38
BRANCH  34  48
ATOM     48  O   UNL     1     -15.462  45.215  34.375  1.00  0.00    -0.507 OA
ATOM     49  H   UNL     1     -15.374  46.208  34.635  1.00  0.00     0.293 HD
ENDBRANCH  34  48
BRANCH  37  50
ATOM     50  O   UNL     1     -20.128  44.481  33.505  1.00  0.00    -0.508 OA
ATOM     51  H   UNL     1     -20.748  43.679  33.596  1.00  0.00     0.293 HD
ENDBRANCH  37  50
ENDBRANCH  26  27
ENDBRANCH   5  26
BRANCH   4  52
ATOM     52  O   UNL     1      -9.778  43.303  30.198  1.00  0.00    -0.384 OA
ATOM     53  H   UNL     1     -10.018  44.249  29.939  1.00  0.00     0.211 HD
ENDBRANCH   4  52
TORSDOF 16
ENDMDL
MODEL 5
REMARK VINA RESULT:    -8.047      1.344      5.089
REMARK INTER + INTRA:         -15.679
REMARK INTER:                 -12.865
REMARK INTRA:                  -2.814
REMARK UNBOUND:                -2.457
REMARK SMILES C[C@H]1O[C@H](OC[C@@H]2O[C@@H](Oc3c(-c4ccc(O)c(O)c4)oc4cc(O)cc(O)c4c3=O)[C@H](O)[C@@H](O)[C@@H]2O)[C@@H](O)[C@@H](O)[C@H]1O
REMARK SMILES IDX 7 1 36 2 34 3 32 4 9 5 8 6 6 7 5 8 4 9 1 10 2 11 42 12 3 13
REMARK SMILES IDX 40 14 38 15 43 16 41 18 39 20 37 22 35 24 10 26 11 27 12 28
REMARK SMILES IDX 30 29 21 30 29 31 31 32 22 33 27 34 23 35 26 36 24 37 13 38
REMARK SMILES IDX 20 39 14 40 18 41 15 42 16 43 19 44 17 46 28 48 25 50 33 52
REMARK H PARENT 43 17 41 19 39 21 37 23 35 25 19 45 17 47 28 49 25 51 33 53
REMARK Flexibility Score: inf
ROOT
ATOM      1  C   UNL     1     -11.716  41.770  29.223  1.00  0.00     0.180 C 
ATOM      2  C   UNL     1     -11.188  42.108  30.698  1.00  0.00     0.177 C 
ATOM      3  C   UNL     1     -12.352  42.716  31.537  1.00  0.00     0.180 C 
ATOM      4  C   UNL     1     -13.155  43.768  30.720  1.00  0.00     0.214 C 
ATOM      5  C   UNL     1     -13.408  43.363  29.232  1.00  0.00     0.339 C 
ATOM      6  O   UNL     1     -12.193  42.974  28.601  1.00  0.00    -0.332 OA
ENDROOT
BRANCH   1   7
ATOM      7  C   UNL     1     -10.536  41.158  28.454  1.00  0.00     0.198 C 
BRANCH   7   8
ATOM      8  O   UNL     1     -10.960  40.866  27.142  1.00  0.00    -0.347 OA
BRANCH   8   9
ATOM      9  C   UNL     1     -11.578  39.600  26.888  1.00  0.00     0.281 C 
ATOM     10  C   UNL     1     -14.892  40.607  25.503  1.00  0.00     0.041 C 
ATOM     11  C   UNL     1     -13.385  40.313  25.543  1.00  0.00     0.150 C 
ATOM     12  C   UNL     1     -13.040  39.294  24.360  1.00  0.00     0.174 C 
ATOM     13  O   UNL     1     -12.990  39.767  26.798  1.00  0.00    -0.344 OA
ATOM     14  C   UNL     1     -11.487  38.977  24.416  1.00  0.00     0.179 C 
ATOM     15  C   UNL     1     -10.973  38.597  25.836  1.00  0.00     0.202 C 
BRANCH  12  16
ATOM     16  O   UNL     1     -13.822  38.110  24.594  1.00  0.00    -0.388 OA
ATOM     17  H   UNL     1     -14.004  37.679  23.689  1.00  0.00     0.211 HD
ENDBRANCH  12  16
BRANCH  14  18
ATOM     18  O   UNL     1     -11.170  37.991  23.443  1.00  0.00    -0.387 OA
ATOM     19  H   UNL     1     -10.266  37.656  23.736  1.00  0.00     0.211 HD
ENDBRANCH  14  18
BRANCH  15  20
ATOM     20  O   UNL     1     -11.377  37.283  26.149  1.00  0.00    -0.385 OA
ATOM     21  H   UNL     1     -10.806  36.688  25.520  1.00  0.00     0.211 HD
ENDBRANCH  15  20
ENDBRANCH   8   9
ENDBRANCH   7   8
ENDBRANCH   1   7
BRANCH   2  22
ATOM     22  O   UNL     1     -10.076  43.019  30.744  1.00  0.00    -0.387 OA
ATOM     23  H   UNL     1      -9.825  43.290  29.808  1.00  0.00     0.211 HD
ENDBRANCH   2  22
BRANCH   3  24
ATOM     24  O   UNL     1     -13.149  41.670  32.074  1.00  0.00    -0.387 OA
ATOM     25  H   UNL     1     -13.576  41.918  32.964  1.00  0.00     0.211 HD
ENDBRANCH   3  24
BRANCH   5  26
ATOM     26  O   UNL     1     -14.333  42.253  29.027  1.00  0.00    -0.454 OA
BRANCH  26  27
ATOM     27  C   UNL     1     -15.560  41.940  29.646  1.00  0.00     0.214 A 
ATOM     28  C   UNL     1     -15.837  40.609  30.076  1.00  0.00     0.180 A 
ATOM     29  C   UNL     1     -16.420  42.976  30.061  1.00  0.00     0.239 A 
ATOM     30  O   UNL     1     -16.787  40.440  31.004  1.00  0.00    -0.452 OA
ATOM     31  C   UNL     1     -17.263  42.769  31.176  1.00  0.00     0.111 A 
ATOM     32  O   UNL     1     -16.440  44.074  29.441  1.00  0.00    -0.285 OA
ATOM     33  C   UNL     1     -17.468  41.428  31.584  1.00  0.00     0.146 A 
ATOM     34  C   UNL     1     -17.889  43.804  31.916  1.00  0.00     0.134 A 
ATOM     35  C   UNL     1     -18.318  41.130  32.658  1.00  0.00     0.094 A 
ATOM     36  C   UNL     1     -18.704  43.501  33.016  1.00  0.00     0.093 A 
ATOM     37  C   UNL     1     -18.909  42.162  33.390  1.00  0.00     0.123 A 
BRANCH  28  38
ATOM     38  C   UNL     1     -15.112  39.358  29.620  1.00  0.00     0.025 A 
ATOM     39  C   UNL     1     -13.910  38.863  30.254  1.00  0.00     0.062 A 
ATOM     40  C   UNL     1     -15.678  38.580  28.598  1.00  0.00     0.016 A 
ATOM     41  C   UNL     1     -13.208  37.757  29.690  1.00  0.00     0.158 A 
ATOM     42  C   UNL     1     -14.994  37.470  28.061  1.00  0.00     0.051 A 
ATOM     43  C   UNL     1     -13.758  37.065  28.621  1.00  0.00     0.157 A 
BRANCH  41  44
ATOM     44  O   UNL     1     -12.014  37.305  30.272  1.00  0.00    -0.504 OA
ATOM     45  H   UNL     1     -11.181  37.006  29.731  1.00  0.00     0.293 HD
ENDBRANCH  41  44
BRANCH  43  46
ATOM     46  O   UNL     1     -13.104  35.922  28.098  1.00  0.00    -0.504 OA
ATOM     47  H   UNL     1     -13.279  34.981  28.422  1.00  0.00     0.293 HD
ENDBRANCH  43  46
ENDBRANCH  28  38
BRANCH  34  48
ATOM     48  O   UNL     1     -17.643  45.158  31.668  1.00  0.00    -0.507 OA
ATOM     49  H   UNL     1     -17.062  45.743  32.286  1.00  0.00     0.293 HD
ENDBRANCH  34  48
BRANCH  37  50
ATOM     50  O   UNL     1     -19.697  41.852  34.483  1.00  0.00    -0.508 OA
ATOM     51  H   UNL     1     -19.981  42.555  35.163  1.00  0.00     0.293 HD
ENDBRANCH  37  50
ENDBRANCH  26  27
ENDBRANCH   5  26
BRANCH   4  52
ATOM     52  O   UNL     1     -12.533  45.041  30.854  1.00  0.00    -0.384 OA
ATOM     53  H   UNL     1     -11.940  45.056  31.671  1.00  0.00     0.211 HD
ENDBRANCH   4  52
TORSDOF 16
ENDMDL
MODEL 6
REMARK VINA RESULT:    -8.006      1.880      8.839
REMARK INTER + INTRA:         -15.612
REMARK INTER:                 -13.654
REMARK INTRA:                  -1.958
REMARK UNBOUND:                -2.457
REMARK SMILES C[C@H]1O[C@H](OC[C@@H]2O[C@@H](Oc3c(-c4ccc(O)c(O)c4)oc4cc(O)cc(O)c4c3=O)[C@H](O)[C@@H](O)[C@@H]2O)[C@@H](O)[C@@H](O)[C@H]1O
REMARK SMILES IDX 7 1 36 2 34 3 32 4 9 5 8 6 6 7 5 8 4 9 1 10 2 11 42 12 3 13
REMARK SMILES IDX 40 14 38 15 43 16 41 18 39 20 37 22 35 24 10 26 11 27 12 28
REMARK SMILES IDX 30 29 21 30 29 31 31 32 22 33 27 34 23 35 26 36 24 37 13 38
REMARK SMILES IDX 20 39 14 40 18 41 15 42 16 43 19 44 17 46 28 48 25 50 33 52
REMARK H PARENT 43 17 41 19 39 21 37 23 35 25 19 45 17 47 28 49 25 51 33 53
REMARK Flexibility Score: inf
ROOT
ATOM      1  C   UNL     1     -15.242  39.142  29.366  1.00  0.00     0.180 C 
ATOM      2  C   UNL     1     -15.546  37.821  28.512  1.00  0.00     0.177 C 
ATOM      3  C   UNL     1     -14.579  37.758  27.292  1.00  0.00     0.180 C 
ATOM      4  C   UNL     1     -14.452  39.142  26.595  1.00  0.00     0.214 C 
ATOM      5  C   UNL     1     -14.369  40.350  27.582  1.00  0.00     0.339 C 
ATOM      6  O   UNL     1     -15.427  40.299  28.533  1.00  0.00    -0.332 OA
ENDROOT
BRANCH   1   7
ATOM      7  C   UNL     1     -16.207  39.137  30.560  1.00  0.00     0.198 C 
BRANCH   7   8
ATOM      8  O   UNL     1     -16.771  40.423  30.686  1.00  0.00    -0.347 OA
BRANCH   8   9
ATOM      9  C   UNL     1     -16.511  41.170  31.879  1.00  0.00     0.281 C 
ATOM     10  C   UNL     1     -17.173  44.671  30.773  1.00  0.00     0.041 C 
ATOM     11  C   UNL     1     -17.462  43.241  31.254  1.00  0.00     0.150 C 
ATOM     12  C   UNL     1     -18.385  43.326  32.557  1.00  0.00     0.174 C 
ATOM     13  O   UNL     1     -16.261  42.532  31.544  1.00  0.00    -0.344 OA
ATOM     14  C   UNL     1     -18.666  41.849  33.063  1.00  0.00     0.179 C 
ATOM     15  C   UNL     1     -17.386  40.967  33.172  1.00  0.00     0.202 C 
BRANCH  12  16
ATOM     16  O   UNL     1     -17.651  44.081  33.535  1.00  0.00    -0.388 OA
ATOM     17  H   UNL     1     -17.786  45.069  33.326  1.00  0.00     0.211 HD
ENDBRANCH  12  16
BRANCH  14  18
ATOM     18  O   UNL     1     -19.396  41.897  34.281  1.00  0.00    -0.387 OA
ATOM     19  H   UNL     1     -19.199  41.005  34.706  1.00  0.00     0.211 HD
ENDBRANCH  14  18
BRANCH  15  20
ATOM     20  O   UNL     1     -16.645  41.347  34.308  1.00  0.00    -0.385 OA
ATOM     21  H   UNL     1     -16.019  40.539  34.481  1.00  0.00     0.211 HD
ENDBRANCH  15  20
ENDBRANCH   8   9
ENDBRANCH   7   8
ENDBRANCH   1   7
BRANCH   2  22
ATOM     22  O   UNL     1     -16.895  37.718  28.024  1.00  0.00    -0.387 OA
ATOM     23  H   UNL     1     -17.535  37.716  28.801  1.00  0.00     0.211 HD
ENDBRANCH   2  22
BRANCH   3  24
ATOM     24  O   UNL     1     -13.338  37.198  27.696  1.00  0.00    -0.387 OA
ATOM     25  H   UNL     1     -12.541  37.646  27.249  1.00  0.00     0.211 HD
ENDBRANCH   3  24
BRANCH   5  26
ATOM     26  O   UNL     1     -13.140  40.444  28.364  1.00  0.00    -0.454 OA
BRANCH  26  27
ATOM     27  C   UNL     1     -12.099  41.395  28.347  1.00  0.00     0.214 A 
ATOM     28  C   UNL     1     -11.253  41.525  27.207  1.00  0.00     0.180 A 
ATOM     29  C   UNL     1     -12.036  42.383  29.350  1.00  0.00     0.239 A 
ATOM     30  O   UNL     1     -10.583  42.674  27.058  1.00  0.00    -0.452 OA
ATOM     31  C   UNL     1     -11.473  43.642  29.045  1.00  0.00     0.111 A 
ATOM     32  O   UNL     1     -12.475  42.144  30.507  1.00  0.00    -0.285 OA
ATOM     33  C   UNL     1     -10.675  43.721  27.876  1.00  0.00     0.146 A 
ATOM     34  C   UNL     1     -11.669  44.820  29.809  1.00  0.00     0.134 A 
ATOM     35  C   UNL     1     -10.048  44.923  27.519  1.00  0.00     0.094 A 
ATOM     36  C   UNL     1     -11.074  46.029  29.422  1.00  0.00     0.093 A 
ATOM     37  C   UNL     1     -10.271  46.079  28.270  1.00  0.00     0.123 A 
BRANCH  28  38
ATOM     38  C   UNL     1     -11.081  40.498  26.105  1.00  0.00     0.025 A 
ATOM     39  C   UNL     1     -11.111  40.832  24.698  1.00  0.00     0.062 A 
ATOM     40  C   UNL     1     -10.783  39.172  26.454  1.00  0.00     0.016 A 
ATOM     41  C   UNL     1     -11.075  39.798  23.717  1.00  0.00     0.158 A 
ATOM     42  C   UNL     1     -10.720  38.156  25.479  1.00  0.00     0.051 A 
ATOM     43  C   UNL     1     -10.865  38.484  24.108  1.00  0.00     0.157 A 
BRANCH  41  44
ATOM     44  O   UNL     1     -11.155  40.115  22.352  1.00  0.00    -0.504 OA
ATOM     45  H   UNL     1     -11.727  39.587  21.666  1.00  0.00     0.293 HD
ENDBRANCH  41  44
BRANCH  43  46
ATOM     46  O   UNL     1     -10.758  37.458  23.137  1.00  0.00    -0.504 OA
ATOM     47  H   UNL     1      -9.971  36.827  23.075  1.00  0.00     0.293 HD
ENDBRANCH  43  46
ENDBRANCH  28  38
BRANCH  34  48
ATOM     48  O   UNL     1     -12.542  44.869  30.901  1.00  0.00    -0.507 OA
ATOM     49  H   UNL     1     -12.471  45.580  31.642  1.00  0.00     0.293 HD
ENDBRANCH  34  48
BRANCH  37  50
ATOM     50  O   UNL     1      -9.692  47.269  27.870  1.00  0.00    -0.508 OA
ATOM     51  H   UNL     1      -8.733  47.514  28.111  1.00  0.00     0.293 HD
ENDBRANCH  37  50
ENDBRANCH  26  27
ENDBRANCH   5  26
BRANCH   4  52
ATOM     52  O   UNL     1     -15.491  39.279  25.631  1.00  0.00    -0.384 OA
ATOM     53  H   UNL     1     -16.235  38.625  25.823  1.00  0.00     0.211 HD
ENDBRANCH   4  52
TORSDOF 16
ENDMDL
MODEL 7
REMARK VINA RESULT:    -8.000      2.298      6.548
REMARK INTER + INTRA:         -15.602
REMARK INTER:                 -13.385
REMARK INTRA:                  -2.217
REMARK UNBOUND:                -2.457
REMARK SMILES C[C@H]1O[C@H](OC[C@@H]2O[C@@H](Oc3c(-c4ccc(O)c(O)c4)oc4cc(O)cc(O)c4c3=O)[C@H](O)[C@@H](O)[C@@H]2O)[C@@H](O)[C@@H](O)[C@H]1O
REMARK SMILES IDX 7 1 36 2 34 3 32 4 9 5 8 6 6 7 5 8 4 9 1 10 2 11 42 12 3 13
REMARK SMILES IDX 40 14 38 15 43 16 41 18 39 20 37 22 35 24 10 26 11 27 12 28
REMARK SMILES IDX 30 29 21 30 29 31 31 32 22 33 27 34 23 35 26 36 24 37 13 38
REMARK SMILES IDX 20 39 14 40 18 41 15 42 16 43 19 44 17 46 28 48 25 50 33 52
REMARK H PARENT 43 17 41 19 39 21 37 23 35 25 19 45 17 47 28 49 25 51 33 53
REMARK Flexibility Score: inf
ROOT
ATOM      1  C   UNL     1     -10.516  41.771  30.480  1.00  0.00     0.180 C 
ATOM      2  C   UNL     1     -10.066  40.581  29.506  1.00  0.00     0.177 C 
ATOM      3  C   UNL     1     -11.327  39.945  28.849  1.00  0.00     0.180 C 
ATOM      4  C   UNL     1     -12.466  39.734  29.887  1.00  0.00     0.214 C 
ATOM      5  C   UNL     1     -12.635  40.914  30.897  1.00  0.00     0.339 C 
ATOM      6  O   UNL     1     -11.389  41.250  31.496  1.00  0.00    -0.332 OA
ENDROOT
BRANCH   1   7
ATOM      7  C   UNL     1      -9.235  42.370  31.079  1.00  0.00     0.198 C 
BRANCH   7   8
ATOM      8  O   UNL     1      -8.875  43.504  30.325  1.00  0.00    -0.347 OA
BRANCH   8   9
ATOM      9  C   UNL     1      -9.872  44.128  29.509  1.00  0.00     0.281 C 
ATOM     10  C   UNL     1      -9.339  47.746  30.244  1.00  0.00     0.041 C 
ATOM     11  C   UNL     1      -9.115  46.364  29.612  1.00  0.00     0.150 C 
ATOM     12  C   UNL     1      -9.088  46.536  28.023  1.00  0.00     0.174 C 
ATOM     13  O   UNL     1     -10.132  45.442  29.993  1.00  0.00    -0.344 OA
ATOM     14  C   UNL     1      -8.876  45.104  27.372  1.00  0.00     0.179 C 
ATOM     15  C   UNL     1      -9.828  44.009  27.939  1.00  0.00     0.202 C 
BRANCH  12  16
ATOM     16  O   UNL     1     -10.357  47.096  27.646  1.00  0.00    -0.388 OA
ATOM     17  H   UNL     1     -10.831  46.415  27.054  1.00  0.00     0.211 HD
ENDBRANCH  12  16
BRANCH  14  18
ATOM     18  O   UNL     1      -8.955  45.211  25.957  1.00  0.00    -0.387 OA
ATOM     19  H   UNL     1      -8.355  44.469  25.634  1.00  0.00     0.211 HD
ENDBRANCH  14  18
BRANCH  15  20
ATOM     20  O   UNL     1     -11.124  44.191  27.415  1.00  0.00    -0.385 OA
ATOM     21  H   UNL     1     -11.673  44.543  28.222  1.00  0.00     0.211 HD
ENDBRANCH  15  20
ENDBRANCH   8   9
ENDBRANCH   7   8
ENDBRANCH   1   7
BRANCH   2  22
ATOM     22  O   UNL     1      -9.314  39.534  30.144  1.00  0.00    -0.387 OA
ATOM     23  H   UNL     1      -9.082  39.811  31.083  1.00  0.00     0.211 HD
ENDBRANCH   2  22
BRANCH   3  24
ATOM     24  O   UNL     1     -11.712  40.711  27.717  1.00  0.00    -0.387 OA
ATOM     25  H   UNL     1     -12.713  40.892  27.686  1.00  0.00     0.211 HD
ENDBRANCH   3  24
BRANCH   5  26
ATOM     26  O   UNL     1     -13.151  42.158  30.335  1.00  0.00    -0.454 OA
BRANCH  26  27
ATOM     27  C   UNL     1     -14.411  42.779  30.455  1.00  0.00     0.214 A 
ATOM     28  C   UNL     1     -15.551  42.247  29.784  1.00  0.00     0.180 A 
ATOM     29  C   UNL     1     -14.608  43.783  31.425  1.00  0.00     0.239 A 
ATOM     30  O   UNL     1     -16.760  42.591  30.242  1.00  0.00    -0.452 OA
ATOM     31  C   UNL     1     -15.890  43.953  31.994  1.00  0.00     0.111 A 
ATOM     32  O   UNL     1     -13.650  44.524  31.777  1.00  0.00    -0.285 OA
ATOM     33  C   UNL     1     -16.979  43.365  31.304  1.00  0.00     0.146 A 
ATOM     34  C   UNL     1     -16.150  44.644  33.204  1.00  0.00     0.134 A 
ATOM     35  C   UNL     1     -18.290  43.516  31.778  1.00  0.00     0.094 A 
ATOM     36  C   UNL     1     -17.458  44.753  33.696  1.00  0.00     0.093 A 
ATOM     37  C   UNL     1     -18.526  44.180  32.984  1.00  0.00     0.123 A 
BRANCH  28  38
ATOM     38  C   UNL     1     -15.523  41.272  28.623  1.00  0.00     0.025 A 
ATOM     39  C   UNL     1     -15.072  41.633  27.296  1.00  0.00     0.062 A 
ATOM     40  C   UNL     1     -15.855  39.929  28.856  1.00  0.00     0.016 A 
ATOM     41  C   UNL     1     -15.197  40.704  26.222  1.00  0.00     0.158 A 
ATOM     42  C   UNL     1     -15.951  39.006  27.795  1.00  0.00     0.051 A 
ATOM     43  C   UNL     1     -15.614  39.406  26.478  1.00  0.00     0.157 A 
BRANCH  41  44
ATOM     44  O   UNL     1     -14.808  41.067  24.923  1.00  0.00    -0.504 OA
ATOM     45  H   UNL     1     -15.218  41.860  24.395  1.00  0.00     0.293 HD
ENDBRANCH  41  44
BRANCH  43  46
ATOM     46  O   UNL     1     -15.675  38.455  25.430  1.00  0.00    -0.504 OA
ATOM     47  H   UNL     1     -16.179  38.606  24.567  1.00  0.00     0.293 HD
ENDBRANCH  43  46
ENDBRANCH  28  38
BRANCH  34  48
ATOM     48  O   UNL     1     -15.128  45.143  34.017  1.00  0.00    -0.507 OA
ATOM     49  H   UNL     1     -14.131  45.087  33.762  1.00  0.00     0.293 HD
ENDBRANCH  34  48
BRANCH  37  50
ATOM     50  O   UNL     1     -19.818  44.268  33.468  1.00  0.00    -0.508 OA
ATOM     51  H   UNL     1     -20.283  45.162  33.613  1.00  0.00     0.293 HD
ENDBRANCH  37  50
ENDBRANCH  26  27
ENDBRANCH   5  26
BRANCH   4  52
ATOM     52  O   UNL     1     -12.291  38.474  30.525  1.00  0.00    -0.384 OA
ATOM     53  H   UNL     1     -12.796  37.756  30.027  1.00  0.00     0.211 HD
ENDBRANCH   4  52
TORSDOF 16
ENDMDL
MODEL 8
REMARK VINA RESULT:    -7.911      1.880      5.693
REMARK INTER + INTRA:         -15.456
REMARK INTER:                 -12.658
REMARK INTRA:                  -2.798
REMARK UNBOUND:                -2.457
REMARK SMILES C[C@H]1O[C@H](OC[C@@H]2O[C@@H](Oc3c(-c4ccc(O)c(O)c4)oc4cc(O)cc(O)c4c3=O)[C@H](O)[C@@H](O)[C@@H]2O)[C@@H](O)[C@@H](O)[C@H]1O
REMARK SMILES IDX 7 1 36 2 34 3 32 4 9 5 8 6 6 7 5 8 4 9 1 10 2 11 42 12 3 13
REMARK SMILES IDX 40 14 38 15 43 16 41 18 39 20 37 22 35 24 10 26 11 27 12 28
REMARK SMILES IDX 30 29 21 30 29 31 31 32 22 33 27 34 23 35 26 36 24 37 13 38
REMARK SMILES IDX 20 39 14 40 18 41 15 42 16 43 19 44 17 46 28 48 25 50 33 52
REMARK H PARENT 43 17 41 19 39 21 37 23 35 25 19 45 17 47 28 49 25 51 33 53
REMARK Flexibility Score: inf
ROOT
ATOM      1  C   UNL     1     -16.377  40.193  30.596  1.00  0.00     0.180 C 
ATOM      2  C   UNL     1     -17.476  40.444  31.735  1.00  0.00     0.177 C 
ATOM      3  C   UNL     1     -17.440  41.940  32.168  1.00  0.00     0.180 C 
ATOM      4  C   UNL     1     -15.981  42.446  32.348  1.00  0.00     0.214 C 
ATOM      5  C   UNL     1     -14.989  41.937  31.254  1.00  0.00     0.339 C 
ATOM      6  O   UNL     1     -15.076  40.524  31.110  1.00  0.00    -0.332 OA
ENDROOT
BRANCH   1   7
ATOM      7  C   UNL     1     -16.474  38.713  30.196  1.00  0.00     0.198 C 
BRANCH   7   8
ATOM      8  O   UNL     1     -15.579  38.476  29.135  1.00  0.00    -0.347 OA
BRANCH   8   9
ATOM      9  C   UNL     1     -14.571  37.473  29.300  1.00  0.00     0.281 C 
ATOM     10  C   UNL     1     -13.794  36.550  25.770  1.00  0.00     0.041 C 
ATOM     11  C   UNL     1     -13.774  37.354  27.079  1.00  0.00     0.150 C 
ATOM     12  C   UNL     1     -12.250  37.582  27.506  1.00  0.00     0.174 C 
ATOM     13  O   UNL     1     -14.483  36.684  28.117  1.00  0.00    -0.344 OA
ATOM     14  C   UNL     1     -12.232  38.396  28.868  1.00  0.00     0.179 C 
ATOM     15  C   UNL     1     -13.183  37.817  29.958  1.00  0.00     0.202 C 
BRANCH  12  16
ATOM     16  O   UNL     1     -11.667  36.278  27.671  1.00  0.00    -0.388 OA
ATOM     17  H   UNL     1     -11.496  36.142  28.665  1.00  0.00     0.211 HD
ENDBRANCH  12  16
BRANCH  14  18
ATOM     18  O   UNL     1     -10.893  38.521  29.326  1.00  0.00    -0.387 OA
ATOM     19  H   UNL     1     -10.346  38.337  28.501  1.00  0.00     0.211 HD
ENDBRANCH  14  18
BRANCH  15  20
ATOM     20  O   UNL     1     -12.617  36.649  30.506  1.00  0.00    -0.385 OA
ATOM     21  H   UNL     1     -12.603  36.833  31.527  1.00  0.00     0.211 HD
ENDBRANCH  15  20
ENDBRANCH   8   9
ENDBRANCH   7   8
ENDBRANCH   1   7
BRANCH   2  22
ATOM     22  O   UNL     1     -17.321  39.630  32.910  1.00  0.00    -0.387 OA
ATOM     23  H   UNL     1     -18.098  39.783  33.530  1.00  0.00     0.211 HD
ENDBRANCH   2  22
BRANCH   3  24
ATOM     24  O   UNL     1     -18.214  42.716  31.266  1.00  0.00    -0.387 OA
ATOM     25  H   UNL     1     -19.215  42.576  31.384  1.00  0.00     0.211 HD
ENDBRANCH   3  24
BRANCH   5  26
ATOM     26  O   UNL     1     -15.190  42.483  29.915  1.00  0.00    -0.454 OA
BRANCH  26  27
ATOM     27  C   UNL     1     -14.422  42.365  28.739  1.00  0.00     0.214 A 
ATOM     28  C   UNL     1     -13.000  42.288  28.805  1.00  0.00     0.180 A 
ATOM     29  C   UNL     1     -15.057  42.082  27.513  1.00  0.00     0.239 A 
ATOM     30  O   UNL     1     -12.356  41.766  27.754  1.00  0.00    -0.452 OA
ATOM     31  C   UNL     1     -14.356  41.359  26.522  1.00  0.00     0.111 A 
ATOM     32  O   UNL     1     -16.237  42.473  27.301  1.00  0.00    -0.285 OA
ATOM     33  C   UNL     1     -12.947  41.280  26.664  1.00  0.00     0.146 A 
ATOM     34  C   UNL     1     -14.962  40.697  25.425  1.00  0.00     0.134 A 
ATOM     35  C   UNL     1     -12.170  40.613  25.706  1.00  0.00     0.094 A 
ATOM     36  C   UNL     1     -14.183  39.995  24.495  1.00  0.00     0.093 A 
ATOM     37  C   UNL     1     -12.786  39.947  24.644  1.00  0.00     0.123 A 
BRANCH  28  38
ATOM     38  C   UNL     1     -12.142  42.691  29.988  1.00  0.00     0.025 A 
ATOM     39  C   UNL     1     -11.388  41.743  30.780  1.00  0.00     0.062 A 
ATOM     40  C   UNL     1     -11.985  44.054  30.279  1.00  0.00     0.016 A 
ATOM     41  C   UNL     1     -10.709  42.176  31.957  1.00  0.00     0.158 A 
ATOM     42  C   UNL     1     -11.289  44.481  31.429  1.00  0.00     0.051 A 
ATOM     43  C   UNL     1     -10.650  43.528  32.260  1.00  0.00     0.157 A 
BRANCH  41  44
ATOM     44  O   UNL     1     -10.019  41.252  32.756  1.00  0.00    -0.504 OA
ATOM     45  H   UNL     1      -9.456  40.466  32.379  1.00  0.00     0.293 HD
ENDBRANCH  41  44
BRANCH  43  46
ATOM     46  O   UNL     1      -9.919  43.976  33.389  1.00  0.00    -0.504 OA
ATOM     47  H   UNL     1      -9.265  44.746  33.361  1.00  0.00     0.293 HD
ENDBRANCH  43  46
ENDBRANCH  28  38
BRANCH  34  48
ATOM     48  O   UNL     1     -16.350  40.611  25.276  1.00  0.00    -0.507 OA
ATOM     49  H   UNL     1     -16.990  40.458  26.069  1.00  0.00     0.293 HD
ENDBRANCH  34  48
BRANCH  37  50
ATOM     50  O   UNL     1     -12.008  39.245  23.742  1.00  0.00    -0.508 OA
ATOM     51  H   UNL     1     -11.336  38.540  24.040  1.00  0.00     0.293 HD
ENDBRANCH  37  50
ENDBRANCH  26  27
ENDBRANCH   5  26
BRANCH   4  52
ATOM     52  O   UNL     1     -15.545  42.160  33.673  1.00  0.00    -0.384 OA
ATOM     53  H   UNL     1     -14.556  41.959  33.680  1.00  0.00     0.211 HD
ENDBRANCH   4  52
TORSDOF 16
ENDMDL
MODEL 9
REMARK VINA RESULT:    -7.824      1.741      2.502
REMARK INTER + INTRA:         -15.312
REMARK INTER:                 -13.517
REMARK INTRA:                  -1.795
REMARK UNBOUND:                -2.457
REMARK SMILES C[C@H]1O[C@H](OC[C@@H]2O[C@@H](Oc3c(-c4ccc(O)c(O)c4)oc4cc(O)cc(O)c4c3=O)[C@H](O)[C@@H](O)[C@@H]2O)[C@@H](O)[C@@H](O)[C@H]1O
REMARK SMILES IDX 7 1 36 2 34 3 32 4 9 5 8 6 6 7 5 8 4 9 1 10 2 11 42 12 3 13
REMARK SMILES IDX 40 14 38 15 43 16 41 18 39 20 37 22 35 24 10 26 11 27 12 28
REMARK SMILES IDX 30 29 21 30 29 31 31 32 22 33 27 34 23 35 26 36 24 37 13 38
REMARK SMILES IDX 20 39 14 40 18 41 15 42 16 43 19 44 17 46 28 48 25 50 33 52
REMARK H PARENT 43 17 41 19 39 21 37 23 35 25 19 45 17 47 28 49 25 51 33 53
REMARK Flexibility Score: inf
ROOT
ATOM      1  C   UNL     1     -11.592  42.396  31.394  1.00  0.00     0.180 C 
ATOM      2  C   UNL     1     -11.595  43.721  32.296  1.00  0.00     0.177 C 
ATOM      3  C   UNL     1     -13.054  44.043  32.737  1.00  0.00     0.180 C 
ATOM      4  C   UNL     1     -14.054  43.883  31.557  1.00  0.00     0.214 C 
ATOM      5  C   UNL     1     -13.780  42.640  30.651  1.00  0.00     0.339 C 
ATOM      6  O   UNL     1     -12.419  42.606  30.238  1.00  0.00    -0.332 OA
ENDROOT
BRANCH   1   7
ATOM      7  C   UNL     1     -10.131  42.118  31.010  1.00  0.00     0.198 C 
BRANCH   7   8
ATOM      8  O   UNL     1      -9.766  42.999  29.972  1.00  0.00    -0.347 OA
BRANCH   8   9
ATOM      9  C   UNL     1      -9.215  42.449  28.771  1.00  0.00     0.281 C 
ATOM     10  C   UNL     1      -9.662  38.784  29.304  1.00  0.00     0.041 C 
ATOM     11  C   UNL     1     -10.021  40.235  28.950  1.00  0.00     0.150 C 
ATOM     12  C   UNL     1     -10.681  40.249  27.494  1.00  0.00     0.174 C 
ATOM     13  O   UNL     1      -8.875  41.082  28.982  1.00  0.00    -0.344 OA
ATOM     14  C   UNL     1     -11.032  41.751  27.123  1.00  0.00     0.179 C 
ATOM     15  C   UNL     1      -9.862  42.750  27.367  1.00  0.00     0.202 C 
BRANCH  12  16
ATOM     16  O   UNL     1      -9.703  39.705  26.592  1.00  0.00    -0.388 OA
ATOM     17  H   UNL     1      -9.296  40.483  26.074  1.00  0.00     0.211 HD
ENDBRANCH  12  16
BRANCH  14  18
ATOM     18  O   UNL     1     -11.523  41.807  25.790  1.00  0.00    -0.387 OA
ATOM     19  H   UNL     1     -11.953  40.905  25.663  1.00  0.00     0.211 HD
ENDBRANCH  14  18
BRANCH  15  20
ATOM     20  O   UNL     1      -8.892  42.598  26.357  1.00  0.00    -0.385 OA
ATOM     21  H   UNL     1      -8.257  41.866  26.728  1.00  0.00     0.211 HD
ENDBRANCH  15  20
ENDBRANCH   8   9
ENDBRANCH   7   8
ENDBRANCH   1   7
BRANCH   2  22
ATOM     22  O   UNL     1     -11.050  44.887  31.654  1.00  0.00    -0.387 OA
ATOM     23  H   UNL     1     -11.360  45.713  32.138  1.00  0.00     0.211 HD
ENDBRANCH   2  22
BRANCH   3  24
ATOM     24  O   UNL     1     -13.386  43.275  33.884  1.00  0.00    -0.387 OA
ATOM     25  H   UNL     1     -12.574  43.047  34.453  1.00  0.00     0.211 HD
ENDBRANCH   3  24
BRANCH   5  26
ATOM     26  O   UNL     1     -14.039  41.341  31.265  1.00  0.00    -0.454 OA
BRANCH  26  27
ATOM     27  C   UNL     1     -14.736  40.212  30.790  1.00  0.00     0.214 A 
ATOM     28  C   UNL     1     -16.157  40.235  30.666  1.00  0.00     0.180 A 
ATOM     29  C   UNL     1     -14.026  39.142  30.210  1.00  0.00     0.239 A 
ATOM     30  O   UNL     1     -16.724  39.344  29.844  1.00  0.00    -0.452 OA
ATOM     31  C   UNL     1     -14.647  38.363  29.208  1.00  0.00     0.111 A 
ATOM     32  O   UNL     1     -12.851  38.882  30.583  1.00  0.00    -0.285 OA
ATOM     33  C   UNL     1     -16.057  38.459  29.105  1.00  0.00     0.146 A 
ATOM     34  C   UNL     1     -13.959  37.520  28.299  1.00  0.00     0.134 A 
ATOM     35  C   UNL     1     -16.758  37.692  28.163  1.00  0.00     0.094 A 
ATOM     36  C   UNL     1     -14.662  36.790  27.332  1.00  0.00     0.093 A 
ATOM     37  C   UNL     1     -16.063  36.885  27.260  1.00  0.00     0.123 A 
BRANCH  28  38
ATOM     38  C   UNL     1     -17.092  41.221  31.339  1.00  0.00     0.025 A 
ATOM     39  C   UNL     1     -17.279  42.579  30.875  1.00  0.00     0.062 A 
ATOM     40  C   UNL     1     -17.892  40.780  32.403  1.00  0.00     0.016 A 
ATOM     41  C   UNL     1     -18.072  43.489  31.633  1.00  0.00     0.158 A 
ATOM     42  C   UNL     1     -18.697  41.678  33.134  1.00  0.00     0.051 A 
ATOM     43  C   UNL     1     -18.782  43.034  32.735  1.00  0.00     0.157 A 
BRANCH  41  44
ATOM     44  O   UNL     1     -18.216  44.821  31.214  1.00  0.00    -0.504 OA
ATOM     45  H   UNL     1     -17.725  45.228  30.396  1.00  0.00     0.293 HD
ENDBRANCH  41  44
BRANCH  43  46
ATOM     46  O   UNL     1     -19.627  43.914  33.454  1.00  0.00    -0.504 OA
ATOM     47  H   UNL     1     -20.475  43.619  33.919  1.00  0.00     0.293 HD
ENDBRANCH  43  46
ENDBRANCH  28  38
BRANCH  34  48
ATOM     48  O   UNL     1     -12.563  37.461  28.242  1.00  0.00    -0.507 OA
ATOM     49  H   UNL     1     -11.966  37.491  29.081  1.00  0.00     0.293 HD
ENDBRANCH  34  48
BRANCH  37  50
ATOM     50  O   UNL     1     -16.765  36.182  26.299  1.00  0.00    -0.508 OA
ATOM     51  H   UNL     1     -16.633  35.183  26.154  1.00  0.00     0.293 HD
ENDBRANCH  37  50
ENDBRANCH  26  27
ENDBRANCH   5  26
BRANCH   4  52
ATOM     52  O   UNL     1     -14.117  45.103  30.826  1.00  0.00    -0.384 OA
ATOM     53  H   UNL     1     -14.403  44.927  29.874  1.00  0.00     0.211 HD
ENDBRANCH   4  52
TORSDOF 16
ENDMDL
