MODEL 1
REMARK VINA RESULT:     9.408      0.000      0.000
REMARK INTER + INTRA:          12.324
REMARK INTER:                  13.258
REMARK INTRA:                  -0.934
REMARK UNBOUND:                -0.934
REMARK SMILES COc1c(O[C@@H]2O[C@@H](C(=O)[O-])[C@@H](O)[C@@H](O)[C@@H]2O)cc(O)c2c(=O)cc(-c3ccccc3)oc12
REMARK SMILES IDX 5 1 6 2 8 3 12 4 7 5 14 6 16 7 9 8 10 9 11 10 13 11 15 13
REMARK SMILES IDX 17 15 4 17 3 18 18 19 33 20 19 21 21 22 32 23 22 24 25 25
REMARK SMILES IDX 24 26 23 27 2 28 1 29 20 30 26 32 27 33 31 34 28 35 30 36
REMARK SMILES IDX 29 37
REMARK H PARENT 13 12 15 14 17 16 20 31
REMARK Flexibility Score: inf
ROOT
ATOM      1  O   UNL     1      18.730  12.718  -9.423  1.00  0.00    -0.458 OA
ENDROOT
BRANCH   1   2
ATOM      2  C   UNL     1      18.784  13.487 -10.632  1.00  0.00     0.339 C 
ATOM      3  C   UNL     1      20.000  15.207  -9.589  1.00  0.00     0.199 C 
ATOM      4  C   UNL     1      18.855  16.229  -9.724  1.00  0.00     0.180 C 
ATOM      5  O   UNL     1      19.968  14.271 -10.657  1.00  0.00    -0.328 OA
ATOM      6  C   UNL     1      17.511  15.482  -9.737  1.00  0.00     0.181 C 
ATOM      7  C   UNL     1      17.531  14.379 -10.807  1.00  0.00     0.214 C 
BRANCH   3   8
ATOM      8  C   UNL     1      21.327  15.914  -9.579  1.00  0.00     0.073 C 
ATOM      9  O   UNL     1      21.444  17.063  -9.076  1.00  0.00    -0.547 OA
ATOM     10  O   UNL     1      22.442  15.298 -10.127  1.00  0.00    -0.547 OA
ENDBRANCH   3   8
BRANCH   4  11
ATOM     11  O   UNL     1      19.015  16.965 -10.911  1.00  0.00    -0.387 OA
ATOM     12  H   UNL     1      19.945  17.313 -10.914  1.00  0.00     0.211 HD
ENDBRANCH   4  11
BRANCH   6  13
ATOM     13  O   UNL     1      16.471  16.391  -9.992  1.00  0.00    -0.387 OA
ATOM     14  H   UNL     1      15.650  16.008  -9.588  1.00  0.00     0.211 HD
ENDBRANCH   6  13
BRANCH   7  15
ATOM     15  O   UNL     1      16.357  13.616 -10.711  1.00  0.00    -0.384 OA
ATOM     16  H   UNL     1      16.634  12.687 -10.494  1.00  0.00     0.211 HD
ENDBRANCH   7  15
ENDBRANCH   1   2
BRANCH   1  17
ATOM     17  C   UNL     1      19.593  11.673  -9.043  1.00  0.00     0.172 A 
ATOM     18  C   UNL     1      19.541  11.237  -7.715  1.00  0.00     0.205 A 
ATOM     19  C   UNL     1      20.503  11.074  -9.929  1.00  0.00     0.097 A 
ATOM     20  C   UNL     1      20.381  10.200  -7.271  1.00  0.00     0.188 A 
ATOM     21  C   UNL     1      21.336  10.029  -9.518  1.00  0.00     0.134 A 
ATOM     22  C   UNL     1      21.314   9.601  -8.159  1.00  0.00     0.111 A 
ATOM     23  O   UNL     1      20.281   9.781  -6.012  1.00  0.00    -0.452 OA
ATOM     24  C   UNL     1      22.182   8.624  -7.616  1.00  0.00     0.197 A 
ATOM     25  C   UNL     1      21.038   8.815  -5.499  1.00  0.00     0.138 A 
ATOM     26  C   UNL     1      22.027   8.221  -6.291  1.00  0.00     0.100 A 
ATOM     27  O   UNL     1      23.124   8.122  -8.282  1.00  0.00    -0.289 OA
BRANCH  18  28
ATOM     28  O   UNL     1      18.630  11.846  -6.846  1.00  0.00    -0.490 OA
ATOM     29  C   UNL     1      18.741  13.210  -6.466  1.00  0.00     0.278 C 
ENDBRANCH  18  28
BRANCH  21  30
ATOM     30  O   UNL     1      22.133   9.444 -10.506  1.00  0.00    -0.507 OA
ATOM     31  H   UNL     1      23.002   9.825 -10.848  1.00  0.00     0.293 HD
ENDBRANCH  21  30
BRANCH  25  32
ATOM     32  C   UNL     1      20.834   8.407  -4.087  1.00  0.00     0.017 A 
ATOM     33  C   UNL     1      20.846   9.350  -3.040  1.00  0.00     0.012 A 
ATOM     34  C   UNL     1      20.645   7.049  -3.773  1.00  0.00     0.012 A 
ATOM     35  C   UNL     1      20.646   8.945  -1.717  1.00  0.00     0.001 A 
ATOM     36  C   UNL     1      20.441   6.650  -2.448  1.00  0.00     0.001 A 
ATOM     37  C   UNL     1      20.439   7.596  -1.421  1.00  0.00     0.000 A 
ENDBRANCH  25  32
ENDBRANCH   1  17
TORSDOF 9
ENDMDL
MODEL 2
REMARK VINA RESULT:    12.296      2.861      8.992
REMARK INTER + INTRA:          16.394
REMARK INTER:                  16.496
REMARK INTRA:                  -0.102
REMARK UNBOUND:                -0.934
REMARK SMILES COc1c(O[C@@H]2O[C@@H](C(=O)[O-])[C@@H](O)[C@@H](O)[C@@H]2O)cc(O)c2c(=O)cc(-c3ccccc3)oc12
REMARK SMILES IDX 5 1 6 2 8 3 12 4 7 5 14 6 16 7 9 8 10 9 11 10 13 11 15 13
REMARK SMILES IDX 17 15 4 17 3 18 18 19 33 20 19 21 21 22 32 23 22 24 25 25
REMARK SMILES IDX 24 26 23 27 2 28 1 29 20 30 26 32 27 33 31 34 28 35 30 36
REMARK SMILES IDX 29 37
REMARK H PARENT 13 12 15 14 17 16 20 31
REMARK Flexibility Score: inf
ROOT
ATOM      1  O   UNL     1      20.195   8.283  -3.978  1.00  0.00    -0.458 OA
ENDROOT
BRANCH   1   2
ATOM      2  C   UNL     1      20.994   7.634  -2.980  1.00  0.00     0.339 C 
ATOM      3  C   UNL     1      19.135   6.485  -2.112  1.00  0.00     0.199 C 
ATOM      4  C   UNL     1      19.177   7.237  -0.768  1.00  0.00     0.180 C 
ATOM      5  O   UNL     1      20.439   6.366  -2.663  1.00  0.00    -0.328 OA
ATOM      6  C   UNL     1      19.792   8.629  -0.988  1.00  0.00     0.181 C 
ATOM      7  C   UNL     1      21.145   8.501  -1.706  1.00  0.00     0.214 C 
BRANCH   3   8
ATOM      8  C   UNL     1      18.542   5.116  -1.922  1.00  0.00     0.073 C 
ATOM      9  O   UNL     1      17.977   4.518  -2.876  1.00  0.00    -0.547 OA
ATOM     10  O   UNL     1      18.617   4.497  -0.684  1.00  0.00    -0.547 OA
ENDBRANCH   3   8
BRANCH   4  11
ATOM     11  O   UNL     1      19.942   6.507   0.159  1.00  0.00    -0.387 OA
ATOM     12  H   UNL     1      20.830   6.947   0.214  1.00  0.00     0.211 HD
ENDBRANCH   4  11
BRANCH   6  13
ATOM     13  O   UNL     1      19.956   9.270   0.251  1.00  0.00    -0.387 OA
ATOM     14  H   UNL     1      19.063   9.608   0.520  1.00  0.00     0.211 HD
ENDBRANCH   6  13
BRANCH   7  15
ATOM     15  O   UNL     1      21.625   9.780  -2.026  1.00  0.00    -0.384 OA
ATOM     16  H   UNL     1      22.248  10.044  -1.300  1.00  0.00     0.211 HD
ENDBRANCH   7  15
ENDBRANCH   1   2
BRANCH   1  17
ATOM     17  C   UNL     1      20.603   8.679  -5.266  1.00  0.00     0.172 A 
ATOM     18  C   UNL     1      19.924   9.745  -5.864  1.00  0.00     0.205 A 
ATOM     19  C   UNL     1      21.637   8.040  -5.969  1.00  0.00     0.097 A 
ATOM     20  C   UNL     1      20.280  10.185  -7.151  1.00  0.00     0.188 A 
ATOM     21  C   UNL     1      22.022   8.469  -7.242  1.00  0.00     0.134 A 
ATOM     22  C   UNL     1      21.315   9.533  -7.873  1.00  0.00     0.111 A 
ATOM     23  O   UNL     1      19.641  11.227  -7.679  1.00  0.00    -0.452 OA
ATOM     24  C   UNL     1      21.556   9.979  -9.195  1.00  0.00     0.197 A 
ATOM     25  C   UNL     1      19.900  11.708  -8.891  1.00  0.00     0.138 A 
ATOM     26  C   UNL     1      20.860  11.079  -9.691  1.00  0.00     0.100 A 
ATOM     27  O   UNL     1      22.363   9.392  -9.962  1.00  0.00    -0.289 OA
BRANCH  18  28
ATOM     28  O   UNL     1      18.896  10.368  -5.150  1.00  0.00    -0.490 OA
ATOM     29  C   UNL     1      18.441  11.678  -5.464  1.00  0.00     0.278 C 
ENDBRANCH  18  28
BRANCH  21  30
ATOM     30  O   UNL     1      23.125   7.823  -7.809  1.00  0.00    -0.507 OA
ATOM     31  H   UNL     1      23.236   6.823  -7.876  1.00  0.00     0.293 HD
ENDBRANCH  21  30
BRANCH  25  32
ATOM     32  C   UNL     1      19.145  12.889  -9.379  1.00  0.00     0.017 A 
ATOM     33  C   UNL     1      19.353  14.171  -8.832  1.00  0.00     0.012 A 
ATOM     34  C   UNL     1      18.181  12.732 -10.391  1.00  0.00     0.012 A 
ATOM     35  C   UNL     1      18.635  15.271  -9.311  1.00  0.00     0.001 A 
ATOM     36  C   UNL     1      17.468  13.837 -10.868  1.00  0.00     0.001 A 
ATOM     37  C   UNL     1      17.696  15.106 -10.331  1.00  0.00     0.000 A 
ENDBRANCH  25  32
ENDBRANCH   1  17
TORSDOF 9
ENDMDL
