MODEL 1
REMARK VINA RESULT:    -3.476      0.000      0.000
REMARK INTER + INTRA:          -4.150
REMARK INTER:                  -4.086
REMARK INTRA:                  -0.064
REMARK UNBOUND:                -0.064
REMARK SMILES CCCCC(=O)[O-]
REMARK SMILES IDX 4 1 5 2 6 3 7 4 3 5 2 6 1 7
REMARK H PARENT
REMARK Flexibility Score: inf
ROOT
ATOM      1  C   UNL     1     -38.507  19.173 -28.407  1.00  0.00     0.053 C 
ENDROOT
BRANCH   1   2
ATOM      2  C   UNL     1     -39.777  19.954 -28.536  1.00  0.00     0.041 C 
ATOM      3  O   UNL     1     -40.861  19.476 -28.110  1.00  0.00    -0.550 OA
ATOM      4  O   UNL     1     -39.755  21.230 -29.084  1.00  0.00    -0.550 OA
ENDBRANCH   1   2
BRANCH   1   5
ATOM      5  C   UNL     1     -37.881  18.936 -29.784  1.00  0.00     0.006 C 
BRANCH   5   6
ATOM      6  C   UNL     1     -37.893  17.446 -30.143  1.00  0.00    -0.003 C 
ATOM      7  C   UNL     1     -39.031  17.120 -31.107  1.00  0.00     0.004 C 
ENDBRANCH   5   6
ENDBRANCH   1   5
TORSDOF 3
ENDMDL
MODEL 2
REMARK VINA RESULT:    -3.475      0.129      1.231
REMARK INTER + INTRA:          -4.149
REMARK INTER:                  -4.090
REMARK INTRA:                  -0.059
REMARK UNBOUND:                -0.064
REMARK SMILES CCCCC(=O)[O-]
REMARK SMILES IDX 4 1 5 2 6 3 7 4 3 5 2 6 1 7
REMARK H PARENT
REMARK Flexibility Score: inf
ROOT
ATOM      1  C   UNL     1     -38.548  19.288 -28.456  1.00  0.00     0.053 C 
ENDROOT
BRANCH   1   2
ATOM      2  C   UNL     1     -39.844  20.033 -28.531  1.00  0.00     0.041 C 
ATOM      3  O   UNL     1     -39.887  21.179 -29.048  1.00  0.00    -0.550 OA
ATOM      4  O   UNL     1     -41.014  19.439 -28.073  1.00  0.00    -0.550 OA
ENDBRANCH   1   2
BRANCH   1   5
ATOM      5  C   UNL     1     -38.002  19.021 -29.862  1.00  0.00     0.006 C 
BRANCH   5   6
ATOM      6  C   UNL     1     -37.967  17.518 -30.160  1.00  0.00    -0.003 C 
ATOM      7  C   UNL     1     -39.070  17.125 -31.140  1.00  0.00     0.004 C 
ENDBRANCH   5   6
ENDBRANCH   1   5
TORSDOF 3
ENDMDL
MODEL 3
REMARK VINA RESULT:    -3.445      2.485      3.650
REMARK INTER + INTRA:          -4.113
REMARK INTER:                  -4.037
REMARK INTRA:                  -0.075
REMARK UNBOUND:                -0.064
REMARK SMILES CCCCC(=O)[O-]
REMARK SMILES IDX 4 1 5 2 6 3 7 4 3 5 2 6 1 7
REMARK H PARENT
REMARK Flexibility Score: inf
ROOT
ATOM      1  C   UNL     1     -37.836  18.886 -30.230  1.00  0.00     0.053 C 
ENDROOT
BRANCH   1   2
ATOM      2  C   UNL     1     -38.221  17.455 -30.437  1.00  0.00     0.041 C 
ATOM      3  O   UNL     1     -39.170  17.160 -31.210  1.00  0.00    -0.550 OA
ATOM      4  O   UNL     1     -37.501  16.444 -29.813  1.00  0.00    -0.550 OA
ENDBRANCH   1   2
BRANCH   1   5
ATOM      5  C   UNL     1     -38.223  19.346 -28.821  1.00  0.00     0.006 C 
BRANCH   5   6
ATOM      6  C   UNL     1     -39.464  20.245 -28.859  1.00  0.00    -0.003 C 
ATOM      7  C   UNL     1     -40.636  19.598 -28.125  1.00  0.00     0.004 C 
ENDBRANCH   5   6
ENDBRANCH   1   5
TORSDOF 3
ENDMDL
MODEL 4
REMARK VINA RESULT:    -3.371      1.406      1.710
REMARK INTER + INTRA:          -4.026
REMARK INTER:                  -3.950
REMARK INTRA:                  -0.076
REMARK UNBOUND:                -0.064
REMARK SMILES CCCCC(=O)[O-]
REMARK SMILES IDX 4 1 5 2 6 3 7 4 3 5 2 6 1 7
REMARK H PARENT
REMARK Flexibility Score: inf
ROOT
ATOM      1  C   UNL     1     -39.791  19.996 -28.739  1.00  0.00     0.053 C 
ENDROOT
BRANCH   1   2
ATOM      2  C   UNL     1     -39.629  21.431 -29.131  1.00  0.00     0.041 C 
ATOM      3  O   UNL     1     -40.593  22.062 -29.637  1.00  0.00    -0.550 OA
ATOM      4  O   UNL     1     -38.427  22.085 -28.891  1.00  0.00    -0.550 OA
ENDBRANCH   1   2
BRANCH   1   5
ATOM      5  C   UNL     1     -38.516  19.207 -29.056  1.00  0.00     0.006 C 
BRANCH   5   6
ATOM      6  C   UNL     1     -38.404  18.927 -30.558  1.00  0.00    -0.003 C 
ATOM      7  C   UNL     1     -38.854  17.506 -30.889  1.00  0.00     0.004 C 
ENDBRANCH   5   6
ENDBRANCH   1   5
TORSDOF 3
ENDMDL
MODEL 5
REMARK VINA RESULT:    -3.345     16.191     16.603
REMARK INTER + INTRA:          -3.996
REMARK INTER:                  -3.936
REMARK INTRA:                  -0.060
REMARK UNBOUND:                -0.064
REMARK SMILES CCCCC(=O)[O-]
REMARK SMILES IDX 4 1 5 2 6 3 7 4 3 5 2 6 1 7
REMARK H PARENT
REMARK Flexibility Score: inf
ROOT
ATOM      1  C   UNL     1     -53.361  21.947 -37.737  1.00  0.00     0.053 C 
ENDROOT
BRANCH   1   2
ATOM      2  C   UNL     1     -53.551  22.361 -36.312  1.00  0.00     0.041 C 
ATOM      3  O   UNL     1     -53.164  21.613 -35.377  1.00  0.00    -0.550 OA
ATOM      4  O   UNL     1     -54.113  23.598 -36.016  1.00  0.00    -0.550 OA
ENDBRANCH   1   2
BRANCH   1   5
ATOM      5  C   UNL     1     -53.165  23.176 -38.630  1.00  0.00     0.006 C 
BRANCH   5   6
ATOM      6  C   UNL     1     -51.680  23.535 -38.751  1.00  0.00    -0.003 C 
ATOM      7  C   UNL     1     -51.073  22.952 -40.025  1.00  0.00     0.004 C 
ENDBRANCH   5   6
ENDBRANCH   1   5
TORSDOF 3
ENDMDL
MODEL 6
REMARK VINA RESULT:    -3.199      2.655      3.441
REMARK INTER + INTRA:          -3.823
REMARK INTER:                  -3.730
REMARK INTRA:                  -0.094
REMARK UNBOUND:                -0.064
REMARK SMILES CCCCC(=O)[O-]
REMARK SMILES IDX 4 1 5 2 6 3 7 4 3 5 2 6 1 7
REMARK H PARENT
REMARK Flexibility Score: inf
ROOT
ATOM      1  C   UNL     1     -37.705  17.363 -29.562  1.00  0.00     0.053 C 
ENDROOT
BRANCH   1   2
ATOM      2  C   UNL     1     -38.502  17.757 -30.766  1.00  0.00     0.041 C 
ATOM      3  O   UNL     1     -39.285  16.932 -31.305  1.00  0.00    -0.550 OA
ATOM      4  O   UNL     1     -38.415  19.051 -31.264  1.00  0.00    -0.550 OA
ENDBRANCH   1   2
BRANCH   1   5
ATOM      5  C   UNL     1     -36.464  16.568 -29.977  1.00  0.00     0.006 C 
BRANCH   5   6
ATOM      6  C   UNL     1     -35.202  17.433 -29.882  1.00  0.00    -0.003 C 
ATOM      7  C   UNL     1     -35.349  18.507 -28.806  1.00  0.00     0.004 C 
ENDBRANCH   5   6
ENDBRANCH   1   5
TORSDOF 3
ENDMDL
MODEL 7
REMARK VINA RESULT:    -3.168      2.947      3.924
REMARK INTER + INTRA:          -3.787
REMARK INTER:                  -3.734
REMARK INTRA:                  -0.053
REMARK UNBOUND:                -0.064
REMARK SMILES CCCCC(=O)[O-]
REMARK SMILES IDX 4 1 5 2 6 3 7 4 3 5 2 6 1 7
REMARK H PARENT
REMARK Flexibility Score: inf
ROOT
ATOM      1  C   UNL     1     -38.452  17.505 -30.576  1.00  0.00     0.053 C 
ENDROOT
BRANCH   1   2
ATOM      2  C   UNL     1     -37.236  16.899 -29.950  1.00  0.00     0.041 C 
ATOM      3  O   UNL     1     -37.287  15.745 -29.452  1.00  0.00    -0.550 OA
ATOM      4  O   UNL     1     -36.031  17.592 -29.961  1.00  0.00    -0.550 OA
ENDBRANCH   1   2
BRANCH   1   5
ATOM      5  C   UNL     1     -38.439  19.028 -30.411  1.00  0.00     0.006 C 
BRANCH   5   6
ATOM      6  C   UNL     1     -39.195  19.448 -29.146  1.00  0.00    -0.003 C 
ATOM      7  C   UNL     1     -39.477  20.949 -29.146  1.00  0.00     0.004 C 
ENDBRANCH   5   6
ENDBRANCH   1   5
TORSDOF 3
ENDMDL
MODEL 8
REMARK VINA RESULT:    -3.155      2.501      2.969
REMARK INTER + INTRA:          -3.772
REMARK INTER:                  -3.652
REMARK INTRA:                  -0.120
REMARK UNBOUND:                -0.064
REMARK SMILES CCCCC(=O)[O-]
REMARK SMILES IDX 4 1 5 2 6 3 7 4 3 5 2 6 1 7
REMARK H PARENT
REMARK Flexibility Score: inf
ROOT
ATOM      1  C   UNL     1     -37.938  19.926 -28.561  1.00  0.00     0.053 C 
ENDROOT
BRANCH   1   2
ATOM      2  C   UNL     1     -36.892  18.958 -28.105  1.00  0.00     0.041 C 
ATOM      3  O   UNL     1     -35.685  19.138 -28.412  1.00  0.00    -0.550 OA
ATOM      4  O   UNL     1     -37.244  17.882 -27.300  1.00  0.00    -0.550 OA
ENDBRANCH   1   2
BRANCH   1   5
ATOM      5  C   UNL     1     -39.004  19.209 -29.396  1.00  0.00     0.006 C 
BRANCH   5   6
ATOM      6  C   UNL     1     -38.405  18.662 -30.696  1.00  0.00    -0.003 C 
ATOM      7  C   UNL     1     -38.953  17.273 -31.014  1.00  0.00     0.004 C 
ENDBRANCH   5   6
ENDBRANCH   1   5
TORSDOF 3
ENDMDL
MODEL 9
REMARK VINA RESULT:    -3.079      1.989      2.457
REMARK INTER + INTRA:          -3.682
REMARK INTER:                  -3.621
REMARK INTRA:                  -0.061
REMARK UNBOUND:                -0.064
REMARK SMILES CCCCC(=O)[O-]
REMARK SMILES IDX 4 1 5 2 6 3 7 4 3 5 2 6 1 7
REMARK H PARENT
REMARK Flexibility Score: inf
ROOT
ATOM      1  C   UNL     1     -39.786  20.414 -28.881  1.00  0.00     0.053 C 
ENDROOT
BRANCH   1   2
ATOM      2  C   UNL     1     -39.906  21.883 -29.142  1.00  0.00     0.041 C 
ATOM      3  O   UNL     1     -40.836  22.325 -29.864  1.00  0.00    -0.550 OA
ATOM      4  O   UNL     1     -39.016  22.768 -28.546  1.00  0.00    -0.550 OA
ENDBRANCH   1   2
BRANCH   1   5
ATOM      5  C   UNL     1     -38.354  19.938 -29.142  1.00  0.00     0.006 C 
BRANCH   5   6
ATOM      6  C   UNL     1     -38.185  19.483 -30.596  1.00  0.00    -0.003 C 
ATOM      7  C   UNL     1     -37.539  20.576 -31.444  1.00  0.00     0.004 C 
ENDBRANCH   5   6
ENDBRANCH   1   5
TORSDOF 3
ENDMDL
