MODEL 1
REMARK VINA RESULT:    -5.852      0.000      0.000
REMARK INTER + INTRA:          -7.218
REMARK INTER:                  -7.220
REMARK INTRA:                   0.002
REMARK UNBOUND:                 0.002
REMARK SMILES COc1cc(-c2oc3cc(O)cc(O)c3c(=O)c2O)ccc1O
REMARK SMILES IDX 6 1 18 2 16 3 17 4 15 5 13 6 12 7 10 8 9 9 8 10 7 11 5 12
REMARK SMILES IDX 3 13 22 14 4 15 21 16 20 17 2 18 1 19 23 20 19 22 14 24
REMARK SMILES IDX 11 26
REMARK H PARENT 23 21 19 23 14 25 11 27
REMARK Flexibility Score: inf
ROOT
ATOM      1  C   UNL     1       2.867  10.474   6.738  1.00  0.00     0.180 A 
ATOM      2  C   UNL     1       3.336   9.233   6.271  1.00  0.00     0.208 A 
ATOM      3  C   UNL     1       2.456   8.140   6.243  1.00  0.00     0.238 A 
ATOM      4  O   UNL     1       2.896   7.020   5.876  1.00  0.00    -0.285 OA
ATOM      5  C   UNL     1       1.115   8.304   6.666  1.00  0.00     0.111 A 
ATOM      6  C   UNL     1       0.127   7.275   6.642  1.00  0.00     0.134 A 
ATOM      7  C   UNL     1      -1.132   7.514   7.207  1.00  0.00     0.093 A 
ATOM      8  C   UNL     1      -1.460   8.765   7.736  1.00  0.00     0.123 A 
ATOM      9  C   UNL     1      -0.521   9.794   7.709  1.00  0.00     0.094 A 
ATOM     10  C   UNL     1       0.756   9.575   7.186  1.00  0.00     0.146 A 
ATOM     11  O   UNL     1       1.624  10.579   7.190  1.00  0.00    -0.452 OA
ENDROOT
BRANCH   1  12
ATOM     12  C   UNL     1       3.730  11.678   6.773  1.00  0.00     0.025 A 
ATOM     13  C   UNL     1       5.847  12.780   7.308  1.00  0.00     0.161 A 
ATOM     14  C   UNL     1       5.349  13.978   6.765  1.00  0.00     0.157 A 
ATOM     15  C   UNL     1       5.032  11.630   7.301  1.00  0.00     0.062 A 
ATOM     16  C   UNL     1       4.062  14.019   6.220  1.00  0.00     0.051 A 
ATOM     17  C   UNL     1       3.261  12.877   6.216  1.00  0.00     0.016 A 
BRANCH  13  18
ATOM     18  O   UNL     1       7.148  12.766   7.838  1.00  0.00    -0.493 OA
ATOM     19  C   UNL     1       7.470  13.049   9.196  1.00  0.00     0.278 C 
ENDBRANCH  13  18
BRANCH  14  20
ATOM     20  O   UNL     1       6.121  15.141   6.755  1.00  0.00    -0.504 OA
ATOM     21  H   UNL     1       6.312  15.655   5.904  1.00  0.00     0.293 HD
ENDBRANCH  14  20
ENDBRANCH   1  12
BRANCH   2  22
ATOM     22  O   UNL     1       4.670   9.088   5.878  1.00  0.00    -0.502 OA
ATOM     23  H   UNL     1       5.443   9.230   6.516  1.00  0.00     0.293 HD
ENDBRANCH   2  22
BRANCH   6  24
ATOM     24  O   UNL     1       0.320   6.020   6.056  1.00  0.00    -0.507 OA
ATOM     25  H   UNL     1       1.099   5.410   6.250  1.00  0.00     0.293 HD
ENDBRANCH   6  24
BRANCH   8  26
ATOM     26  O   UNL     1      -2.720   8.999   8.281  1.00  0.00    -0.508 OA
ATOM     27  H   UNL     1      -2.890   9.779   8.906  1.00  0.00     0.293 HD
ENDBRANCH   8  26
TORSDOF 6
ENDMDL
MODEL 2
REMARK VINA RESULT:    -5.728      1.552      7.484
REMARK INTER + INTRA:          -7.065
REMARK INTER:                  -6.919
REMARK INTRA:                  -0.146
REMARK UNBOUND:                 0.002
REMARK SMILES COc1cc(-c2oc3cc(O)cc(O)c3c(=O)c2O)ccc1O
REMARK SMILES IDX 6 1 18 2 16 3 17 4 15 5 13 6 12 7 10 8 9 9 8 10 7 11 5 12
REMARK SMILES IDX 3 13 22 14 4 15 21 16 20 17 2 18 1 19 23 20 19 22 14 24
REMARK SMILES IDX 11 26
REMARK H PARENT 23 21 19 23 14 25 11 27
REMARK Flexibility Score: inf
ROOT
ATOM      1  C   UNL     1       2.615  11.282   6.934  1.00  0.00     0.180 A 
ATOM      2  C   UNL     1       2.027  12.509   6.580  1.00  0.00     0.208 A 
ATOM      3  C   UNL     1       2.806  13.676   6.626  1.00  0.00     0.238 A 
ATOM      4  O   UNL     1       2.261  14.778   6.361  1.00  0.00    -0.285 OA
ATOM      5  C   UNL     1       4.167  13.600   7.010  1.00  0.00     0.111 A 
ATOM      6  C   UNL     1       5.060  14.711   7.053  1.00  0.00     0.134 A 
ATOM      7  C   UNL     1       6.350  14.542   7.573  1.00  0.00     0.093 A 
ATOM      8  C   UNL     1       6.799  13.287   7.991  1.00  0.00     0.123 A 
ATOM      9  C   UNL     1       5.954  12.184   7.897  1.00  0.00     0.094 A 
ATOM     10  C   UNL     1       4.650  12.329   7.416  1.00  0.00     0.146 A 
ATOM     11  O   UNL     1       3.874  11.253   7.354  1.00  0.00    -0.452 OA
ENDROOT
BRANCH   1  12
ATOM     12  C   UNL     1       1.863  10.007   6.886  1.00  0.00     0.025 A 
ATOM     13  C   UNL     1       0.033   8.570   7.642  1.00  0.00     0.161 A 
ATOM     14  C   UNL     1       0.433   7.590   6.715  1.00  0.00     0.157 A 
ATOM     15  C   UNL     1       0.751   9.782   7.715  1.00  0.00     0.062 A 
ATOM     16  C   UNL     1       1.526   7.825   5.875  1.00  0.00     0.051 A 
ATOM     17  C   UNL     1       2.231   9.026   5.953  1.00  0.00     0.016 A 
BRANCH  13  18
ATOM     18  O   UNL     1      -1.075   8.312   8.464  1.00  0.00    -0.493 OA
ATOM     19  C   UNL     1      -1.042   7.500   9.634  1.00  0.00     0.278 C 
ENDBRANCH  13  18
BRANCH  14  20
ATOM     20  O   UNL     1      -0.246   6.376   6.612  1.00  0.00    -0.504 OA
ATOM     21  H   UNL     1      -0.725   6.096   5.766  1.00  0.00     0.293 HD
ENDBRANCH  14  20
ENDBRANCH   1  12
BRANCH   2  22
ATOM     22  O   UNL     1       0.676  12.566   6.225  1.00  0.00    -0.502 OA
ATOM     23  H   UNL     1       0.063  13.309   6.534  1.00  0.00     0.293 HD
ENDBRANCH   2  22
BRANCH   6  24
ATOM     24  O   UNL     1       4.743  15.987   6.577  1.00  0.00    -0.507 OA
ATOM     25  H   UNL     1       5.361  16.783   6.611  1.00  0.00     0.293 HD
ENDBRANCH   6  24
BRANCH   8  26
ATOM     26  O   UNL     1       8.088  13.123   8.492  1.00  0.00    -0.508 OA
ATOM     27  H   UNL     1       8.882  12.983   7.878  1.00  0.00     0.293 HD
ENDBRANCH   8  26
TORSDOF 6
ENDMDL
MODEL 3
REMARK VINA RESULT:    -5.557      3.890      7.208
REMARK INTER + INTRA:          -6.854
REMARK INTER:                  -6.537
REMARK INTRA:                  -0.317
REMARK UNBOUND:                 0.002
REMARK SMILES COc1cc(-c2oc3cc(O)cc(O)c3c(=O)c2O)ccc1O
REMARK SMILES IDX 6 1 18 2 16 3 17 4 15 5 13 6 12 7 10 8 9 9 8 10 7 11 5 12
REMARK SMILES IDX 3 13 22 14 4 15 21 16 20 17 2 18 1 19 23 20 19 22 14 24
REMARK SMILES IDX 11 26
REMARK H PARENT 23 21 19 23 14 25 11 27
REMARK Flexibility Score: inf
ROOT
ATOM      1  C   UNL     1       2.909   5.975   7.446  1.00  0.00     0.180 A 
ATOM      2  C   UNL     1       3.324   7.062   6.656  1.00  0.00     0.208 A 
ATOM      3  C   UNL     1       2.534   8.222   6.626  1.00  0.00     0.238 A 
ATOM      4  O   UNL     1       2.881   9.170   5.875  1.00  0.00    -0.285 OA
ATOM      5  C   UNL     1       1.349   8.288   7.398  1.00  0.00     0.111 A 
ATOM      6  C   UNL     1       0.494   9.427   7.474  1.00  0.00     0.134 A 
ATOM      7  C   UNL     1      -0.720   9.335   8.166  1.00  0.00     0.093 A 
ATOM      8  C   UNL     1      -1.079   8.164   8.838  1.00  0.00     0.123 A 
ATOM      9  C   UNL     1      -0.223   7.066   8.819  1.00  0.00     0.094 A 
ATOM     10  C   UNL     1       0.978   7.116   8.107  1.00  0.00     0.146 A 
ATOM     11  O   UNL     1       1.759   6.042   8.106  1.00  0.00    -0.452 OA
ENDROOT
BRANCH   1  12
ATOM     12  C   UNL     1       3.703   4.729   7.547  1.00  0.00     0.025 A 
ATOM     13  C   UNL     1       4.125   2.402   6.920  1.00  0.00     0.161 A 
ATOM     14  C   UNL     1       5.276   2.403   7.729  1.00  0.00     0.157 A 
ATOM     15  C   UNL     1       3.347   3.574   6.828  1.00  0.00     0.062 A 
ATOM     16  C   UNL     1       5.641   3.559   8.425  1.00  0.00     0.051 A 
ATOM     17  C   UNL     1       4.867   4.715   8.330  1.00  0.00     0.016 A 
BRANCH  13  18
ATOM     18  O   UNL     1       3.789   1.230   6.223  1.00  0.00    -0.493 OA
ATOM     19  C   UNL     1       3.024   0.158   6.765  1.00  0.00     0.278 C 
ENDBRANCH  13  18
BRANCH  14  20
ATOM     20  O   UNL     1       6.072   1.263   7.851  1.00  0.00    -0.504 OA
ATOM     21  H   UNL     1       5.678   0.344   8.008  1.00  0.00     0.293 HD
ENDBRANCH  14  20
ENDBRANCH   1  12
BRANCH   2  22
ATOM     22  O   UNL     1       4.486   6.968   5.884  1.00  0.00    -0.502 OA
ATOM     23  H   UNL     1       4.469   6.716   4.904  1.00  0.00     0.293 HD
ENDBRANCH   2  22
BRANCH   6  24
ATOM     24  O   UNL     1       0.801  10.672   6.916  1.00  0.00    -0.507 OA
ATOM     25  H   UNL     1       0.295  11.525   7.102  1.00  0.00     0.293 HD
ENDBRANCH   6  24
BRANCH   8  26
ATOM     26  O   UNL     1      -2.281   8.085   9.537  1.00  0.00    -0.508 OA
ATOM     27  H   UNL     1      -3.168   8.291   9.091  1.00  0.00     0.293 HD
ENDBRANCH   8  26
TORSDOF 6
ENDMDL
MODEL 4
REMARK VINA RESULT:    -5.426      1.672      3.031
REMARK INTER + INTRA:          -6.693
REMARK INTER:                  -6.840
REMARK INTRA:                   0.147
REMARK UNBOUND:                 0.002
REMARK SMILES COc1cc(-c2oc3cc(O)cc(O)c3c(=O)c2O)ccc1O
REMARK SMILES IDX 6 1 18 2 16 3 17 4 15 5 13 6 12 7 10 8 9 9 8 10 7 11 5 12
REMARK SMILES IDX 3 13 22 14 4 15 21 16 20 17 2 18 1 19 23 20 19 22 14 24
REMARK SMILES IDX 11 26
REMARK H PARENT 23 21 19 23 14 25 11 27
REMARK Flexibility Score: inf
ROOT
ATOM      1  C   UNL     1       2.636  11.893   6.662  1.00  0.00     0.180 A 
ATOM      2  C   UNL     1       1.486  12.669   6.434  1.00  0.00     0.208 A 
ATOM      3  C   UNL     1       0.247  12.024   6.293  1.00  0.00     0.238 A 
ATOM      4  O   UNL     1      -0.770  12.719   6.035  1.00  0.00    -0.285 OA
ATOM      5  C   UNL     1       0.169  10.615   6.398  1.00  0.00     0.111 A 
ATOM      6  C   UNL     1      -1.039   9.860   6.312  1.00  0.00     0.134 A 
ATOM      7  C   UNL     1      -0.980   8.461   6.300  1.00  0.00     0.093 A 
ATOM      8  C   UNL     1       0.237   7.789   6.435  1.00  0.00     0.123 A 
ATOM      9  C   UNL     1       1.416   8.517   6.580  1.00  0.00     0.094 A 
ATOM     10  C   UNL     1       1.393   9.915   6.559  1.00  0.00     0.146 A 
ATOM     11  O   UNL     1       2.541  10.569   6.689  1.00  0.00    -0.452 OA
ENDROOT
BRANCH   1  12
ATOM     12  C   UNL     1       3.973  12.503   6.845  1.00  0.00     0.025 A 
ATOM     13  C   UNL     1       6.174  12.556   7.911  1.00  0.00     0.161 A 
ATOM     14  C   UNL     1       6.520  13.664   7.117  1.00  0.00     0.157 A 
ATOM     15  C   UNL     1       4.898  11.976   7.763  1.00  0.00     0.062 A 
ATOM     16  C   UNL     1       5.608  14.174   6.189  1.00  0.00     0.051 A 
ATOM     17  C   UNL     1       4.346  13.594   6.047  1.00  0.00     0.016 A 
BRANCH  13  18
ATOM     18  O   UNL     1       7.115  12.059   8.827  1.00  0.00    -0.493 OA
ATOM     19  C   UNL     1       6.920  10.907   9.641  1.00  0.00     0.278 C 
ENDBRANCH  13  18
BRANCH  14  20
ATOM     20  O   UNL     1       7.771  14.272   7.234  1.00  0.00    -0.504 OA
ATOM     21  H   UNL     1       8.516  14.106   6.569  1.00  0.00     0.293 HD
ENDBRANCH  14  20
ENDBRANCH   1  12
BRANCH   2  22
ATOM     22  O   UNL     1       1.587  14.058   6.311  1.00  0.00    -0.502 OA
ATOM     23  H   UNL     1       2.477  14.541   6.322  1.00  0.00     0.293 HD
ENDBRANCH   2  22
BRANCH   6  24
ATOM     24  O   UNL     1      -2.314  10.432   6.265  1.00  0.00    -0.507 OA
ATOM     25  H   UNL     1      -3.133  10.045   6.708  1.00  0.00     0.293 HD
ENDBRANCH   6  24
BRANCH   8  26
ATOM     26  O   UNL     1       0.285   6.397   6.438  1.00  0.00    -0.508 OA
ATOM     27  H   UNL     1       0.382   5.869   5.578  1.00  0.00     0.293 HD
ENDBRANCH   8  26
TORSDOF 6
ENDMDL
MODEL 5
REMARK VINA RESULT:    -5.372      4.808      7.534
REMARK INTER + INTRA:          -6.626
REMARK INTER:                  -6.532
REMARK INTRA:                  -0.093
REMARK UNBOUND:                 0.002
REMARK SMILES COc1cc(-c2oc3cc(O)cc(O)c3c(=O)c2O)ccc1O
REMARK SMILES IDX 6 1 18 2 16 3 17 4 15 5 13 6 12 7 10 8 9 9 8 10 7 11 5 12
REMARK SMILES IDX 3 13 22 14 4 15 21 16 20 17 2 18 1 19 23 20 19 22 14 24
REMARK SMILES IDX 11 26
REMARK H PARENT 23 21 19 23 14 25 11 27
REMARK Flexibility Score: inf
ROOT
ATOM      1  C   UNL     1       3.363   4.987   6.819  1.00  0.00     0.180 A 
ATOM      2  C   UNL     1       4.736   5.168   6.582  1.00  0.00     0.208 A 
ATOM      3  C   UNL     1       5.557   4.038   6.438  1.00  0.00     0.238 A 
ATOM      4  O   UNL     1       6.794   4.206   6.281  1.00  0.00    -0.285 OA
ATOM      5  C   UNL     1       4.993   2.742   6.517  1.00  0.00     0.111 A 
ATOM      6  C   UNL     1       5.723   1.528   6.347  1.00  0.00     0.134 A 
ATOM      7  C   UNL     1       5.087   0.302   6.576  1.00  0.00     0.093 A 
ATOM      8  C   UNL     1       3.730   0.244   6.906  1.00  0.00     0.123 A 
ATOM      9  C   UNL     1       2.995   1.421   7.016  1.00  0.00     0.094 A 
ATOM     10  C   UNL     1       3.610   2.662   6.829  1.00  0.00     0.146 A 
ATOM     11  O   UNL     1       2.875   3.759   6.954  1.00  0.00    -0.452 OA
ENDROOT
BRANCH   1  12
ATOM     12  C   UNL     1       2.431   6.130   6.955  1.00  0.00     0.025 A 
ATOM     13  C   UNL     1       0.891   7.490   8.283  1.00  0.00     0.161 A 
ATOM     14  C   UNL     1       0.714   8.347   7.182  1.00  0.00     0.157 A 
ATOM     15  C   UNL     1       1.758   6.386   8.163  1.00  0.00     0.062 A 
ATOM     16  C   UNL     1       1.401   8.105   5.988  1.00  0.00     0.051 A 
ATOM     17  C   UNL     1       2.258   7.010   5.877  1.00  0.00     0.016 A 
BRANCH  13  18
ATOM     18  O   UNL     1       0.197   7.765   9.473  1.00  0.00    -0.493 OA
ATOM     19  C   UNL     1      -1.196   7.545   9.666  1.00  0.00     0.278 C 
ENDBRANCH  13  18
BRANCH  14  20
ATOM     20  O   UNL     1      -0.138   9.450   7.256  1.00  0.00    -0.504 OA
ATOM     21  H   UNL     1      -1.082   9.379   7.616  1.00  0.00     0.293 HD
ENDBRANCH  14  20
ENDBRANCH   1  12
BRANCH   2  22
ATOM     22  O   UNL     1       5.277   6.456   6.529  1.00  0.00    -0.502 OA
ATOM     23  H   UNL     1       5.608   6.872   5.667  1.00  0.00     0.293 HD
ENDBRANCH   2  22
BRANCH   6  24
ATOM     24  O   UNL     1       7.056   1.471   5.931  1.00  0.00    -0.507 OA
ATOM     25  H   UNL     1       7.572   0.619   5.771  1.00  0.00     0.293 HD
ENDBRANCH   6  24
BRANCH   8  26
ATOM     26  O   UNL     1       3.102  -0.981   7.117  1.00  0.00    -0.508 OA
ATOM     27  H   UNL     1       2.092  -1.058   7.161  1.00  0.00     0.293 HD
ENDBRANCH   8  26
TORSDOF 6
ENDMDL
MODEL 6
REMARK VINA RESULT:    -5.280      3.874      6.944
REMARK INTER + INTRA:          -6.513
REMARK INTER:                  -6.455
REMARK INTRA:                  -0.057
REMARK UNBOUND:                 0.002
REMARK SMILES COc1cc(-c2oc3cc(O)cc(O)c3c(=O)c2O)ccc1O
REMARK SMILES IDX 6 1 18 2 16 3 17 4 15 5 13 6 12 7 10 8 9 9 8 10 7 11 5 12
REMARK SMILES IDX 3 13 22 14 4 15 21 16 20 17 2 18 1 19 23 20 19 22 14 24
REMARK SMILES IDX 11 26
REMARK H PARENT 23 21 19 23 14 25 11 27
REMARK Flexibility Score: inf
ROOT
ATOM      1  C   UNL     1       3.129   5.900   6.600  1.00  0.00     0.180 A 
ATOM      2  C   UNL     1       3.860   7.060   6.285  1.00  0.00     0.208 A 
ATOM      3  C   UNL     1       3.219   8.307   6.353  1.00  0.00     0.238 A 
ATOM      4  O   UNL     1       3.863   9.335   6.018  1.00  0.00    -0.285 OA
ATOM      5  C   UNL     1       1.862   8.382   6.748  1.00  0.00     0.111 A 
ATOM      6  C   UNL     1       1.125   9.595   6.889  1.00  0.00     0.134 A 
ATOM      7  C   UNL     1      -0.248   9.542   7.160  1.00  0.00     0.093 A 
ATOM      8  C   UNL     1      -0.897   8.320   7.359  1.00  0.00     0.123 A 
ATOM      9  C   UNL     1      -0.173   7.133   7.282  1.00  0.00     0.094 A 
ATOM     10  C   UNL     1       1.191   7.152   6.977  1.00  0.00     0.146 A 
ATOM     11  O   UNL     1       1.840   5.997   6.903  1.00  0.00    -0.452 OA
ENDROOT
BRANCH   1  12
ATOM     12  C   UNL     1       3.744   4.553   6.576  1.00  0.00     0.025 A 
ATOM     13  C   UNL     1       5.497   2.987   7.254  1.00  0.00     0.161 A 
ATOM     14  C   UNL     1       4.842   1.963   6.546  1.00  0.00     0.157 A 
ATOM     15  C   UNL     1       4.936   4.280   7.270  1.00  0.00     0.062 A 
ATOM     16  C   UNL     1       3.644   2.230   5.875  1.00  0.00     0.051 A 
ATOM     17  C   UNL     1       3.094   3.512   5.896  1.00  0.00     0.016 A 
BRANCH  13  18
ATOM     18  O   UNL     1       6.691   2.686   7.928  1.00  0.00    -0.493 OA
ATOM     19  C   UNL     1       7.973   2.618   7.311  1.00  0.00     0.278 C 
ENDBRANCH  13  18
BRANCH  14  20
ATOM     20  O   UNL     1       5.364   0.670   6.501  1.00  0.00    -0.504 OA
ATOM     21  H   UNL     1       4.963  -0.055   5.919  1.00  0.00     0.293 HD
ENDBRANCH  14  20
ENDBRANCH   1  12
BRANCH   2  22
ATOM     22  O   UNL     1       5.193   6.961   5.876  1.00  0.00    -0.502 OA
ATOM     23  H   UNL     1       5.706   7.749   5.501  1.00  0.00     0.293 HD
ENDBRANCH   2  22
BRANCH   6  24
ATOM     24  O   UNL     1       1.694  10.869   6.801  1.00  0.00    -0.507 OA
ATOM     25  H   UNL     1       1.256  11.665   6.363  1.00  0.00     0.293 HD
ENDBRANCH   6  24
BRANCH   8  26
ATOM     26  O   UNL     1      -2.259   8.276   7.643  1.00  0.00    -0.508 OA
ATOM     27  H   UNL     1      -2.878   9.039   7.392  1.00  0.00     0.293 HD
ENDBRANCH   8  26
TORSDOF 6
ENDMDL
MODEL 7
REMARK VINA RESULT:    -5.266      6.269      8.581
REMARK INTER + INTRA:          -6.495
REMARK INTER:                  -6.924
REMARK INTRA:                   0.429
REMARK UNBOUND:                 0.002
REMARK SMILES COc1cc(-c2oc3cc(O)cc(O)c3c(=O)c2O)ccc1O
REMARK SMILES IDX 6 1 18 2 16 3 17 4 15 5 13 6 12 7 10 8 9 9 8 10 7 11 5 12
REMARK SMILES IDX 3 13 22 14 4 15 21 16 20 17 2 18 1 19 23 20 19 22 14 24
REMARK SMILES IDX 11 26
REMARK H PARENT 23 21 19 23 14 25 11 27
REMARK Flexibility Score: inf
ROOT
ATOM      1  C   UNL     1       4.771   3.358   6.478  1.00  0.00     0.180 A 
ATOM      2  C   UNL     1       6.146   3.082   6.373  1.00  0.00     0.208 A 
ATOM      3  C   UNL     1       6.579   1.749   6.436  1.00  0.00     0.238 A 
ATOM      4  O   UNL     1       7.815   1.512   6.396  1.00  0.00    -0.285 OA
ATOM      5  C   UNL     1       5.634   0.706   6.588  1.00  0.00     0.111 A 
ATOM      6  C   UNL     1       5.957  -0.683   6.624  1.00  0.00     0.134 A 
ATOM      7  C   UNL     1       4.954  -1.618   6.909  1.00  0.00     0.093 A 
ATOM      8  C   UNL     1       3.628  -1.220   7.096  1.00  0.00     0.123 A 
ATOM      9  C   UNL     1       3.293   0.129   7.003  1.00  0.00     0.094 A 
ATOM     10  C   UNL     1       4.277   1.089   6.756  1.00  0.00     0.146 A 
ATOM     11  O   UNL     1       3.915   2.364   6.687  1.00  0.00    -0.452 OA
ENDROOT
BRANCH   1  12
ATOM     12  C   UNL     1       4.237   4.737   6.395  1.00  0.00     0.025 A 
ATOM     13  C   UNL     1       2.444   6.363   6.746  1.00  0.00     0.161 A 
ATOM     14  C   UNL     1       3.288   7.382   6.269  1.00  0.00     0.157 A 
ATOM     15  C   UNL     1       2.930   5.042   6.813  1.00  0.00     0.062 A 
ATOM     16  C   UNL     1       4.595   7.082   5.875  1.00  0.00     0.051 A 
ATOM     17  C   UNL     1       5.070   5.771   5.944  1.00  0.00     0.016 A 
BRANCH  13  18
ATOM     18  O   UNL     1       1.140   6.697   7.146  1.00  0.00    -0.493 OA
ATOM     19  C   UNL     1       0.751   6.972   8.488  1.00  0.00     0.278 C 
ENDBRANCH  13  18
BRANCH  14  20
ATOM     20  O   UNL     1       2.846   8.703   6.183  1.00  0.00    -0.504 OA
ATOM     21  H   UNL     1       3.420   9.439   5.790  1.00  0.00     0.293 HD
ENDBRANCH  14  20
ENDBRANCH   1  12
BRANCH   2  22
ATOM     22  O   UNL     1       7.065   4.128   6.245  1.00  0.00    -0.502 OA
ATOM     23  H   UNL     1       6.865   4.966   5.715  1.00  0.00     0.293 HD
ENDBRANCH   2  22
BRANCH   6  24
ATOM     24  O   UNL     1       7.231  -1.195   6.362  1.00  0.00    -0.507 OA
ATOM     25  H   UNL     1       7.474  -1.743   5.551  1.00  0.00     0.293 HD
ENDBRANCH   6  24
BRANCH   8  26
ATOM     26  O   UNL     1       2.634  -2.158   7.363  1.00  0.00    -0.508 OA
ATOM     27  H   UNL     1       2.048  -2.534   6.627  1.00  0.00     0.293 HD
ENDBRANCH   8  26
TORSDOF 6
ENDMDL
MODEL 8
REMARK VINA RESULT:    -4.755      1.670      6.952
REMARK INTER + INTRA:          -5.864
REMARK INTER:                  -5.493
REMARK INTRA:                  -0.372
REMARK UNBOUND:                 0.002
REMARK SMILES COc1cc(-c2oc3cc(O)cc(O)c3c(=O)c2O)ccc1O
REMARK SMILES IDX 6 1 18 2 16 3 17 4 15 5 13 6 12 7 10 8 9 9 8 10 7 11 5 12
REMARK SMILES IDX 3 13 22 14 4 15 21 16 20 17 2 18 1 19 23 20 19 22 14 24
REMARK SMILES IDX 11 26
REMARK H PARENT 23 21 19 23 14 25 11 27
REMARK Flexibility Score: inf
ROOT
ATOM      1  C   UNL     1       1.453  10.600   6.774  1.00  0.00     0.180 A 
ATOM      2  C   UNL     1       2.611   9.865   6.463  1.00  0.00     0.208 A 
ATOM      3  C   UNL     1       3.839  10.538   6.371  1.00  0.00     0.238 A 
ATOM      4  O   UNL     1       4.863   9.885   6.038  1.00  0.00    -0.285 OA
ATOM      5  C   UNL     1       3.899  11.932   6.607  1.00  0.00     0.111 A 
ATOM      6  C   UNL     1       5.096  12.709   6.580  1.00  0.00     0.134 A 
ATOM      7  C   UNL     1       5.019  14.102   6.700  1.00  0.00     0.093 A 
ATOM      8  C   UNL     1       3.794  14.740   6.910  1.00  0.00     0.123 A 
ATOM      9  C   UNL     1       2.627  13.985   6.997  1.00  0.00     0.094 A 
ATOM     10  C   UNL     1       2.668  12.596   6.845  1.00  0.00     0.146 A 
ATOM     11  O   UNL     1       1.531  11.916   6.925  1.00  0.00    -0.452 OA
ENDROOT
BRANCH   1  12
ATOM     12  C   UNL     1       0.127   9.955   6.913  1.00  0.00     0.025 A 
ATOM     13  C   UNL     1      -1.510   8.683   8.212  1.00  0.00     0.161 A 
ATOM     14  C   UNL     1      -2.426   8.797   7.150  1.00  0.00     0.157 A 
ATOM     15  C   UNL     1      -0.236   9.273   8.088  1.00  0.00     0.062 A 
ATOM     16  C   UNL     1      -2.072   9.494   5.991  1.00  0.00     0.051 A 
ATOM     17  C   UNL     1      -0.809  10.076   5.875  1.00  0.00     0.016 A 
BRANCH  13  18
ATOM     18  O   UNL     1      -1.898   7.987   9.368  1.00  0.00    -0.493 OA
ATOM     19  C   UNL     1      -1.050   7.115  10.108  1.00  0.00     0.278 C 
ENDBRANCH  13  18
BRANCH  14  20
ATOM     20  O   UNL     1      -3.696   8.224   7.229  1.00  0.00    -0.504 OA
ATOM     21  H   UNL     1      -4.076   7.649   6.488  1.00  0.00     0.293 HD
ENDBRANCH  14  20
ENDBRANCH   1  12
BRANCH   2  22
ATOM     22  O   UNL     1       2.526   8.492   6.212  1.00  0.00    -0.502 OA
ATOM     23  H   UNL     1       1.825   7.903   6.641  1.00  0.00     0.293 HD
ENDBRANCH   2  22
BRANCH   6  24
ATOM     24  O   UNL     1       6.378  12.162   6.467  1.00  0.00    -0.507 OA
ATOM     25  H   UNL     1       7.190  12.495   6.965  1.00  0.00     0.293 HD
ENDBRANCH   6  24
BRANCH   8  26
ATOM     26  O   UNL     1       3.727  16.125   7.044  1.00  0.00    -0.508 OA
ATOM     27  H   UNL     1       2.936  16.654   6.695  1.00  0.00     0.293 HD
ENDBRANCH   8  26
TORSDOF 6
ENDMDL
