MODEL 1
REMARK VINA RESULT:    -2.585      0.000      0.000
REMARK INTER + INTRA:          -3.280
REMARK INTER:                  -3.189
REMARK INTRA:                  -0.090
REMARK UNBOUND:                -0.090
REMARK SMILES CCCCCC(=O)[O-]
REMARK SMILES IDX 4 1 5 2 6 3 7 4 8 5 3 6 2 7 1 8
REMARK H PARENT
REMARK Flexibility Score: inf
ROOT
ATOM      1  C   UNL     1       9.019  -2.793  -0.606  1.00  0.00     0.006 C 
ENDROOT
BRANCH   1   2
ATOM      2  C   UNL     1       9.008  -4.062   0.253  1.00  0.00     0.053 C 
BRANCH   2   3
ATOM      3  C   UNL     1       8.477  -3.764   1.620  1.00  0.00     0.041 C 
ATOM      4  O   UNL     1       8.567  -2.602   2.096  1.00  0.00    -0.550 OA
ATOM      5  O   UNL     1       7.839  -4.759   2.350  1.00  0.00    -0.550 OA
ENDBRANCH   2   3
ENDBRANCH   1   2
BRANCH   1   6
ATOM      6  C   UNL     1       8.433  -3.069  -1.998  1.00  0.00     0.000 C 
BRANCH   6   7
ATOM      7  C   UNL     1       7.689  -1.855  -2.577  1.00  0.00    -0.003 C 
ATOM      8  C   UNL     1       8.030  -0.553  -1.853  1.00  0.00     0.004 C 
ENDBRANCH   6   7
ENDBRANCH   1   6
TORSDOF 4
ENDMDL
MODEL 2
REMARK VINA RESULT:    -2.434      1.685      2.254
REMARK INTER + INTRA:          -3.094
REMARK INTER:                  -2.988
REMARK INTRA:                  -0.106
REMARK UNBOUND:                -0.090
REMARK SMILES CCCCCC(=O)[O-]
REMARK SMILES IDX 4 1 5 2 6 3 7 4 8 5 3 6 2 7 1 8
REMARK H PARENT
REMARK Flexibility Score: inf
ROOT
ATOM      1  C   UNL     1       7.995  -2.958  -2.539  1.00  0.00     0.006 C 
ENDROOT
BRANCH   1   2
ATOM      2  C   UNL     1       8.838  -2.713  -1.282  1.00  0.00     0.053 C 
BRANCH   2   3
ATOM      3  C   UNL     1       8.926  -3.960  -0.460  1.00  0.00     0.041 C 
ATOM      4  O   UNL     1       8.741  -3.914   0.784  1.00  0.00    -0.550 OA
ATOM      5  O   UNL     1       9.164  -5.183  -1.075  1.00  0.00    -0.550 OA
ENDBRANCH   2   3
ENDBRANCH   1   2
BRANCH   1   6
ATOM      6  C   UNL     1       7.302  -1.666  -2.994  1.00  0.00     0.000 C 
BRANCH   6   7
ATOM      7  C   UNL     1       7.725  -0.444  -2.162  1.00  0.00    -0.003 C 
ATOM      8  C   UNL     1       7.136   0.863  -2.692  1.00  0.00     0.004 C 
ENDBRANCH   6   7
ENDBRANCH   1   6
TORSDOF 4
ENDMDL
MODEL 3
REMARK VINA RESULT:    -2.417      2.611      3.508
REMARK INTER + INTRA:          -3.072
REMARK INTER:                  -2.966
REMARK INTRA:                  -0.106
REMARK UNBOUND:                -0.090
REMARK SMILES CCCCCC(=O)[O-]
REMARK SMILES IDX 4 1 5 2 6 3 7 4 8 5 3 6 2 7 1 8
REMARK H PARENT
REMARK Flexibility Score: inf
ROOT
ATOM      1  C   UNL     1       7.229  -1.986  -3.330  1.00  0.00     0.006 C 
ENDROOT
BRANCH   1   2
ATOM      2  C   UNL     1       8.128  -2.346  -2.142  1.00  0.00     0.053 C 
BRANCH   2   3
ATOM      3  C   UNL     1       8.355  -3.823  -2.086  1.00  0.00     0.041 C 
ATOM      4  O   UNL     1       9.130  -4.313  -1.223  1.00  0.00    -0.550 OA
ATOM      5  O   UNL     1       7.673  -4.665  -2.955  1.00  0.00    -0.550 OA
ENDBRANCH   2   3
ENDBRANCH   1   2
BRANCH   1   6
ATOM      6  C   UNL     1       6.892  -0.488  -3.328  1.00  0.00     0.000 C 
BRANCH   6   7
ATOM      7  C   UNL     1       7.573   0.269  -2.178  1.00  0.00    -0.003 C 
ATOM      8  C   UNL     1       7.363   1.781  -2.259  1.00  0.00     0.004 C 
ENDBRANCH   6   7
ENDBRANCH   1   6
TORSDOF 4
ENDMDL
MODEL 4
REMARK VINA RESULT:    -2.388      1.209      1.804
REMARK INTER + INTRA:          -3.036
REMARK INTER:                  -2.953
REMARK INTRA:                  -0.084
REMARK UNBOUND:                -0.090
REMARK SMILES CCCCCC(=O)[O-]
REMARK SMILES IDX 4 1 5 2 6 3 7 4 8 5 3 6 2 7 1 8
REMARK H PARENT
REMARK Flexibility Score: inf
ROOT
ATOM      1  C   UNL     1       8.733  -1.448  -0.848  1.00  0.00     0.006 C 
ENDROOT
BRANCH   1   2
ATOM      2  C   UNL     1       9.218  -2.547   0.104  1.00  0.00     0.053 C 
BRANCH   2   3
ATOM      3  C   UNL     1       8.762  -2.268   1.501  1.00  0.00     0.041 C 
ATOM      4  O   UNL     1       8.519  -3.218   2.290  1.00  0.00    -0.550 OA
ATOM      5  O   UNL     1       8.651  -0.957   1.948  1.00  0.00    -0.550 OA
ENDBRANCH   2   3
ENDBRANCH   1   2
BRANCH   1   6
ATOM      6  C   UNL     1       8.061  -2.054  -2.089  1.00  0.00     0.000 C 
BRANCH   6   7
ATOM      7  C   UNL     1       7.295  -1.010  -2.916  1.00  0.00    -0.003 C 
ATOM      8  C   UNL     1       7.378   0.395  -2.317  1.00  0.00     0.004 C 
ENDBRANCH   6   7
ENDBRANCH   1   6
TORSDOF 4
ENDMDL
MODEL 5
REMARK VINA RESULT:    -2.363      1.536      2.197
REMARK INTER + INTRA:          -3.006
REMARK INTER:                  -2.885
REMARK INTRA:                  -0.122
REMARK UNBOUND:                -0.090
REMARK SMILES CCCCCC(=O)[O-]
REMARK SMILES IDX 4 1 5 2 6 3 7 4 8 5 3 6 2 7 1 8
REMARK H PARENT
REMARK Flexibility Score: inf
ROOT
ATOM      1  C   UNL     1       8.783  -0.187  -0.435  1.00  0.00     0.006 C 
ENDROOT
BRANCH   1   2
ATOM      2  C   UNL     1       9.064  -1.607   0.069  1.00  0.00     0.053 C 
BRANCH   2   3
ATOM      3  C   UNL     1       8.775  -1.710   1.533  1.00  0.00     0.041 C 
ATOM      4  O   UNL     1       8.729  -0.673   2.245  1.00  0.00    -0.550 OA
ATOM      5  O   UNL     1       8.506  -2.948   2.103  1.00  0.00    -0.550 OA
ENDBRANCH   2   3
ENDBRANCH   1   2
BRANCH   1   6
ATOM      6  C   UNL     1       8.055  -0.219  -1.787  1.00  0.00     0.000 C 
BRANCH   6   7
ATOM      7  C   UNL     1       7.841  -1.649  -2.308  1.00  0.00    -0.003 C 
ATOM      8  C   UNL     1       6.988  -1.694  -3.576  1.00  0.00     0.004 C 
ENDBRANCH   6   7
ENDBRANCH   1   6
TORSDOF 4
ENDMDL
MODEL 6
REMARK VINA RESULT:    -2.362      3.664      4.262
REMARK INTER + INTRA:          -3.005
REMARK INTER:                  -2.923
REMARK INTRA:                  -0.082
REMARK UNBOUND:                -0.090
REMARK SMILES CCCCCC(=O)[O-]
REMARK SMILES IDX 4 1 5 2 6 3 7 4 8 5 3 6 2 7 1 8
REMARK H PARENT
REMARK Flexibility Score: inf
ROOT
ATOM      1  C   UNL     1       7.513  -2.298  -2.972  1.00  0.00     0.006 C 
ENDROOT
BRANCH   1   2
ATOM      2  C   UNL     1       8.027  -3.693  -2.598  1.00  0.00     0.053 C 
BRANCH   2   3
ATOM      3  C   UNL     1       7.328  -4.742  -3.403  1.00  0.00     0.041 C 
ATOM      4  O   UNL     1       7.591  -5.960  -3.225  1.00  0.00    -0.550 OA
ATOM      5  O   UNL     1       6.348  -4.377  -4.318  1.00  0.00    -0.550 OA
ENDBRANCH   2   3
ENDBRANCH   1   2
BRANCH   1   6
ATOM      6  C   UNL     1       8.052  -1.238  -2.000  1.00  0.00     0.000 C 
BRANCH   6   7
ATOM      7  C   UNL     1       7.498   0.166  -2.293  1.00  0.00    -0.003 C 
ATOM      8  C   UNL     1       6.624   0.207  -3.546  1.00  0.00     0.004 C 
ENDBRANCH   6   7
ENDBRANCH   1   6
TORSDOF 4
ENDMDL
MODEL 7
REMARK VINA RESULT:    -2.328      4.001      5.280
REMARK INTER + INTRA:          -2.963
REMARK INTER:                  -2.859
REMARK INTRA:                  -0.104
REMARK UNBOUND:                -0.090
REMARK SMILES CCCCCC(=O)[O-]
REMARK SMILES IDX 4 1 5 2 6 3 7 4 8 5 3 6 2 7 1 8
REMARK H PARENT
REMARK Flexibility Score: inf
ROOT
ATOM      1  C   UNL     1       7.025  -0.580  -3.331  1.00  0.00     0.006 C 
ENDROOT
BRANCH   1   2
ATOM      2  C   UNL     1       7.617   0.187  -2.143  1.00  0.00     0.053 C 
BRANCH   2   3
ATOM      3  C   UNL     1       7.290   1.643  -2.244  1.00  0.00     0.041 C 
ATOM      4  O   UNL     1       7.825   2.469  -1.459  1.00  0.00    -0.550 OA
ATOM      5  O   UNL     1       6.431   2.095  -3.238  1.00  0.00    -0.550 OA
ENDBRANCH   2   3
ENDBRANCH   1   2
BRANCH   1   6
ATOM      6  C   UNL     1       7.235  -2.092  -3.167  1.00  0.00     0.000 C 
BRANCH   6   7
ATOM      7  C   UNL     1       8.245  -2.431  -2.059  1.00  0.00    -0.003 C 
ATOM      8  C   UNL     1       8.503  -3.933  -1.935  1.00  0.00     0.004 C 
ENDBRANCH   6   7
ENDBRANCH   1   6
TORSDOF 4
ENDMDL
MODEL 8
REMARK VINA RESULT:    -2.321      1.724      2.475
REMARK INTER + INTRA:          -2.954
REMARK INTER:                  -2.849
REMARK INTRA:                  -0.105
REMARK UNBOUND:                -0.090
REMARK SMILES CCCCCC(=O)[O-]
REMARK SMILES IDX 4 1 5 2 6 3 7 4 8 5 3 6 2 7 1 8
REMARK H PARENT
REMARK Flexibility Score: inf
ROOT
ATOM      1  C   UNL     1       8.127  -2.025  -2.165  1.00  0.00     0.006 C 
ENDROOT
BRANCH   1   2
ATOM      2  C   UNL     1       8.636  -1.338  -0.893  1.00  0.00     0.053 C 
BRANCH   2   3
ATOM      3  C   UNL     1       9.218  -2.345   0.048  1.00  0.00     0.041 C 
ATOM      4  O   UNL     1      10.032  -1.985   0.938  1.00  0.00    -0.550 OA
ATOM      5  O   UNL     1       8.825  -3.675  -0.027  1.00  0.00    -0.550 OA
ENDBRANCH   2   3
ENDBRANCH   1   2
BRANCH   1   6
ATOM      6  C   UNL     1       7.229  -1.079  -2.976  1.00  0.00     0.000 C 
BRANCH   6   7
ATOM      7  C   UNL     1       7.286   0.370  -2.467  1.00  0.00    -0.003 C 
ATOM      8  C   UNL     1       6.572   1.351  -3.397  1.00  0.00     0.004 C 
ENDBRANCH   6   7
ENDBRANCH   1   6
TORSDOF 4
ENDMDL
MODEL 9
REMARK VINA RESULT:    -2.271      2.739      3.597
REMARK INTER + INTRA:          -2.893
REMARK INTER:                  -2.786
REMARK INTRA:                  -0.107
REMARK UNBOUND:                -0.090
REMARK SMILES CCCCCC(=O)[O-]
REMARK SMILES IDX 4 1 5 2 6 3 7 4 8 5 3 6 2 7 1 8
REMARK H PARENT
REMARK Flexibility Score: inf
ROOT
ATOM      1  C   UNL     1       7.987   0.132  -1.787  1.00  0.00     0.006 C 
ENDROOT
BRANCH   1   2
ATOM      2  C   UNL     1       8.665  -0.811  -0.788  1.00  0.00     0.053 C 
BRANCH   2   3
ATOM      3  C   UNL     1       9.041  -0.072   0.458  1.00  0.00     0.041 C 
ATOM      4  O   UNL     1       9.675  -0.656   1.375  1.00  0.00    -0.550 OA
ATOM      5  O   UNL     1       8.733   1.277   0.585  1.00  0.00    -0.550 OA
ENDBRANCH   2   3
ENDBRANCH   1   2
BRANCH   1   6
ATOM      6  C   UNL     1       7.261  -0.662  -2.883  1.00  0.00     0.000 C 
BRANCH   6   7
ATOM      7  C   UNL     1       7.538  -2.171  -2.801  1.00  0.00    -0.003 C 
ATOM      8  C   UNL     1       6.929  -2.948  -3.968  1.00  0.00     0.004 C 
ENDBRANCH   6   7
ENDBRANCH   1   6
TORSDOF 4
ENDMDL
