MODEL 1
REMARK VINA RESULT:    -4.217      0.000      0.000
REMARK INTER + INTRA:          -7.844
REMARK INTER:                  -6.436
REMARK INTRA:                  -1.408
REMARK UNBOUND:                -1.408
REMARK SMILES CCCCCCCCCC=CC(=O)[O-]
REMARK SMILES IDX 7 1 8 2 9 3 10 4 11 5 12 6 13 7 14 8 6 9 5 10 4 11 3 12 2 13
REMARK SMILES IDX 1 14
REMARK H PARENT
REMARK Flexibility Score: inf
ROOT
ATOM      1  C   UNL     1      20.301  20.994  20.960  1.00  0.00     0.000 C 
ENDROOT
BRANCH   1   2
ATOM      2  C   UNL     1      18.889  20.743  20.398  1.00  0.00     0.004 C 
BRANCH   2   3
ATOM      3  C   UNL     1      17.796  21.485  21.183  1.00  0.00     0.027 C 
BRANCH   3   4
ATOM      4  C   UNL     1      18.231  21.754  22.595  1.00  0.00    -0.025 C 
ATOM      5  C   UNL     1      17.343  21.985  23.568  1.00  0.00     0.020 C 
BRANCH   5   6
ATOM      6  C   UNL     1      17.745  22.237  24.961  1.00  0.00     0.064 C 
ATOM      7  O   UNL     1      18.877  22.721  25.234  1.00  0.00    -0.545 OA
ATOM      8  O   UNL     1      16.864  21.936  25.991  1.00  0.00    -0.545 OA
ENDBRANCH   5   6
ENDBRANCH   3   4
ENDBRANCH   2   3
ENDBRANCH   1   2
BRANCH   1   9
ATOM      9  C   UNL     1      21.090  19.724  21.340  1.00  0.00     0.000 C 
BRANCH   9  10
ATOM     10  C   UNL     1      21.931  19.841  22.623  1.00  0.00     0.000 C 
BRANCH  10  11
ATOM     11  C   UNL     1      21.122  19.535  23.895  1.00  0.00    -0.000 C 
BRANCH  11  12
ATOM     12  C   UNL     1      19.961  18.561  23.636  1.00  0.00    -0.000 C 
BRANCH  12  13
ATOM     13  C   UNL     1      18.859  18.662  24.701  1.00  0.00    -0.003 C 
ATOM     14  C   UNL     1      17.490  18.342  24.107  1.00  0.00     0.004 C 
ENDBRANCH  12  13
ENDBRANCH  11  12
ENDBRANCH  10  11
ENDBRANCH   9  10
ENDBRANCH   1   9
TORSDOF 9
ENDMDL
MODEL 2
REMARK VINA RESULT:    -4.086      0.573      1.279
REMARK INTER + INTRA:          -7.645
REMARK INTER:                  -6.415
REMARK INTRA:                  -1.230
REMARK UNBOUND:                -1.408
REMARK SMILES CCCCCCCCCC=CC(=O)[O-]
REMARK SMILES IDX 7 1 8 2 9 3 10 4 11 5 12 6 13 7 14 8 6 9 5 10 4 11 3 12 2 13
REMARK SMILES IDX 1 14
REMARK H PARENT
REMARK Flexibility Score: inf
ROOT
ATOM      1  C   UNL     1      20.420  19.618  21.367  1.00  0.00     0.000 C 
ENDROOT
BRANCH   1   2
ATOM      2  C   UNL     1      19.880  20.852  20.621  1.00  0.00     0.004 C 
BRANCH   2   3
ATOM      3  C   UNL     1      18.561  21.374  21.212  1.00  0.00     0.027 C 
BRANCH   3   4
ATOM      4  C   UNL     1      18.719  21.724  22.664  1.00  0.00    -0.025 C 
ATOM      5  C   UNL     1      17.661  21.994  23.437  1.00  0.00     0.020 C 
BRANCH   5   6
ATOM      6  C   UNL     1      17.791  22.325  24.865  1.00  0.00     0.064 C 
ATOM      7  O   UNL     1      16.833  22.146  25.664  1.00  0.00    -0.545 OA
ATOM      8  O   UNL     1      18.989  22.841  25.340  1.00  0.00    -0.545 OA
ENDBRANCH   5   6
ENDBRANCH   3   4
ENDBRANCH   2   3
ENDBRANCH   1   2
BRANCH   1   9
ATOM      9  C   UNL     1      21.667  19.872  22.238  1.00  0.00     0.000 C 
BRANCH   9  10
ATOM     10  C   UNL     1      21.536  19.436  23.707  1.00  0.00     0.000 C 
BRANCH  10  11
ATOM     11  C   UNL     1      20.311  18.539  23.954  1.00  0.00    -0.000 C 
BRANCH  11  12
ATOM     12  C   UNL     1      19.414  19.064  25.087  1.00  0.00    -0.000 C 
BRANCH  12  13
ATOM     13  C   UNL     1      18.206  18.153  25.352  1.00  0.00    -0.003 C 
ATOM     14  C   UNL     1      17.069  18.452  24.379  1.00  0.00     0.004 C 
ENDBRANCH  12  13
ENDBRANCH  11  12
ENDBRANCH  10  11
ENDBRANCH   9  10
ENDBRANCH   1   9
TORSDOF 9
ENDMDL
MODEL 3
REMARK VINA RESULT:    -3.980     13.144     14.339
REMARK INTER + INTRA:          -7.482
REMARK INTER:                  -6.920
REMARK INTRA:                  -0.562
REMARK UNBOUND:                -1.408
REMARK SMILES CCCCCCCCCC=CC(=O)[O-]
REMARK SMILES IDX 7 1 8 2 9 3 10 4 11 5 12 6 13 7 14 8 6 9 5 10 4 11 3 12 2 13
REMARK SMILES IDX 1 14
REMARK H PARENT
REMARK Flexibility Score: inf
ROOT
ATOM      1  C   UNL     1      18.754  30.785  33.343  1.00  0.00     0.000 C 
ENDROOT
BRANCH   1   2
ATOM      2  C   UNL     1      18.446  31.528  32.029  1.00  0.00     0.004 C 
BRANCH   2   3
ATOM      3  C   UNL     1      19.387  32.717  31.784  1.00  0.00     0.027 C 
BRANCH   3   4
ATOM      4  C   UNL     1      20.114  32.572  30.478  1.00  0.00    -0.025 C 
ATOM      5  C   UNL     1      21.018  33.473  30.077  1.00  0.00     0.020 C 
BRANCH   5   6
ATOM      6  C   UNL     1      21.752  33.343  28.808  1.00  0.00     0.064 C 
ATOM      7  O   UNL     1      21.844  32.232  28.220  1.00  0.00    -0.545 OA
ATOM      8  O   UNL     1      22.354  34.463  28.250  1.00  0.00    -0.545 OA
ENDBRANCH   5   6
ENDBRANCH   3   4
ENDBRANCH   2   3
ENDBRANCH   1   2
BRANCH   1   9
ATOM      9  C   UNL     1      20.157  31.044  33.929  1.00  0.00     0.000 C 
BRANCH   9  10
ATOM     10  C   UNL     1      20.855  29.807  34.517  1.00  0.00     0.000 C 
BRANCH  10  11
ATOM     11  C   UNL     1      19.861  28.736  34.999  1.00  0.00    -0.000 C 
BRANCH  11  12
ATOM     12  C   UNL     1      20.461  27.321  34.976  1.00  0.00    -0.000 C 
BRANCH  12  13
ATOM     13  C   UNL     1      21.875  27.291  34.378  1.00  0.00    -0.003 C 
ATOM     14  C   UNL     1      22.449  25.876  34.397  1.00  0.00     0.004 C 
ENDBRANCH  12  13
ENDBRANCH  11  12
ENDBRANCH  10  11
ENDBRANCH   9  10
ENDBRANCH   1   9
TORSDOF 9
ENDMDL
MODEL 4
REMARK VINA RESULT:    -3.967      1.502      2.874
REMARK INTER + INTRA:          -7.462
REMARK INTER:                  -6.373
REMARK INTRA:                  -1.089
REMARK UNBOUND:                -1.408
REMARK SMILES CCCCCCCCCC=CC(=O)[O-]
REMARK SMILES IDX 7 1 8 2 9 3 10 4 11 5 12 6 13 7 14 8 6 9 5 10 4 11 3 12 2 13
REMARK SMILES IDX 1 14
REMARK H PARENT
REMARK Flexibility Score: inf
ROOT
ATOM      1  C   UNL     1      17.489  22.121  19.391  1.00  0.00     0.000 C 
ENDROOT
BRANCH   1   2
ATOM      2  C   UNL     1      16.728  22.462  20.685  1.00  0.00     0.004 C 
BRANCH   2   3
ATOM      3  C   UNL     1      16.195  21.216  21.408  1.00  0.00     0.027 C 
BRANCH   3   4
ATOM      4  C   UNL     1      16.549  21.244  22.868  1.00  0.00    -0.025 C 
ATOM      5  C   UNL     1      17.308  22.216  23.385  1.00  0.00     0.020 C 
BRANCH   5   6
ATOM      6  C   UNL     1      17.655  22.271  24.814  1.00  0.00     0.064 C 
ATOM      7  O   UNL     1      16.816  21.956  25.700  1.00  0.00    -0.545 OA
ATOM      8  O   UNL     1      18.928  22.677  25.193  1.00  0.00    -0.545 OA
ENDBRANCH   5   6
ENDBRANCH   3   4
ENDBRANCH   2   3
ENDBRANCH   1   2
BRANCH   1   9
ATOM      9  C   UNL     1      18.493  20.957  19.509  1.00  0.00     0.000 C 
BRANCH   9  10
ATOM     10  C   UNL     1      19.607  21.161  20.550  1.00  0.00     0.000 C 
BRANCH  10  11
ATOM     11  C   UNL     1      19.815  19.930  21.448  1.00  0.00    -0.000 C 
BRANCH  11  12
ATOM     12  C   UNL     1      20.350  20.299  22.841  1.00  0.00    -0.000 C 
BRANCH  12  13
ATOM     13  C   UNL     1      21.703  19.640  23.146  1.00  0.00    -0.003 C 
ATOM     14  C   UNL     1      22.682  19.836  21.991  1.00  0.00     0.004 C 
ENDBRANCH  12  13
ENDBRANCH  11  12
ENDBRANCH  10  11
ENDBRANCH   9  10
ENDBRANCH   1   9
TORSDOF 9
ENDMDL
MODEL 5
REMARK VINA RESULT:    -3.818      2.658      4.914
REMARK INTER + INTRA:          -7.235
REMARK INTER:                  -5.757
REMARK INTRA:                  -1.478
REMARK UNBOUND:                -1.408
REMARK SMILES CCCCCCCCCC=CC(=O)[O-]
REMARK SMILES IDX 7 1 8 2 9 3 10 4 11 5 12 6 13 7 14 8 6 9 5 10 4 11 3 12 2 13
REMARK SMILES IDX 1 14
REMARK H PARENT
REMARK Flexibility Score: inf
ROOT
ATOM      1  C   UNL     1      18.841  20.449  25.652  1.00  0.00     0.000 C 
ENDROOT
BRANCH   1   2
ATOM      2  C   UNL     1      18.658  18.984  25.215  1.00  0.00     0.004 C 
BRANCH   2   3
ATOM      3  C   UNL     1      19.982  18.311  24.821  1.00  0.00     0.027 C 
BRANCH   3   4
ATOM      4  C   UNL     1      20.498  18.852  23.519  1.00  0.00    -0.025 C 
ATOM      5  C   UNL     1      21.690  19.453  23.434  1.00  0.00     0.020 C 
BRANCH   5   6
ATOM      6  C   UNL     1      22.221  19.977  22.166  1.00  0.00     0.064 C 
ATOM      7  O   UNL     1      23.402  20.411  22.085  1.00  0.00    -0.545 OA
ATOM      8  O   UNL     1      21.409  19.993  21.040  1.00  0.00    -0.545 OA
ENDBRANCH   5   6
ENDBRANCH   3   4
ENDBRANCH   2   3
ENDBRANCH   1   2
BRANCH   1   9
ATOM      9  C   UNL     1      17.720  21.410  25.207  1.00  0.00     0.000 C 
BRANCH   9  10
ATOM     10  C   UNL     1      18.151  22.491  24.201  1.00  0.00     0.000 C 
BRANCH  10  11
ATOM     11  C   UNL     1      18.836  21.905  22.955  1.00  0.00    -0.000 C 
BRANCH  11  12
ATOM     12  C   UNL     1      17.848  21.640  21.807  1.00  0.00    -0.000 C 
BRANCH  12  13
ATOM     13  C   UNL     1      17.772  20.154  21.427  1.00  0.00    -0.003 C 
ATOM     14  C   UNL     1      16.634  19.456  22.167  1.00  0.00     0.004 C 
ENDBRANCH  12  13
ENDBRANCH  11  12
ENDBRANCH  10  11
ENDBRANCH   9  10
ENDBRANCH   1   9
TORSDOF 9
ENDMDL
MODEL 6
REMARK VINA RESULT:    -3.809      1.361      3.197
REMARK INTER + INTRA:          -7.222
REMARK INTER:                  -5.658
REMARK INTRA:                  -1.564
REMARK UNBOUND:                -1.408
REMARK SMILES CCCCCCCCCC=CC(=O)[O-]
REMARK SMILES IDX 7 1 8 2 9 3 10 4 11 5 12 6 13 7 14 8 6 9 5 10 4 11 3 12 2 13
REMARK SMILES IDX 1 14
REMARK H PARENT
REMARK Flexibility Score: inf
ROOT
ATOM      1  C   UNL     1      21.791  19.787  22.034  1.00  0.00     0.000 C 
ENDROOT
BRANCH   1   2
ATOM      2  C   UNL     1      21.433  19.542  23.511  1.00  0.00     0.004 C 
BRANCH   2   3
ATOM      3  C   UNL     1      20.217  18.620  23.684  1.00  0.00     0.027 C 
BRANCH   3   4
ATOM      4  C   UNL     1      19.226  19.206  24.649  1.00  0.00    -0.025 C 
ATOM      5  C   UNL     1      19.363  20.449  25.124  1.00  0.00     0.020 C 
BRANCH   5   6
ATOM      6  C   UNL     1      18.397  21.048  26.058  1.00  0.00     0.064 C 
ATOM      7  O   UNL     1      18.331  20.668  27.258  1.00  0.00    -0.545 OA
ATOM      8  O   UNL     1      17.545  22.048  25.611  1.00  0.00    -0.545 OA
ENDBRANCH   5   6
ENDBRANCH   3   4
ENDBRANCH   2   3
ENDBRANCH   1   2
BRANCH   1   9
ATOM      9  C   UNL     1      20.584  19.937  21.084  1.00  0.00     0.000 C 
BRANCH   9  10
ATOM     10  C   UNL     1      19.900  21.315  21.114  1.00  0.00     0.000 C 
BRANCH  10  11
ATOM     11  C   UNL     1      18.387  21.233  20.852  1.00  0.00    -0.000 C 
BRANCH  11  12
ATOM     12  C   UNL     1      17.553  21.659  22.072  1.00  0.00    -0.000 C 
BRANCH  12  13
ATOM     13  C   UNL     1      16.465  20.635  22.427  1.00  0.00    -0.003 C 
ATOM     14  C   UNL     1      16.803  19.257  21.865  1.00  0.00     0.004 C 
ENDBRANCH  12  13
ENDBRANCH  11  12
ENDBRANCH  10  11
ENDBRANCH   9  10
ENDBRANCH   1   9
TORSDOF 9
ENDMDL
MODEL 7
REMARK VINA RESULT:    -3.765     13.331     14.916
REMARK INTER + INTRA:          -7.154
REMARK INTER:                  -6.627
REMARK INTRA:                  -0.527
REMARK UNBOUND:                -1.408
REMARK SMILES CCCCCCCCCC=CC(=O)[O-]
REMARK SMILES IDX 7 1 8 2 9 3 10 4 11 5 12 6 13 7 14 8 6 9 5 10 4 11 3 12 2 13
REMARK SMILES IDX 1 14
REMARK H PARENT
REMARK Flexibility Score: inf
ROOT
ATOM      1  C   UNL     1      20.668  31.274  33.538  1.00  0.00     0.000 C 
ENDROOT
BRANCH   1   2
ATOM      2  C   UNL     1      20.577  30.422  34.818  1.00  0.00     0.004 C 
BRANCH   2   3
ATOM      3  C   UNL     1      19.626  29.225  34.669  1.00  0.00     0.027 C 
BRANCH   3   4
ATOM      4  C   UNL     1      20.345  27.929  34.912  1.00  0.00    -0.025 C 
ATOM      5  C   UNL     1      21.644  27.786  34.627  1.00  0.00     0.020 C 
BRANCH   5   6
ATOM      6  C   UNL     1      22.371  26.530  34.870  1.00  0.00     0.064 C 
ATOM      7  O   UNL     1      22.941  26.311  35.973  1.00  0.00    -0.545 OA
ATOM      8  O   UNL     1      22.430  25.571  33.868  1.00  0.00    -0.545 OA
ENDBRANCH   5   6
ENDBRANCH   3   4
ENDBRANCH   2   3
ENDBRANCH   1   2
BRANCH   1   9
ATOM      9  C   UNL     1      19.361  31.378  32.726  1.00  0.00     0.000 C 
BRANCH   9  10
ATOM     10  C   UNL     1      19.444  32.260  31.469  1.00  0.00     0.000 C 
BRANCH  10  11
ATOM     11  C   UNL     1      20.892  32.586  31.066  1.00  0.00    -0.000 C 
BRANCH  11  12
ATOM     12  C   UNL     1      21.107  32.533  29.544  1.00  0.00    -0.000 C 
BRANCH  12  13
ATOM     13  C   UNL     1      21.901  33.738  29.019  1.00  0.00    -0.003 C 
ATOM     14  C   UNL     1      21.895  34.882  30.030  1.00  0.00     0.004 C 
ENDBRANCH  12  13
ENDBRANCH  11  12
ENDBRANCH  10  11
ENDBRANCH   9  10
ENDBRANCH   1   9
TORSDOF 9
ENDMDL
MODEL 8
REMARK VINA RESULT:    -3.749     13.739     15.430
REMARK INTER + INTRA:          -7.130
REMARK INTER:                  -6.518
REMARK INTRA:                  -0.611
REMARK UNBOUND:                -1.408
REMARK SMILES CCCCCCCCCC=CC(=O)[O-]
REMARK SMILES IDX 7 1 8 2 9 3 10 4 11 5 12 6 13 7 14 8 6 9 5 10 4 11 3 12 2 13
REMARK SMILES IDX 1 14
REMARK H PARENT
REMARK Flexibility Score: inf
ROOT
ATOM      1  C   UNL     1      28.018  31.475  18.122  1.00  0.00     0.000 C 
ENDROOT
BRANCH   1   2
ATOM      2  C   UNL     1      29.093  31.869  17.092  1.00  0.00     0.004 C 
BRANCH   2   3
ATOM      3  C   UNL     1      30.519  31.568  17.575  1.00  0.00     0.027 C 
BRANCH   3   4
ATOM      4  C   UNL     1      30.891  32.439  18.741  1.00  0.00    -0.025 C 
ATOM      5  C   UNL     1      31.184  31.918  19.938  1.00  0.00     0.020 C 
BRANCH   5   6
ATOM      6  C   UNL     1      31.565  32.751  21.089  1.00  0.00     0.064 C 
ATOM      7  O   UNL     1      32.279  32.289  22.019  1.00  0.00    -0.545 OA
ATOM      8  O   UNL     1      31.130  34.068  21.152  1.00  0.00    -0.545 OA
ENDBRANCH   5   6
ENDBRANCH   3   4
ENDBRANCH   2   3
ENDBRANCH   1   2
BRANCH   1   9
ATOM      9  C   UNL     1      27.593  29.992  18.091  1.00  0.00     0.000 C 
BRANCH   9  10
ATOM     10  C   UNL     1      27.573  29.350  16.693  1.00  0.00     0.000 C 
BRANCH  10  11
ATOM     11  C   UNL     1      26.170  29.338  16.063  1.00  0.00    -0.000 C 
BRANCH  11  12
ATOM     12  C   UNL     1      25.114  30.001  16.963  1.00  0.00    -0.000 C 
BRANCH  12  13
ATOM     13  C   UNL     1      23.781  29.239  16.966  1.00  0.00    -0.003 C 
ATOM     14  C   UNL     1      24.004  27.743  17.176  1.00  0.00     0.004 C 
ENDBRANCH  12  13
ENDBRANCH  11  12
ENDBRANCH  10  11
ENDBRANCH   9  10
ENDBRANCH   1   9
TORSDOF 9
ENDMDL
MODEL 9
REMARK VINA RESULT:    -3.725      1.384      2.229
REMARK INTER + INTRA:          -7.093
REMARK INTER:                  -5.880
REMARK INTRA:                  -1.213
REMARK UNBOUND:                -1.408
REMARK SMILES CCCCCCCCCC=CC(=O)[O-]
REMARK SMILES IDX 7 1 8 2 9 3 10 4 11 5 12 6 13 7 14 8 6 9 5 10 4 11 3 12 2 13
REMARK SMILES IDX 1 14
REMARK H PARENT
REMARK Flexibility Score: inf
ROOT
ATOM      1  C   UNL     1      18.467  21.288  20.945  1.00  0.00     0.000 C 
ENDROOT
BRANCH   1   2
ATOM      2  C   UNL     1      17.576  21.749  22.113  1.00  0.00     0.004 C 
BRANCH   2   3
ATOM      3  C   UNL     1      18.383  22.118  23.367  1.00  0.00     0.027 C 
BRANCH   3   4
ATOM      4  C   UNL     1      17.585  21.873  24.616  1.00  0.00    -0.025 C 
ATOM      5  C   UNL     1      17.993  21.004  25.548  1.00  0.00     0.020 C 
BRANCH   5   6
ATOM      6  C   UNL     1      17.235  20.759  26.785  1.00  0.00     0.064 C 
ATOM      7  O   UNL     1      17.602  19.880  27.610  1.00  0.00    -0.545 OA
ATOM      8  O   UNL     1      16.097  21.510  27.048  1.00  0.00    -0.545 OA
ENDBRANCH   5   6
ENDBRANCH   3   4
ENDBRANCH   2   3
ENDBRANCH   1   2
BRANCH   1   9
ATOM      9  C   UNL     1      19.984  21.347  21.215  1.00  0.00     0.000 C 
BRANCH   9  10
ATOM     10  C   UNL     1      20.717  19.999  21.111  1.00  0.00     0.000 C 
BRANCH  10  11
ATOM     11  C   UNL     1      21.743  19.790  22.238  1.00  0.00    -0.000 C 
BRANCH  11  12
ATOM     12  C   UNL     1      21.078  19.558  23.605  1.00  0.00    -0.000 C 
BRANCH  12  13
ATOM     13  C   UNL     1      19.972  18.494  23.550  1.00  0.00    -0.003 C 
ATOM     14  C   UNL     1      19.836  17.774  24.888  1.00  0.00     0.004 C 
ENDBRANCH  12  13
ENDBRANCH  11  12
ENDBRANCH  10  11
ENDBRANCH   9  10
ENDBRANCH   1   9
TORSDOF 9
ENDMDL
