MODEL 1
REMARK VINA RESULT:    -3.370      0.000      0.000
REMARK INTER + INTRA:          -4.859
REMARK INTER:                  -4.454
REMARK INTRA:                  -0.405
REMARK UNBOUND:                -0.405
REMARK SMILES C=CCC[C@@H](O)CCC
REMARK SMILES IDX 4 1 5 2 7 3 8 4 9 5 6 6 3 8 2 9 1 10
REMARK H PARENT 6 7
REMARK Flexibility Score: inf
ROOT
ATOM      1  C   UNL     1      38.324 -21.993   5.662  1.00  0.00     0.036 C 
ENDROOT
BRANCH   1   2
ATOM      2  C   UNL     1      38.867 -22.178   7.092  1.00  0.00     0.114 C 
BRANCH   2   3
ATOM      3  C   UNL     1      38.032 -23.231   7.844  1.00  0.00     0.031 C 
BRANCH   3   4
ATOM      4  C   UNL     1      36.554 -22.826   7.942  1.00  0.00    -0.001 C 
ATOM      5  C   UNL     1      35.683 -23.708   7.051  1.00  0.00     0.004 C 
ENDBRANCH   3   4
ENDBRANCH   2   3
BRANCH   2   6
ATOM      6  O   UNL     1      38.807 -20.949   7.773  1.00  0.00    -0.393 OA
ATOM      7  H   UNL     1      39.434 -21.008   8.540  1.00  0.00     0.210 HD
ENDBRANCH   2   6
ENDBRANCH   1   2
BRANCH   1   8
ATOM      8  C   UNL     1      39.124 -22.779   4.611  1.00  0.00     0.029 C 
BRANCH   8   9
ATOM      9  C   UNL     1      38.532 -24.136   4.334  1.00  0.00    -0.035 C 
ATOM     10  C   UNL     1      39.103 -25.258   4.782  1.00  0.00     0.004 C 
ENDBRANCH   8   9
ENDBRANCH   1   8
TORSDOF 6
ENDMDL
MODEL 2
REMARK VINA RESULT:    -2.786      1.917      4.060
REMARK INTER + INTRA:          -4.087
REMARK INTER:                  -4.241
REMARK INTRA:                   0.154
REMARK UNBOUND:                -0.405
REMARK SMILES C=CCC[C@@H](O)CCC
REMARK SMILES IDX 4 1 5 2 7 3 8 4 9 5 6 6 3 8 2 9 1 10
REMARK H PARENT 6 7
REMARK Flexibility Score: inf
ROOT
ATOM      1  C   UNL     1      37.292 -23.818   6.519  1.00  0.00     0.036 C 
ENDROOT
BRANCH   1   2
ATOM      2  C   UNL     1      38.623 -24.593   6.551  1.00  0.00     0.114 C 
BRANCH   2   3
ATOM      3  C   UNL     1      39.028 -25.013   5.126  1.00  0.00     0.031 C 
BRANCH   3   4
ATOM      4  C   UNL     1      38.566 -23.992   4.076  1.00  0.00    -0.001 C 
ATOM      5  C   UNL     1      39.124 -22.604   4.376  1.00  0.00     0.004 C 
ENDBRANCH   3   4
ENDBRANCH   2   3
BRANCH   2   6
ATOM      6  O   UNL     1      38.475 -25.734   7.360  1.00  0.00    -0.393 OA
ATOM      7  H   UNL     1      39.199 -26.365   7.112  1.00  0.00     0.210 HD
ENDBRANCH   2   6
ENDBRANCH   1   2
BRANCH   1   8
ATOM      8  C   UNL     1      36.869 -23.296   7.902  1.00  0.00     0.029 C 
BRANCH   8   9
ATOM      9  C   UNL     1      37.276 -21.864   8.125  1.00  0.00    -0.035 C 
ATOM     10  C   UNL     1      38.514 -21.435   7.864  1.00  0.00     0.004 C 
ENDBRANCH   8   9
ENDBRANCH   1   8
TORSDOF 6
ENDMDL
MODEL 3
REMARK VINA RESULT:    -2.494     20.112     21.268
REMARK INTER + INTRA:          -3.701
REMARK INTER:                  -3.258
REMARK INTRA:                  -0.443
REMARK UNBOUND:                -0.405
REMARK SMILES C=CCC[C@@H](O)CCC
REMARK SMILES IDX 4 1 5 2 7 3 8 4 9 5 6 6 3 8 2 9 1 10
REMARK H PARENT 6 7
REMARK Flexibility Score: inf
ROOT
ATOM      1  C   UNL     1      36.720 -33.845 -10.271  1.00  0.00     0.036 C 
ENDROOT
BRANCH   1   2
ATOM      2  C   UNL     1      35.352 -34.067 -10.944  1.00  0.00     0.114 C 
BRANCH   2   3
ATOM      3  C   UNL     1      35.420 -35.273 -11.898  1.00  0.00     0.031 C 
BRANCH   3   4
ATOM      4  C   UNL     1      34.427 -36.375 -11.499  1.00  0.00    -0.001 C 
ATOM      5  C   UNL     1      32.987 -35.932 -11.741  1.00  0.00     0.004 C 
ENDBRANCH   3   4
ENDBRANCH   2   3
BRANCH   2   6
ATOM      6  O   UNL     1      34.997 -32.911 -11.662  1.00  0.00    -0.393 OA
ATOM      7  H   UNL     1      35.629 -32.194 -11.396  1.00  0.00     0.210 HD
ENDBRANCH   2   6
ENDBRANCH   1   2
BRANCH   1   8
ATOM      8  C   UNL     1      37.772 -34.883 -10.696  1.00  0.00     0.029 C 
BRANCH   8   9
ATOM      9  C   UNL     1      38.203 -35.765  -9.554  1.00  0.00    -0.035 C 
ATOM     10  C   UNL     1      37.486 -36.828  -9.177  1.00  0.00     0.004 C 
ENDBRANCH   8   9
ENDBRANCH   1   8
TORSDOF 6
ENDMDL
MODEL 4
REMARK VINA RESULT:    -2.481     19.925     21.473
REMARK INTER + INTRA:          -3.683
REMARK INTER:                  -3.421
REMARK INTRA:                  -0.262
REMARK UNBOUND:                -0.405
REMARK SMILES C=CCC[C@@H](O)CCC
REMARK SMILES IDX 4 1 5 2 7 3 8 4 9 5 6 6 3 8 2 9 1 10
REMARK H PARENT 6 7
REMARK Flexibility Score: inf
ROOT
ATOM      1  C   UNL     1      35.761 -35.831 -10.642  1.00  0.00     0.036 C 
ENDROOT
BRANCH   1   2
ATOM      2  C   UNL     1      35.410 -34.353 -10.899  1.00  0.00     0.114 C 
BRANCH   2   3
ATOM      3  C   UNL     1      36.653 -33.591 -11.391  1.00  0.00     0.031 C 
BRANCH   3   4
ATOM      4  C   UNL     1      37.805 -33.661 -10.378  1.00  0.00    -0.001 C 
ATOM      5  C   UNL     1      39.038 -32.925 -10.895  1.00  0.00     0.004 C 
ENDBRANCH   3   4
ENDBRANCH   2   3
BRANCH   2   6
ATOM      6  O   UNL     1      34.937 -33.776  -9.707  1.00  0.00    -0.393 OA
ATOM      7  H   UNL     1      34.238 -33.117  -9.957  1.00  0.00     0.210 HD
ENDBRANCH   2   6
ENDBRANCH   1   2
BRANCH   1   8
ATOM      8  C   UNL     1      35.219 -36.774 -11.729  1.00  0.00     0.029 C 
BRANCH   8   9
ATOM      9  C   UNL     1      33.788 -36.475 -12.088  1.00  0.00    -0.035 C 
ATOM     10  C   UNL     1      32.766 -37.049 -11.445  1.00  0.00     0.004 C 
ENDBRANCH   8   9
ENDBRANCH   1   8
TORSDOF 6
ENDMDL
MODEL 5
REMARK VINA RESULT:    -2.413     20.168     21.109
REMARK INTER + INTRA:          -3.594
REMARK INTER:                  -3.102
REMARK INTRA:                  -0.492
REMARK UNBOUND:                -0.405
REMARK SMILES C=CCC[C@@H](O)CCC
REMARK SMILES IDX 4 1 5 2 7 3 8 4 9 5 6 6 3 8 2 9 1 10
REMARK H PARENT 6 7
REMARK Flexibility Score: inf
ROOT
ATOM      1  C   UNL     1      35.690 -36.257 -10.550  1.00  0.00     0.036 C 
ENDROOT
BRANCH   1   2
ATOM      2  C   UNL     1      35.447 -34.941 -11.314  1.00  0.00     0.114 C 
BRANCH   2   3
ATOM      3  C   UNL     1      36.190 -33.782 -10.624  1.00  0.00     0.031 C 
BRANCH   3   4
ATOM      4  C   UNL     1      37.352 -33.258 -11.480  1.00  0.00    -0.001 C 
ATOM      5  C   UNL     1      38.634 -33.152 -10.660  1.00  0.00     0.004 C 
ENDBRANCH   3   4
ENDBRANCH   2   3
BRANCH   2   6
ATOM      6  O   UNL     1      34.067 -34.672 -11.343  1.00  0.00    -0.393 OA
ATOM      7  H   UNL     1      33.960 -33.686 -11.317  1.00  0.00     0.210 HD
ENDBRANCH   2   6
ENDBRANCH   1   2
BRANCH   1   8
ATOM      8  C   UNL     1      37.156 -36.720 -10.606  1.00  0.00     0.029 C 
BRANCH   8   9
ATOM      9  C   UNL     1      37.741 -36.944  -9.237  1.00  0.00    -0.035 C 
ATOM     10  C   UNL     1      38.973 -36.534  -8.922  1.00  0.00     0.004 C 
ENDBRANCH   8   9
ENDBRANCH   1   8
TORSDOF 6
ENDMDL
MODEL 6
REMARK VINA RESULT:    -2.269     20.197     21.067
REMARK INTER + INTRA:          -3.404
REMARK INTER:                  -2.815
REMARK INTRA:                  -0.589
REMARK UNBOUND:                -0.405
REMARK SMILES C=CCC[C@@H](O)CCC
REMARK SMILES IDX 4 1 5 2 7 3 8 4 9 5 6 6 3 8 2 9 1 10
REMARK H PARENT 6 7
REMARK Flexibility Score: inf
ROOT
ATOM      1  C   UNL     1      36.002 -33.964 -10.526  1.00  0.00     0.036 C 
ENDROOT
BRANCH   1   2
ATOM      2  C   UNL     1      35.731 -35.474 -10.666  1.00  0.00     0.114 C 
BRANCH   2   3
ATOM      3  C   UNL     1      36.557 -36.259  -9.630  1.00  0.00     0.031 C 
BRANCH   3   4
ATOM      4  C   UNL     1      37.922 -36.684 -10.190  1.00  0.00    -0.001 C 
ATOM      5  C   UNL     1      39.025 -36.494  -9.152  1.00  0.00     0.004 C 
ENDBRANCH   3   4
ENDBRANCH   2   3
BRANCH   2   6
ATOM      6  O   UNL     1      36.078 -35.889 -11.964  1.00  0.00    -0.393 OA
ATOM      7  H   UNL     1      36.732 -35.231 -12.317  1.00  0.00     0.210 HD
ENDBRANCH   2   6
ENDBRANCH   1   2
BRANCH   1   8
ATOM      8  C   UNL     1      36.527 -33.327 -11.824  1.00  0.00     0.029 C 
BRANCH   8   9
ATOM      9  C   UNL     1      38.004 -33.041 -11.768  1.00  0.00    -0.035 C 
ATOM     10  C   UNL     1      38.673 -33.021 -10.611  1.00  0.00     0.004 C 
ENDBRANCH   8   9
ENDBRANCH   1   8
TORSDOF 6
ENDMDL
MODEL 7
REMARK VINA RESULT:    -0.701      1.589      2.207
REMARK INTER + INTRA:          -1.332
REMARK INTER:                  -1.393
REMARK INTRA:                   0.061
REMARK UNBOUND:                -0.405
REMARK SMILES C=CCC[C@@H](O)CCC
REMARK SMILES IDX 4 1 5 2 7 3 8 4 9 5 6 6 3 8 2 9 1 10
REMARK H PARENT 6 7
REMARK Flexibility Score: inf
ROOT
ATOM      1  C   UNL     1      37.403 -23.383   5.496  1.00  0.00     0.036 C 
ENDROOT
BRANCH   1   2
ATOM      2  C   UNL     1      37.379 -23.954   6.927  1.00  0.00     0.114 C 
BRANCH   2   3
ATOM      3  C   UNL     1      36.949 -22.864   7.925  1.00  0.00     0.031 C 
BRANCH   3   4
ATOM      4  C   UNL     1      37.558 -21.498   7.579  1.00  0.00    -0.001 C 
ATOM      5  C   UNL     1      39.046 -21.458   7.917  1.00  0.00     0.004 C 
ENDBRANCH   3   4
ENDBRANCH   2   3
BRANCH   2   6
ATOM      6  O   UNL     1      38.662 -24.424   7.259  1.00  0.00    -0.393 OA
ATOM      7  H   UNL     1      38.564 -25.001   8.060  1.00  0.00     0.210 HD
ENDBRANCH   2   6
ENDBRANCH   1   2
BRANCH   1   8
ATOM      8  C   UNL     1      38.811 -23.376   4.878  1.00  0.00     0.029 C 
BRANCH   8   9
ATOM      9  C   UNL     1      38.946 -24.355   3.742  1.00  0.00    -0.035 C 
ATOM     10  C   UNL     1      39.125 -25.662   3.957  1.00  0.00     0.004 C 
ENDBRANCH   8   9
ENDBRANCH   1   8
TORSDOF 6
ENDMDL
