MODEL 1
REMARK VINA RESULT:     1.598      0.000      0.000
REMARK INTER + INTRA:           1.844
REMARK INTER:                   1.925
REMARK INTRA:                  -0.081
REMARK UNBOUND:                -0.081
REMARK SMILES NC(=O)C[C@H]([NH3+])C(=O)[O-]
REMARK SMILES IDX 4 1 5 2 6 3 7 7 8 8 9 9 2 10 3 11 1 12
REMARK H PARENT 6 4 6 5 6 6 1 13 1 14
REMARK Flexibility Score: inf
ROOT
ATOM      1  C   UNL     1       0.594   0.008  -7.758  1.00  0.00     0.171 C 
ENDROOT
BRANCH   1   2
ATOM      2  C   UNL     1       1.636  -0.412  -8.817  1.00  0.00     0.237 C 
BRANCH   2   3
ATOM      3  N   UNL     1       2.422   0.734  -9.295  1.00  0.00    -0.350 N 
ATOM      4  H   UNL     1       3.392   0.685  -8.907  1.00  0.00     0.345 HD
ATOM      5  H   UNL     1       2.485   0.705 -10.338  1.00  0.00     0.345 HD
ATOM      6  H   UNL     1       1.983   1.640  -9.007  1.00  0.00     0.345 HD
ENDBRANCH   2   3
BRANCH   2   7
ATOM      7  C   UNL     1       0.991  -1.146  -9.964  1.00  0.00     0.100 C 
ATOM      8  O   UNL     1       1.617  -1.295 -11.047  1.00  0.00    -0.544 OA
ATOM      9  O   UNL     1      -0.273  -1.708  -9.825  1.00  0.00    -0.544 OA
ENDBRANCH   2   7
ENDBRANCH   1   2
BRANCH   1  10
ATOM     10  C   UNL     1       1.207   0.391  -6.440  1.00  0.00     0.223 C 
ATOM     11  O   UNL     1       0.723   1.347  -5.777  1.00  0.00    -0.275 OA
ATOM     12  N   UNL     1       2.347  -0.309  -5.941  1.00  0.00    -0.369 N 
ATOM     13  H   UNL     1       2.767  -1.097  -6.481  1.00  0.00     0.159 HD
ATOM     14  H   UNL     1       2.777  -0.033  -5.031  1.00  0.00     0.159 HD
ENDBRANCH   1  10
TORSDOF 4
ENDMDL
MODEL 2
REMARK VINA RESULT:     1.650      4.857      5.847
REMARK INTER + INTRA:           1.907
REMARK INTER:                   2.225
REMARK INTRA:                  -0.318
REMARK UNBOUND:                -0.081
REMARK SMILES NC(=O)C[C@H]([NH3+])C(=O)[O-]
REMARK SMILES IDX 4 1 5 2 6 3 7 7 8 8 9 9 2 10 3 11 1 12
REMARK H PARENT 6 4 6 5 6 6 1 13 1 14
REMARK Flexibility Score: inf
ROOT
ATOM      1  C   UNL     1      -2.241  -3.209 -11.248  1.00  0.00     0.171 C 
ENDROOT
BRANCH   1   2
ATOM      2  C   UNL     1      -2.488  -4.690 -10.887  1.00  0.00     0.237 C 
BRANCH   2   3
ATOM      3  N   UNL     1      -1.907  -5.039  -9.584  1.00  0.00    -0.350 N 
ATOM      4  H   UNL     1      -1.733  -6.070  -9.539  1.00  0.00     0.345 HD
ATOM      5  H   UNL     1      -0.992  -4.548  -9.465  1.00  0.00     0.345 HD
ATOM      6  H   UNL     1      -2.543  -4.765  -8.800  1.00  0.00     0.345 HD
ENDBRANCH   2   3
BRANCH   2   7
ATOM      7  C   UNL     1      -1.988  -5.611 -11.971  1.00  0.00     0.100 C 
ATOM      8  O   UNL     1      -1.434  -5.133 -12.996  1.00  0.00    -0.544 OA
ATOM      9  O   UNL     1      -2.083  -6.991 -11.828  1.00  0.00    -0.544 OA
ENDBRANCH   2   7
ENDBRANCH   1   2
BRANCH   1  10
ATOM     10  C   UNL     1      -1.426  -2.476 -10.218  1.00  0.00     0.223 C 
ATOM     11  O   UNL     1      -1.964  -2.104  -9.142  1.00  0.00    -0.275 OA
ATOM     12  N   UNL     1      -0.051  -2.179 -10.461  1.00  0.00    -0.369 N 
ATOM     13  H   UNL     1       0.409  -2.471 -11.351  1.00  0.00     0.159 HD
ATOM     14  H   UNL     1       0.509  -1.660  -9.749  1.00  0.00     0.159 HD
ENDBRANCH   1  10
TORSDOF 4
ENDMDL
MODEL 3
REMARK VINA RESULT:     1.863      5.215      6.313
REMARK INTER + INTRA:           2.163
REMARK INTER:                   2.296
REMARK INTRA:                  -0.134
REMARK UNBOUND:                -0.081
REMARK SMILES NC(=O)C[C@H]([NH3+])C(=O)[O-]
REMARK SMILES IDX 4 1 5 2 6 3 7 7 8 8 9 9 2 10 3 11 1 12
REMARK H PARENT 6 4 6 5 6 6 1 13 1 14
REMARK Flexibility Score: inf
ROOT
ATOM      1  C   UNL     1      -2.583  -3.554 -11.304  1.00  0.00     0.171 C 
ENDROOT
BRANCH   1   2
ATOM      2  C   UNL     1      -2.657  -5.076 -11.053  1.00  0.00     0.237 C 
BRANCH   2   3
ATOM      3  N   UNL     1      -2.179  -5.431  -9.709  1.00  0.00    -0.350 N 
ATOM      4  H   UNL     1      -1.202  -5.081  -9.578  1.00  0.00     0.345 HD
ATOM      5  H   UNL     1      -2.788  -4.979  -8.989  1.00  0.00     0.345 HD
ATOM      6  H   UNL     1      -2.194  -6.467  -9.563  1.00  0.00     0.345 HD
ENDBRANCH   2   3
BRANCH   2   7
ATOM      7  C   UNL     1      -1.916  -5.846 -12.115  1.00  0.00     0.100 C 
ATOM      8  O   UNL     1      -1.928  -7.106 -12.102  1.00  0.00    -0.544 OA
ATOM      9  O   UNL     1      -1.259  -5.181 -13.144  1.00  0.00    -0.544 OA
ENDBRANCH   2   7
ENDBRANCH   1   2
BRANCH   1  10
ATOM     10  C   UNL     1      -1.504  -2.873 -10.509  1.00  0.00     0.223 C 
ATOM     11  O   UNL     1      -0.319  -2.868 -10.936  1.00  0.00    -0.275 OA
ATOM     12  N   UNL     1      -1.809  -2.247  -9.263  1.00  0.00    -0.369 N 
ATOM     13  H   UNL     1      -2.784  -2.249  -8.889  1.00  0.00     0.159 HD
ATOM     14  H   UNL     1      -1.055  -1.784  -8.708  1.00  0.00     0.159 HD
ENDBRANCH   1  10
TORSDOF 4
ENDMDL
MODEL 4
REMARK VINA RESULT:     2.207      5.857      7.408
REMARK INTER + INTRA:           2.578
REMARK INTER:                   2.887
REMARK INTRA:                  -0.309
REMARK UNBOUND:                -0.081
REMARK SMILES NC(=O)C[C@H]([NH3+])C(=O)[O-]
REMARK SMILES IDX 4 1 5 2 6 3 7 7 8 8 9 9 2 10 3 11 1 12
REMARK H PARENT 6 4 6 5 6 6 1 13 1 14
REMARK Flexibility Score: inf
ROOT
ATOM      1  C   UNL     1      -3.019  -5.509 -11.685  1.00  0.00     0.171 C 
ENDROOT
BRANCH   1   2
ATOM      2  C   UNL     1      -2.243  -4.176 -11.757  1.00  0.00     0.237 C 
BRANCH   2   3
ATOM      3  N   UNL     1      -1.083  -4.268 -12.655  1.00  0.00    -0.350 N 
ATOM      4  H   UNL     1      -0.234  -3.887 -12.176  1.00  0.00     0.345 HD
ATOM      5  H   UNL     1      -0.901  -5.269 -12.893  1.00  0.00     0.345 HD
ATOM      6  H   UNL     1      -1.246  -3.733 -13.539  1.00  0.00     0.345 HD
ENDBRANCH   2   3
BRANCH   2   7
ATOM      7  C   UNL     1      -1.833  -3.703 -10.386  1.00  0.00     0.100 C 
ATOM      8  O   UNL     1      -1.945  -4.474  -9.395  1.00  0.00    -0.544 OA
ATOM      9  O   UNL     1      -1.281  -2.440 -10.207  1.00  0.00    -0.544 OA
ENDBRANCH   2   7
ENDBRANCH   1   2
BRANCH   1  10
ATOM     10  C   UNL     1      -2.127  -6.719 -11.735  1.00  0.00     0.223 C 
ATOM     11  O   UNL     1      -1.516  -7.004 -12.799  1.00  0.00    -0.275 OA
ATOM     12  N   UNL     1      -1.983  -7.560 -10.590  1.00  0.00    -0.369 N 
ATOM     13  H   UNL     1      -2.489  -7.344  -9.703  1.00  0.00     0.159 HD
ATOM     14  H   UNL     1      -1.372  -8.405 -10.631  1.00  0.00     0.159 HD
ENDBRANCH   1  10
TORSDOF 4
ENDMDL
MODEL 5
REMARK VINA RESULT:     2.465      0.939      4.227
REMARK INTER + INTRA:           2.888
REMARK INTER:                   2.972
REMARK INTRA:                  -0.084
REMARK UNBOUND:                -0.081
REMARK SMILES NC(=O)C[C@H]([NH3+])C(=O)[O-]
REMARK SMILES IDX 4 1 5 2 6 3 7 7 8 8 9 9 2 10 3 11 1 12
REMARK H PARENT 6 4 6 5 6 6 1 13 1 14
REMARK Flexibility Score: inf
ROOT
ATOM      1  C   UNL     1       0.748  -0.090  -7.830  1.00  0.00     0.171 C 
ENDROOT
BRANCH   1   2
ATOM      2  C   UNL     1       1.598   0.507  -6.687  1.00  0.00     0.237 C 
BRANCH   2   3
ATOM      3  N   UNL     1       2.317  -0.534  -5.940  1.00  0.00    -0.350 N 
ATOM      4  H   UNL     1       1.640  -1.253  -5.595  1.00  0.00     0.345 HD
ATOM      5  H   UNL     1       3.003  -1.007  -6.571  1.00  0.00     0.345 HD
ATOM      6  H   UNL     1       2.831  -0.128  -5.125  1.00  0.00     0.345 HD
ENDBRANCH   2   3
BRANCH   2   7
ATOM      7  C   UNL     1       0.761   1.358  -5.766  1.00  0.00     0.100 C 
ATOM      8  O   UNL     1       1.289   1.901  -4.760  1.00  0.00    -0.544 OA
ATOM      9  O   UNL     1      -0.580   1.595  -6.043  1.00  0.00    -0.544 OA
ENDBRANCH   2   7
ENDBRANCH   1   2
BRANCH   1  10
ATOM     10  C   UNL     1       1.502  -0.223  -9.124  1.00  0.00     0.223 C 
ATOM     11  O   UNL     1       1.047  -0.957 -10.042  1.00  0.00    -0.275 OA
ATOM     12  N   UNL     1       2.741   0.460  -9.314  1.00  0.00    -0.369 N 
ATOM     13  H   UNL     1       3.137   1.065  -8.561  1.00  0.00     0.159 HD
ATOM     14  H   UNL     1       3.267   0.356 -10.209  1.00  0.00     0.159 HD
ENDBRANCH   1  10
TORSDOF 4
ENDMDL
MODEL 6
REMARK VINA RESULT:     2.489      1.876      4.106
REMARK INTER + INTRA:           2.917
REMARK INTER:                   3.103
REMARK INTRA:                  -0.186
REMARK UNBOUND:                -0.081
REMARK SMILES NC(=O)C[C@H]([NH3+])C(=O)[O-]
REMARK SMILES IDX 4 1 5 2 6 3 7 7 8 8 9 9 2 10 3 11 1 12
REMARK H PARENT 6 4 6 5 6 6 1 13 1 14
REMARK Flexibility Score: inf
ROOT
ATOM      1  C   UNL     1       1.818   0.249  -8.514  1.00  0.00     0.171 C 
ENDROOT
BRANCH   1   2
ATOM      2  C   UNL     1       1.323   0.078  -7.061  1.00  0.00     0.237 C 
BRANCH   2   3
ATOM      3  N   UNL     1       0.292   1.067  -6.717  1.00  0.00    -0.350 N 
ATOM      4  H   UNL     1      -0.405   1.137  -7.494  1.00  0.00     0.345 HD
ATOM      5  H   UNL     1      -0.212   0.761  -5.853  1.00  0.00     0.345 HD
ATOM      6  H   UNL     1       0.713   2.010  -6.548  1.00  0.00     0.345 HD
ENDBRANCH   2   3
BRANCH   2   7
ATOM      7  C   UNL     1       2.467   0.121  -6.081  1.00  0.00     0.100 C 
ATOM      8  O   UNL     1       3.605  -0.295  -6.424  1.00  0.00    -0.544 OA
ATOM      9  O   UNL     1       2.294   0.666  -4.813  1.00  0.00    -0.544 OA
ENDBRANCH   2   7
ENDBRANCH   1   2
BRANCH   1  10
ATOM     10  C   UNL     1       1.162  -0.698  -9.480  1.00  0.00     0.223 C 
ATOM     11  O   UNL     1       0.013  -1.151  -9.232  1.00  0.00    -0.275 OA
ATOM     12  N   UNL     1       1.840  -1.103 -10.670  1.00  0.00    -0.369 N 
ATOM     13  H   UNL     1       2.796  -0.744 -10.888  1.00  0.00     0.159 HD
ATOM     14  H   UNL     1       1.386  -1.769 -11.333  1.00  0.00     0.159 HD
ENDBRANCH   1  10
TORSDOF 4
ENDMDL
MODEL 7
REMARK VINA RESULT:     2.549     11.884     12.948
REMARK INTER + INTRA:           2.989
REMARK INTER:                   3.076
REMARK INTRA:                  -0.087
REMARK UNBOUND:                -0.081
REMARK SMILES NC(=O)C[C@H]([NH3+])C(=O)[O-]
REMARK SMILES IDX 4 1 5 2 6 3 7 7 8 8 9 9 2 10 3 11 1 12
REMARK H PARENT 6 4 6 5 6 6 1 13 1 14
REMARK Flexibility Score: inf
ROOT
ATOM      1  C   UNL     1      -7.051   4.755 -17.611  1.00  0.00     0.171 C 
ENDROOT
BRANCH   1   2
ATOM      2  C   UNL     1      -5.868   4.040 -16.922  1.00  0.00     0.237 C 
BRANCH   2   3
ATOM      3  N   UNL     1      -5.616   4.575 -15.577  1.00  0.00    -0.350 N 
ATOM      4  H   UNL     1      -6.346   4.225 -14.914  1.00  0.00     0.345 HD
ATOM      5  H   UNL     1      -4.683   4.247 -15.238  1.00  0.00     0.345 HD
ATOM      6  H   UNL     1      -5.627   5.621 -15.578  1.00  0.00     0.345 HD
ENDBRANCH   2   3
BRANCH   2   7
ATOM      7  C   UNL     1      -4.624   4.092 -17.770  1.00  0.00     0.100 C 
ATOM      8  O   UNL     1      -4.151   5.205 -18.125  1.00  0.00    -0.544 OA
ATOM      9  O   UNL     1      -3.958   2.924 -18.125  1.00  0.00    -0.544 OA
ENDBRANCH   2   7
ENDBRANCH   1   2
BRANCH   1  10
ATOM     10  C   UNL     1      -8.391   4.354 -17.059  1.00  0.00     0.223 C 
ATOM     11  O   UNL     1      -8.704   3.135 -16.996  1.00  0.00    -0.275 OA
ATOM     12  N   UNL     1      -9.320   5.346 -16.622  1.00  0.00    -0.369 N 
ATOM     13  H   UNL     1      -9.082   6.361 -16.676  1.00  0.00     0.159 HD
ATOM     14  H   UNL     1     -10.254   5.064 -16.249  1.00  0.00     0.159 HD
ENDBRANCH   1  10
TORSDOF 4
ENDMDL
MODEL 8
REMARK VINA RESULT:     2.945      5.283      6.957
REMARK INTER + INTRA:           3.467
REMARK INTER:                   3.531
REMARK INTRA:                  -0.064
REMARK UNBOUND:                -0.081
REMARK SMILES NC(=O)C[C@H]([NH3+])C(=O)[O-]
REMARK SMILES IDX 4 1 5 2 6 3 7 7 8 8 9 9 2 10 3 11 1 12
REMARK H PARENT 6 4 6 5 6 6 1 13 1 14
REMARK Flexibility Score: inf
ROOT
ATOM      1  C   UNL     1      -2.319  -4.358 -11.663  1.00  0.00     0.171 C 
ENDROOT
BRANCH   1   2
ATOM      2  C   UNL     1      -1.504  -4.108 -10.376  1.00  0.00     0.237 C 
BRANCH   2   3
ATOM      3  N   UNL     1      -2.130  -4.734  -9.203  1.00  0.00    -0.350 N 
ATOM      4  H   UNL     1      -1.964  -4.143  -8.356  1.00  0.00     0.345 HD
ATOM      5  H   UNL     1      -3.162  -4.807  -9.353  1.00  0.00     0.345 HD
ATOM      6  H   UNL     1      -1.743  -5.691  -9.033  1.00  0.00     0.345 HD
ENDBRANCH   2   3
BRANCH   2   7
ATOM      7  C   UNL     1      -1.273  -2.636 -10.148  1.00  0.00     0.100 C 
ATOM      8  O   UNL     1      -2.134  -1.952  -9.533  1.00  0.00    -0.544 OA
ATOM      9  O   UNL     1      -0.093  -2.030 -10.565  1.00  0.00    -0.544 OA
ENDBRANCH   2   7
ENDBRANCH   1   2
BRANCH   1  10
ATOM     10  C   UNL     1      -1.889  -5.592 -12.408  1.00  0.00     0.223 C 
ATOM     11  O   UNL     1      -1.136  -5.488 -13.412  1.00  0.00    -0.275 OA
ATOM     12  N   UNL     1      -2.345  -6.881 -11.997  1.00  0.00    -0.369 N 
ATOM     13  H   UNL     1      -2.977  -6.986 -11.173  1.00  0.00     0.159 HD
ATOM     14  H   UNL     1      -2.054  -7.735 -12.523  1.00  0.00     0.159 HD
ENDBRANCH   1  10
TORSDOF 4
ENDMDL
MODEL 9
REMARK VINA RESULT:     3.135      5.835      6.928
REMARK INTER + INTRA:           3.695
REMARK INTER:                   3.630
REMARK INTRA:                   0.065
REMARK UNBOUND:                -0.081
REMARK SMILES NC(=O)C[C@H]([NH3+])C(=O)[O-]
REMARK SMILES IDX 4 1 5 2 6 3 7 7 8 8 9 9 2 10 3 11 1 12
REMARK H PARENT 6 4 6 5 6 6 1 13 1 14
REMARK Flexibility Score: inf
ROOT
ATOM      1  C   UNL     1      -2.719  -4.445 -11.752  1.00  0.00     0.171 C 
ENDROOT
BRANCH   1   2
ATOM      2  C   UNL     1      -2.275  -5.741 -12.464  1.00  0.00     0.237 C 
BRANCH   2   3
ATOM      3  N   UNL     1      -2.209  -6.878 -11.536  1.00  0.00    -0.350 N 
ATOM      4  H   UNL     1      -1.332  -7.422 -11.705  1.00  0.00     0.345 HD
ATOM      5  H   UNL     1      -2.192  -6.527 -10.552  1.00  0.00     0.345 HD
ATOM      6  H   UNL     1      -3.033  -7.513 -11.656  1.00  0.00     0.345 HD
ENDBRANCH   2   3
BRANCH   2   7
ATOM      7  C   UNL     1      -0.966  -5.552 -13.187  1.00  0.00     0.100 C 
ATOM      8  O   UNL     1      -0.498  -4.393 -13.347  1.00  0.00    -0.544 OA
ATOM      9  O   UNL     1      -0.239  -6.649 -13.635  1.00  0.00    -0.544 OA
ENDBRANCH   2   7
ENDBRANCH   1   2
BRANCH   1  10
ATOM     10  C   UNL     1      -2.062  -4.247 -10.414  1.00  0.00     0.223 C 
ATOM     11  O   UNL     1      -2.001  -5.205  -9.598  1.00  0.00    -0.275 OA
ATOM     12  N   UNL     1      -1.523  -2.976 -10.053  1.00  0.00    -0.369 N 
ATOM     13  H   UNL     1      -1.572  -2.168 -10.713  1.00  0.00     0.159 HD
ATOM     14  H   UNL     1      -1.077  -2.839  -9.119  1.00  0.00     0.159 HD
ENDBRANCH   1  10
TORSDOF 4
ENDMDL
