MODEL 1
REMARK VINA RESULT:    -5.965      0.000      0.000
REMARK INTER + INTRA:          -6.314
REMARK INTER:                  -6.314
REMARK INTRA:                   0.000
REMARK UNBOUND:                 0.000
REMARK SMILES O=c1ccc2cc(O)c(O)cc2o1
REMARK SMILES IDX 4 1 3 2 2 3 1 4 13 5 12 6 11 7 9 8 7 9 6 10 5 11 8 12 10 14
REMARK H PARENT 8 13 10 15
REMARK Flexibility Score: inf
ROOT
ATOM      1  C   UNL     1      -8.815  -2.751  -3.558  1.00  0.00     0.019 A 
ATOM      2  C   UNL     1      -9.043  -3.611  -4.632  1.00  0.00     0.094 A 
ATOM      3  C   UNL     1      -8.681  -3.202  -5.920  1.00  0.00     0.336 A 
ATOM      4  O   UNL     1      -8.880  -3.965  -6.900  1.00  0.00    -0.246 OA
ATOM      5  O   UNL     1      -8.125  -2.009  -6.115  1.00  0.00    -0.423 OA
ATOM      6  C   UNL     1      -7.889  -1.158  -5.120  1.00  0.00     0.142 A 
ATOM      7  C   UNL     1      -7.302   0.083  -5.385  1.00  0.00     0.098 A 
ATOM      8  C   UNL     1      -7.051   0.984  -4.340  1.00  0.00     0.161 A 
ATOM      9  C   UNL     1      -7.389   0.642  -3.022  1.00  0.00     0.158 A 
ATOM     10  C   UNL     1      -7.978  -0.602  -2.750  1.00  0.00     0.062 A 
ATOM     11  C   UNL     1      -8.229  -1.503  -3.793  1.00  0.00     0.022 A 
ENDROOT
BRANCH   9  12
ATOM     12  O   UNL     1      -7.135   1.543  -1.990  1.00  0.00    -0.504 OA
ATOM     13  H   UNL     1      -7.808   1.703  -1.249  1.00  0.00     0.293 HD
ENDBRANCH   9  12
BRANCH   8  14
ATOM     14  O   UNL     1      -6.466   2.222  -4.603  1.00  0.00    -0.504 OA
ATOM     15  H   UNL     1      -5.591   2.298  -5.109  1.00  0.00     0.293 HD
ENDBRANCH   8  14
TORSDOF 2
ENDMDL
MODEL 2
REMARK VINA RESULT:    -5.929      1.163      2.261
REMARK INTER + INTRA:          -6.275
REMARK INTER:                  -6.275
REMARK INTRA:                   0.000
REMARK UNBOUND:                 0.000
REMARK SMILES O=c1ccc2cc(O)c(O)cc2o1
REMARK SMILES IDX 4 1 3 2 2 3 1 4 13 5 12 6 11 7 9 8 7 9 6 10 5 11 8 12 10 14
REMARK H PARENT 8 13 10 15
REMARK Flexibility Score: inf
ROOT
ATOM      1  C   UNL     1      -8.194  -2.017  -6.134  1.00  0.00     0.019 A 
ATOM      2  C   UNL     1      -8.783  -3.245  -5.831  1.00  0.00     0.094 A 
ATOM      3  C   UNL     1      -9.077  -3.546  -4.497  1.00  0.00     0.336 A 
ATOM      4  O   UNL     1      -9.609  -4.649  -4.205  1.00  0.00    -0.246 OA
ATOM      5  O   UNL     1      -8.801  -2.672  -3.533  1.00  0.00    -0.423 OA
ATOM      6  C   UNL     1      -8.239  -1.490  -3.777  1.00  0.00     0.142 A 
ATOM      7  C   UNL     1      -7.971  -0.612  -2.723  1.00  0.00     0.098 A 
ATOM      8  C   UNL     1      -7.379   0.635  -2.975  1.00  0.00     0.161 A 
ATOM      9  C   UNL     1      -7.056   1.005  -4.289  1.00  0.00     0.158 A 
ATOM     10  C   UNL     1      -7.323   0.128  -5.351  1.00  0.00     0.062 A 
ATOM     11  C   UNL     1      -7.913  -1.118  -5.100  1.00  0.00     0.022 A 
ENDROOT
BRANCH   9  12
ATOM     12  O   UNL     1      -6.469   2.246  -4.531  1.00  0.00    -0.504 OA
ATOM     13  H   UNL     1      -6.074   2.478  -5.435  1.00  0.00     0.293 HD
ENDBRANCH   9  12
BRANCH   8  14
ATOM     14  O   UNL     1      -7.111   1.512  -1.926  1.00  0.00    -0.504 OA
ATOM     15  H   UNL     1      -6.639   1.203  -1.084  1.00  0.00     0.293 HD
ENDBRANCH   8  14
TORSDOF 2
ENDMDL
MODEL 3
REMARK VINA RESULT:    -5.733     11.645     12.851
REMARK INTER + INTRA:          -6.068
REMARK INTER:                  -6.068
REMARK INTRA:                   0.000
REMARK UNBOUND:                 0.000
REMARK SMILES O=c1ccc2cc(O)c(O)cc2o1
REMARK SMILES IDX 4 1 3 2 2 3 1 4 13 5 12 6 11 7 9 8 7 9 6 10 5 11 8 12 10 14
REMARK H PARENT 8 13 10 15
REMARK Flexibility Score: inf
ROOT
ATOM      1  C   UNL     1      -2.549  -6.502   7.146  1.00  0.00     0.019 A 
ATOM      2  C   UNL     1      -3.650  -6.637   7.992  1.00  0.00     0.094 A 
ATOM      3  C   UNL     1      -4.883  -7.012   7.447  1.00  0.00     0.336 A 
ATOM      4  O   UNL     1      -5.887  -7.139   8.195  1.00  0.00    -0.246 OA
ATOM      5  O   UNL     1      -5.001  -7.237   6.141  1.00  0.00    -0.423 OA
ATOM      6  C   UNL     1      -3.977  -7.120   5.299  1.00  0.00     0.142 A 
ATOM      7  C   UNL     1      -4.161  -7.369   3.935  1.00  0.00     0.098 A 
ATOM      8  C   UNL     1      -3.085  -7.246   3.044  1.00  0.00     0.161 A 
ATOM      9  C   UNL     1      -1.819  -6.874   3.519  1.00  0.00     0.158 A 
ATOM     10  C   UNL     1      -1.628  -6.623   4.886  1.00  0.00     0.062 A 
ATOM     11  C   UNL     1      -2.702  -6.744   5.778  1.00  0.00     0.022 A 
ENDROOT
BRANCH   9  12
ATOM     12  O   UNL     1      -0.755  -6.756   2.625  1.00  0.00    -0.504 OA
ATOM     13  H   UNL     1      -0.227  -5.895   2.541  1.00  0.00     0.293 HD
ENDBRANCH   9  12
BRANCH   8  14
ATOM     14  O   UNL     1      -3.266  -7.494   1.684  1.00  0.00    -0.504 OA
ATOM     15  H   UNL     1      -3.045  -6.796   0.983  1.00  0.00     0.293 HD
ENDBRANCH   8  14
TORSDOF 2
ENDMDL
MODEL 4
REMARK VINA RESULT:    -5.425     12.003     13.303
REMARK INTER + INTRA:          -5.742
REMARK INTER:                  -5.742
REMARK INTRA:                   0.000
REMARK UNBOUND:                 0.000
REMARK SMILES O=c1ccc2cc(O)c(O)cc2o1
REMARK SMILES IDX 4 1 3 2 2 3 1 4 13 5 12 6 11 7 9 8 7 9 6 10 5 11 8 12 10 14
REMARK H PARENT 8 13 10 15
REMARK Flexibility Score: inf
ROOT
ATOM      1  C   UNL     1      -4.653  -7.493   6.543  1.00  0.00     0.019 A 
ATOM      2  C   UNL     1      -4.295  -7.296   7.877  1.00  0.00     0.094 A 
ATOM      3  C   UNL     1      -2.984  -6.910   8.177  1.00  0.00     0.336 A 
ATOM      4  O   UNL     1      -2.643  -6.727   9.375  1.00  0.00    -0.246 OA
ATOM      5  O   UNL     1      -2.094  -6.733   7.204  1.00  0.00    -0.423 OA
ATOM      6  C   UNL     1      -2.394  -6.911   5.920  1.00  0.00     0.142 A 
ATOM      7  C   UNL     1      -1.417  -6.710   4.939  1.00  0.00     0.098 A 
ATOM      8  C   UNL     1      -1.727  -6.896   3.585  1.00  0.00     0.161 A 
ATOM      9  C   UNL     1      -3.022  -7.284   3.208  1.00  0.00     0.158 A 
ATOM     10  C   UNL     1      -4.006  -7.486   4.187  1.00  0.00     0.062 A 
ATOM     11  C   UNL     1      -3.697  -7.301   5.541  1.00  0.00     0.022 A 
ENDROOT
BRANCH   9  12
ATOM     12  O   UNL     1      -3.322  -7.466   1.859  1.00  0.00    -0.504 OA
ATOM     13  H   UNL     1      -2.847  -8.165   1.300  1.00  0.00     0.293 HD
ENDBRANCH   9  12
BRANCH   8  14
ATOM     14  O   UNL     1      -0.755  -6.697   2.606  1.00  0.00    -0.504 OA
ATOM     15  H   UNL     1      -0.525  -5.770   2.267  1.00  0.00     0.293 HD
ENDBRANCH   8  14
TORSDOF 2
ENDMDL
MODEL 5
REMARK VINA RESULT:    -5.407      1.081      5.043
REMARK INTER + INTRA:          -5.724
REMARK INTER:                  -5.724
REMARK INTRA:                   0.000
REMARK UNBOUND:                 0.000
REMARK SMILES O=c1ccc2cc(O)c(O)cc2o1
REMARK SMILES IDX 4 1 3 2 2 3 1 4 13 5 12 6 11 7 9 8 7 9 6 10 5 11 8 12 10 14
REMARK H PARENT 8 13 10 15
REMARK Flexibility Score: inf
ROOT
ATOM      1  C   UNL     1      -7.286   0.353  -5.251  1.00  0.00     0.019 A 
ATOM      2  C   UNL     1      -7.018   1.187  -4.167  1.00  0.00     0.094 A 
ATOM      3  C   UNL     1      -7.330   0.745  -2.876  1.00  0.00     0.336 A 
ATOM      4  O   UNL     1      -7.096   1.485  -1.885  1.00  0.00    -0.246 OA
ATOM      5  O   UNL     1      -7.872  -0.455  -2.689  1.00  0.00    -0.423 OA
ATOM      6  C   UNL     1      -8.144  -1.283  -3.696  1.00  0.00     0.142 A 
ATOM      7  C   UNL     1      -8.715  -2.533  -3.438  1.00  0.00     0.098 A 
ATOM      8  C   UNL     1      -9.003  -3.409  -4.495  1.00  0.00     0.161 A 
ATOM      9  C   UNL     1      -8.718  -3.033  -5.816  1.00  0.00     0.158 A 
ATOM     10  C   UNL     1      -8.145  -1.779  -6.080  1.00  0.00     0.062 A 
ATOM     11  C   UNL     1      -7.857  -0.903  -5.025  1.00  0.00     0.022 A 
ENDROOT
BRANCH   9  12
ATOM     12  O   UNL     1      -9.007  -3.910  -6.860  1.00  0.00    -0.504 OA
ATOM     13  H   UNL     1      -9.736  -4.608  -6.779  1.00  0.00     0.293 HD
ENDBRANCH   9  12
BRANCH   8  14
ATOM     14  O   UNL     1      -9.572  -4.656  -4.241  1.00  0.00    -0.504 OA
ATOM     15  H   UNL     1     -10.233  -5.078  -4.883  1.00  0.00     0.293 HD
ENDBRANCH   8  14
TORSDOF 2
ENDMDL
MODEL 6
REMARK VINA RESULT:    -5.210      1.175      4.514
REMARK INTER + INTRA:          -5.515
REMARK INTER:                  -5.515
REMARK INTRA:                   0.000
REMARK UNBOUND:                 0.000
REMARK SMILES O=c1ccc2cc(O)c(O)cc2o1
REMARK SMILES IDX 4 1 3 2 2 3 1 4 13 5 12 6 11 7 9 8 7 9 6 10 5 11 8 12 10 14
REMARK H PARENT 8 13 10 15
REMARK Flexibility Score: inf
ROOT
ATOM      1  C   UNL     1      -7.893   0.291  -2.406  1.00  0.00     0.019 A 
ATOM      2  C   UNL     1      -7.414   1.575  -2.666  1.00  0.00     0.094 A 
ATOM      3  C   UNL     1      -7.082   1.923  -3.980  1.00  0.00     0.336 A 
ATOM      4  O   UNL     1      -6.648   3.077  -4.233  1.00  0.00    -0.246 OA
ATOM      5  O   UNL     1      -7.225   1.041  -4.966  1.00  0.00    -0.423 OA
ATOM      6  C   UNL     1      -7.678  -0.193  -4.762  1.00  0.00     0.142 A 
ATOM      7  C   UNL     1      -7.807  -1.077  -5.838  1.00  0.00     0.098 A 
ATOM      8  C   UNL     1      -8.284  -2.379  -5.629  1.00  0.00     0.161 A 
ATOM      9  C   UNL     1      -8.636  -2.799  -4.337  1.00  0.00     0.158 A 
ATOM     10  C   UNL     1      -8.510  -1.916  -3.254  1.00  0.00     0.062 A 
ATOM     11  C   UNL     1      -8.032  -0.615  -3.462  1.00  0.00     0.022 A 
ENDROOT
BRANCH   9  12
ATOM     12  O   UNL     1      -9.111  -4.095  -4.139  1.00  0.00    -0.504 OA
ATOM     13  H   UNL     1      -9.233  -4.477  -3.209  1.00  0.00     0.293 HD
ENDBRANCH   9  12
BRANCH   8  14
ATOM     14  O   UNL     1      -8.413  -3.262  -6.700  1.00  0.00    -0.504 OA
ATOM     15  H   UNL     1      -9.314  -3.642  -6.969  1.00  0.00     0.293 HD
ENDBRANCH   8  14
TORSDOF 2
ENDMDL
MODEL 7
REMARK VINA RESULT:    -5.131     11.285     12.435
REMARK INTER + INTRA:          -5.431
REMARK INTER:                  -5.431
REMARK INTRA:                   0.000
REMARK UNBOUND:                 0.000
REMARK SMILES O=c1ccc2cc(O)c(O)cc2o1
REMARK SMILES IDX 4 1 3 2 2 3 1 4 13 5 12 6 11 7 9 8 7 9 6 10 5 11 8 12 10 14
REMARK H PARENT 8 13 10 15
REMARK Flexibility Score: inf
ROOT
ATOM      1  C   UNL     1      -2.088  -7.139   5.717  1.00  0.00     0.019 A 
ATOM      2  C   UNL     1      -1.168  -6.880   4.702  1.00  0.00     0.094 A 
ATOM      3  C   UNL     1      -1.605  -6.878   3.373  1.00  0.00     0.336 A 
ATOM      4  O   UNL     1      -0.789  -6.646   2.444  1.00  0.00    -0.246 OA
ATOM      5  O   UNL     1      -2.881  -7.119   3.084  1.00  0.00    -0.423 OA
ATOM      6  C   UNL     1      -3.792  -7.371   4.021  1.00  0.00     0.142 A 
ATOM      7  C   UNL     1      -5.120  -7.618   3.658  1.00  0.00     0.098 A 
ATOM      8  C   UNL     1      -6.083  -7.884   4.642  1.00  0.00     0.161 A 
ATOM      9  C   UNL     1      -5.717  -7.903   5.996  1.00  0.00     0.158 A 
ATOM     10  C   UNL     1      -4.387  -7.656   6.366  1.00  0.00     0.062 A 
ATOM     11  C   UNL     1      -3.423  -7.390   5.384  1.00  0.00     0.022 A 
ENDROOT
BRANCH   9  12
ATOM     12  O   UNL     1      -6.682  -8.168   6.967  1.00  0.00    -0.504 OA
ATOM     13  H   UNL     1      -7.520  -7.604   7.049  1.00  0.00     0.293 HD
ENDBRANCH   9  12
BRANCH   8  14
ATOM     14  O   UNL     1      -7.407  -8.131   4.282  1.00  0.00    -0.504 OA
ATOM     15  H   UNL     1      -7.714  -8.074   3.317  1.00  0.00     0.293 HD
ENDBRANCH   8  14
TORSDOF 2
ENDMDL
MODEL 8
REMARK VINA RESULT:    -5.069      1.962      2.394
REMARK INTER + INTRA:          -5.365
REMARK INTER:                  -5.365
REMARK INTRA:                   0.000
REMARK UNBOUND:                 0.000
REMARK SMILES O=c1ccc2cc(O)c(O)cc2o1
REMARK SMILES IDX 4 1 3 2 2 3 1 4 13 5 12 6 11 7 9 8 7 9 6 10 5 11 8 12 10 14
REMARK H PARENT 8 13 10 15
REMARK Flexibility Score: inf
ROOT
ATOM      1  C   UNL     1      -9.375  -1.371  -6.278  1.00  0.00     0.019 A 
ATOM      2  C   UNL     1      -8.503  -1.833  -7.264  1.00  0.00     0.094 A 
ATOM      3  C   UNL     1      -7.154  -1.470  -7.200  1.00  0.00     0.336 A 
ATOM      4  O   UNL     1      -6.352  -1.878  -8.081  1.00  0.00    -0.246 OA
ATOM      5  O   UNL     1      -6.710  -0.698  -6.212  1.00  0.00    -0.423 OA
ATOM      6  C   UNL     1      -7.507  -0.236  -5.252  1.00  0.00     0.142 A 
ATOM      7  C   UNL     1      -6.985   0.573  -4.238  1.00  0.00     0.098 A 
ATOM      8  C   UNL     1      -7.820   1.062  -3.224  1.00  0.00     0.161 A 
ATOM      9  C   UNL     1      -9.186   0.741  -3.223  1.00  0.00     0.158 A 
ATOM     10  C   UNL     1      -9.716  -0.071  -4.238  1.00  0.00     0.062 A 
ATOM     11  C   UNL     1      -8.882  -0.560  -5.252  1.00  0.00     0.022 A 
ENDROOT
BRANCH   9  12
ATOM     12  O   UNL     1     -10.009   1.231  -2.211  1.00  0.00    -0.504 OA
ATOM     13  H   UNL     1     -10.437   2.147  -2.273  1.00  0.00     0.293 HD
ENDBRANCH   9  12
BRANCH   8  14
ATOM     14  O   UNL     1      -7.301   1.869  -2.212  1.00  0.00    -0.504 OA
ATOM     15  H   UNL     1      -7.374   2.879  -2.249  1.00  0.00     0.293 HD
ENDBRANCH   8  14
TORSDOF 2
ENDMDL
MODEL 9
REMARK VINA RESULT:    -5.058     11.786     13.730
REMARK INTER + INTRA:          -5.354
REMARK INTER:                  -5.354
REMARK INTRA:                   0.000
REMARK UNBOUND:                 0.000
REMARK SMILES O=c1ccc2cc(O)c(O)cc2o1
REMARK SMILES IDX 4 1 3 2 2 3 1 4 13 5 12 6 11 7 9 8 7 9 6 10 5 11 8 12 10 14
REMARK H PARENT 8 13 10 15
REMARK Flexibility Score: inf
ROOT
ATOM      1  C   UNL     1      -3.949   7.727   4.549  1.00  0.00     0.019 A 
ATOM      2  C   UNL     1      -5.017   6.836   4.462  1.00  0.00     0.094 A 
ATOM      3  C   UNL     1      -4.800   5.485   4.755  1.00  0.00     0.336 A 
ATOM      4  O   UNL     1      -5.753   4.666   4.682  1.00  0.00    -0.246 OA
ATOM      5  O   UNL     1      -3.592   5.060   5.115  1.00  0.00    -0.423 OA
ATOM      6  C   UNL     1      -2.545   5.877   5.210  1.00  0.00     0.142 A 
ATOM      7  C   UNL     1      -1.298   5.373   5.592  1.00  0.00     0.098 A 
ATOM      8  C   UNL     1      -0.192   6.229   5.695  1.00  0.00     0.161 A 
ATOM      9  C   UNL     1      -0.334   7.596   5.415  1.00  0.00     0.158 A 
ATOM     10  C   UNL     1      -1.583   8.107   5.031  1.00  0.00     0.062 A 
ATOM     11  C   UNL     1      -2.689   7.253   4.928  1.00  0.00     0.022 A 
ENDROOT
BRANCH   9  12
ATOM     12  O   UNL     1       0.770   8.440   5.520  1.00  0.00    -0.504 OA
ATOM     13  H   UNL     1       0.764   9.373   5.124  1.00  0.00     0.293 HD
ENDBRANCH   9  12
BRANCH   8  14
ATOM     14  O   UNL     1       1.052   5.729   6.075  1.00  0.00    -0.504 OA
ATOM     15  H   UNL     1       1.698   6.279   6.630  1.00  0.00     0.293 HD
ENDBRANCH   8  14
TORSDOF 2
ENDMDL
