MODEL 1
REMARK VINA RESULT:    -5.560      0.000      0.000
REMARK INTER + INTRA:          -7.249
REMARK INTER:                  -6.860
REMARK INTRA:                  -0.390
REMARK UNBOUND:                -0.390
REMARK SMILES COc1cc(-c2oc3cc(O)cc(O)c3c(=O)c2O)ccc1O
REMARK SMILES IDX 6 1 18 2 16 3 17 4 15 5 13 6 12 7 10 8 9 9 8 10 7 11 5 12
REMARK SMILES IDX 3 13 22 14 4 15 21 16 20 17 2 18 1 19 23 20 19 22 14 24
REMARK SMILES IDX 11 26
REMARK H PARENT 23 21 19 23 14 25 11 27
REMARK Flexibility Score: inf
ROOT
ATOM      1  C   UNL     1      -7.448  22.849  -8.659  1.00  0.00     0.180 A 
ATOM      2  C   UNL     1      -7.729  21.605  -9.249  1.00  0.00     0.208 A 
ATOM      3  C   UNL     1      -6.796  20.563  -9.121  1.00  0.00     0.238 A 
ATOM      4  O   UNL     1      -7.078  19.435  -9.605  1.00  0.00    -0.285 OA
ATOM      5  C   UNL     1      -5.587  20.783  -8.420  1.00  0.00     0.111 A 
ATOM      6  C   UNL     1      -4.552  19.812  -8.263  1.00  0.00     0.134 A 
ATOM      7  C   UNL     1      -3.457  20.097  -7.438  1.00  0.00     0.093 A 
ATOM      8  C   UNL     1      -3.327  21.342  -6.818  1.00  0.00     0.123 A 
ATOM      9  C   UNL     1      -4.301  22.318  -7.013  1.00  0.00     0.094 A 
ATOM     10  C   UNL     1      -5.424  22.050  -7.801  1.00  0.00     0.146 A 
ATOM     11  O   UNL     1      -6.334  23.004  -7.953  1.00  0.00    -0.452 OA
ENDROOT
BRANCH   1  12
ATOM     12  C   UNL     1      -8.371  24.001  -8.772  1.00  0.00     0.025 A 
ATOM     13  C   UNL     1      -9.146  25.957 -10.017  1.00  0.00     0.161 A 
ATOM     14  C   UNL     1     -10.142  26.168  -9.055  1.00  0.00     0.157 A 
ATOM     15  C   UNL     1      -8.266  24.866  -9.874  1.00  0.00     0.062 A 
ATOM     16  C   UNL     1     -10.263  25.295  -7.966  1.00  0.00     0.051 A 
ATOM     17  C   UNL     1      -9.388  24.216  -7.827  1.00  0.00     0.016 A 
BRANCH  13  18
ATOM     18  O   UNL     1      -9.062  26.849 -11.099  1.00  0.00    -0.493 OA
ATOM     19  C   UNL     1      -7.844  27.266 -11.707  1.00  0.00     0.278 C 
ENDBRANCH  13  18
BRANCH  14  20
ATOM     20  O   UNL     1     -11.015  27.246  -9.191  1.00  0.00    -0.504 OA
ATOM     21  H   UNL     1     -11.219  27.864  -8.413  1.00  0.00     0.293 HD
ENDBRANCH  14  20
ENDBRANCH   1  12
BRANCH   2  22
ATOM     22  O   UNL     1      -8.939  21.401  -9.919  1.00  0.00    -0.502 OA
ATOM     23  H   UNL     1      -9.238  21.984 -10.691  1.00  0.00     0.293 HD
ENDBRANCH   2  22
BRANCH   6  24
ATOM     24  O   UNL     1      -4.540  18.574  -8.911  1.00  0.00    -0.507 OA
ATOM     25  H   UNL     1      -5.238  18.262  -9.568  1.00  0.00     0.293 HD
ENDBRANCH   6  24
BRANCH   8  26
ATOM     26  O   UNL     1      -2.226  21.623  -6.011  1.00  0.00    -0.508 OA
ATOM     27  H   UNL     1      -1.344  21.138  -6.131  1.00  0.00     0.293 HD
ENDBRANCH   8  26
TORSDOF 6
ENDMDL
MODEL 2
REMARK VINA RESULT:    -5.463      1.413      7.044
REMARK INTER + INTRA:          -7.131
REMARK INTER:                  -6.795
REMARK INTRA:                  -0.335
REMARK UNBOUND:                -0.390
REMARK SMILES COc1cc(-c2oc3cc(O)cc(O)c3c(=O)c2O)ccc1O
REMARK SMILES IDX 6 1 18 2 16 3 17 4 15 5 13 6 12 7 10 8 9 9 8 10 7 11 5 12
REMARK SMILES IDX 3 13 22 14 4 15 21 16 20 17 2 18 1 19 23 20 19 22 14 24
REMARK SMILES IDX 11 26
REMARK H PARENT 23 21 19 23 14 25 11 27
REMARK Flexibility Score: inf
ROOT
ATOM      1  C   UNL     1      -7.182  22.497  -8.952  1.00  0.00     0.180 A 
ATOM      2  C   UNL     1      -8.501  22.458  -8.470  1.00  0.00     0.208 A 
ATOM      3  C   UNL     1      -9.345  23.556  -8.702  1.00  0.00     0.238 A 
ATOM      4  O   UNL     1     -10.541  23.492  -8.315  1.00  0.00    -0.285 OA
ATOM      5  C   UNL     1      -8.853  24.686  -9.398  1.00  0.00     0.111 A 
ATOM      6  C   UNL     1      -9.608  25.871  -9.654  1.00  0.00     0.134 A 
ATOM      7  C   UNL     1      -9.063  26.874 -10.466  1.00  0.00     0.093 A 
ATOM      8  C   UNL     1      -7.767  26.764 -10.975  1.00  0.00     0.123 A 
ATOM      9  C   UNL     1      -7.001  25.639 -10.682  1.00  0.00     0.094 A 
ATOM     10  C   UNL     1      -7.530  24.605  -9.905  1.00  0.00     0.146 A 
ATOM     11  O   UNL     1      -6.771  23.545  -9.658  1.00  0.00    -0.452 OA
ENDROOT
BRANCH   1  12
ATOM     12  C   UNL     1      -6.227  21.389  -8.726  1.00  0.00     0.025 A 
ATOM     13  C   UNL     1      -4.346  20.461  -7.469  1.00  0.00     0.161 A 
ATOM     14  C   UNL     1      -4.430  19.283  -8.224  1.00  0.00     0.157 A 
ATOM     15  C   UNL     1      -5.253  21.509  -7.720  1.00  0.00     0.062 A 
ATOM     16  C   UNL     1      -5.413  19.151  -9.213  1.00  0.00     0.051 A 
ATOM     17  C   UNL     1      -6.309  20.193  -9.460  1.00  0.00     0.016 A 
BRANCH  13  18
ATOM     18  O   UNL     1      -3.353  20.551  -6.480  1.00  0.00    -0.493 OA
ATOM     19  C   UNL     1      -3.587  20.970  -5.140  1.00  0.00     0.278 C 
ENDBRANCH  13  18
BRANCH  14  20
ATOM     20  O   UNL     1      -3.535  18.243  -7.980  1.00  0.00    -0.504 OA
ATOM     21  H   UNL     1      -3.849  17.282  -7.898  1.00  0.00     0.293 HD
ENDBRANCH  14  20
ENDBRANCH   1  12
BRANCH   2  22
ATOM     22  O   UNL     1      -8.973  21.323  -7.805  1.00  0.00    -0.502 OA
ATOM     23  H   UNL     1      -9.960  21.131  -7.689  1.00  0.00     0.293 HD
ENDBRANCH   2  22
BRANCH   6  24
ATOM     24  O   UNL     1     -10.874  26.122  -9.118  1.00  0.00    -0.507 OA
ATOM     25  H   UNL     1     -11.467  25.424  -8.694  1.00  0.00     0.293 HD
ENDBRANCH   6  24
BRANCH   8  26
ATOM     26  O   UNL     1      -7.227  27.774 -11.769  1.00  0.00    -0.508 OA
ATOM     27  H   UNL     1      -6.702  28.542 -11.366  1.00  0.00     0.293 HD
ENDBRANCH   8  26
TORSDOF 6
ENDMDL
MODEL 3
REMARK VINA RESULT:    -5.259      1.534      2.021
REMARK INTER + INTRA:          -6.879
REMARK INTER:                  -6.855
REMARK INTRA:                  -0.024
REMARK UNBOUND:                -0.390
REMARK SMILES COc1cc(-c2oc3cc(O)cc(O)c3c(=O)c2O)ccc1O
REMARK SMILES IDX 6 1 18 2 16 3 17 4 15 5 13 6 12 7 10 8 9 9 8 10 7 11 5 12
REMARK SMILES IDX 3 13 22 14 4 15 21 16 20 17 2 18 1 19 23 20 19 22 14 24
REMARK SMILES IDX 11 26
REMARK H PARENT 23 21 19 23 14 25 11 27
REMARK Flexibility Score: inf
ROOT
ATOM      1  C   UNL     1      -6.335  23.382  -9.561  1.00  0.00     0.180 A 
ATOM      2  C   UNL     1      -6.719  22.115 -10.032  1.00  0.00     0.208 A 
ATOM      3  C   UNL     1      -6.112  20.972  -9.487  1.00  0.00     0.238 A 
ATOM      4  O   UNL     1      -6.501  19.839  -9.875  1.00  0.00    -0.285 OA
ATOM      5  C   UNL     1      -5.117  21.111  -8.491  1.00  0.00     0.111 A 
ATOM      6  C   UNL     1      -4.407  20.023  -7.898  1.00  0.00     0.134 A 
ATOM      7  C   UNL     1      -3.537  20.268  -6.828  1.00  0.00     0.093 A 
ATOM      8  C   UNL     1      -3.301  21.568  -6.375  1.00  0.00     0.123 A 
ATOM      9  C   UNL     1      -3.943  22.641  -6.986  1.00  0.00     0.094 A 
ATOM     10  C   UNL     1      -4.845  22.425  -8.032  1.00  0.00     0.146 A 
ATOM     11  O   UNL     1      -5.444  23.475  -8.580  1.00  0.00    -0.452 OA
ENDROOT
BRANCH   1  12
ATOM     12  C   UNL     1      -6.911  24.633 -10.103  1.00  0.00     0.025 A 
ATOM     13  C   UNL     1      -6.576  26.842 -11.097  1.00  0.00     0.161 A 
ATOM     14  C   UNL     1      -7.965  27.002 -11.195  1.00  0.00     0.157 A 
ATOM     15  C   UNL     1      -6.054  25.651 -10.555  1.00  0.00     0.062 A 
ATOM     16  C   UNL     1      -8.822  25.982 -10.764  1.00  0.00     0.051 A 
ATOM     17  C   UNL     1      -8.300  24.803 -10.228  1.00  0.00     0.016 A 
BRANCH  13  18
ATOM     18  O   UNL     1      -5.749  27.885 -11.547  1.00  0.00    -0.493 OA
ATOM     19  C   UNL     1      -5.250  28.000 -12.875  1.00  0.00     0.278 C 
ENDBRANCH  13  18
BRANCH  14  20
ATOM     20  O   UNL     1      -8.487  28.179 -11.728  1.00  0.00    -0.504 OA
ATOM     21  H   UNL     1      -8.492  29.044 -11.200  1.00  0.00     0.293 HD
ENDBRANCH  14  20
ENDBRANCH   1  12
BRANCH   2  22
ATOM     22  O   UNL     1      -7.720  22.000 -11.001  1.00  0.00    -0.502 OA
ATOM     23  H   UNL     1      -8.152  21.114 -11.235  1.00  0.00     0.293 HD
ENDBRANCH   2  22
BRANCH   6  24
ATOM     24  O   UNL     1      -4.500  18.699  -8.336  1.00  0.00    -0.507 OA
ATOM     25  H   UNL     1      -5.354  18.163  -8.371  1.00  0.00     0.293 HD
ENDBRANCH   6  24
BRANCH   8  26
ATOM     26  O   UNL     1      -2.421  21.804  -5.320  1.00  0.00    -0.508 OA
ATOM     27  H   UNL     1      -1.427  21.924  -5.476  1.00  0.00     0.293 HD
ENDBRANCH   8  26
TORSDOF 6
ENDMDL
MODEL 4
REMARK VINA RESULT:    -5.220      1.577      2.510
REMARK INTER + INTRA:          -6.830
REMARK INTER:                  -6.501
REMARK INTRA:                  -0.329
REMARK UNBOUND:                -0.390
REMARK SMILES COc1cc(-c2oc3cc(O)cc(O)c3c(=O)c2O)ccc1O
REMARK SMILES IDX 6 1 18 2 16 3 17 4 15 5 13 6 12 7 10 8 9 9 8 10 7 11 5 12
REMARK SMILES IDX 3 13 22 14 4 15 21 16 20 17 2 18 1 19 23 20 19 22 14 24
REMARK SMILES IDX 11 26
REMARK H PARENT 23 21 19 23 14 25 11 27
REMARK Flexibility Score: inf
ROOT
ATOM      1  C   UNL     1      -8.004  24.079  -9.652  1.00  0.00     0.180 A 
ATOM      2  C   UNL     1      -8.717  22.868  -9.646  1.00  0.00     0.208 A 
ATOM      3  C   UNL     1      -8.018  21.666  -9.449  1.00  0.00     0.238 A 
ATOM      4  O   UNL     1      -8.669  20.590  -9.391  1.00  0.00    -0.285 OA
ATOM      5  C   UNL     1      -6.613  21.689  -9.277  1.00  0.00     0.111 A 
ATOM      6  C   UNL     1      -5.798  20.529  -9.110  1.00  0.00     0.134 A 
ATOM      7  C   UNL     1      -4.437  20.678  -8.816  1.00  0.00     0.093 A 
ATOM      8  C   UNL     1      -3.849  21.944  -8.750  1.00  0.00     0.123 A 
ATOM      9  C   UNL     1      -4.623  23.079  -8.971  1.00  0.00     0.094 A 
ATOM     10  C   UNL     1      -5.992  22.964  -9.229  1.00  0.00     0.146 A 
ATOM     11  O   UNL     1      -6.696  24.073  -9.423  1.00  0.00    -0.452 OA
ENDROOT
BRANCH   1  12
ATOM     12  C   UNL     1      -8.668  25.383  -9.878  1.00  0.00     0.025 A 
ATOM     13  C   UNL     1     -10.038  27.219  -9.023  1.00  0.00     0.161 A 
ATOM     14  C   UNL     1      -9.894  27.888 -10.246  1.00  0.00     0.157 A 
ATOM     15  C   UNL     1      -9.415  25.968  -8.842  1.00  0.00     0.062 A 
ATOM     16  C   UNL     1      -9.132  27.318 -11.273  1.00  0.00     0.051 A 
ATOM     17  C   UNL     1      -8.518  26.077 -11.090  1.00  0.00     0.016 A 
BRANCH  13  18
ATOM     18  O   UNL     1     -10.803  27.827  -8.014  1.00  0.00    -0.493 OA
ATOM     19  C   UNL     1     -10.257  28.531  -6.904  1.00  0.00     0.278 C 
ENDBRANCH  13  18
BRANCH  14  20
ATOM     20  O   UNL     1     -10.508  29.125 -10.431  1.00  0.00    -0.504 OA
ATOM     21  H   UNL     1     -11.216  29.467  -9.790  1.00  0.00     0.293 HD
ENDBRANCH  14  20
ENDBRANCH   1  12
BRANCH   2  22
ATOM     22  O   UNL     1     -10.106  22.869  -9.796  1.00  0.00    -0.502 OA
ATOM     23  H   UNL     1     -10.605  22.119 -10.259  1.00  0.00     0.293 HD
ENDBRANCH   2  22
BRANCH   6  24
ATOM     24  O   UNL     1      -6.267  19.220  -9.247  1.00  0.00    -0.507 OA
ATOM     25  H   UNL     1      -7.031  18.825  -8.721  1.00  0.00     0.293 HD
ENDBRANCH   6  24
BRANCH   8  26
ATOM     26  O   UNL     1      -2.490  22.082  -8.473  1.00  0.00    -0.508 OA
ATOM     27  H   UNL     1      -2.025  22.981  -8.536  1.00  0.00     0.293 HD
ENDBRANCH   8  26
TORSDOF 6
ENDMDL
MODEL 5
REMARK VINA RESULT:    -5.168      0.819      1.909
REMARK INTER + INTRA:          -6.766
REMARK INTER:                  -6.429
REMARK INTRA:                  -0.337
REMARK UNBOUND:                -0.390
REMARK SMILES COc1cc(-c2oc3cc(O)cc(O)c3c(=O)c2O)ccc1O
REMARK SMILES IDX 6 1 18 2 16 3 17 4 15 5 13 6 12 7 10 8 9 9 8 10 7 11 5 12
REMARK SMILES IDX 3 13 22 14 4 15 21 16 20 17 2 18 1 19 23 20 19 22 14 24
REMARK SMILES IDX 11 26
REMARK H PARENT 23 21 19 23 14 25 11 27
REMARK Flexibility Score: inf
ROOT
ATOM      1  C   UNL     1      -7.191  23.073  -9.019  1.00  0.00     0.180 A 
ATOM      2  C   UNL     1      -7.559  21.805  -9.499  1.00  0.00     0.208 A 
ATOM      3  C   UNL     1      -6.718  20.709  -9.246  1.00  0.00     0.238 A 
ATOM      4  O   UNL     1      -7.081  19.567  -9.631  1.00  0.00    -0.285 OA
ATOM      5  C   UNL     1      -5.511  20.899  -8.531  1.00  0.00     0.111 A 
ATOM      6  C   UNL     1      -4.564  19.867  -8.252  1.00  0.00     0.134 A 
ATOM      7  C   UNL     1      -3.468  20.141  -7.424  1.00  0.00     0.093 A 
ATOM      8  C   UNL     1      -3.251  21.426  -6.920  1.00  0.00     0.123 A 
ATOM      9  C   UNL     1      -4.136  22.453  -7.235  1.00  0.00     0.094 A 
ATOM     10  C   UNL     1      -5.259  22.202  -8.029  1.00  0.00     0.146 A 
ATOM     11  O   UNL     1      -6.084  23.206  -8.296  1.00  0.00    -0.452 OA
ENDROOT
BRANCH   1  12
ATOM     12  C   UNL     1      -8.012  24.279  -9.267  1.00  0.00     0.025 A 
ATOM     13  C   UNL     1      -9.502  26.018  -8.409  1.00  0.00     0.161 A 
ATOM     14  C   UNL     1      -9.538  26.606  -9.681  1.00  0.00     0.157 A 
ATOM     15  C   UNL     1      -8.730  24.857  -8.206  1.00  0.00     0.062 A 
ATOM     16  C   UNL     1      -8.807  26.045 -10.735  1.00  0.00     0.051 A 
ATOM     17  C   UNL     1      -8.044  24.894 -10.530  1.00  0.00     0.016 A 
BRANCH  13  18
ATOM     18  O   UNL     1     -10.243  26.615  -7.376  1.00  0.00    -0.493 OA
ATOM     19  C   UNL     1     -10.194  26.209  -6.012  1.00  0.00     0.278 C 
ENDBRANCH  13  18
BRANCH  14  20
ATOM     20  O   UNL     1     -10.300  27.754  -9.888  1.00  0.00    -0.504 OA
ATOM     21  H   UNL     1     -10.051  28.436 -10.595  1.00  0.00     0.293 HD
ENDBRANCH  14  20
ENDBRANCH   1  12
BRANCH   2  22
ATOM     22  O   UNL     1      -8.766  21.636 -10.183  1.00  0.00    -0.502 OA
ATOM     23  H   UNL     1      -8.904  20.905 -10.871  1.00  0.00     0.293 HD
ENDBRANCH   2  22
BRANCH   6  24
ATOM     24  O   UNL     1      -4.639  18.576  -8.781  1.00  0.00    -0.507 OA
ATOM     25  H   UNL     1      -5.292  18.282  -9.492  1.00  0.00     0.293 HD
ENDBRANCH   6  24
BRANCH   8  26
ATOM     26  O   UNL     1      -2.149  21.694  -6.109  1.00  0.00    -0.508 OA
ATOM     27  H   UNL     1      -2.131  21.421  -5.133  1.00  0.00     0.293 HD
ENDBRANCH   8  26
TORSDOF 6
ENDMDL
MODEL 6
REMARK VINA RESULT:    -5.005      3.050      6.748
REMARK INTER + INTRA:          -6.565
REMARK INTER:                  -6.170
REMARK INTRA:                  -0.395
REMARK UNBOUND:                -0.390
REMARK SMILES COc1cc(-c2oc3cc(O)cc(O)c3c(=O)c2O)ccc1O
REMARK SMILES IDX 6 1 18 2 16 3 17 4 15 5 13 6 12 7 10 8 9 9 8 10 7 11 5 12
REMARK SMILES IDX 3 13 22 14 4 15 21 16 20 17 2 18 1 19 23 20 19 22 14 24
REMARK SMILES IDX 11 26
REMARK H PARENT 23 21 19 23 14 25 11 27
REMARK Flexibility Score: inf
ROOT
ATOM      1  C   UNL     1      -4.220  22.538  -9.171  1.00  0.00     0.180 A 
ATOM      2  C   UNL     1      -4.612  21.203  -8.973  1.00  0.00     0.208 A 
ATOM      3  C   UNL     1      -5.959  20.852  -9.165  1.00  0.00     0.238 A 
ATOM      4  O   UNL     1      -6.292  19.644  -9.039  1.00  0.00    -0.285 OA
ATOM      5  C   UNL     1      -6.898  21.843  -9.535  1.00  0.00     0.111 A 
ATOM      6  C   UNL     1      -8.295  21.608  -9.717  1.00  0.00     0.134 A 
ATOM      7  C   UNL     1      -9.109  22.635 -10.212  1.00  0.00     0.093 A 
ATOM      8  C   UNL     1      -8.589  23.906 -10.467  1.00  0.00     0.123 A 
ATOM      9  C   UNL     1      -7.240  24.162 -10.236  1.00  0.00     0.094 A 
ATOM     10  C   UNL     1      -6.395  23.148  -9.778  1.00  0.00     0.146 A 
ATOM     11  O   UNL     1      -5.114  23.431  -9.581  1.00  0.00    -0.452 OA
ENDROOT
BRANCH   1  12
ATOM     12  C   UNL     1      -2.825  22.989  -8.964  1.00  0.00     0.025 A 
ATOM     13  C   UNL     1      -0.654  23.600  -9.908  1.00  0.00     0.161 A 
ATOM     14  C   UNL     1      -0.186  23.901  -8.622  1.00  0.00     0.157 A 
ATOM     15  C   UNL     1      -1.979  23.150 -10.074  1.00  0.00     0.062 A 
ATOM     16  C   UNL     1      -1.034  23.761  -7.516  1.00  0.00     0.051 A 
ATOM     17  C   UNL     1      -2.345  23.314  -7.684  1.00  0.00     0.016 A 
BRANCH  13  18
ATOM     18  O   UNL     1       0.223  23.760 -10.993  1.00  0.00    -0.493 OA
ATOM     19  C   UNL     1       0.380  22.818 -12.048  1.00  0.00     0.278 C 
ENDBRANCH  13  18
BRANCH  14  20
ATOM     20  O   UNL     1       1.124  24.345  -8.452  1.00  0.00    -0.504 OA
ATOM     21  H   UNL     1       1.839  23.748  -8.052  1.00  0.00     0.293 HD
ENDBRANCH  14  20
ENDBRANCH   1  12
BRANCH   2  22
ATOM     22  O   UNL     1      -3.664  20.236  -8.629  1.00  0.00    -0.502 OA
ATOM     23  H   UNL     1      -3.100  19.756  -9.320  1.00  0.00     0.293 HD
ENDBRANCH   2  22
BRANCH   6  24
ATOM     24  O   UNL     1      -8.930  20.403  -9.404  1.00  0.00    -0.507 OA
ATOM     25  H   UNL     1      -8.500  19.638  -8.908  1.00  0.00     0.293 HD
ENDBRANCH   6  24
BRANCH   8  26
ATOM     26  O   UNL     1      -9.410  24.926 -10.944  1.00  0.00    -0.508 OA
ATOM     27  H   UNL     1     -10.403  24.947 -10.740  1.00  0.00     0.293 HD
ENDBRANCH   8  26
TORSDOF 6
ENDMDL
MODEL 7
REMARK VINA RESULT:    -4.967      3.800      6.880
REMARK INTER + INTRA:          -6.519
REMARK INTER:                  -6.130
REMARK INTRA:                  -0.389
REMARK UNBOUND:                -0.390
REMARK SMILES COc1cc(-c2oc3cc(O)cc(O)c3c(=O)c2O)ccc1O
REMARK SMILES IDX 6 1 18 2 16 3 17 4 15 5 13 6 12 7 10 8 9 9 8 10 7 11 5 12
REMARK SMILES IDX 3 13 22 14 4 15 21 16 20 17 2 18 1 19 23 20 19 22 14 24
REMARK SMILES IDX 11 26
REMARK H PARENT 23 21 19 23 14 25 11 27
REMARK Flexibility Score: inf
ROOT
ATOM      1  C   UNL     1      -3.768  23.050  -9.302  1.00  0.00     0.180 A 
ATOM      2  C   UNL     1      -3.797  22.303  -8.112  1.00  0.00     0.208 A 
ATOM      3  C   UNL     1      -5.009  21.723  -7.700  1.00  0.00     0.238 A 
ATOM      4  O   UNL     1      -5.015  21.010  -6.663  1.00  0.00    -0.285 OA
ATOM      5  C   UNL     1      -6.178  21.913  -8.475  1.00  0.00     0.111 A 
ATOM      6  C   UNL     1      -7.468  21.405  -8.131  1.00  0.00     0.134 A 
ATOM      7  C   UNL     1      -8.527  21.542  -9.037  1.00  0.00     0.093 A 
ATOM      8  C   UNL     1      -8.359  22.226 -10.244  1.00  0.00     0.123 A 
ATOM      9  C   UNL     1      -7.120  22.776 -10.561  1.00  0.00     0.094 A 
ATOM     10  C   UNL     1      -6.034  22.625  -9.694  1.00  0.00     0.146 A 
ATOM     11  O   UNL     1      -4.868  23.155 -10.039  1.00  0.00    -0.452 OA
ENDROOT
BRANCH   1  12
ATOM     12  C   UNL     1      -2.536  23.712  -9.787  1.00  0.00     0.025 A 
ATOM     13  C   UNL     1      -0.463  23.602 -11.080  1.00  0.00     0.161 A 
ATOM     14  C   UNL     1      -0.212  24.948 -10.781  1.00  0.00     0.157 A 
ATOM     15  C   UNL     1      -1.632  22.990 -10.586  1.00  0.00     0.062 A 
ATOM     16  C   UNL     1      -1.121  25.676 -10.003  1.00  0.00     0.051 A 
ATOM     17  C   UNL     1      -2.278  25.065  -9.514  1.00  0.00     0.016 A 
BRANCH  13  18
ATOM     18  O   UNL     1       0.468  22.908 -11.870  1.00  0.00    -0.493 OA
ATOM     19  C   UNL     1       1.080  21.677 -11.499  1.00  0.00     0.278 C 
ENDBRANCH  13  18
BRANCH  14  20
ATOM     20  O   UNL     1       0.943  25.558 -11.266  1.00  0.00    -0.504 OA
ATOM     21  H   UNL     1       1.866  25.253 -10.976  1.00  0.00     0.293 HD
ENDBRANCH  14  20
ENDBRANCH   1  12
BRANCH   2  22
ATOM     22  O   UNL     1      -2.626  22.110  -7.375  1.00  0.00    -0.502 OA
ATOM     23  H   UNL     1      -2.555  22.349  -6.393  1.00  0.00     0.293 HD
ENDBRANCH   2  22
BRANCH   6  24
ATOM     24  O   UNL     1      -7.765  20.788  -6.913  1.00  0.00    -0.507 OA
ATOM     25  H   UNL     1      -7.380  19.907  -6.606  1.00  0.00     0.293 HD
ENDBRANCH   6  24
BRANCH   8  26
ATOM     26  O   UNL     1      -9.423  22.371 -11.132  1.00  0.00    -0.508 OA
ATOM     27  H   UNL     1      -9.278  22.374 -12.136  1.00  0.00     0.293 HD
ENDBRANCH   8  26
TORSDOF 6
ENDMDL
MODEL 8
REMARK VINA RESULT:    -4.913      1.805      7.372
REMARK INTER + INTRA:          -6.452
REMARK INTER:                  -6.247
REMARK INTRA:                  -0.204
REMARK UNBOUND:                -0.390
REMARK SMILES COc1cc(-c2oc3cc(O)cc(O)c3c(=O)c2O)ccc1O
REMARK SMILES IDX 6 1 18 2 16 3 17 4 15 5 13 6 12 7 10 8 9 9 8 10 7 11 5 12
REMARK SMILES IDX 3 13 22 14 4 15 21 16 20 17 2 18 1 19 23 20 19 22 14 24
REMARK SMILES IDX 11 26
REMARK H PARENT 23 21 19 23 14 25 11 27
REMARK Flexibility Score: inf
ROOT
ATOM      1  C   UNL     1      -6.042  23.371  -9.191  1.00  0.00     0.180 A 
ATOM      2  C   UNL     1      -5.210  24.402  -9.657  1.00  0.00     0.208 A 
ATOM      3  C   UNL     1      -5.778  25.649  -9.968  1.00  0.00     0.238 A 
ATOM      4  O   UNL     1      -5.019  26.585 -10.333  1.00  0.00    -0.285 OA
ATOM      5  C   UNL     1      -7.173  25.842  -9.825  1.00  0.00     0.111 A 
ATOM      6  C   UNL     1      -7.861  27.050 -10.149  1.00  0.00     0.134 A 
ATOM      7  C   UNL     1      -9.222  27.172  -9.843  1.00  0.00     0.093 A 
ATOM      8  C   UNL     1      -9.934  26.106  -9.287  1.00  0.00     0.123 A 
ATOM      9  C   UNL     1      -9.285  24.904  -9.023  1.00  0.00     0.094 A 
ATOM     10  C   UNL     1      -7.919  24.763  -9.282  1.00  0.00     0.146 A 
ATOM     11  O   UNL     1      -7.337  23.603  -9.005  1.00  0.00    -0.452 OA
ENDROOT
BRANCH   1  12
ATOM     12  C   UNL     1      -5.521  22.024  -8.866  1.00  0.00     0.025 A 
ATOM     13  C   UNL     1      -4.127  20.596  -7.453  1.00  0.00     0.161 A 
ATOM     14  C   UNL     1      -4.553  19.473  -8.177  1.00  0.00     0.157 A 
ATOM     15  C   UNL     1      -4.620  21.869  -7.798  1.00  0.00     0.062 A 
ATOM     16  C   UNL     1      -5.467  19.621  -9.228  1.00  0.00     0.051 A 
ATOM     17  C   UNL     1      -5.953  20.885  -9.567  1.00  0.00     0.016 A 
BRANCH  13  18
ATOM     18  O   UNL     1      -3.216  20.406  -6.401  1.00  0.00    -0.493 OA
ATOM     19  C   UNL     1      -3.141  21.229  -5.243  1.00  0.00     0.278 C 
ENDBRANCH  13  18
BRANCH  14  20
ATOM     20  O   UNL     1      -4.067  18.211  -7.841  1.00  0.00    -0.504 OA
ATOM     21  H   UNL     1      -4.411  17.709  -7.030  1.00  0.00     0.293 HD
ENDBRANCH  14  20
ENDBRANCH   1  12
BRANCH   2  22
ATOM     22  O   UNL     1      -3.832  24.197  -9.770  1.00  0.00    -0.502 OA
ATOM     23  H   UNL     1      -3.315  23.605  -9.132  1.00  0.00     0.293 HD
ENDBRANCH   2  22
BRANCH   6  24
ATOM     24  O   UNL     1      -7.265  28.140 -10.790  1.00  0.00    -0.507 OA
ATOM     25  H   UNL     1      -7.769  28.884 -11.247  1.00  0.00     0.293 HD
ENDBRANCH   6  24
BRANCH   8  26
ATOM     26  O   UNL     1     -11.292  26.232  -9.001  1.00  0.00    -0.508 OA
ATOM     27  H   UNL     1     -11.945  26.602  -9.682  1.00  0.00     0.293 HD
ENDBRANCH   8  26
TORSDOF 6
ENDMDL
MODEL 9
REMARK VINA RESULT:    -4.807      3.802      6.606
REMARK INTER + INTRA:          -6.321
REMARK INTER:                  -5.937
REMARK INTRA:                  -0.384
REMARK UNBOUND:                -0.390
REMARK SMILES COc1cc(-c2oc3cc(O)cc(O)c3c(=O)c2O)ccc1O
REMARK SMILES IDX 6 1 18 2 16 3 17 4 15 5 13 6 12 7 10 8 9 9 8 10 7 11 5 12
REMARK SMILES IDX 3 13 22 14 4 15 21 16 20 17 2 18 1 19 23 20 19 22 14 24
REMARK SMILES IDX 11 26
REMARK H PARENT 23 21 19 23 14 25 11 27
REMARK Flexibility Score: inf
ROOT
ATOM      1  C   UNL     1      -3.738  22.905  -9.343  1.00  0.00     0.180 A 
ATOM      2  C   UNL     1      -3.773  22.167  -8.148  1.00  0.00     0.208 A 
ATOM      3  C   UNL     1      -4.994  21.621  -7.718  1.00  0.00     0.238 A 
ATOM      4  O   UNL     1      -5.008  20.916  -6.676  1.00  0.00    -0.285 OA
ATOM      5  C   UNL     1      -6.167  21.835  -8.481  1.00  0.00     0.111 A 
ATOM      6  C   UNL     1      -7.465  21.363  -8.120  1.00  0.00     0.134 A 
ATOM      7  C   UNL     1      -8.531  21.520  -9.015  1.00  0.00     0.093 A 
ATOM      8  C   UNL     1      -8.359  22.191 -10.229  1.00  0.00     0.123 A 
ATOM      9  C   UNL     1      -7.110  22.707 -10.563  1.00  0.00     0.094 A 
ATOM     10  C   UNL     1      -6.019  22.534  -9.707  1.00  0.00     0.146 A 
ATOM     11  O   UNL     1      -4.843  23.032 -10.069  1.00  0.00    -0.452 OA
ENDROOT
BRANCH   1  12
ATOM     12  C   UNL     1      -2.495  23.530  -9.847  1.00  0.00     0.025 A 
ATOM     13  C   UNL     1      -1.036  25.488  -9.987  1.00  0.00     0.161 A 
ATOM     14  C   UNL     1      -0.116  24.741 -10.735  1.00  0.00     0.157 A 
ATOM     15  C   UNL     1      -2.222  24.874  -9.539  1.00  0.00     0.062 A 
ATOM     16  C   UNL     1      -0.374  23.396 -11.027  1.00  0.00     0.051 A 
ATOM     17  C   UNL     1      -1.552  22.792 -10.581  1.00  0.00     0.016 A 
BRANCH  13  18
ATOM     18  O   UNL     1      -0.737  26.831  -9.708  1.00  0.00    -0.493 OA
ATOM     19  C   UNL     1      -1.347  27.943 -10.355  1.00  0.00     0.278 C 
ENDBRANCH  13  18
BRANCH  14  20
ATOM     20  O   UNL     1       1.059  25.343 -11.182  1.00  0.00    -0.504 OA
ATOM     21  H   UNL     1       1.096  25.845 -12.062  1.00  0.00     0.293 HD
ENDBRANCH  14  20
ENDBRANCH   1  12
BRANCH   2  22
ATOM     22  O   UNL     1      -2.599  21.950  -7.421  1.00  0.00    -0.502 OA
ATOM     23  H   UNL     1      -2.257  21.021  -7.204  1.00  0.00     0.293 HD
ENDBRANCH   2  22
BRANCH   6  24
ATOM     24  O   UNL     1      -7.764  20.763  -6.893  1.00  0.00    -0.507 OA
ATOM     25  H   UNL     1      -7.100  20.266  -6.320  1.00  0.00     0.293 HD
ENDBRANCH   6  24
BRANCH   8  26
ATOM     26  O   UNL     1      -9.428  22.356 -11.107  1.00  0.00    -0.508 OA
ATOM     27  H   UNL     1      -9.350  22.939 -11.932  1.00  0.00     0.293 HD
ENDBRANCH   8  26
TORSDOF 6
ENDMDL
