MODEL 1
REMARK VINA RESULT:    -2.604      0.000      0.000
REMARK INTER + INTRA:          -2.604
REMARK INTER:                  -2.604
REMARK INTRA:                   0.000
REMARK UNBOUND:                 0.000
REMARK SMILES CC(=O)[O-]
REMARK SMILES IDX 1 1 2 2 3 3 4 4
REMARK H PARENT
REMARK Flexibility Score: inf
ROOT
ATOM      1  C   UNL     1     108.467 105.095 130.354  1.00  0.00     0.063 C 
ATOM      2  C   UNL     1     108.681 104.070 129.292  1.00  0.00     0.038 C 
ATOM      3  O   UNL     1     107.700 103.608 128.653  1.00  0.00    -0.550 OA
ATOM      4  O   UNL     1     109.968 103.663 128.967  1.00  0.00    -0.550 OA
ENDROOT
TORSDOF 0
ENDMDL
MODEL 2
REMARK VINA RESULT:    -2.594      0.197      1.624
REMARK INTER + INTRA:          -2.594
REMARK INTER:                  -2.594
REMARK INTRA:                   0.000
REMARK UNBOUND:                 0.000
REMARK SMILES CC(=O)[O-]
REMARK SMILES IDX 1 1 2 2 3 3 4 4
REMARK H PARENT
REMARK Flexibility Score: inf
ROOT
ATOM      1  C   UNL     1     108.488 105.154 130.165  1.00  0.00     0.063 C 
ATOM      2  C   UNL     1     108.701 104.089 129.143  1.00  0.00     0.038 C 
ATOM      3  O   UNL     1     109.868 103.763 128.805  1.00  0.00    -0.550 OA
ATOM      4  O   UNL     1     107.613 103.416 128.603  1.00  0.00    -0.550 OA
ENDROOT
TORSDOF 0
ENDMDL
MODEL 3
REMARK VINA RESULT:    -2.492      1.338      2.017
REMARK INTER + INTRA:          -2.492
REMARK INTER:                  -2.492
REMARK INTRA:                   0.000
REMARK UNBOUND:                 0.000
REMARK SMILES CC(=O)[O-]
REMARK SMILES IDX 1 1 2 2 3 3 4 4
REMARK H PARENT
REMARK Flexibility Score: inf
ROOT
ATOM      1  C   UNL     1     107.868 102.854 129.455  1.00  0.00     0.063 C 
ATOM      2  C   UNL     1     108.780 104.006 129.203  1.00  0.00     0.038 C 
ATOM      3  O   UNL     1     109.841 103.841 128.545  1.00  0.00    -0.550 OA
ATOM      4  O   UNL     1     108.435 105.277 129.645  1.00  0.00    -0.550 OA
ENDROOT
TORSDOF 0
ENDMDL
MODEL 4
REMARK VINA RESULT:    -2.479      1.265      1.595
REMARK INTER + INTRA:          -2.479
REMARK INTER:                  -2.479
REMARK INTRA:                   0.000
REMARK UNBOUND:                 0.000
REMARK SMILES CC(=O)[O-]
REMARK SMILES IDX 1 1 2 2 3 3 4 4
REMARK H PARENT
REMARK Flexibility Score: inf
ROOT
ATOM      1  C   UNL     1     107.746 102.875 129.522  1.00  0.00     0.063 C 
ATOM      2  C   UNL     1     108.706 103.995 129.302  1.00  0.00     0.038 C 
ATOM      3  O   UNL     1     108.413 105.161 129.675  1.00  0.00    -0.550 OA
ATOM      4  O   UNL     1     109.948 103.745 128.734  1.00  0.00    -0.550 OA
ENDROOT
TORSDOF 0
ENDMDL
MODEL 5
REMARK VINA RESULT:    -2.411      1.751      1.989
REMARK INTER + INTRA:          -2.411
REMARK INTER:                  -2.411
REMARK INTRA:                   0.000
REMARK UNBOUND:                 0.000
REMARK SMILES CC(=O)[O-]
REMARK SMILES IDX 1 1 2 2 3 3 4 4
REMARK H PARENT
REMARK Flexibility Score: inf
ROOT
ATOM      1  C   UNL     1     108.180 103.837 129.041  1.00  0.00     0.063 C 
ATOM      2  C   UNL     1     108.814 104.464 130.236  1.00  0.00     0.038 C 
ATOM      3  O   UNL     1     108.212 105.371 130.868  1.00  0.00    -0.550 OA
ATOM      4  O   UNL     1     110.047 104.011 130.688  1.00  0.00    -0.550 OA
ENDROOT
TORSDOF 0
ENDMDL
MODEL 6
REMARK VINA RESULT:    -2.222      2.040      2.617
REMARK INTER + INTRA:          -2.222
REMARK INTER:                  -2.222
REMARK INTRA:                   0.000
REMARK UNBOUND:                 0.000
REMARK SMILES CC(=O)[O-]
REMARK SMILES IDX 1 1 2 2 3 3 4 4
REMARK H PARENT
REMARK Flexibility Score: inf
ROOT
ATOM      1  C   UNL     1     109.772 103.639 129.234  1.00  0.00     0.063 C 
ATOM      2  C   UNL     1     109.076 102.681 130.140  1.00  0.00     0.038 C 
ATOM      3  O   UNL     1     109.646 102.268 131.183  1.00  0.00    -0.550 OA
ATOM      4  O   UNL     1     107.774 102.283 129.864  1.00  0.00    -0.550 OA
ENDROOT
TORSDOF 0
ENDMDL
MODEL 7
REMARK VINA RESULT:    -2.129     12.034     12.105
REMARK INTER + INTRA:          -2.129
REMARK INTER:                  -2.129
REMARK INTRA:                   0.000
REMARK UNBOUND:                 0.000
REMARK SMILES CC(=O)[O-]
REMARK SMILES IDX 1 1 2 2 3 3 4 4
REMARK H PARENT
REMARK Flexibility Score: inf
ROOT
ATOM      1  C   UNL     1     111.838 111.703 122.400  1.00  0.00     0.063 C 
ATOM      2  C   UNL     1     111.544 112.962 121.656  1.00  0.00     0.038 C 
ATOM      3  O   UNL     1     110.674 112.971 120.747  1.00  0.00    -0.550 OA
ATOM      4  O   UNL     1     112.191 114.141 122.003  1.00  0.00    -0.550 OA
ENDROOT
TORSDOF 0
ENDMDL
MODEL 8
REMARK VINA RESULT:    -2.001     21.469     21.515
REMARK INTER + INTRA:          -2.001
REMARK INTER:                  -2.001
REMARK INTRA:                   0.000
REMARK UNBOUND:                 0.000
REMARK SMILES CC(=O)[O-]
REMARK SMILES IDX 1 1 2 2 3 3 4 4
REMARK H PARENT
REMARK Flexibility Score: inf
ROOT
ATOM      1  C   UNL     1     112.439 117.858 114.602  1.00  0.00     0.063 C 
ATOM      2  C   UNL     1     111.568 118.361 113.500  1.00  0.00     0.038 C 
ATOM      3  O   UNL     1     110.791 119.330 113.700  1.00  0.00    -0.550 OA
ATOM      4  O   UNL     1     111.652 117.796 112.234  1.00  0.00    -0.550 OA
ENDROOT
TORSDOF 0
ENDMDL
MODEL 9
REMARK VINA RESULT:    -1.959      3.116      3.276
REMARK INTER + INTRA:          -1.959
REMARK INTER:                  -1.959
REMARK INTRA:                   0.000
REMARK UNBOUND:                 0.000
REMARK SMILES CC(=O)[O-]
REMARK SMILES IDX 1 1 2 2 3 3 4 4
REMARK H PARENT
REMARK Flexibility Score: inf
ROOT
ATOM      1  C   UNL     1     106.287 101.612 131.768  1.00  0.00     0.063 C 
ATOM      2  C   UNL     1     107.315 102.474 131.118  1.00  0.00     0.038 C 
ATOM      3  O   UNL     1     107.581 103.608 131.593  1.00  0.00    -0.550 OA
ATOM      4  O   UNL     1     108.021 102.004 130.018  1.00  0.00    -0.550 OA
ENDROOT
TORSDOF 0
ENDMDL
