MODEL 1
REMARK VINA RESULT:    -2.309      0.000      0.000
REMARK INTER + INTRA:          -4.555
REMARK INTER:                  -3.659
REMARK INTRA:                  -0.896
REMARK UNBOUND:                -0.896
REMARK SMILES C=CCCCCCCCCCCC
REMARK SMILES IDX 7 1 8 2 9 3 10 4 11 5 12 6 13 7 6 8 5 9 4 10 3 11 2 12 1 13
REMARK H PARENT
REMARK Flexibility Score: inf
ROOT
ATOM      1  C   UNL     1       8.121   6.703  12.436  1.00  0.00     0.000 C 
ENDROOT
BRANCH   1   2
ATOM      2  C   UNL     1       7.894   7.334  13.820  1.00  0.00     0.000 C 
BRANCH   2   3
ATOM      3  C   UNL     1       8.763   8.582  14.048  1.00  0.00    -0.000 C 
BRANCH   3   4
ATOM      4  C   UNL     1      10.268   8.288  13.926  1.00  0.00    -0.000 C 
BRANCH   4   5
ATOM      5  C   UNL     1      11.037   8.563  15.231  1.00  0.00    -0.000 C 
BRANCH   5   6
ATOM      6  C   UNL     1      12.550   8.296  15.157  1.00  0.00    -0.003 C 
ATOM      7  C   UNL     1      13.330   8.950  16.297  1.00  0.00     0.004 C 
ENDBRANCH   5   6
ENDBRANCH   4   5
ENDBRANCH   3   4
ENDBRANCH   2   3
ENDBRANCH   1   2
BRANCH   1   8
ATOM      8  C   UNL     1       7.520   5.292  12.326  1.00  0.00     0.000 C 
BRANCH   8   9
ATOM      9  C   UNL     1       6.336   5.074  13.287  1.00  0.00     0.000 C 
BRANCH   9  10
ATOM     10  C   UNL     1       4.975   5.302  12.609  1.00  0.00     0.004 C 
BRANCH  10  11
ATOM     11  C   UNL     1       4.470   6.744  12.774  1.00  0.00     0.027 C 
BRANCH  11  12
ATOM     12  C   UNL     1       4.693   7.544  11.521  1.00  0.00    -0.035 C 
ATOM     13  C   UNL     1       5.214   8.775  11.555  1.00  0.00     0.004 C 
ENDBRANCH  11  12
ENDBRANCH  10  11
ENDBRANCH   9  10
ENDBRANCH   8   9
ENDBRANCH   1   8
TORSDOF 10
ENDMDL
MODEL 2
REMARK VINA RESULT:    -2.050      0.477      6.937
REMARK INTER + INTRA:          -4.144
REMARK INTER:                  -3.679
REMARK INTRA:                  -0.465
REMARK UNBOUND:                -0.896
REMARK SMILES C=CCCCCCCCCCCC
REMARK SMILES IDX 7 1 8 2 9 3 10 4 11 5 12 6 13 7 6 8 5 9 4 10 3 11 2 12 1 13
REMARK H PARENT
REMARK Flexibility Score: inf
ROOT
ATOM      1  C   UNL     1       7.673   7.239  13.877  1.00  0.00     0.000 C 
ENDROOT
BRANCH   1   2
ATOM      2  C   UNL     1       7.834   6.565  12.505  1.00  0.00     0.000 C 
BRANCH   2   3
ATOM      3  C   UNL     1       7.203   5.163  12.459  1.00  0.00    -0.000 C 
BRANCH   3   4
ATOM      4  C   UNL     1       5.847   5.100  13.184  1.00  0.00    -0.000 C 
BRANCH   4   5
ATOM      5  C   UNL     1       4.712   5.766  12.385  1.00  0.00    -0.000 C 
BRANCH   5   6
ATOM      6  C   UNL     1       4.383   7.207  12.814  1.00  0.00    -0.003 C 
ATOM      7  C   UNL     1       4.825   8.251  11.789  1.00  0.00     0.004 C 
ENDBRANCH   5   6
ENDBRANCH   4   5
ENDBRANCH   3   4
ENDBRANCH   2   3
ENDBRANCH   1   2
BRANCH   1   8
ATOM      8  C   UNL     1       8.487   8.538  13.995  1.00  0.00     0.000 C 
BRANCH   8   9
ATOM      9  C   UNL     1      10.002   8.306  13.846  1.00  0.00     0.000 C 
BRANCH   9  10
ATOM     10  C   UNL     1      10.774   8.587  15.145  1.00  0.00     0.004 C 
BRANCH  10  11
ATOM     11  C   UNL     1      12.266   8.239  15.030  1.00  0.00     0.027 C 
BRANCH  11  12
ATOM     12  C   UNL     1      13.018   8.662  16.262  1.00  0.00    -0.035 C 
ATOM     13  C   UNL     1      14.095   9.450  16.194  1.00  0.00     0.004 C 
ENDBRANCH  11  12
ENDBRANCH  10  11
ENDBRANCH   9  10
ENDBRANCH   8   9
ENDBRANCH   1   8
TORSDOF 10
ENDMDL
MODEL 3
REMARK VINA RESULT:    -1.916      0.510      1.229
REMARK INTER + INTRA:          -3.933
REMARK INTER:                  -3.348
REMARK INTRA:                  -0.584
REMARK UNBOUND:                -0.896
REMARK SMILES C=CCCCCCCCCCCC
REMARK SMILES IDX 7 1 8 2 9 3 10 4 11 5 12 6 13 7 6 8 5 9 4 10 3 11 2 12 1 13
REMARK H PARENT
REMARK Flexibility Score: inf
ROOT
ATOM      1  C   UNL     1       7.712   7.177  13.797  1.00  0.00     0.000 C 
ENDROOT
BRANCH   1   2
ATOM      2  C   UNL     1       8.485   8.506  13.812  1.00  0.00     0.000 C 
BRANCH   2   3
ATOM      3  C   UNL     1      10.007   8.304  13.726  1.00  0.00    -0.000 C 
BRANCH   3   4
ATOM      4  C   UNL     1      10.725   8.639  15.045  1.00  0.00    -0.000 C 
BRANCH   4   5
ATOM      5  C   UNL     1      12.224   8.290  15.012  1.00  0.00    -0.000 C 
BRANCH   5   6
ATOM      6  C   UNL     1      12.999   8.655  16.291  1.00  0.00    -0.003 C 
ATOM      7  C   UNL     1      14.136   9.644  16.039  1.00  0.00     0.004 C 
ENDBRANCH   5   6
ENDBRANCH   4   5
ENDBRANCH   3   4
ENDBRANCH   2   3
ENDBRANCH   1   2
BRANCH   1   8
ATOM      8  C   UNL     1       7.952   6.371  12.509  1.00  0.00     0.000 C 
BRANCH   8   9
ATOM      9  C   UNL     1       7.196   5.030  12.498  1.00  0.00     0.000 C 
BRANCH   9  10
ATOM     10  C   UNL     1       5.858   5.099  13.251  1.00  0.00     0.004 C 
BRANCH  10  11
ATOM     11  C   UNL     1       4.719   5.649  12.378  1.00  0.00     0.027 C 
BRANCH  11  12
ATOM     12  C   UNL     1       4.400   7.075  12.736  1.00  0.00    -0.035 C 
ATOM     13  C   UNL     1       4.738   8.093  11.940  1.00  0.00     0.004 C 
ENDBRANCH  11  12
ENDBRANCH  10  11
ENDBRANCH   9  10
ENDBRANCH   8   9
ENDBRANCH   1   8
TORSDOF 10
ENDMDL
MODEL 4
REMARK VINA RESULT:    -1.906      0.770      1.642
REMARK INTER + INTRA:          -3.916
REMARK INTER:                  -2.872
REMARK INTRA:                  -1.043
REMARK UNBOUND:                -0.896
REMARK SMILES C=CCCCCCCCCCCC
REMARK SMILES IDX 7 1 8 2 9 3 10 4 11 5 12 6 13 7 6 8 5 9 4 10 3 11 2 12 1 13
REMARK H PARENT
REMARK Flexibility Score: inf
ROOT
ATOM      1  C   UNL     1       7.376   5.062  12.671  1.00  0.00     0.000 C 
ENDROOT
BRANCH   1   2
ATOM      2  C   UNL     1       7.807   6.537  12.613  1.00  0.00     0.000 C 
BRANCH   2   3
ATOM      3  C   UNL     1       7.446   7.307  13.895  1.00  0.00    -0.000 C 
BRANCH   3   4
ATOM      4  C   UNL     1       8.268   8.597  14.062  1.00  0.00    -0.000 C 
BRANCH   4   5
ATOM      5  C   UNL     1       9.767   8.389  13.777  1.00  0.00    -0.000 C 
BRANCH   5   6
ATOM      6  C   UNL     1      10.680   8.514  15.010  1.00  0.00    -0.003 C 
ATOM      7  C   UNL     1      12.146   8.210  14.700  1.00  0.00     0.004 C 
ENDBRANCH   5   6
ENDBRANCH   4   5
ENDBRANCH   3   4
ENDBRANCH   2   3
ENDBRANCH   1   2
BRANCH   1   8
ATOM      8  C   UNL     1       6.001   4.875  13.335  1.00  0.00     0.000 C 
BRANCH   8   9
ATOM      9  C   UNL     1       4.835   5.217  12.390  1.00  0.00     0.000 C 
BRANCH   9  10
ATOM     10  C   UNL     1       3.841   6.211  13.012  1.00  0.00     0.004 C 
BRANCH  10  11
ATOM     11  C   UNL     1       4.331   7.665  12.926  1.00  0.00     0.027 C 
BRANCH  11  12
ATOM     12  C   UNL     1       4.541   8.084  11.497  1.00  0.00    -0.035 C 
ATOM     13  C   UNL     1       5.519   8.924  11.145  1.00  0.00     0.004 C 
ENDBRANCH  11  12
ENDBRANCH  10  11
ENDBRANCH   9  10
ENDBRANCH   8   9
ENDBRANCH   1   8
TORSDOF 10
ENDMDL
MODEL 5
REMARK VINA RESULT:    -1.130      0.971      6.806
REMARK INTER + INTRA:          -2.687
REMARK INTER:                  -2.292
REMARK INTRA:                  -0.395
REMARK UNBOUND:                -0.896
REMARK SMILES C=CCCCCCCCCCCC
REMARK SMILES IDX 7 1 8 2 9 3 10 4 11 5 12 6 13 7 6 8 5 9 4 10 3 11 2 12 1 13
REMARK H PARENT
REMARK Flexibility Score: inf
ROOT
ATOM      1  C   UNL     1       7.388   8.383  13.197  1.00  0.00     0.000 C 
ENDROOT
BRANCH   1   2
ATOM      2  C   UNL     1       6.857   8.047  11.794  1.00  0.00     0.000 C 
BRANCH   2   3
ATOM      3  C   UNL     1       5.324   8.142  11.705  1.00  0.00    -0.000 C 
BRANCH   3   4
ATOM      4  C   UNL     1       4.615   7.300  12.781  1.00  0.00    -0.000 C 
BRANCH   4   5
ATOM      5  C   UNL     1       4.504   5.814  12.396  1.00  0.00    -0.000 C 
BRANCH   5   6
ATOM      6  C   UNL     1       5.443   4.875  13.175  1.00  0.00    -0.003 C 
ATOM      7  C   UNL     1       6.873   4.879  12.636  1.00  0.00     0.004 C 
ENDBRANCH   5   6
ENDBRANCH   4   5
ENDBRANCH   3   4
ENDBRANCH   2   3
ENDBRANCH   1   2
BRANCH   1   8
ATOM      8  C   UNL     1       8.792   7.810  13.448  1.00  0.00     0.000 C 
BRANCH   8   9
ATOM      9  C   UNL     1       9.656   8.724  14.338  1.00  0.00     0.000 C 
BRANCH   9  10
ATOM     10  C   UNL     1      11.123   8.269  14.403  1.00  0.00     0.004 C 
BRANCH  10  11
ATOM     11  C   UNL     1      11.782   8.601  15.751  1.00  0.00     0.027 C 
BRANCH  11  12
ATOM     12  C   UNL     1      13.280   8.662  15.623  1.00  0.00    -0.035 C 
ATOM     13  C   UNL     1      14.035   9.330  16.500  1.00  0.00     0.004 C 
ENDBRANCH  11  12
ENDBRANCH  10  11
ENDBRANCH   9  10
ENDBRANCH   8   9
ENDBRANCH   1   8
TORSDOF 10
ENDMDL
MODEL 6
REMARK VINA RESULT:    -0.466      1.125      2.524
REMARK INTER + INTRA:          -1.635
REMARK INTER:                  -1.192
REMARK INTRA:                  -0.443
REMARK UNBOUND:                -0.896
REMARK SMILES C=CCCCCCCCCCCC
REMARK SMILES IDX 7 1 8 2 9 3 10 4 11 5 12 6 13 7 6 8 5 9 4 10 3 11 2 12 1 13
REMARK H PARENT
REMARK Flexibility Score: inf
ROOT
ATOM      1  C   UNL     1       8.362   8.136  14.205  1.00  0.00     0.000 C 
ENDROOT
BRANCH   1   2
ATOM      2  C   UNL     1       9.814   8.433  13.795  1.00  0.00     0.000 C 
BRANCH   2   3
ATOM      3  C   UNL     1      10.747   8.595  15.008  1.00  0.00    -0.000 C 
BRANCH   3   4
ATOM      4  C   UNL     1      12.225   8.350  14.656  1.00  0.00    -0.000 C 
BRANCH   4   5
ATOM      5  C   UNL     1      13.120   8.220  15.902  1.00  0.00    -0.000 C 
BRANCH   5   6
ATOM      6  C   UNL     1      13.994   9.451  16.199  1.00  0.00    -0.003 C 
ATOM      7  C   UNL     1      14.756   9.953  14.972  1.00  0.00     0.004 C 
ENDBRANCH   5   6
ENDBRANCH   4   5
ENDBRANCH   3   4
ENDBRANCH   2   3
ENDBRANCH   1   2
BRANCH   1   8
ATOM      8  C   UNL     1       7.409   8.086  12.999  1.00  0.00     0.000 C 
BRANCH   8   9
ATOM      9  C   UNL     1       7.801   7.005  11.976  1.00  0.00     0.000 C 
BRANCH   9  10
ATOM     10  C   UNL     1       7.702   5.583  12.551  1.00  0.00     0.004 C 
BRANCH  10  11
ATOM     11  C   UNL     1       6.523   5.422  13.524  1.00  0.00     0.027 C 
BRANCH  11  12
ATOM     12  C   UNL     1       5.295   4.924  12.813  1.00  0.00    -0.035 C 
ATOM     13  C   UNL     1       4.356   5.760  12.360  1.00  0.00     0.004 C 
ENDBRANCH  11  12
ENDBRANCH  10  11
ENDBRANCH   9  10
ENDBRANCH   8   9
ENDBRANCH   1   8
TORSDOF 10
ENDMDL
MODEL 7
REMARK VINA RESULT:    -0.309      1.341      5.969
REMARK INTER + INTRA:          -1.385
REMARK INTER:                  -1.701
REMARK INTRA:                   0.316
REMARK UNBOUND:                -0.896
REMARK SMILES C=CCCCCCCCCCCC
REMARK SMILES IDX 7 1 8 2 9 3 10 4 11 5 12 6 13 7 6 8 5 9 4 10 3 11 2 12 1 13
REMARK H PARENT
REMARK Flexibility Score: inf
ROOT
ATOM      1  C   UNL     1       6.763   8.476  11.665  1.00  0.00     0.000 C 
ENDROOT
BRANCH   1   2
ATOM      2  C   UNL     1       5.423   8.684  10.940  1.00  0.00     0.000 C 
BRANCH   2   3
ATOM      3  C   UNL     1       4.335   7.711  11.423  1.00  0.00    -0.000 C 
BRANCH   3   4
ATOM      4  C   UNL     1       4.221   7.664  12.957  1.00  0.00    -0.000 C 
BRANCH   4   5
ATOM      5  C   UNL     1       4.600   6.290  13.540  1.00  0.00    -0.000 C 
BRANCH   5   6
ATOM      6  C   UNL     1       4.543   5.126  12.535  1.00  0.00    -0.003 C 
ATOM      7  C   UNL     1       3.138   4.875  11.991  1.00  0.00     0.004 C 
ENDBRANCH   5   6
ENDBRANCH   4   5
ENDBRANCH   3   4
ENDBRANCH   2   3
ENDBRANCH   1   2
BRANCH   1   8
ATOM      8  C   UNL     1       7.431   7.141  11.296  1.00  0.00     0.000 C 
BRANCH   8   9
ATOM      9  C   UNL     1       8.012   6.409  12.520  1.00  0.00     0.000 C 
BRANCH   9  10
ATOM     10  C   UNL     1       7.458   6.948  13.848  1.00  0.00     0.004 C 
BRANCH  10  11
ATOM     11  C   UNL     1       8.160   8.238  14.299  1.00  0.00     0.027 C 
BRANCH  11  12
ATOM     12  C   UNL     1       9.582   8.283  13.808  1.00  0.00    -0.035 C 
ATOM     13  C   UNL     1      10.609   8.476  14.641  1.00  0.00     0.004 C 
ENDBRANCH  11  12
ENDBRANCH  10  11
ENDBRANCH   9  10
ENDBRANCH   8   9
ENDBRANCH   1   8
TORSDOF 10
ENDMDL
