MODEL 1
REMARK VINA RESULT:    -5.034      0.000      0.000
REMARK INTER + INTRA:          -5.034
REMARK INTER:                  -5.034
REMARK INTRA:                   0.000
REMARK UNBOUND:                 0.000
REMARK SMILES CC1=CC[C@@]2(C)CCCC(C)(C)[C@@]23C[C@@H]13
REMARK SMILES IDX 1 1 2 2 3 3 4 4 5 5 7 6 8 7 9 8 10 9 13 10 15 11 14 12 11 13
REMARK SMILES IDX 12 14 6 15
REMARK H PARENT
REMARK Flexibility Score: inf
ROOT
ATOM      1  C   UNL     1       1.005  11.501  14.123  1.00  0.00     0.039 C 
ATOM      2  C   UNL     1       1.302  12.843  14.729  1.00  0.00    -0.074 C 
ATOM      3  C   UNL     1       1.532  12.930  16.057  1.00  0.00    -0.027 C 
ATOM      4  C   UNL     1       1.846  14.243  16.729  1.00  0.00     0.034 C 
ATOM      5  C   UNL     1       1.083  15.417  16.048  1.00  0.00    -0.022 C 
ATOM      6  C   UNL     1       1.576  16.753  16.654  1.00  0.00     0.008 C 
ATOM      7  C   UNL     1       0.994  17.993  15.949  1.00  0.00     0.001 C 
ATOM      8  C   UNL     1       1.279  17.998  14.440  1.00  0.00     0.007 C 
ATOM      9  C   UNL     1       0.820  16.719  13.682  1.00  0.00    -0.029 C 
ATOM     10  C   UNL     1       1.343  15.454  14.488  1.00  0.00    -0.012 C 
ATOM     11  C   UNL     1       1.335  14.067  13.827  1.00  0.00     0.022 C 
ATOM     12  C   UNL     1       2.655  14.827  13.937  1.00  0.00     0.017 C 
ATOM     13  C   UNL     1      -0.723  16.687  13.544  1.00  0.00     0.012 C 
ATOM     14  C   UNL     1       1.377  16.842  12.233  1.00  0.00     0.012 C 
ATOM     15  C   UNL     1      -0.429  15.202  16.372  1.00  0.00     0.012 C 
ENDROOT
TORSDOF 0
ENDMDL
MODEL 2
REMARK VINA RESULT:    -4.968      1.558      3.557
REMARK INTER + INTRA:          -4.968
REMARK INTER:                  -4.968
REMARK INTRA:                   0.000
REMARK UNBOUND:                 0.000
REMARK SMILES CC1=CC[C@@]2(C)CCCC(C)(C)[C@@]23C[C@@H]13
REMARK SMILES IDX 1 1 2 2 3 3 4 4 5 5 7 6 8 7 9 8 10 9 13 10 15 11 14 12 11 13
REMARK SMILES IDX 12 14 6 15
REMARK H PARENT
REMARK Flexibility Score: inf
ROOT
ATOM      1  C   UNL     1       4.051  13.954  13.427  1.00  0.00     0.039 C 
ATOM      2  C   UNL     1       2.777  14.742  13.314  1.00  0.00    -0.074 C 
ATOM      3  C   UNL     1       2.378  15.179  12.100  1.00  0.00    -0.027 C 
ATOM      4  C   UNL     1       1.105  15.966  11.913  1.00  0.00     0.034 C 
ATOM      5  C   UNL     1       0.830  16.885  13.140  1.00  0.00    -0.022 C 
ATOM      6  C   UNL     1      -0.568  17.529  12.979  1.00  0.00     0.008 C 
ATOM      7  C   UNL     1      -1.008  18.344  14.210  1.00  0.00     0.001 C 
ATOM      8  C   UNL     1      -0.991  17.513  15.501  1.00  0.00     0.007 C 
ATOM      9  C   UNL     1       0.364  16.813  15.811  1.00  0.00    -0.029 C 
ATOM     10  C   UNL     1       0.847  16.068  14.495  1.00  0.00    -0.012 C 
ATOM     11  C   UNL     1       1.973  15.025  14.573  1.00  0.00     0.022 C 
ATOM     12  C   UNL     1       0.526  14.547  14.451  1.00  0.00     0.017 C 
ATOM     13  C   UNL     1       1.420  17.845  16.281  1.00  0.00     0.012 C 
ATOM     14  C   UNL     1       0.108  15.878  17.030  1.00  0.00     0.012 C 
ATOM     15  C   UNL     1       1.937  17.985  13.119  1.00  0.00     0.012 C 
ENDROOT
TORSDOF 0
ENDMDL
MODEL 3
REMARK VINA RESULT:    -4.845      1.438      3.863
REMARK INTER + INTRA:          -4.845
REMARK INTER:                  -4.845
REMARK INTRA:                   0.000
REMARK UNBOUND:                 0.000
REMARK SMILES CC1=CC[C@@]2(C)CCCC(C)(C)[C@@]23C[C@@H]13
REMARK SMILES IDX 1 1 2 2 3 3 4 4 5 5 7 6 8 7 9 8 10 9 13 10 15 11 14 12 11 13
REMARK SMILES IDX 12 14 6 15
REMARK H PARENT
REMARK Flexibility Score: inf
ROOT
ATOM      1  C   UNL     1       2.335  18.789  17.266  1.00  0.00     0.039 C 
ATOM      2  C   UNL     1       1.557  17.624  16.725  1.00  0.00    -0.074 C 
ATOM      3  C   UNL     1       1.591  16.445  17.383  1.00  0.00    -0.027 C 
ATOM      4  C   UNL     1       0.826  15.238  16.901  1.00  0.00     0.034 C 
ATOM      5  C   UNL     1       0.767  15.197  15.346  1.00  0.00    -0.022 C 
ATOM      6  C   UNL     1      -0.174  14.048  14.911  1.00  0.00     0.008 C 
ATOM      7  C   UNL     1      -0.423  14.008  13.391  1.00  0.00     0.001 C 
ATOM      8  C   UNL     1      -0.978  15.335  12.852  1.00  0.00     0.007 C 
ATOM      9  C   UNL     1      -0.124  16.589  13.196  1.00  0.00    -0.029 C 
ATOM     10  C   UNL     1       0.208  16.550  14.748  1.00  0.00    -0.012 C 
ATOM     11  C   UNL     1       0.751  17.806  15.447  1.00  0.00     0.022 C 
ATOM     12  C   UNL     1      -0.717  17.430  15.635  1.00  0.00     0.017 C 
ATOM     13  C   UNL     1       1.176  16.615  12.353  1.00  0.00     0.012 C 
ATOM     14  C   UNL     1      -0.954  17.826  12.739  1.00  0.00     0.012 C 
ATOM     15  C   UNL     1       2.225  14.914  14.861  1.00  0.00     0.012 C 
ENDROOT
TORSDOF 0
ENDMDL
MODEL 4
REMARK VINA RESULT:    -4.820      1.123      4.054
REMARK INTER + INTRA:          -4.820
REMARK INTER:                  -4.820
REMARK INTRA:                   0.000
REMARK UNBOUND:                 0.000
REMARK SMILES CC1=CC[C@@]2(C)CCCC(C)(C)[C@@]23C[C@@H]13
REMARK SMILES IDX 1 1 2 2 3 3 4 4 5 5 7 6 8 7 9 8 10 9 13 10 15 11 14 12 11 13
REMARK SMILES IDX 12 14 6 15
REMARK H PARENT
REMARK Flexibility Score: inf
ROOT
ATOM      1  C   UNL     1       2.251  17.622  12.497  1.00  0.00     0.039 C 
ATOM      2  C   UNL     1       1.355  17.095  13.582  1.00  0.00    -0.074 C 
ATOM      3  C   UNL     1       0.564  17.956  14.259  1.00  0.00    -0.027 C 
ATOM      4  C   UNL     1      -0.366  17.494  15.353  1.00  0.00     0.034 C 
ATOM      5  C   UNL     1       0.247  16.301  16.143  1.00  0.00    -0.022 C 
ATOM      6  C   UNL     1      -0.815  15.754  17.127  1.00  0.00     0.008 C 
ATOM      7  C   UNL     1      -0.364  14.474  17.857  1.00  0.00     0.001 C 
ATOM      8  C   UNL     1       0.036  13.353  16.886  1.00  0.00     0.007 C 
ATOM      9  C   UNL     1       1.117  13.749  15.840  1.00  0.00    -0.029 C 
ATOM     10  C   UNL     1       0.682  15.126  15.177  1.00  0.00    -0.012 C 
ATOM     11  C   UNL     1       1.366  15.605  13.888  1.00  0.00     0.022 C 
ATOM     12  C   UNL     1      -0.030  14.991  13.801  1.00  0.00     0.017 C 
ATOM     13  C   UNL     1       2.509  13.874  16.509  1.00  0.00     0.012 C 
ATOM     14  C   UNL     1       1.226  12.555  14.845  1.00  0.00     0.012 C 
ATOM     15  C   UNL     1       1.467  16.878  16.929  1.00  0.00     0.012 C 
ENDROOT
TORSDOF 0
ENDMDL
MODEL 5
REMARK VINA RESULT:    -4.715      1.339      2.179
REMARK INTER + INTRA:          -4.715
REMARK INTER:                  -4.715
REMARK INTRA:                   0.000
REMARK UNBOUND:                 0.000
REMARK SMILES CC1=CC[C@@]2(C)CCCC(C)(C)[C@@]23C[C@@H]13
REMARK SMILES IDX 1 1 2 2 3 3 4 4 5 5 7 6 8 7 9 8 10 9 13 10 15 11 14 12 11 13
REMARK SMILES IDX 12 14 6 15
REMARK H PARENT
REMARK Flexibility Score: inf
ROOT
ATOM      1  C   UNL     1       0.392  12.745  17.853  1.00  0.00     0.039 C 
ATOM      2  C   UNL     1       0.783  14.011  17.145  1.00  0.00    -0.074 C 
ATOM      3  C   UNL     1       0.925  15.149  17.859  1.00  0.00    -0.027 C 
ATOM      4  C   UNL     1       1.325  16.452  17.215  1.00  0.00     0.034 C 
ATOM      5  C   UNL     1       0.738  16.569  15.777  1.00  0.00    -0.022 C 
ATOM      6  C   UNL     1       1.321  17.832  15.099  1.00  0.00     0.008 C 
ATOM      7  C   UNL     1       0.922  17.966  13.617  1.00  0.00     0.001 C 
ATOM      8  C   UNL     1       1.314  16.734  12.790  1.00  0.00     0.007 C 
ATOM      9  C   UNL     1       0.780  15.380  13.340  1.00  0.00    -0.029 C 
ATOM     10  C   UNL     1       1.111  15.313  14.892  1.00  0.00    -0.012 C 
ATOM     11  C   UNL     1       1.006  13.975  15.640  1.00  0.00     0.022 C 
ATOM     12  C   UNL     1       2.387  14.501  15.252  1.00  0.00     0.017 C 
ATOM     13  C   UNL     1      -0.744  15.250  13.093  1.00  0.00     0.012 C 
ATOM     14  C   UNL     1       1.449  14.263  12.484  1.00  0.00     0.012 C 
ATOM     15  C   UNL     1      -0.808  16.713  15.947  1.00  0.00     0.012 C 
ENDROOT
TORSDOF 0
ENDMDL
MODEL 6
REMARK VINA RESULT:    -4.600      1.284      4.523
REMARK INTER + INTRA:          -4.600
REMARK INTER:                  -4.600
REMARK INTRA:                   0.000
REMARK UNBOUND:                 0.000
REMARK SMILES CC1=CC[C@@]2(C)CCCC(C)(C)[C@@]23C[C@@H]13
REMARK SMILES IDX 1 1 2 2 3 3 4 4 5 5 7 6 8 7 9 8 10 9 13 10 15 11 14 12 11 13
REMARK SMILES IDX 12 14 6 15
REMARK H PARENT
REMARK Flexibility Score: inf
ROOT
ATOM      1  C   UNL     1      -0.875  18.796  14.452  1.00  0.00     0.039 C 
ATOM      2  C   UNL     1       0.060  17.625  14.551  1.00  0.00    -0.074 C 
ATOM      3  C   UNL     1       0.983  17.434  13.584  1.00  0.00    -0.027 C 
ATOM      4  C   UNL     1       1.959  16.285  13.626  1.00  0.00     0.034 C 
ATOM      5  C   UNL     1       1.310  15.022  14.266  1.00  0.00    -0.022 C 
ATOM      6  C   UNL     1       2.399  13.938  14.449  1.00  0.00     0.008 C 
ATOM      7  C   UNL     1       1.899  12.697  15.211  1.00  0.00     0.001 C 
ATOM      8  C   UNL     1       1.313  13.048  16.586  1.00  0.00     0.007 C 
ATOM      9  C   UNL     1       0.186  14.119  16.563  1.00  0.00    -0.029 C 
ATOM     10  C   UNL     1       0.686  15.343  15.684  1.00  0.00    -0.012 C 
ATOM     11  C   UNL     1      -0.062  16.685  15.741  1.00  0.00     0.022 C 
ATOM     12  C   UNL     1       1.258  16.539  16.496  1.00  0.00     0.017 C 
ATOM     13  C   UNL     1      -1.125  13.525  15.988  1.00  0.00     0.012 C 
ATOM     14  C   UNL     1      -0.120  14.470  18.050  1.00  0.00     0.012 C 
ATOM     15  C   UNL     1       0.223  14.532  13.258  1.00  0.00     0.012 C 
ENDROOT
TORSDOF 0
ENDMDL
MODEL 7
REMARK VINA RESULT:    -4.467      1.116      3.282
REMARK INTER + INTRA:          -4.467
REMARK INTER:                  -4.467
REMARK INTRA:                   0.000
REMARK UNBOUND:                 0.000
REMARK SMILES CC1=CC[C@@]2(C)CCCC(C)(C)[C@@]23C[C@@H]13
REMARK SMILES IDX 1 1 2 2 3 3 4 4 5 5 7 6 8 7 9 8 10 9 13 10 15 11 14 12 11 13
REMARK SMILES IDX 12 14 6 15
REMARK H PARENT
REMARK Flexibility Score: inf
ROOT
ATOM      1  C   UNL     1       2.240  14.638  18.227  1.00  0.00     0.039 C 
ATOM      2  C   UNL     1       1.551  14.632  16.892  1.00  0.00    -0.074 C 
ATOM      3  C   UNL     1       1.626  13.528  16.117  1.00  0.00    -0.027 C 
ATOM      4  C   UNL     1       0.950  13.450  14.771  1.00  0.00     0.034 C 
ATOM      5  C   UNL     1       0.956  14.835  14.060  1.00  0.00    -0.022 C 
ATOM      6  C   UNL     1       0.099  14.741  12.775  1.00  0.00     0.008 C 
ATOM      7  C   UNL     1      -0.088  16.098  12.068  1.00  0.00     0.001 C 
ATOM      8  C   UNL     1      -0.695  17.163  12.993  1.00  0.00     0.007 C 
ATOM      9  C   UNL     1       0.072  17.386  14.327  1.00  0.00    -0.029 C 
ATOM     10  C   UNL     1       0.345  15.966  14.983  1.00  0.00    -0.012 C 
ATOM     11  C   UNL     1       0.788  15.872  16.452  1.00  0.00     0.022 C 
ATOM     12  C   UNL     1      -0.664  15.556  16.093  1.00  0.00     0.017 C 
ATOM     13  C   UNL     1       1.401  18.143  14.077  1.00  0.00     0.012 C 
ATOM     14  C   UNL     1      -0.808  18.341  15.187  1.00  0.00     0.012 C 
ATOM     15  C   UNL     1       2.445  15.134  13.697  1.00  0.00     0.012 C 
ENDROOT
TORSDOF 0
ENDMDL
MODEL 8
REMARK VINA RESULT:    -4.006      1.395      3.661
REMARK INTER + INTRA:          -4.006
REMARK INTER:                  -4.006
REMARK INTRA:                   0.000
REMARK UNBOUND:                 0.000
REMARK SMILES CC1=CC[C@@]2(C)CCCC(C)(C)[C@@]23C[C@@H]13
REMARK SMILES IDX 1 1 2 2 3 3 4 4 5 5 7 6 8 7 9 8 10 9 13 10 15 11 14 12 11 13
REMARK SMILES IDX 12 14 6 15
REMARK H PARENT
REMARK Flexibility Score: inf
ROOT
ATOM      1  C   UNL     1       4.307  13.875  13.377  1.00  0.00     0.039 C 
ATOM      2  C   UNL     1       2.915  14.151  13.870  1.00  0.00    -0.074 C 
ATOM      3  C   UNL     1       1.965  14.526  12.987  1.00  0.00    -0.027 C 
ATOM      4  C   UNL     1       0.546  14.809  13.411  1.00  0.00     0.034 C 
ATOM      5  C   UNL     1       0.503  15.443  14.833  1.00  0.00    -0.022 C 
ATOM      6  C   UNL     1      -0.972  15.546  15.290  1.00  0.00     0.008 C 
ATOM      7  C   UNL     1      -1.125  16.023  16.747  1.00  0.00     0.001 C 
ATOM      8  C   UNL     1      -0.359  15.136  17.740  1.00  0.00     0.007 C 
ATOM      9  C   UNL     1       1.153  14.952  17.420  1.00  0.00    -0.029 C 
ATOM     10  C   UNL     1       1.289  14.563  15.887  1.00  0.00    -0.012 C 
ATOM     11  C   UNL     1       2.616  14.000  15.354  1.00  0.00     0.022 C 
ATOM     12  C   UNL     1       1.454  13.042  15.611  1.00  0.00     0.017 C 
ATOM     13  C   UNL     1       1.942  16.248  17.735  1.00  0.00     0.012 C 
ATOM     14  C   UNL     1       1.684  13.876  18.413  1.00  0.00     0.012 C 
ATOM     15  C   UNL     1       1.126  16.868  14.695  1.00  0.00     0.012 C 
ENDROOT
TORSDOF 0
ENDMDL
