MODEL 1
REMARK VINA RESULT:    -5.215      0.000      0.000
REMARK INTER + INTRA:          -6.452
REMARK INTER:                  -6.435
REMARK INTRA:                  -0.017
REMARK UNBOUND:                -0.017
REMARK SMILES Oc1cc(O)c2cc(O)c(-c3cc(O)c(O)c(O)c3)[o+]c2c1
REMARK SMILES IDX 10 1 20 2 21 3 22 4 2 5 3 6 4 7 6 8 7 9 8 10 11 11 12 12
REMARK SMILES IDX 13 13 19 14 15 15 17 16 14 17 16 19 18 21 9 23 1 25 5 27
REMARK H PARENT 14 18 16 20 18 22 9 24 1 26 5 28
REMARK Flexibility Score: inf
ROOT
ATOM      1  C   UNL     1      19.586  25.695  42.303  1.00  0.00     0.402 A 
ATOM      2  O   UNL     1      18.989  24.632  42.833  1.00  0.00    -0.202 OA
ATOM      3  C   UNL     1      19.649  23.653  43.443  1.00  0.00     0.368 A 
ATOM      4  C   UNL     1      18.933  22.572  43.966  1.00  0.00     0.162 A 
ATOM      5  C   UNL     1      19.599  21.529  44.610  1.00  0.00     0.128 A 
ATOM      6  C   UNL     1      20.993  21.563  44.731  1.00  0.00     0.093 A 
ATOM      7  C   UNL     1      21.734  22.633  44.216  1.00  0.00     0.136 A 
ATOM      8  C   UNL     1      21.059  23.697  43.562  1.00  0.00     0.125 A 
ATOM      9  C   UNL     1      21.718  24.816  43.028  1.00  0.00     0.078 A 
ATOM     10  C   UNL     1      20.984  25.829  42.402  1.00  0.00     0.223 A 
ENDROOT
BRANCH   1  11
ATOM     11  C   UNL     1      18.742  26.715  41.640  1.00  0.00     0.091 A 
ATOM     12  C   UNL     1      18.884  28.065  41.994  1.00  0.00     0.068 A 
ATOM     13  C   UNL     1      18.087  29.048  41.400  1.00  0.00     0.162 A 
ATOM     14  C   UNL     1      17.758  26.354  40.704  1.00  0.00     0.068 A 
ATOM     15  C   UNL     1      17.119  28.685  40.448  1.00  0.00     0.200 A 
ATOM     16  C   UNL     1      16.953  27.332  40.104  1.00  0.00     0.162 A 
BRANCH  13  17
ATOM     17  O   UNL     1      18.270  30.380  41.769  1.00  0.00    -0.504 OA
ATOM     18  H   UNL     1      17.761  30.803  42.535  1.00  0.00     0.293 HD
ENDBRANCH  13  17
BRANCH  15  19
ATOM     19  O   UNL     1      16.328  29.672  39.858  1.00  0.00    -0.502 OA
ATOM     20  H   UNL     1      16.094  30.534  40.336  1.00  0.00     0.293 HD
ENDBRANCH  15  19
BRANCH  16  21
ATOM     21  O   UNL     1      15.984  26.964  39.171  1.00  0.00    -0.504 OA
ATOM     22  H   UNL     1      15.412  27.654  38.698  1.00  0.00     0.293 HD
ENDBRANCH  16  21
ENDBRANCH   1  11
BRANCH  10  23
ATOM     23  O   UNL     1      21.632  26.964  41.914  1.00  0.00    -0.500 OA
ATOM     24  H   UNL     1      22.381  26.898  41.234  1.00  0.00     0.294 HD
ENDBRANCH  10  23
BRANCH   5  25
ATOM     25  O   UNL     1      18.867  20.462  45.125  1.00  0.00    -0.507 OA
ATOM     26  H   UNL     1      18.794  19.580  44.629  1.00  0.00     0.293 HD
ENDBRANCH   5  25
BRANCH   7  27
ATOM     27  O   UNL     1      23.122  22.591  44.374  1.00  0.00    -0.507 OA
ATOM     28  H   UNL     1      23.644  21.758  44.607  1.00  0.00     0.293 HD
ENDBRANCH   7  27
TORSDOF 7
ENDMDL
MODEL 2
REMARK VINA RESULT:    -5.050      1.263      2.786
REMARK INTER + INTRA:          -6.247
REMARK INTER:                  -6.547
REMARK INTRA:                   0.300
REMARK UNBOUND:                -0.017
REMARK SMILES Oc1cc(O)c2cc(O)c(-c3cc(O)c(O)c(O)c3)[o+]c2c1
REMARK SMILES IDX 10 1 20 2 21 3 22 4 2 5 3 6 4 7 6 8 7 9 8 10 11 11 12 12
REMARK SMILES IDX 13 13 19 14 15 15 17 16 14 17 16 19 18 21 9 23 1 25 5 27
REMARK H PARENT 14 18 16 20 18 22 9 24 1 26 5 28
REMARK Flexibility Score: inf
ROOT
ATOM      1  C   UNL     1      19.549  25.689  42.366  1.00  0.00     0.402 A 
ATOM      2  O   UNL     1      20.719  26.079  42.860  1.00  0.00    -0.202 OA
ATOM      3  C   UNL     1      21.556  25.260  43.489  1.00  0.00     0.368 A 
ATOM      4  C   UNL     1      22.764  25.765  43.979  1.00  0.00     0.162 A 
ATOM      5  C   UNL     1      23.660  24.929  44.645  1.00  0.00     0.128 A 
ATOM      6  C   UNL     1      23.348  23.577  44.826  1.00  0.00     0.093 A 
ATOM      7  C   UNL     1      22.145  23.046  44.346  1.00  0.00     0.136 A 
ATOM      8  C   UNL     1      21.232  23.894  43.665  1.00  0.00     0.125 A 
ATOM      9  C   UNL     1      20.009  23.446  43.138  1.00  0.00     0.078 A 
ATOM     10  C   UNL     1      19.163  24.340  42.475  1.00  0.00     0.223 A 
ENDROOT
BRANCH   1  11
ATOM     11  C   UNL     1      18.700  26.699  41.694  1.00  0.00     0.091 A 
ATOM     12  C   UNL     1      18.855  28.055  42.016  1.00  0.00     0.068 A 
ATOM     13  C   UNL     1      18.053  29.029  41.413  1.00  0.00     0.162 A 
ATOM     14  C   UNL     1      17.700  26.324  40.781  1.00  0.00     0.068 A 
ATOM     15  C   UNL     1      17.068  28.652  40.485  1.00  0.00     0.200 A 
ATOM     16  C   UNL     1      16.890  27.293  40.173  1.00  0.00     0.162 A 
BRANCH  13  17
ATOM     17  O   UNL     1      18.249  30.369  41.750  1.00  0.00    -0.504 OA
ATOM     18  H   UNL     1      18.126  31.117  41.079  1.00  0.00     0.293 HD
ENDBRANCH  13  17
BRANCH  15  19
ATOM     19  O   UNL     1      16.274  29.630  39.885  1.00  0.00    -0.502 OA
ATOM     20  H   UNL     1      16.499  30.616  39.940  1.00  0.00     0.293 HD
ENDBRANCH  15  19
BRANCH  16  21
ATOM     21  O   UNL     1      15.904  26.910  39.263  1.00  0.00    -0.504 OA
ATOM     22  H   UNL     1      16.130  26.391  38.423  1.00  0.00     0.293 HD
ENDBRANCH  16  21
ENDBRANCH   1  11
BRANCH  10  23
ATOM     23  O   UNL     1      17.971  23.886  41.909  1.00  0.00    -0.500 OA
ATOM     24  H   UNL     1      17.315  23.319  42.433  1.00  0.00     0.294 HD
ENDBRANCH  10  23
BRANCH   5  25
ATOM     25  O   UNL     1      24.859  25.452  45.125  1.00  0.00    -0.507 OA
ATOM     26  H   UNL     1      25.668  24.863  45.283  1.00  0.00     0.293 HD
ENDBRANCH   5  25
BRANCH   7  27
ATOM     27  O   UNL     1      21.906  21.687  44.570  1.00  0.00    -0.507 OA
ATOM     28  H   UNL     1      21.175  21.328  45.168  1.00  0.00     0.293 HD
ENDBRANCH   7  27
TORSDOF 7
ENDMDL
MODEL 3
REMARK VINA RESULT:    -5.010      1.748      7.133
REMARK INTER + INTRA:          -6.198
REMARK INTER:                  -6.187
REMARK INTRA:                  -0.011
REMARK UNBOUND:                -0.017
REMARK SMILES Oc1cc(O)c2cc(O)c(-c3cc(O)c(O)c(O)c3)[o+]c2c1
REMARK SMILES IDX 10 1 20 2 21 3 22 4 2 5 3 6 4 7 6 8 7 9 8 10 11 11 12 12
REMARK SMILES IDX 13 13 19 14 15 15 17 16 14 17 16 19 18 21 9 23 1 25 5 27
REMARK H PARENT 14 18 16 20 18 22 9 24 1 26 5 28
REMARK Flexibility Score: inf
ROOT
ATOM      1  C   UNL     1      19.430  26.599  41.565  1.00  0.00     0.402 A 
ATOM      2  O   UNL     1      18.105  26.603  41.459  1.00  0.00    -0.202 OA
ATOM      3  C   UNL     1      17.438  27.442  40.673  1.00  0.00     0.368 A 
ATOM      4  C   UNL     1      16.043  27.372  40.632  1.00  0.00     0.162 A 
ATOM      5  C   UNL     1      15.316  28.241  39.817  1.00  0.00     0.128 A 
ATOM      6  C   UNL     1      15.988  29.189  39.037  1.00  0.00     0.093 A 
ATOM      7  C   UNL     1      17.384  29.279  39.059  1.00  0.00     0.136 A 
ATOM      8  C   UNL     1      18.127  28.396  39.886  1.00  0.00     0.125 A 
ATOM      9  C   UNL     1      19.529  28.405  39.961  1.00  0.00     0.078 A 
ATOM     10  C   UNL     1      20.192  27.499  40.795  1.00  0.00     0.223 A 
ENDROOT
BRANCH   1  11
ATOM     11  C   UNL     1      20.057  25.623  42.484  1.00  0.00     0.091 A 
ATOM     12  C   UNL     1      19.558  24.313  42.545  1.00  0.00     0.068 A 
ATOM     13  C   UNL     1      20.116  23.375  43.418  1.00  0.00     0.162 A 
ATOM     14  C   UNL     1      21.107  25.993  43.341  1.00  0.00     0.068 A 
ATOM     15  C   UNL     1      21.180  23.744  44.258  1.00  0.00     0.200 A 
ATOM     16  C   UNL     1      21.673  25.060  44.220  1.00  0.00     0.162 A 
BRANCH  13  17
ATOM     17  O   UNL     1      19.600  22.079  43.438  1.00  0.00    -0.504 OA
ATOM     18  H   UNL     1      19.761  21.423  42.684  1.00  0.00     0.293 HD
ENDBRANCH  13  17
BRANCH  15  19
ATOM     19  O   UNL     1      21.734  22.801  45.125  1.00  0.00    -0.502 OA
ATOM     20  H   UNL     1      22.326  23.066  45.903  1.00  0.00     0.293 HD
ENDBRANCH  15  19
BRANCH  16  21
ATOM     21  O   UNL     1      22.719  25.437  45.062  1.00  0.00    -0.504 OA
ATOM     22  H   UNL     1      23.688  25.343  44.780  1.00  0.00     0.293 HD
ENDBRANCH  16  21
ENDBRANCH   1  11
BRANCH  10  23
ATOM     23  O   UNL     1      21.586  27.475  40.834  1.00  0.00    -0.500 OA
ATOM     24  H   UNL     1      22.142  27.445  39.988  1.00  0.00     0.294 HD
ENDBRANCH  10  23
BRANCH   5  25
ATOM     25  O   UNL     1      13.926  28.155  39.790  1.00  0.00    -0.507 OA
ATOM     26  H   UNL     1      13.389  28.495  39.001  1.00  0.00     0.293 HD
ENDBRANCH   5  25
BRANCH   7  27
ATOM     27  O   UNL     1      17.979  30.255  38.254  1.00  0.00    -0.507 OA
ATOM     28  H   UNL     1      17.472  30.872  37.636  1.00  0.00     0.293 HD
ENDBRANCH   7  27
TORSDOF 7
ENDMDL
MODEL 4
REMARK VINA RESULT:    -4.969      1.899      2.469
REMARK INTER + INTRA:          -6.148
REMARK INTER:                  -5.819
REMARK INTRA:                  -0.329
REMARK UNBOUND:                -0.017
REMARK SMILES Oc1cc(O)c2cc(O)c(-c3cc(O)c(O)c(O)c3)[o+]c2c1
REMARK SMILES IDX 10 1 20 2 21 3 22 4 2 5 3 6 4 7 6 8 7 9 8 10 11 11 12 12
REMARK SMILES IDX 13 13 19 14 15 15 17 16 14 17 16 19 18 21 9 23 1 25 5 27
REMARK H PARENT 14 18 16 20 18 22 9 24 1 26 5 28
REMARK Flexibility Score: inf
ROOT
ATOM      1  C   UNL     1      20.144  25.851  42.322  1.00  0.00     0.402 A 
ATOM      2  O   UNL     1      19.146  24.998  42.111  1.00  0.00    -0.202 OA
ATOM      3  C   UNL     1      19.090  23.790  42.663  1.00  0.00     0.368 A 
ATOM      4  C   UNL     1      18.001  22.962  42.378  1.00  0.00     0.162 A 
ATOM      5  C   UNL     1      17.916  21.688  42.941  1.00  0.00     0.128 A 
ATOM      6  C   UNL     1      18.928  21.236  43.795  1.00  0.00     0.093 A 
ATOM      7  C   UNL     1      20.030  22.045  44.097  1.00  0.00     0.136 A 
ATOM      8  C   UNL     1      20.118  23.342  43.527  1.00  0.00     0.125 A 
ATOM      9  C   UNL     1      21.178  24.227  43.784  1.00  0.00     0.078 A 
ATOM     10  C   UNL     1      21.193  25.493  43.189  1.00  0.00     0.223 A 
ENDROOT
BRANCH   1  11
ATOM     11  C   UNL     1      20.098  27.165  41.641  1.00  0.00     0.091 A 
ATOM     12  C   UNL     1      19.152  28.119  42.045  1.00  0.00     0.068 A 
ATOM     13  C   UNL     1      19.072  29.360  41.407  1.00  0.00     0.162 A 
ATOM     14  C   UNL     1      20.945  27.458  40.559  1.00  0.00     0.068 A 
ATOM     15  C   UNL     1      19.935  29.658  40.339  1.00  0.00     0.200 A 
ATOM     16  C   UNL     1      20.871  28.700  39.912  1.00  0.00     0.162 A 
BRANCH  13  17
ATOM     17  O   UNL     1      18.127  30.287  41.848  1.00  0.00    -0.504 OA
ATOM     18  H   UNL     1      17.568  30.834  41.206  1.00  0.00     0.293 HD
ENDBRANCH  13  17
BRANCH  15  19
ATOM     19  O   UNL     1      19.850  30.900  39.709  1.00  0.00    -0.502 OA
ATOM     20  H   UNL     1      20.259  31.073  38.798  1.00  0.00     0.293 HD
ENDBRANCH  15  19
BRANCH  16  21
ATOM     21  O   UNL     1      21.720  28.983  38.843  1.00  0.00    -0.504 OA
ATOM     22  H   UNL     1      21.893  28.306  38.109  1.00  0.00     0.293 HD
ENDBRANCH  16  21
ENDBRANCH   1  11
BRANCH  10  23
ATOM     23  O   UNL     1      22.220  26.391  43.482  1.00  0.00    -0.500 OA
ATOM     24  H   UNL     1      23.053  26.103  43.982  1.00  0.00     0.294 HD
ENDBRANCH  10  23
BRANCH   5  25
ATOM     25  O   UNL     1      16.822  20.878  42.645  1.00  0.00    -0.507 OA
ATOM     26  H   UNL     1      16.268  21.020  41.807  1.00  0.00     0.293 HD
ENDBRANCH   5  25
BRANCH   7  27
ATOM     27  O   UNL     1      21.000  21.519  44.955  1.00  0.00    -0.507 OA
ATOM     28  H   UNL     1      21.503  20.660  44.787  1.00  0.00     0.293 HD
ENDBRANCH   7  27
TORSDOF 7
ENDMDL
MODEL 5
REMARK VINA RESULT:    -4.962      1.825      6.918
REMARK INTER + INTRA:          -6.140
REMARK INTER:                  -6.022
REMARK INTRA:                  -0.118
REMARK UNBOUND:                -0.017
REMARK SMILES Oc1cc(O)c2cc(O)c(-c3cc(O)c(O)c(O)c3)[o+]c2c1
REMARK SMILES IDX 10 1 20 2 21 3 22 4 2 5 3 6 4 7 6 8 7 9 8 10 11 11 12 12
REMARK SMILES IDX 13 13 19 14 15 15 17 16 14 17 16 19 18 21 9 23 1 25 5 27
REMARK H PARENT 14 18 16 20 18 22 9 24 1 26 5 28
REMARK Flexibility Score: inf
ROOT
ATOM      1  C   UNL     1      19.620  26.523  41.509  1.00  0.00     0.402 A 
ATOM      2  O   UNL     1      18.292  26.577  41.470  1.00  0.00    -0.202 OA
ATOM      3  C   UNL     1      17.619  27.436  40.712  1.00  0.00     0.368 A 
ATOM      4  C   UNL     1      16.221  27.420  40.742  1.00  0.00     0.162 A 
ATOM      5  C   UNL     1      15.488  28.312  39.960  1.00  0.00     0.128 A 
ATOM      6  C   UNL     1      16.155  29.230  39.140  1.00  0.00     0.093 A 
ATOM      7  C   UNL     1      17.553  29.267  39.092  1.00  0.00     0.136 A 
ATOM      8  C   UNL     1      18.303  28.360  39.885  1.00  0.00     0.125 A 
ATOM      9  C   UNL     1      19.706  28.316  39.890  1.00  0.00     0.078 A 
ATOM     10  C   UNL     1      20.375  27.389  40.696  1.00  0.00     0.223 A 
ENDROOT
BRANCH   1  11
ATOM     11  C   UNL     1      20.255  25.527  42.401  1.00  0.00     0.091 A 
ATOM     12  C   UNL     1      21.201  25.951  43.346  1.00  0.00     0.068 A 
ATOM     13  C   UNL     1      21.832  25.031  44.189  1.00  0.00     0.162 A 
ATOM     14  C   UNL     1      19.974  24.155  42.284  1.00  0.00     0.068 A 
ATOM     15  C   UNL     1      21.532  23.662  44.083  1.00  0.00     0.200 A 
ATOM     16  C   UNL     1      20.602  23.225  43.123  1.00  0.00     0.162 A 
BRANCH  13  17
ATOM     17  O   UNL     1      22.756  25.494  45.125  1.00  0.00    -0.504 OA
ATOM     18  H   UNL     1      22.473  25.874  46.020  1.00  0.00     0.293 HD
ENDBRANCH  13  17
BRANCH  15  19
ATOM     19  O   UNL     1      22.164  22.749  44.929  1.00  0.00    -0.502 OA
ATOM     20  H   UNL     1      22.097  21.748  44.790  1.00  0.00     0.293 HD
ENDBRANCH  15  19
BRANCH  16  21
ATOM     21  O   UNL     1      20.311  21.866  43.003  1.00  0.00    -0.504 OA
ATOM     22  H   UNL     1      19.787  21.503  42.216  1.00  0.00     0.293 HD
ENDBRANCH  16  21
ENDBRANCH   1  11
BRANCH  10  23
ATOM     23  O   UNL     1      21.768  27.311  40.665  1.00  0.00    -0.500 OA
ATOM     24  H   UNL     1      22.268  26.543  41.097  1.00  0.00     0.294 HD
ENDBRANCH  10  23
BRANCH   5  25
ATOM     25  O   UNL     1      14.096  28.279  40.003  1.00  0.00    -0.507 OA
ATOM     26  H   UNL     1      13.539  28.299  39.157  1.00  0.00     0.293 HD
ENDBRANCH   5  25
BRANCH   7  27
ATOM     27  O   UNL     1      18.144  30.216  38.251  1.00  0.00    -0.507 OA
ATOM     28  H   UNL     1      18.061  31.215  38.372  1.00  0.00     0.293 HD
ENDBRANCH   7  27
TORSDOF 7
ENDMDL
MODEL 6
REMARK VINA RESULT:    -4.949      2.031      3.366
REMARK INTER + INTRA:          -6.124
REMARK INTER:                  -5.820
REMARK INTRA:                  -0.304
REMARK UNBOUND:                -0.017
REMARK SMILES Oc1cc(O)c2cc(O)c(-c3cc(O)c(O)c(O)c3)[o+]c2c1
REMARK SMILES IDX 10 1 20 2 21 3 22 4 2 5 3 6 4 7 6 8 7 9 8 10 11 11 12 12
REMARK SMILES IDX 13 13 19 14 15 15 17 16 14 17 16 19 18 21 9 23 1 25 5 27
REMARK H PARENT 14 18 16 20 18 22 9 24 1 26 5 28
REMARK Flexibility Score: inf
ROOT
ATOM      1  C   UNL     1      19.932  26.592  41.866  1.00  0.00     0.402 A 
ATOM      2  O   UNL     1      21.140  26.552  42.421  1.00  0.00    -0.202 OA
ATOM      3  C   UNL     1      21.547  25.566  43.213  1.00  0.00     0.368 A 
ATOM      4  C   UNL     1      22.835  25.615  43.753  1.00  0.00     0.162 A 
ATOM      5  C   UNL     1      23.289  24.595  44.590  1.00  0.00     0.128 A 
ATOM      6  C   UNL     1      22.449  23.516  44.891  1.00  0.00     0.093 A 
ATOM      7  C   UNL     1      21.155  23.443  44.363  1.00  0.00     0.136 A 
ATOM      8  C   UNL     1      20.691  24.478  43.510  1.00  0.00     0.125 A 
ATOM      9  C   UNL     1      19.414  24.481  42.924  1.00  0.00     0.078 A 
ATOM     10  C   UNL     1      19.030  25.535  42.089  1.00  0.00     0.223 A 
ENDROOT
BRANCH   1  11
ATOM     11  C   UNL     1      19.592  27.750  41.009  1.00  0.00     0.091 A 
ATOM     12  C   UNL     1      20.264  27.929  39.791  1.00  0.00     0.068 A 
ATOM     13  C   UNL     1      19.979  29.025  38.971  1.00  0.00     0.162 A 
ATOM     14  C   UNL     1      18.649  28.709  41.416  1.00  0.00     0.068 A 
ATOM     15  C   UNL     1      19.020  29.970  39.372  1.00  0.00     0.200 A 
ATOM     16  C   UNL     1      18.357  29.812  40.601  1.00  0.00     0.162 A 
BRANCH  13  17
ATOM     17  O   UNL     1      20.659  29.158  37.760  1.00  0.00    -0.504 OA
ATOM     18  H   UNL     1      21.330  28.472  37.440  1.00  0.00     0.293 HD
ENDBRANCH  13  17
BRANCH  15  19
ATOM     19  O   UNL     1      18.738  31.060  38.546  1.00  0.00    -0.502 OA
ATOM     20  H   UNL     1      19.467  31.654  38.169  1.00  0.00     0.293 HD
ENDBRANCH  15  19
BRANCH  16  21
ATOM     21  O   UNL     1      17.415  30.755  41.013  1.00  0.00    -0.504 OA
ATOM     22  H   UNL     1      16.459  30.731  40.678  1.00  0.00     0.293 HD
ENDBRANCH  16  21
ENDBRANCH   1  11
BRANCH  10  23
ATOM     23  O   UNL     1      17.780  25.515  41.468  1.00  0.00    -0.500 OA
ATOM     24  H   UNL     1      17.091  26.238  41.636  1.00  0.00     0.294 HD
ENDBRANCH  10  23
BRANCH   5  25
ATOM     25  O   UNL     1      24.576  24.662  45.118  1.00  0.00    -0.507 OA
ATOM     26  H   UNL     1      24.755  25.070  46.029  1.00  0.00     0.293 HD
ENDBRANCH   5  25
BRANCH   7  27
ATOM     27  O   UNL     1      20.378  22.336  44.714  1.00  0.00    -0.507 OA
ATOM     28  H   UNL     1      19.640  21.952  44.142  1.00  0.00     0.293 HD
ENDBRANCH   7  27
TORSDOF 7
ENDMDL
MODEL 7
REMARK VINA RESULT:    -4.852      2.491      3.705
REMARK INTER + INTRA:          -6.003
REMARK INTER:                  -5.687
REMARK INTRA:                  -0.316
REMARK UNBOUND:                -0.017
REMARK SMILES Oc1cc(O)c2cc(O)c(-c3cc(O)c(O)c(O)c3)[o+]c2c1
REMARK SMILES IDX 10 1 20 2 21 3 22 4 2 5 3 6 4 7 6 8 7 9 8 10 11 11 12 12
REMARK SMILES IDX 13 13 19 14 15 15 17 16 14 17 16 19 18 21 9 23 1 25 5 27
REMARK H PARENT 14 18 16 20 18 22 9 24 1 26 5 28
REMARK Flexibility Score: inf
ROOT
ATOM      1  C   UNL     1      18.965  25.551  41.768  1.00  0.00     0.402 A 
ATOM      2  O   UNL     1      17.884  25.034  41.190  1.00  0.00    -0.202 OA
ATOM      3  C   UNL     1      17.412  23.825  41.476  1.00  0.00     0.368 A 
ATOM      4  C   UNL     1      16.271  23.366  40.812  1.00  0.00     0.162 A 
ATOM      5  C   UNL     1      15.754  22.100  41.090  1.00  0.00     0.128 A 
ATOM      6  C   UNL     1      16.383  21.284  42.037  1.00  0.00     0.093 A 
ATOM      7  C   UNL     1      17.527  21.720  42.716  1.00  0.00     0.136 A 
ATOM      8  C   UNL     1      18.054  23.008  42.437  1.00  0.00     0.125 A 
ATOM      9  C   UNL     1      19.188  23.533  43.078  1.00  0.00     0.078 A 
ATOM     10  C   UNL     1      19.646  24.814  42.754  1.00  0.00     0.223 A 
ENDROOT
BRANCH   1  11
ATOM     11  C   UNL     1      19.398  26.906  41.357  1.00  0.00     0.091 A 
ATOM     12  C   UNL     1      18.604  28.014  41.687  1.00  0.00     0.068 A 
ATOM     13  C   UNL     1      18.977  29.303  41.295  1.00  0.00     0.162 A 
ATOM     14  C   UNL     1      20.560  27.102  40.593  1.00  0.00     0.068 A 
ATOM     15  C   UNL     1      20.152  29.498  40.549  1.00  0.00     0.200 A 
ATOM     16  C   UNL     1      20.942  28.391  40.194  1.00  0.00     0.162 A 
BRANCH  13  17
ATOM     17  O   UNL     1      18.167  30.381  41.656  1.00  0.00    -0.504 OA
ATOM     18  H   UNL     1      18.487  31.339  41.597  1.00  0.00     0.293 HD
ENDBRANCH  13  17
BRANCH  15  19
ATOM     19  O   UNL     1      20.519  30.788  40.164  1.00  0.00    -0.502 OA
ATOM     20  H   UNL     1      21.486  31.088  40.135  1.00  0.00     0.293 HD
ENDBRANCH  15  19
BRANCH  16  21
ATOM     21  O   UNL     1      22.101  28.575  39.440  1.00  0.00    -0.504 OA
ATOM     22  H   UNL     1      22.176  28.232  38.490  1.00  0.00     0.293 HD
ENDBRANCH  16  21
ENDBRANCH   1  11
BRANCH  10  23
ATOM     23  O   UNL     1      20.743  25.356  43.425  1.00  0.00    -0.500 OA
ATOM     24  H   UNL     1      20.652  25.777  44.342  1.00  0.00     0.294 HD
ENDBRANCH  10  23
BRANCH   5  25
ATOM     25  O   UNL     1      14.615  21.661  40.418  1.00  0.00    -0.507 OA
ATOM     26  H   UNL     1      14.006  20.954  40.814  1.00  0.00     0.293 HD
ENDBRANCH   5  25
BRANCH   7  27
ATOM     27  O   UNL     1      18.098  20.844  43.644  1.00  0.00    -0.507 OA
ATOM     28  H   UNL     1      18.581  19.991  43.401  1.00  0.00     0.293 HD
ENDBRANCH   7  27
TORSDOF 7
ENDMDL
MODEL 8
REMARK VINA RESULT:    -4.850      1.770      6.956
REMARK INTER + INTRA:          -6.001
REMARK INTER:                  -5.625
REMARK INTRA:                  -0.375
REMARK UNBOUND:                -0.017
REMARK SMILES Oc1cc(O)c2cc(O)c(-c3cc(O)c(O)c(O)c3)[o+]c2c1
REMARK SMILES IDX 10 1 20 2 21 3 22 4 2 5 3 6 4 7 6 8 7 9 8 10 11 11 12 12
REMARK SMILES IDX 13 13 19 14 15 15 17 16 14 17 16 19 18 21 9 23 1 25 5 27
REMARK H PARENT 14 18 16 20 18 22 9 24 1 26 5 28
REMARK Flexibility Score: inf
ROOT
ATOM      1  C   UNL     1      19.216  25.954  41.635  1.00  0.00     0.402 A 
ATOM      2  O   UNL     1      18.025  26.272  41.137  1.00  0.00    -0.202 OA
ATOM      3  C   UNL     1      17.698  27.503  40.756  1.00  0.00     0.368 A 
ATOM      4  C   UNL     1      16.418  27.740  40.247  1.00  0.00     0.162 A 
ATOM      5  C   UNL     1      16.047  29.022  39.842  1.00  0.00     0.128 A 
ATOM      6  C   UNL     1      16.961  30.078  39.945  1.00  0.00     0.093 A 
ATOM      7  C   UNL     1      18.249  29.866  40.451  1.00  0.00     0.136 A 
ATOM      8  C   UNL     1      18.631  28.563  40.863  1.00  0.00     0.125 A 
ATOM      9  C   UNL     1      19.904  28.255  41.369  1.00  0.00     0.078 A 
ATOM     10  C   UNL     1      20.209  26.945  41.750  1.00  0.00     0.223 A 
ENDROOT
BRANCH   1  11
ATOM     11  C   UNL     1      19.456  24.549  42.034  1.00  0.00     0.091 A 
ATOM     12  C   UNL     1      19.288  24.173  43.375  1.00  0.00     0.068 A 
ATOM     13  C   UNL     1      19.527  22.858  43.785  1.00  0.00     0.162 A 
ATOM     14  C   UNL     1      19.905  23.592  41.108  1.00  0.00     0.068 A 
ATOM     15  C   UNL     1      19.956  21.899  42.851  1.00  0.00     0.200 A 
ATOM     16  C   UNL     1      20.149  22.271  41.510  1.00  0.00     0.162 A 
BRANCH  13  17
ATOM     17  O   UNL     1      19.335  22.522  45.125  1.00  0.00    -0.504 OA
ATOM     18  H   UNL     1      18.454  22.160  45.469  1.00  0.00     0.293 HD
ENDBRANCH  13  17
BRANCH  15  19
ATOM     19  O   UNL     1      20.190  20.588  43.267  1.00  0.00    -0.502 OA
ATOM     20  H   UNL     1      19.935  19.788  42.700  1.00  0.00     0.293 HD
ENDBRANCH  15  19
BRANCH  16  21
ATOM     21  O   UNL     1      20.589  21.328  40.581  1.00  0.00    -0.504 OA
ATOM     22  H   UNL     1      20.015  20.535  40.317  1.00  0.00     0.293 HD
ENDBRANCH  16  21
ENDBRANCH   1  11
BRANCH  10  23
ATOM     23  O   UNL     1      21.489  26.629  42.207  1.00  0.00    -0.500 OA
ATOM     24  H   UNL     1      21.695  25.734  42.637  1.00  0.00     0.294 HD
ENDBRANCH  10  23
BRANCH   5  25
ATOM     25  O   UNL     1      14.767  29.238  39.337  1.00  0.00    -0.507 OA
ATOM     26  H   UNL     1      13.943  29.142  39.920  1.00  0.00     0.293 HD
ENDBRANCH   5  25
BRANCH   7  27
ATOM     27  O   UNL     1      19.100  30.972  40.525  1.00  0.00    -0.507 OA
ATOM     28  H   UNL     1      19.604  31.358  39.740  1.00  0.00     0.293 HD
ENDBRANCH   7  27
TORSDOF 7
ENDMDL
MODEL 9
REMARK VINA RESULT:    -3.483      1.781      3.120
REMARK INTER + INTRA:          -4.314
REMARK INTER:                  -3.943
REMARK INTRA:                  -0.371
REMARK UNBOUND:                -0.017
REMARK SMILES Oc1cc(O)c2cc(O)c(-c3cc(O)c(O)c(O)c3)[o+]c2c1
REMARK SMILES IDX 10 1 20 2 21 3 22 4 2 5 3 6 4 7 6 8 7 9 8 10 11 11 12 12
REMARK SMILES IDX 13 13 19 14 15 15 17 16 14 17 16 19 18 21 9 23 1 25 5 27
REMARK H PARENT 14 18 16 20 18 22 9 24 1 26 5 28
REMARK Flexibility Score: inf
ROOT
ATOM      1  C   UNL     1      18.459  26.490  41.071  1.00  0.00     0.402 A 
ATOM      2  O   UNL     1      18.451  25.433  41.878  1.00  0.00    -0.202 OA
ATOM      3  C   UNL     1      19.468  25.113  42.672  1.00  0.00     0.368 A 
ATOM      4  C   UNL     1      19.367  23.979  43.483  1.00  0.00     0.162 A 
ATOM      5  C   UNL     1      20.420  23.618  44.324  1.00  0.00     0.128 A 
ATOM      6  C   UNL     1      21.584  24.394  44.356  1.00  0.00     0.093 A 
ATOM      7  C   UNL     1      21.710  25.534  43.554  1.00  0.00     0.136 A 
ATOM      8  C   UNL     1      20.640  25.906  42.698  1.00  0.00     0.125 A 
ATOM      9  C   UNL     1      20.673  27.040  41.870  1.00  0.00     0.078 A 
ATOM     10  C   UNL     1      19.577  27.345  41.057  1.00  0.00     0.223 A 
ENDROOT
BRANCH   1  11
ATOM     11  C   UNL     1      17.269  26.736  40.226  1.00  0.00     0.091 A 
ATOM     12  C   UNL     1      17.183  26.134  38.962  1.00  0.00     0.068 A 
ATOM     13  C   UNL     1      16.080  26.365  38.134  1.00  0.00     0.162 A 
ATOM     14  C   UNL     1      16.246  27.607  40.639  1.00  0.00     0.068 A 
ATOM     15  C   UNL     1      15.049  27.220  38.560  1.00  0.00     0.200 A 
ATOM     16  C   UNL     1      15.137  27.845  39.815  1.00  0.00     0.162 A 
BRANCH  13  17
ATOM     17  O   UNL     1      16.026  25.736  36.890  1.00  0.00    -0.504 OA
ATOM     18  H   UNL     1      15.151  25.452  36.467  1.00  0.00     0.293 HD
ENDBRANCH  13  17
BRANCH  15  19
ATOM     19  O   UNL     1      13.950  27.442  37.729  1.00  0.00    -0.502 OA
ATOM     20  H   UNL     1      13.802  28.325  37.255  1.00  0.00     0.293 HD
ENDBRANCH  15  19
BRANCH  16  21
ATOM     21  O   UNL     1      14.125  28.706  40.238  1.00  0.00    -0.504 OA
ATOM     22  H   UNL     1      13.164  28.396  40.322  1.00  0.00     0.293 HD
ENDBRANCH  16  21
ENDBRANCH   1  11
BRANCH  10  23
ATOM     23  O   UNL     1      19.589  28.498  40.270  1.00  0.00    -0.500 OA
ATOM     24  H   UNL     1      19.490  28.455  39.263  1.00  0.00     0.294 HD
ENDBRANCH  10  23
BRANCH   5  25
ATOM     25  O   UNL     1      20.299  22.484  45.125  1.00  0.00    -0.507 OA
ATOM     26  H   UNL     1      21.023  21.775  45.152  1.00  0.00     0.293 HD
ENDBRANCH   5  25
BRANCH   7  27
ATOM     27  O   UNL     1      22.905  26.253  43.641  1.00  0.00    -0.507 OA
ATOM     28  H   UNL     1      22.984  27.185  44.024  1.00  0.00     0.293 HD
ENDBRANCH   7  27
TORSDOF 7
ENDMDL
