MODEL 1
REMARK VINA RESULT:     0.597      0.000      0.000
REMARK INTER + INTRA:           0.219
REMARK INTER:                   1.085
REMARK INTRA:                  -0.866
REMARK UNBOUND:                -0.866
REMARK SMILES CCCCCCCCCCCCCCCC(=O)[O-]
REMARK SMILES IDX 9 1 10 2 11 3 12 4 13 5 14 6 15 7 16 8 17 9 18 10 8 11 7 12
REMARK SMILES IDX 6 13 5 14 4 15 3 16 2 17 1 18
REMARK H PARENT
REMARK Flexibility Score: inf
ROOT
ATOM      1  C   UNL     1      66.890  54.687  10.553  1.00  0.00     0.000 C 
ENDROOT
BRANCH   1   2
ATOM      2  C   UNL     1      65.941  53.614  11.114  1.00  0.00     0.000 C 
BRANCH   2   3
ATOM      3  C   UNL     1      65.873  52.363  10.224  1.00  0.00     0.000 C 
BRANCH   3   4
ATOM      4  C   UNL     1      66.016  51.059  11.027  1.00  0.00     0.000 C 
BRANCH   4   5
ATOM      5  C   UNL     1      65.578  49.821  10.228  1.00  0.00     0.000 C 
BRANCH   5   6
ATOM      6  C   UNL     1      64.999  48.712  11.120  1.00  0.00     0.006 C 
BRANCH   6   7
ATOM      7  C   UNL     1      63.962  47.882  10.358  1.00  0.00     0.053 C 
BRANCH   7   8
ATOM      8  C   UNL     1      62.744  48.700  10.069  1.00  0.00     0.041 C 
ATOM      9  O   UNL     1      62.122  49.263  11.007  1.00  0.00    -0.550 OA
ATOM     10  O   UNL     1      62.266  48.799   8.769  1.00  0.00    -0.550 OA
ENDBRANCH   7   8
ENDBRANCH   6   7
ENDBRANCH   5   6
ENDBRANCH   4   5
ENDBRANCH   3   4
ENDBRANCH   2   3
ENDBRANCH   1   2
BRANCH   1  11
ATOM     11  C   UNL     1      66.143  55.826   9.841  1.00  0.00     0.000 C 
BRANCH  11  12
ATOM     12  C   UNL     1      66.522  55.951   8.358  1.00  0.00    -0.000 C 
BRANCH  12  13
ATOM     13  C   UNL     1      65.812  57.149   7.710  1.00  0.00    -0.000 C 
BRANCH  13  14
ATOM     14  C   UNL     1      65.142  58.078   8.738  1.00  0.00    -0.000 C 
BRANCH  14  15
ATOM     15  C   UNL     1      63.648  57.804   8.986  1.00  0.00    -0.000 C 
BRANCH  15  16
ATOM     16  C   UNL     1      63.212  58.112  10.426  1.00  0.00    -0.000 C 
BRANCH  16  17
ATOM     17  C   UNL     1      62.690  56.850  11.123  1.00  0.00    -0.003 C 
ATOM     18  C   UNL     1      62.168  55.835  10.110  1.00  0.00     0.004 C 
ENDBRANCH  16  17
ENDBRANCH  15  16
ENDBRANCH  14  15
ENDBRANCH  13  14
ENDBRANCH  12  13
ENDBRANCH  11  12
ENDBRANCH   1  11
TORSDOF 14
ENDMDL
