MODEL 1
REMARK VINA RESULT:    -6.475      0.000      0.000
REMARK INTER + INTRA:          -8.134
REMARK INTER:                  -7.800
REMARK INTRA:                  -0.334
REMARK UNBOUND:                -0.334
REMARK SMILES O=c1c(O)c(-c2ccc(O)c(O)c2)oc2cc(O)cc(O)c12
REMARK SMILES IDX 5 1 3 2 2 3 1 4 22 5 20 6 19 7 17 8 16 9 15 10 14 11 6 12
REMARK SMILES IDX 7 13 8 14 9 15 13 16 11 17 10 18 12 20 4 22 21 24 18 26
REMARK H PARENT 10 19 12 21 4 23 21 25 18 27
REMARK Flexibility Score: inf
ROOT
ATOM      1  C   UNL     1      15.591 -19.008  19.425  1.00  0.00     0.180 A 
ATOM      2  C   UNL     1      14.675 -18.775  20.466  1.00  0.00     0.208 A 
ATOM      3  C   UNL     1      13.353 -19.229  20.324  1.00  0.00     0.238 A 
ATOM      4  O   UNL     1      12.552 -19.066  21.282  1.00  0.00    -0.285 OA
ATOM      5  C   UNL     1      12.961 -19.895  19.138  1.00  0.00     0.111 A 
ATOM      6  C   UNL     1      11.638 -20.362  18.871  1.00  0.00     0.134 A 
ATOM      7  C   UNL     1      11.393 -21.123  17.721  1.00  0.00     0.093 A 
ATOM      8  C   UNL     1      12.406 -21.377  16.797  1.00  0.00     0.123 A 
ATOM      9  C   UNL     1      13.690 -20.876  17.019  1.00  0.00     0.094 A 
ATOM     10  C   UNL     1      13.972 -20.144  18.175  1.00  0.00     0.146 A 
ATOM     11  O   UNL     1      15.208 -19.694  18.354  1.00  0.00    -0.452 OA
ENDROOT
BRANCH   1  12
ATOM     12  C   UNL     1      16.993 -18.538  19.491  1.00  0.00     0.025 A 
ATOM     13  C   UNL     1      17.357 -17.258  19.046  1.00  0.00     0.016 A 
ATOM     14  C   UNL     1      18.690 -16.846  19.095  1.00  0.00     0.051 A 
ATOM     15  C   UNL     1      19.685 -17.703  19.575  1.00  0.00     0.157 A 
ATOM     16  C   UNL     1      17.994 -19.409  19.952  1.00  0.00     0.062 A 
ATOM     17  C   UNL     1      19.333 -19.004  20.005  1.00  0.00     0.158 A 
BRANCH  15  18
ATOM     18  O   UNL     1      20.998 -17.228  19.603  1.00  0.00    -0.504 OA
ATOM     19  H   UNL     1      21.642 -17.303  18.828  1.00  0.00     0.293 HD
ENDBRANCH  15  18
BRANCH  17  20
ATOM     20  O   UNL     1      20.271 -19.919  20.488  1.00  0.00    -0.504 OA
ATOM     21  H   UNL     1      20.807 -19.786  21.334  1.00  0.00     0.293 HD
ENDBRANCH  17  20
ENDBRANCH   1  12
BRANCH   2  22
ATOM     22  O   UNL     1      15.089 -18.136  21.637  1.00  0.00    -0.502 OA
ATOM     23  H   UNL     1      15.826 -17.439  21.645  1.00  0.00     0.293 HD
ENDBRANCH   2  22
BRANCH   6  24
ATOM     24  O   UNL     1      10.533 -20.085  19.682  1.00  0.00    -0.507 OA
ATOM     25  H   UNL     1       9.889 -19.323  19.533  1.00  0.00     0.293 HD
ENDBRANCH   6  24
BRANCH   8  26
ATOM     26  O   UNL     1      12.124 -22.125  15.656  1.00  0.00    -0.508 OA
ATOM     27  H   UNL     1      12.797 -22.223  14.906  1.00  0.00     0.293 HD
ENDBRANCH   8  26
TORSDOF 6
ENDMDL
MODEL 2
REMARK VINA RESULT:    -6.377      2.463      4.268
REMARK INTER + INTRA:          -8.016
REMARK INTER:                  -7.964
REMARK INTRA:                  -0.052
REMARK UNBOUND:                -0.334
REMARK SMILES O=c1c(O)c(-c2ccc(O)c(O)c2)oc2cc(O)cc(O)c12
REMARK SMILES IDX 5 1 3 2 2 3 1 4 22 5 20 6 19 7 17 8 16 9 15 10 14 11 6 12
REMARK SMILES IDX 7 13 8 14 9 15 13 16 11 17 10 18 12 20 4 22 21 24 18 26
REMARK H PARENT 10 19 12 21 4 23 21 25 18 27
REMARK Flexibility Score: inf
ROOT
ATOM      1  C   UNL     1      12.618 -21.027  17.673  1.00  0.00     0.180 A 
ATOM      2  C   UNL     1      11.639 -21.255  18.656  1.00  0.00     0.208 A 
ATOM      3  C   UNL     1      10.333 -21.579  18.254  1.00  0.00     0.238 A 
ATOM      4  O   UNL     1       9.474 -21.836  19.139  1.00  0.00    -0.285 OA
ATOM      5  C   UNL     1      10.018 -21.653  16.876  1.00  0.00     0.111 A 
ATOM      6  C   UNL     1       8.718 -21.933  16.356  1.00  0.00     0.134 A 
ATOM      7  C   UNL     1       8.549 -22.111  14.976  1.00  0.00     0.093 A 
ATOM      8  C   UNL     1       9.618 -21.955  14.094  1.00  0.00     0.123 A 
ATOM      9  C   UNL     1      10.881 -21.624  14.587  1.00  0.00     0.094 A 
ATOM     10  C   UNL     1      11.087 -21.475  15.961  1.00  0.00     0.146 A 
ATOM     11  O   UNL     1      12.306 -21.170  16.390  1.00  0.00    -0.452 OA
ENDROOT
BRANCH   1  12
ATOM     12  C   UNL     1      14.010 -20.658  18.018  1.00  0.00     0.025 A 
ATOM     13  C   UNL     1      14.789 -21.458  18.867  1.00  0.00     0.016 A 
ATOM     14  C   UNL     1      16.091 -21.077  19.197  1.00  0.00     0.051 A 
ATOM     15  C   UNL     1      16.635 -19.889  18.699  1.00  0.00     0.157 A 
ATOM     16  C   UNL     1      14.546 -19.454  17.534  1.00  0.00     0.062 A 
ATOM     17  C   UNL     1      15.851 -19.064  17.859  1.00  0.00     0.158 A 
BRANCH  15  18
ATOM     18  O   UNL     1      17.945 -19.568  19.064  1.00  0.00    -0.504 OA
ATOM     19  H   UNL     1      18.764 -19.989  18.651  1.00  0.00     0.293 HD
ENDBRANCH  15  18
BRANCH  17  20
ATOM     20  O   UNL     1      16.321 -17.860  17.332  1.00  0.00    -0.504 OA
ATOM     21  H   UNL     1      16.865 -17.188  17.855  1.00  0.00     0.293 HD
ENDBRANCH  17  20
ENDBRANCH   1  12
BRANCH   2  22
ATOM     22  O   UNL     1      11.977 -21.198  20.010  1.00  0.00    -0.502 OA
ATOM     23  H   UNL     1      11.701 -21.916  20.671  1.00  0.00     0.293 HD
ENDBRANCH   2  22
BRANCH   6  24
ATOM     24  O   UNL     1       7.564 -22.018  17.141  1.00  0.00    -0.507 OA
ATOM     25  H   UNL     1       7.264 -22.846  17.632  1.00  0.00     0.293 HD
ENDBRANCH   6  24
BRANCH   8  26
ATOM     26  O   UNL     1       9.411 -22.125  12.728  1.00  0.00    -0.508 OA
ATOM     27  H   UNL     1       9.692 -21.419  12.057  1.00  0.00     0.293 HD
ENDBRANCH   8  26
TORSDOF 6
ENDMDL
MODEL 3
REMARK VINA RESULT:    -6.073      1.603      2.814
REMARK INTER + INTRA:          -7.650
REMARK INTER:                  -7.328
REMARK INTRA:                  -0.322
REMARK UNBOUND:                -0.334
REMARK SMILES O=c1c(O)c(-c2ccc(O)c(O)c2)oc2cc(O)cc(O)c12
REMARK SMILES IDX 5 1 3 2 2 3 1 4 22 5 20 6 19 7 17 8 16 9 15 10 14 11 6 12
REMARK SMILES IDX 7 13 8 14 9 15 13 16 11 17 10 18 12 20 4 22 21 24 18 26
REMARK H PARENT 10 19 12 21 4 23 21 25 18 27
REMARK Flexibility Score: inf
ROOT
ATOM      1  C   UNL     1      16.153 -19.208  19.498  1.00  0.00     0.180 A 
ATOM      2  C   UNL     1      15.713 -19.214  18.163  1.00  0.00     0.208 A 
ATOM      3  C   UNL     1      14.505 -19.859  17.849  1.00  0.00     0.238 A 
ATOM      4  O   UNL     1      14.089 -19.814  16.661  1.00  0.00    -0.285 OA
ATOM      5  C   UNL     1      13.763 -20.501  18.868  1.00  0.00     0.111 A 
ATOM      6  C   UNL     1      12.547 -21.218  18.655  1.00  0.00     0.134 A 
ATOM      7  C   UNL     1      11.829 -21.703  19.756  1.00  0.00     0.093 A 
ATOM      8  C   UNL     1      12.315 -21.554  21.055  1.00  0.00     0.123 A 
ATOM      9  C   UNL     1      13.532 -20.906  21.270  1.00  0.00     0.094 A 
ATOM     10  C   UNL     1      14.253 -20.381  20.194  1.00  0.00     0.146 A 
ATOM     11  O   UNL     1      15.401 -19.762  20.442  1.00  0.00    -0.452 OA
ENDROOT
BRANCH   1  12
ATOM     12  C   UNL     1      17.427 -18.571  19.904  1.00  0.00     0.025 A 
ATOM     13  C   UNL     1      17.478 -17.226  20.302  1.00  0.00     0.016 A 
ATOM     14  C   UNL     1      18.695 -16.641  20.657  1.00  0.00     0.051 A 
ATOM     15  C   UNL     1      19.882 -17.378  20.611  1.00  0.00     0.157 A 
ATOM     16  C   UNL     1      18.621 -19.307  19.835  1.00  0.00     0.062 A 
ATOM     17  C   UNL     1      19.846 -18.729  20.191  1.00  0.00     0.158 A 
BRANCH  15  18
ATOM     18  O   UNL     1      21.065 -16.735  20.984  1.00  0.00    -0.504 OA
ATOM     19  H   UNL     1      21.574 -16.938  21.832  1.00  0.00     0.293 HD
ENDBRANCH  15  18
BRANCH  17  20
ATOM     20  O   UNL     1      20.990 -19.525  20.110  1.00  0.00    -0.504 OA
ATOM     21  H   UNL     1      21.862 -19.309  20.572  1.00  0.00     0.293 HD
ENDBRANCH  17  20
ENDBRANCH   1  12
BRANCH   2  22
ATOM     22  O   UNL     1      16.450 -18.555  17.177  1.00  0.00    -0.502 OA
ATOM     23  H   UNL     1      16.531 -18.908  16.230  1.00  0.00     0.293 HD
ENDBRANCH   2  22
BRANCH   6  24
ATOM     24  O   UNL     1      12.019 -21.504  17.392  1.00  0.00    -0.507 OA
ATOM     25  H   UNL     1      11.052 -21.726  17.212  1.00  0.00     0.293 HD
ENDBRANCH   6  24
BRANCH   8  26
ATOM     26  O   UNL     1      11.582 -22.062  22.125  1.00  0.00    -0.508 OA
ATOM     27  H   UNL     1      11.556 -23.054  22.326  1.00  0.00     0.293 HD
ENDBRANCH   8  26
TORSDOF 6
ENDMDL
MODEL 4
REMARK VINA RESULT:    -6.024      1.645      3.127
REMARK INTER + INTRA:          -7.591
REMARK INTER:                  -7.333
REMARK INTRA:                  -0.258
REMARK UNBOUND:                -0.334
REMARK SMILES O=c1c(O)c(-c2ccc(O)c(O)c2)oc2cc(O)cc(O)c12
REMARK SMILES IDX 5 1 3 2 2 3 1 4 22 5 20 6 19 7 17 8 16 9 15 10 14 11 6 12
REMARK SMILES IDX 7 13 8 14 9 15 13 16 11 17 10 18 12 20 4 22 21 24 18 26
REMARK H PARENT 10 19 12 21 4 23 21 25 18 27
REMARK Flexibility Score: inf
ROOT
ATOM      1  C   UNL     1      16.090 -19.401  19.228  1.00  0.00     0.180 A 
ATOM      2  C   UNL     1      15.582 -19.404  17.917  1.00  0.00     0.208 A 
ATOM      3  C   UNL     1      14.338 -20.009  17.671  1.00  0.00     0.238 A 
ATOM      4  O   UNL     1      13.863 -19.959  16.505  1.00  0.00    -0.285 OA
ATOM      5  C   UNL     1      13.628 -20.617  18.733  1.00  0.00     0.111 A 
ATOM      6  C   UNL     1      12.379 -21.294  18.589  1.00  0.00     0.134 A 
ATOM      7  C   UNL     1      11.703 -21.745  19.730  1.00  0.00     0.093 A 
ATOM      8  C   UNL     1      12.259 -21.603  21.000  1.00  0.00     0.123 A 
ATOM      9  C   UNL     1      13.508 -20.995  21.147  1.00  0.00     0.094 A 
ATOM     10  C   UNL     1      14.189 -20.503  20.030  1.00  0.00     0.146 A 
ATOM     11  O   UNL     1      15.369 -19.922  20.214  1.00  0.00    -0.452 OA
ENDROOT
BRANCH   1  12
ATOM     12  C   UNL     1      17.404 -18.805  19.562  1.00  0.00     0.025 A 
ATOM     13  C   UNL     1      18.517 -19.608  19.857  1.00  0.00     0.016 A 
ATOM     14  C   UNL     1      19.739 -19.023  20.193  1.00  0.00     0.051 A 
ATOM     15  C   UNL     1      19.873 -17.633  20.253  1.00  0.00     0.157 A 
ATOM     16  C   UNL     1      17.530 -17.410  19.643  1.00  0.00     0.062 A 
ATOM     17  C   UNL     1      18.752 -16.814  19.978  1.00  0.00     0.158 A 
BRANCH  15  18
ATOM     18  O   UNL     1      21.124 -17.111  20.591  1.00  0.00    -0.504 OA
ATOM     19  H   UNL     1      21.996 -17.444  20.206  1.00  0.00     0.293 HD
ENDBRANCH  15  18
BRANCH  17  20
ATOM     20  O   UNL     1      18.806 -15.419  20.027  1.00  0.00    -0.504 OA
ATOM     21  H   UNL     1      19.183 -14.843  19.289  1.00  0.00     0.293 HD
ENDBRANCH  17  20
ENDBRANCH   1  12
BRANCH   2  22
ATOM     22  O   UNL     1      16.289 -18.778  16.888  1.00  0.00    -0.502 OA
ATOM     23  H   UNL     1      16.829 -19.297  16.204  1.00  0.00     0.293 HD
ENDBRANCH   2  22
BRANCH   6  24
ATOM     24  O   UNL     1      11.778 -21.571  17.357  1.00  0.00    -0.507 OA
ATOM     25  H   UNL     1      11.552 -22.496  17.025  1.00  0.00     0.293 HD
ENDBRANCH   6  24
BRANCH   8  26
ATOM     26  O   UNL     1      11.566 -22.077  22.112  1.00  0.00    -0.508 OA
ATOM     27  H   UNL     1      11.301 -21.463  22.873  1.00  0.00     0.293 HD
ENDBRANCH   8  26
TORSDOF 6
ENDMDL
MODEL 5
REMARK VINA RESULT:    -5.922      2.387      4.820
REMARK INTER + INTRA:          -7.468
REMARK INTER:                  -7.160
REMARK INTRA:                  -0.308
REMARK UNBOUND:                -0.334
REMARK SMILES O=c1c(O)c(-c2ccc(O)c(O)c2)oc2cc(O)cc(O)c12
REMARK SMILES IDX 5 1 3 2 2 3 1 4 22 5 20 6 19 7 17 8 16 9 15 10 14 11 6 12
REMARK SMILES IDX 7 13 8 14 9 15 13 16 11 17 10 18 12 20 4 22 21 24 18 26
REMARK H PARENT 10 19 12 21 4 23 21 25 18 27
REMARK Flexibility Score: inf
ROOT
ATOM      1  C   UNL     1      12.490 -20.643  18.423  1.00  0.00     0.180 A 
ATOM      2  C   UNL     1      11.916 -21.349  17.352  1.00  0.00     0.208 A 
ATOM      3  C   UNL     1      10.524 -21.539  17.331  1.00  0.00     0.238 A 
ATOM      4  O   UNL     1      10.010 -22.125  16.342  1.00  0.00    -0.285 OA
ATOM      5  C   UNL     1       9.728 -21.034  18.386  1.00  0.00     0.111 A 
ATOM      6  C   UNL     1       8.314 -21.204  18.487  1.00  0.00     0.134 A 
ATOM      7  C   UNL     1       7.610 -20.550  19.507  1.00  0.00     0.093 A 
ATOM      8  C   UNL     1       8.276 -19.789  20.467  1.00  0.00     0.123 A 
ATOM      9  C   UNL     1       9.666 -19.665  20.412  1.00  0.00     0.094 A 
ATOM     10  C   UNL     1      10.390 -20.276  19.386  1.00  0.00     0.146 A 
ATOM     11  O   UNL     1      11.709 -20.125  19.364  1.00  0.00    -0.452 OA
ENDROOT
BRANCH   1  12
ATOM     12  C   UNL     1      13.951 -20.424  18.529  1.00  0.00     0.025 A 
ATOM     13  C   UNL     1      14.757 -21.243  19.335  1.00  0.00     0.016 A 
ATOM     14  C   UNL     1      16.128 -21.002  19.438  1.00  0.00     0.051 A 
ATOM     15  C   UNL     1      16.719 -19.936  18.752  1.00  0.00     0.157 A 
ATOM     16  C   UNL     1      14.538 -19.340  17.858  1.00  0.00     0.062 A 
ATOM     17  C   UNL     1      15.913 -19.091  17.954  1.00  0.00     0.158 A 
BRANCH  15  18
ATOM     18  O   UNL     1      18.097 -19.753  18.894  1.00  0.00    -0.504 OA
ATOM     19  H   UNL     1      18.775 -20.496  18.817  1.00  0.00     0.293 HD
ENDBRANCH  15  18
BRANCH  17  20
ATOM     20  O   UNL     1      16.430 -18.002  17.249  1.00  0.00    -0.504 OA
ATOM     21  H   UNL     1      17.124 -18.080  16.519  1.00  0.00     0.293 HD
ENDBRANCH  17  20
ENDBRANCH   1  12
BRANCH   2  22
ATOM     22  O   UNL     1      12.718 -21.819  16.310  1.00  0.00    -0.502 OA
ATOM     23  H   UNL     1      13.378 -22.579  16.431  1.00  0.00     0.293 HD
ENDBRANCH   2  22
BRANCH   6  24
ATOM     24  O   UNL     1       7.562 -22.018  17.634  1.00  0.00    -0.507 OA
ATOM     25  H   UNL     1       6.738 -21.719  17.134  1.00  0.00     0.293 HD
ENDBRANCH   6  24
BRANCH   8  26
ATOM     26  O   UNL     1       7.547 -19.166  21.476  1.00  0.00    -0.508 OA
ATOM     27  H   UNL     1       7.075 -18.283  21.322  1.00  0.00     0.293 HD
ENDBRANCH   8  26
TORSDOF 6
ENDMDL
MODEL 6
REMARK VINA RESULT:    -5.887      3.890      6.438
REMARK INTER + INTRA:          -7.426
REMARK INTER:                  -7.145
REMARK INTRA:                  -0.281
REMARK UNBOUND:                -0.334
REMARK SMILES O=c1c(O)c(-c2ccc(O)c(O)c2)oc2cc(O)cc(O)c12
REMARK SMILES IDX 5 1 3 2 2 3 1 4 22 5 20 6 19 7 17 8 16 9 15 10 14 11 6 12
REMARK SMILES IDX 7 13 8 14 9 15 13 16 11 17 10 18 12 20 4 22 21 24 18 26
REMARK H PARENT 10 19 12 21 4 23 21 25 18 27
REMARK Flexibility Score: inf
ROOT
ATOM      1  C   UNL     1      18.706 -14.953  21.027  1.00  0.00     0.180 A 
ATOM      2  C   UNL     1      17.410 -15.110  21.549  1.00  0.00     0.208 A 
ATOM      3  C   UNL     1      16.812 -16.380  21.516  1.00  0.00     0.238 A 
ATOM      4  O   UNL     1      15.674 -16.526  22.034  1.00  0.00    -0.285 OA
ATOM      5  C   UNL     1      17.510 -17.473  20.947  1.00  0.00     0.111 A 
ATOM      6  C   UNL     1      16.984 -18.794  20.825  1.00  0.00     0.134 A 
ATOM      7  C   UNL     1      17.811 -19.827  20.365  1.00  0.00     0.093 A 
ATOM      8  C   UNL     1      19.122 -19.574  19.962  1.00  0.00     0.123 A 
ATOM      9  C   UNL     1      19.628 -18.275  20.022  1.00  0.00     0.094 A 
ATOM     10  C   UNL     1      18.837 -17.231  20.510  1.00  0.00     0.146 A 
ATOM     11  O   UNL     1      19.360 -16.011  20.560  1.00  0.00    -0.452 OA
ENDROOT
BRANCH   1  12
ATOM     12  C   UNL     1      19.393 -13.641  21.003  1.00  0.00     0.025 A 
ATOM     13  C   UNL     1      20.363 -13.306  21.960  1.00  0.00     0.016 A 
ATOM     14  C   UNL     1      20.979 -12.054  21.932  1.00  0.00     0.051 A 
ATOM     15  C   UNL     1      20.633 -11.110  20.961  1.00  0.00     0.157 A 
ATOM     16  C   UNL     1      19.028 -12.687  20.040  1.00  0.00     0.062 A 
ATOM     17  C   UNL     1      19.641 -11.428  20.004  1.00  0.00     0.158 A 
BRANCH  15  18
ATOM     18  O   UNL     1      21.291  -9.877  20.985  1.00  0.00    -0.504 OA
ATOM     19  H   UNL     1      21.385  -9.273  20.182  1.00  0.00     0.293 HD
ENDBRANCH  15  18
BRANCH  17  20
ATOM     20  O   UNL     1      19.236 -10.535  19.010  1.00  0.00    -0.504 OA
ATOM     21  H   UNL     1      19.116 -10.788  18.039  1.00  0.00     0.293 HD
ENDBRANCH  17  20
ENDBRANCH   1  12
BRANCH   2  22
ATOM     22  O   UNL     1      16.749 -14.023  22.125  1.00  0.00    -0.502 OA
ATOM     23  H   UNL     1      17.195 -13.408  22.797  1.00  0.00     0.293 HD
ENDBRANCH   2  22
BRANCH   6  24
ATOM     24  O   UNL     1      15.660 -19.138  21.114  1.00  0.00    -0.507 OA
ATOM     25  H   UNL     1      15.382 -19.844  21.778  1.00  0.00     0.293 HD
ENDBRANCH   6  24
BRANCH   8  26
ATOM     26  O   UNL     1      19.911 -20.623  19.495  1.00  0.00    -0.508 OA
ATOM     27  H   UNL     1      20.670 -21.003  20.049  1.00  0.00     0.293 HD
ENDBRANCH   8  26
TORSDOF 6
ENDMDL
MODEL 7
REMARK VINA RESULT:    -5.876      1.844      6.994
REMARK INTER + INTRA:          -7.413
REMARK INTER:                  -7.256
REMARK INTRA:                  -0.156
REMARK UNBOUND:                -0.334
REMARK SMILES O=c1c(O)c(-c2ccc(O)c(O)c2)oc2cc(O)cc(O)c12
REMARK SMILES IDX 5 1 3 2 2 3 1 4 22 5 20 6 19 7 17 8 16 9 15 10 14 11 6 12
REMARK SMILES IDX 7 13 8 14 9 15 13 16 11 17 10 18 12 20 4 22 21 24 18 26
REMARK H PARENT 10 19 12 21 4 23 21 25 18 27
REMARK Flexibility Score: inf
ROOT
ATOM      1  C   UNL     1      14.202 -20.398  18.376  1.00  0.00     0.180 A 
ATOM      2  C   UNL     1      14.686 -21.040  19.530  1.00  0.00     0.208 A 
ATOM      3  C   UNL     1      15.855 -20.554  20.139  1.00  0.00     0.238 A 
ATOM      4  O   UNL     1      16.252 -21.099  21.202  1.00  0.00    -0.285 OA
ATOM      5  C   UNL     1      16.533 -19.445  19.578  1.00  0.00     0.111 A 
ATOM      6  C   UNL     1      17.747 -18.896  20.089  1.00  0.00     0.134 A 
ATOM      7  C   UNL     1      18.260 -17.717  19.533  1.00  0.00     0.093 A 
ATOM      8  C   UNL     1      17.641 -17.106  18.444  1.00  0.00     0.123 A 
ATOM      9  C   UNL     1      16.485 -17.668  17.898  1.00  0.00     0.094 A 
ATOM     10  C   UNL     1      15.930 -18.823  18.455  1.00  0.00     0.146 A 
ATOM     11  O   UNL     1      14.824 -19.320  17.914  1.00  0.00    -0.452 OA
ENDROOT
BRANCH   1  12
ATOM     12  C   UNL     1      12.991 -20.866  17.664  1.00  0.00     0.025 A 
ATOM     13  C   UNL     1      13.057 -21.344  16.346  1.00  0.00     0.016 A 
ATOM     14  C   UNL     1      11.898 -21.757  15.687  1.00  0.00     0.051 A 
ATOM     15  C   UNL     1      10.653 -21.690  16.320  1.00  0.00     0.157 A 
ATOM     16  C   UNL     1      11.740 -20.776  18.294  1.00  0.00     0.062 A 
ATOM     17  C   UNL     1      10.572 -21.189  17.641  1.00  0.00     0.158 A 
BRANCH  15  18
ATOM     18  O   UNL     1       9.533 -22.124  15.607  1.00  0.00    -0.504 OA
ATOM     19  H   UNL     1       8.691 -22.474  16.038  1.00  0.00     0.293 HD
ENDBRANCH  15  18
BRANCH  17  20
ATOM     20  O   UNL     1       9.365 -21.083  18.335  1.00  0.00    -0.504 OA
ATOM     21  H   UNL     1       8.738 -21.858  18.498  1.00  0.00     0.293 HD
ENDBRANCH  17  20
ENDBRANCH   1  12
BRANCH   2  22
ATOM     22  O   UNL     1      13.988 -22.118  20.078  1.00  0.00    -0.502 OA
ATOM     23  H   UNL     1      12.999 -22.072  20.298  1.00  0.00     0.293 HD
ENDBRANCH   2  22
BRANCH   6  24
ATOM     24  O   UNL     1      18.497 -19.478  21.116  1.00  0.00    -0.507 OA
ATOM     25  H   UNL     1      19.328 -19.074  21.520  1.00  0.00     0.293 HD
ENDBRANCH   6  24
BRANCH   8  26
ATOM     26  O   UNL     1      18.187 -15.944  17.905  1.00  0.00    -0.508 OA
ATOM     27  H   UNL     1      18.862 -15.388  18.417  1.00  0.00     0.293 HD
ENDBRANCH   8  26
TORSDOF 6
ENDMDL
MODEL 8
REMARK VINA RESULT:    -5.809      2.254      7.263
REMARK INTER + INTRA:          -7.332
REMARK INTER:                  -7.074
REMARK INTRA:                  -0.258
REMARK UNBOUND:                -0.334
REMARK SMILES O=c1c(O)c(-c2ccc(O)c(O)c2)oc2cc(O)cc(O)c12
REMARK SMILES IDX 5 1 3 2 2 3 1 4 22 5 20 6 19 7 17 8 16 9 15 10 14 11 6 12
REMARK SMILES IDX 7 13 8 14 9 15 13 16 11 17 10 18 12 20 4 22 21 24 18 26
REMARK H PARENT 10 19 12 21 4 23 21 25 18 27
REMARK Flexibility Score: inf
ROOT
ATOM      1  C   UNL     1      16.904 -18.725  19.689  1.00  0.00     0.180 A 
ATOM      2  C   UNL     1      18.180 -19.293  19.846  1.00  0.00     0.208 A 
ATOM      3  C   UNL     1      19.208 -18.513  20.400  1.00  0.00     0.238 A 
ATOM      4  O   UNL     1      20.334 -19.045  20.589  1.00  0.00    -0.285 OA
ATOM      5  C   UNL     1      18.952 -17.173  20.775  1.00  0.00     0.111 A 
ATOM      6  C   UNL     1      19.930 -16.280  21.309  1.00  0.00     0.134 A 
ATOM      7  C   UNL     1      19.536 -15.017  21.767  1.00  0.00     0.093 A 
ATOM      8  C   UNL     1      18.214 -14.589  21.650  1.00  0.00     0.123 A 
ATOM      9  C   UNL     1      17.260 -15.432  21.076  1.00  0.00     0.094 A 
ATOM     10  C   UNL     1      17.618 -16.711  20.642  1.00  0.00     0.146 A 
ATOM     11  O   UNL     1      16.679 -17.486  20.111  1.00  0.00    -0.452 OA
ENDROOT
BRANCH   1  12
ATOM     12  C   UNL     1      15.776 -19.474  19.090  1.00  0.00     0.025 A 
ATOM     13  C   UNL     1      15.316 -19.192  17.794  1.00  0.00     0.016 A 
ATOM     14  C   UNL     1      14.235 -19.895  17.260  1.00  0.00     0.051 A 
ATOM     15  C   UNL     1      13.586 -20.882  18.008  1.00  0.00     0.157 A 
ATOM     16  C   UNL     1      15.111 -20.449  19.851  1.00  0.00     0.062 A 
ATOM     17  C   UNL     1      14.027 -21.161  19.323  1.00  0.00     0.158 A 
BRANCH  15  18
ATOM     18  O   UNL     1      12.514 -21.553  17.413  1.00  0.00    -0.504 OA
ATOM     19  H   UNL     1      12.487 -21.821  16.440  1.00  0.00     0.293 HD
ENDBRANCH  15  18
BRANCH  17  20
ATOM     20  O   UNL     1      13.423 -22.125  20.133  1.00  0.00    -0.504 OA
ATOM     21  H   UNL     1      12.440 -22.352  20.103  1.00  0.00     0.293 HD
ENDBRANCH  17  20
ENDBRANCH   1  12
BRANCH   2  22
ATOM     22  O   UNL     1      18.404 -20.625  19.489  1.00  0.00    -0.502 OA
ATOM     23  H   UNL     1      18.311 -21.388  20.150  1.00  0.00     0.293 HD
ENDBRANCH   2  22
BRANCH   6  24
ATOM     24  O   UNL     1      21.296 -16.573  21.386  1.00  0.00    -0.507 OA
ATOM     25  H   UNL     1      21.967 -16.043  21.921  1.00  0.00     0.293 HD
ENDBRANCH   6  24
BRANCH   8  26
ATOM     26  O   UNL     1      17.859 -13.320  22.102  1.00  0.00    -0.508 OA
ATOM     27  H   UNL     1      17.004 -12.869  21.799  1.00  0.00     0.293 HD
ENDBRANCH   8  26
TORSDOF 6
ENDMDL
MODEL 9
REMARK VINA RESULT:    -5.387      2.571      7.504
REMARK INTER + INTRA:          -6.823
REMARK INTER:                  -7.203
REMARK INTRA:                   0.380
REMARK UNBOUND:                -0.334
REMARK SMILES O=c1c(O)c(-c2ccc(O)c(O)c2)oc2cc(O)cc(O)c12
REMARK SMILES IDX 5 1 3 2 2 3 1 4 22 5 20 6 19 7 17 8 16 9 15 10 14 11 6 12
REMARK SMILES IDX 7 13 8 14 9 15 13 16 11 17 10 18 12 20 4 22 21 24 18 26
REMARK H PARENT 10 19 12 21 4 23 21 25 18 27
REMARK Flexibility Score: inf
ROOT
ATOM      1  C   UNL     1      12.205 -21.511  17.431  1.00  0.00     0.180 A 
ATOM      2  C   UNL     1      11.627 -21.723  18.695  1.00  0.00     0.208 A 
ATOM      3  C   UNL     1      12.422 -21.565  19.842  1.00  0.00     0.238 A 
ATOM      4  O   UNL     1      11.886 -21.702  20.973  1.00  0.00    -0.285 OA
ATOM      5  C   UNL     1      13.787 -21.212  19.710  1.00  0.00     0.111 A 
ATOM      6  C   UNL     1      14.695 -21.064  20.802  1.00  0.00     0.134 A 
ATOM      7  C   UNL     1      15.989 -20.586  20.564  1.00  0.00     0.093 A 
ATOM      8  C   UNL     1      16.429 -20.313  19.269  1.00  0.00     0.123 A 
ATOM      9  C   UNL     1      15.569 -20.510  18.188  1.00  0.00     0.094 A 
ATOM     10  C   UNL     1      14.260 -20.953  18.398  1.00  0.00     0.146 A 
ATOM     11  O   UNL     1      13.470 -21.118  17.344  1.00  0.00    -0.452 OA
ENDROOT
BRANCH   1  12
ATOM     12  C   UNL     1      11.438 -21.684  16.176  1.00  0.00     0.025 A 
ATOM     13  C   UNL     1      12.080 -21.963  14.960  1.00  0.00     0.016 A 
ATOM     14  C   UNL     1      11.338 -22.097  13.785  1.00  0.00     0.051 A 
ATOM     15  C   UNL     1       9.948 -21.944  13.797  1.00  0.00     0.157 A 
ATOM     16  C   UNL     1      10.045 -21.508  16.187  1.00  0.00     0.062 A 
ATOM     17  C   UNL     1       9.293 -21.641  15.013  1.00  0.00     0.158 A 
BRANCH  15  18
ATOM     18  O   UNL     1       9.265 -22.096  12.588  1.00  0.00    -0.504 OA
ATOM     19  H   UNL     1       8.339 -22.491  12.509  1.00  0.00     0.293 HD
ENDBRANCH  15  18
BRANCH  17  20
ATOM     20  O   UNL     1       7.910 -21.465  15.102  1.00  0.00    -0.504 OA
ATOM     21  H   UNL     1       7.426 -20.636  14.789  1.00  0.00     0.293 HD
ENDBRANCH  17  20
ENDBRANCH   1  12
BRANCH   2  22
ATOM     22  O   UNL     1      10.273 -22.049  18.803  1.00  0.00    -0.502 OA
ATOM     23  H   UNL     1       9.945 -22.841  19.344  1.00  0.00     0.293 HD
ENDBRANCH   2  22
BRANCH   6  24
ATOM     24  O   UNL     1      14.386 -21.397  22.125  1.00  0.00    -0.507 OA
ATOM     25  H   UNL     1      15.065 -21.499  22.864  1.00  0.00     0.293 HD
ENDBRANCH   6  24
BRANCH   8  26
ATOM     26  O   UNL     1      17.729 -19.853  19.068  1.00  0.00    -0.508 OA
ATOM     27  H   UNL     1      18.434 -20.432  18.626  1.00  0.00     0.293 HD
ENDBRANCH   8  26
TORSDOF 6
ENDMDL
